REMARK SMILES CC1=C(C)C[C@H](C(=O)OCCOCCOCCOCCOC(=O)c2ccc(-c3c4nc(c(-c5cc(S(=O)(=O)[O-])ccc5F)c5ccc([nH]5)c(-c5cc(S(=O)(=O)[O-])ccc5F)c5nc(c(-c6cc(S(=O)(=O)[O-])ccc6F)c6ccc3[nH]6)C=C5)C=C4)cc2)[C@@H](C(=O)Nc2sc3c(c2C(=O)NC2CCCC2)CCCC3)C1
REMARK SMILES IDX 14 1 13 2 12 3 11 4 10 5 9 6 7 7 8 8 6 9 1 10 2 11 3 12
REMARK SMILES IDX 108 13 4 14 5 15 87 16 88 17 89 18 90 19 91 21 92 22 95 23
REMARK SMILES IDX 93 24 94 25 107 26 104 27 106 28 105 29 96 30 97 31 98 32
REMARK SMILES IDX 99 34 100 35 103 36 101 37 102 38 15 39 16 40 17 41 18 42
REMARK SMILES IDX 19 43 20 44 21 45 22 46 23 47 24 48 25 49 86 50 26 51 85 52
REMARK SMILES IDX 27 53 28 54 29 55 79 56 30 57 84 58 78 59 80 60 31 61 83 62
REMARK SMILES IDX 77 63 76 64 32 66 64 67 44 68 63 69 45 70 48 71 62 72 81 73
REMARK SMILES IDX 46 74 47 75 61 77 82 78 49 79 33 80 34 81 42 82 35 83 41 84
REMARK SMILES IDX 43 85 40 86 36 87 37 88 38 89 39 90 65 91 66 92 74 93 67 94
REMARK SMILES IDX 73 95 75 96 72 97 68 98 69 99 70 100 71 101 50 102 51 103
REMARK SMILES IDX 59 104 52 105 58 106 60 107 57 108 53 109 54 110 55 111
REMARK SMILES IDX 56 112
REMARK H PARENT 90 20 98 33 80 65 48 76
REMARK Flexibility Score: inf
ROOT
ATOM      1  C   UNL     1      -2.006  -4.290   4.953  1.00  0.00     0.188 C 
ENDROOT
BRANCH   1   2
ATOM      2  C   UNL     1      -3.265  -3.721   4.279  1.00  0.00     0.188 C 
BRANCH   2   3
ATOM      3  O   UNL     1      -4.227  -4.720   3.952  1.00  0.00    -0.376 OA
BRANCH   3   4
ATOM      4  C   UNL     1      -4.337  -5.073   2.580  1.00  0.00     0.202 C 
BRANCH   4   5
ATOM      5  C   UNL     1      -3.161  -5.836   1.946  1.00  0.00     0.261 C 
BRANCH   5   6
ATOM      6  O   UNL     1      -1.859  -5.278   2.182  1.00  0.00    -0.463 OA
BRANCH   6   7
ATOM      7  C   UNL     1      -1.612  -4.066   1.637  1.00  0.00     0.310 C 
ATOM      8  O   UNL     1      -2.378  -3.499   0.870  1.00  0.00    -0.252 OA
BRANCH   7   9
ATOM      9  C   UNL     1      -0.270  -3.512   2.134  1.00  0.00     0.116 C 
ATOM     10  C   UNL     1       0.126  -0.558  -1.097  1.00  0.00     0.039 C 
ATOM     11  C   UNL     1       0.148  -1.581   0.009  1.00  0.00    -0.074 C 
ATOM     12  C   UNL     1       0.816  -2.752  -0.080  1.00  0.00    -0.073 C 
ATOM     13  C   UNL     1      -0.661  -1.185   1.230  1.00  0.00     0.045 C 
ATOM     14  C   UNL     1       1.712  -3.141  -1.225  1.00  0.00     0.039 C 
ATOM     15  C   UNL     1       0.724  -3.815   0.993  1.00  0.00     0.046 C 
ATOM     16  C   UNL     1      -0.414  -1.980   2.582  1.00  0.00     0.097 C 
BRANCH  16  17
ATOM     17  C   UNL     1       0.545  -1.435   4.152  1.00  0.00     0.229 C 
ATOM     18  O   UNL     1      -0.045  -2.023   5.098  1.00  0.00    -0.274 OA
ATOM     19  N   UNL     1       2.049  -0.158   4.209  1.00  0.00    -0.317 N 
ATOM     20  H   UNL     1       2.393  -0.066   5.127  1.00  0.00     0.170 HD
BRANCH  19  21
ATOM     21  C   UNL     1       2.852   0.747   3.229  1.00  0.00     0.108 A 
ATOM     22  S   UNL     1       4.574   0.501   3.256  1.00  0.00    -0.122 S 
ATOM     23  C   UNL     1       2.510   1.512   2.119  1.00  0.00     0.078 A 
ATOM     24  C   UNL     1       4.638   0.784   1.571  1.00  0.00     0.011 A 
ATOM     25  C   UNL     1       3.479   1.355   1.094  1.00  0.00    -0.019 A 
ATOM     26  C   UNL     1       5.759   0.466   0.636  1.00  0.00     0.047 C 
ATOM     27  C   UNL     1       3.344   1.634  -0.368  1.00  0.00     0.037 C 
ATOM     28  C   UNL     1       5.932   1.641  -0.355  1.00  0.00     0.006 C 
ATOM     29  C   UNL     1       4.623   2.295  -0.874  1.00  0.00     0.005 C 
BRANCH  23  30
ATOM     30  C   UNL     1       1.251   2.167   1.979  1.00  0.00     0.254 C 
ATOM     31  O   UNL     1       1.041   3.149   1.278  1.00  0.00    -0.269 OA
ATOM     32  N   UNL     1       0.295   1.595   2.725  1.00  0.00    -0.349 N 
ATOM     33  H   UNL     1      -0.539   2.095   2.876  1.00  0.00     0.164 HD
BRANCH  32  34
ATOM     34  C   UNL     1       0.421   0.290   3.318  1.00  0.00     0.082 C 
ATOM     35  C   UNL     1       1.766  -1.205   2.694  1.00  0.00     0.025 C 
ATOM     36  C   UNL     1       0.504   0.344   5.323  1.00  0.00     0.025 C 
ATOM     37  C   UNL     1       2.464  -2.067   4.404  1.00  0.00     0.002 C 
ATOM     38  C   UNL     1       1.702  -1.101   5.980  1.00  0.00     0.002 C 
ENDBRANCH  32  34
ENDBRANCH  23  30
ENDBRANCH  19  21
ENDBRANCH  16  17
ENDBRANCH   7   9
ENDBRANCH   6   7
ENDBRANCH   5   6
ENDBRANCH   4   5
ENDBRANCH   3   4
ENDBRANCH   2   3
ENDBRANCH   1   2
BRANCH   1  39
ATOM     39  O   UNL     1      -1.891  -5.695   4.923  1.00  0.00    -0.377 OA
BRANCH  39  40
ATOM     40  C   UNL     1      -2.783  -6.439   5.740  1.00  0.00     0.188 C 
BRANCH  40  41
ATOM     41  C   UNL     1      -3.889  -5.749   6.582  1.00  0.00     0.188 C 
BRANCH  41  42
ATOM     42  O   UNL     1      -3.619  -4.419   7.008  1.00  0.00    -0.376 OA
BRANCH  42  43
ATOM     43  C   UNL     1      -3.183  -4.199   8.338  1.00  0.00     0.202 C 
BRANCH  43  44
ATOM     44  C   UNL     1      -1.804  -4.750   8.726  1.00  0.00     0.261 C 
BRANCH  44  45
ATOM     45  O   UNL     1      -1.626  -6.162   8.560  1.00  0.00    -0.460 OA
BRANCH  45  46
ATOM     46  C   UNL     1      -2.480  -6.979   9.219  1.00  0.00     0.338 C 
ATOM     47  O   UNL     1      -3.354  -6.652   9.998  1.00  0.00    -0.246 OA
BRANCH  46  48
ATOM     48  C   UNL     1      -2.312  -8.327   8.639  1.00  0.00     0.060 A 
ATOM     49  C   UNL     1      -3.415  -8.950   8.036  1.00  0.00     0.016 A 
ATOM     50  C   UNL     1      -1.054  -8.933   8.621  1.00  0.00     0.016 A 
ATOM     51  C   UNL     1      -3.264 -10.194   7.428  1.00  0.00     0.010 A 
ATOM     52  C   UNL     1      -0.912 -10.197   8.051  1.00  0.00     0.010 A 
ATOM     53  C   UNL     1      -2.025 -10.844   7.484  1.00  0.00    -0.014 A 
BRANCH  53  54
ATOM     54  C   UNL     1      -1.967 -12.299   7.223  1.00  0.00     0.031 A 
ATOM     55  C   UNL     1      -2.163 -13.214   8.399  1.00  0.00     0.074 A 
ATOM     56  C   UNL     1      -1.774 -12.793   5.990  1.00  0.00     0.049 A 
ATOM     57  N   UNL     1      -2.125 -14.518   8.459  1.00  0.00    -0.248 NA
ATOM     58  C   UNL     1      -2.432 -12.554   9.687  1.00  0.00     0.031 C 
ATOM     59  C   UNL     1      -1.637 -12.001   4.771  1.00  0.00     0.029 A 
ATOM     60  N   UNL     1      -1.662 -14.092   5.566  1.00  0.00    -0.354 N 
ATOM     61  C   UNL     1      -2.368 -14.836   9.791  1.00  0.00     0.074 A 
ATOM     62  C   UNL     1      -2.498 -13.587  10.508  1.00  0.00     0.031 C 
ATOM     63  C   UNL     1      -1.457 -12.835   3.731  1.00  0.00     0.029 A 
ATOM     64  C   UNL     1      -1.427 -14.214   4.218  1.00  0.00     0.049 A 
ATOM     65  H   UNL     1      -1.743 -14.865   6.171  1.00  0.00     0.167 HD
ATOM     66  C   UNL     1      -2.483 -16.060  10.362  1.00  0.00     0.034 A 
ATOM     67  C   UNL     1      -1.195 -15.315   3.476  1.00  0.00     0.034 A 
ATOM     68  C   UNL     1      -2.308 -17.292   9.635  1.00  0.00     0.049 A 
ATOM     69  C   UNL     1      -1.193 -16.665   4.154  1.00  0.00     0.074 A 
ATOM     70  C   UNL     1      -2.392 -18.590  10.102  1.00  0.00     0.029 A 
ATOM     71  N   UNL     1      -1.987 -17.375   8.284  1.00  0.00    -0.354 N 
ATOM     72  N   UNL     1      -1.425 -16.963   5.412  1.00  0.00    -0.248 NA
ATOM     73  C   UNL     1      -0.898 -17.828   3.306  1.00  0.00     0.031 C 
ATOM     74  C   UNL     1      -2.039 -19.453   9.058  1.00  0.00     0.029 A 
ATOM     75  C   UNL     1      -1.825 -18.701   7.913  1.00  0.00     0.049 A 
ATOM     76  H   UNL     1      -1.888 -16.604   7.680  1.00  0.00     0.167 HD
ATOM     77  C   UNL     1      -1.339 -18.352   5.499  1.00  0.00     0.074 A 
ATOM     78  C   UNL     1      -1.038 -18.829   4.163  1.00  0.00     0.031 C 
ATOM     79  C   UNL     1      -1.505 -19.160   6.579  1.00  0.00     0.034 A 
BRANCH  66  80
ATOM     80  C   UNL     1      -2.735 -16.093  11.852  1.00  0.00     0.023 A 
ATOM     81  C   UNL     1      -3.882 -15.510  12.421  1.00  0.00     0.031 A 
ATOM     82  C   UNL     1      -1.768 -16.623  12.723  1.00  0.00     0.131 A 
ATOM     83  C   UNL     1      -3.980 -15.372  13.814  1.00  0.00     0.055 A 
ATOM     84  C   UNL     1      -1.920 -16.572  14.110  1.00  0.00     0.041 A 
ATOM     85  F   UNL     1      -0.638 -17.166  12.244  1.00  0.00    -0.206 F 
ATOM     86  C   UNL     1      -3.019 -15.923  14.664  1.00  0.00     0.022 A 
BRANCH  83  87
ATOM     87  S   UNL     1      -5.267 -14.282  14.485  1.00  0.00     0.124 S 
ATOM     88  O   UNL     1      -4.985 -13.029  13.788  1.00  0.00    -0.237 OA
ATOM     89  O   UNL     1      -6.494 -14.967  14.097  1.00  0.00    -0.237 OA
ATOM     90  O   UNL     1      -4.987 -14.264  15.919  1.00  0.00    -0.744 OA
ENDBRANCH  83  87
ENDBRANCH  66  80
BRANCH  67  91
ATOM     91  C   UNL     1      -0.923 -15.194   2.016  1.00  0.00     0.023 A 
ATOM     92  C   UNL     1      -1.808 -15.735   1.069  1.00  0.00     0.031 A 
ATOM     93  C   UNL     1       0.242 -14.563   1.546  1.00  0.00     0.131 A 
ATOM     94  C   UNL     1      -1.499 -15.661  -0.298  1.00  0.00     0.055 A 
ATOM     95  C   UNL     1       0.522 -14.452   0.183  1.00  0.00     0.041 A 
ATOM     96  F   UNL     1       1.123 -14.033   2.409  1.00  0.00    -0.206 F 
ATOM     97  C   UNL     1      -0.347 -15.011  -0.748  1.00  0.00     0.022 A 
BRANCH  94  98
ATOM     98  S   UNL     1      -2.601 -16.479  -1.484  1.00  0.00     0.124 S 
ATOM     99  O   UNL     1      -2.508 -17.872  -1.065  1.00  0.00    -0.237 OA
ATOM    100  O   UNL     1      -3.874 -15.813  -1.225  1.00  0.00    -0.237 OA
ATOM    101  O   UNL     1      -1.994 -16.173  -2.778  1.00  0.00    -0.744 OA
ENDBRANCH  94  98
ENDBRANCH  67  91
BRANCH  79 102
ATOM    102  C   UNL     1      -1.412 -20.650   6.346  1.00  0.00     0.023 A 
ATOM    103  C   UNL     1      -0.210 -21.271   5.964  1.00  0.00     0.031 A 
ATOM    104  C   UNL     1      -2.550 -21.461   6.511  1.00  0.00     0.131 A 
ATOM    105  C   UNL     1      -0.187 -22.650   5.705  1.00  0.00     0.055 A 
ATOM    106  C   UNL     1      -2.505 -22.842   6.316  1.00  0.00     0.041 A 
ATOM    107  F   UNL     1      -3.726 -20.924   6.872  1.00  0.00    -0.206 F 
ATOM    108  C   UNL     1      -1.322 -23.443   5.898  1.00  0.00     0.022 A 
BRANCH 105 109
ATOM    109  S   UNL     1       1.322 -23.384   5.016  1.00  0.00     0.124 S 
ATOM    110  O   UNL     1       1.501 -22.614   3.789  1.00  0.00    -0.237 OA
ATOM    111  O   UNL     1       2.300 -23.138   6.072  1.00  0.00    -0.237 OA
ATOM    112  O   UNL     1       0.963 -24.788   4.820  1.00  0.00    -0.744 OA
ENDBRANCH 105 109
ENDBRANCH  79 102
ENDBRANCH  53  54
ENDBRANCH  46  48
ENDBRANCH  45  46
ENDBRANCH  44  45
ENDBRANCH  43  44
ENDBRANCH  42  43
ENDBRANCH  41  42
ENDBRANCH  40  41
ENDBRANCH  39  40
ENDBRANCH   1  39
TORSDOF 27
