REMARK SMILES O=C(OCCOCCOCCOCCOC(=O)[C@H]1CC(=O)N(c2cccc(OC(F)(F)F)c2)C1)c1ccc(-c2c3nc(c(-c4cc(S(=O)(=O)[O-])ccc4F)c4ccc([nH]4)c(-c4cc(S(=O)(=O)[O-])ccc4F)c4nc(c(-c5cc(S(=O)(=O)[O-])ccc5F)c5ccc2[nH]5)C=C4)C=C3)cc1
REMARK SMILES IDX 9 1 8 2 7 3 6 4 5 5 4 6 3 7 2 8 1 9 35 10 36 11 97 12 37 13
REMARK SMILES IDX 96 14 38 15 39 16 40 17 90 18 41 19 95 20 89 21 91 22 42 23
REMARK SMILES IDX 94 24 88 25 87 26 43 28 75 29 55 30 74 31 56 32 59 33 73 34
REMARK SMILES IDX 92 35 57 36 58 37 72 39 93 40 60 41 44 42 45 43 53 44 46 45
REMARK SMILES IDX 52 46 54 47 51 48 47 49 48 50 49 51 50 52 76 53 77 54 85 55
REMARK SMILES IDX 78 56 84 57 86 58 83 59 79 60 80 61 81 62 82 63 61 64 62 65
REMARK SMILES IDX 70 66 63 67 69 68 71 69 68 70 64 71 65 72 66 73 67 74 10 75
REMARK SMILES IDX 11 76 12 77 13 78 14 79 15 80 16 81 17 82 18 83 19 84 34 85
REMARK SMILES IDX 20 86 22 87 21 88 23 89 24 90 33 91 25 92 27 93 26 94 28 95
REMARK SMILES IDX 29 96 30 97 31 98 32 99
REMARK H PARENT 91 27 59 38
REMARK Flexibility Score: inf
ROOT
ATOM      1  O   UNL     1       5.161   3.182   1.471  1.00  0.00    -0.377 OA
ENDROOT
BRANCH   1   2
ATOM      2  C   UNL     1       5.309   1.842   0.991  1.00  0.00     0.188 C 
BRANCH   2   3
ATOM      3  C   UNL     1       4.139   0.913   1.319  1.00  0.00     0.188 C 
BRANCH   3   4
ATOM      4  O   UNL     1       2.942   1.412   0.745  1.00  0.00    -0.376 OA
BRANCH   4   5
ATOM      5  C   UNL     1       1.691   1.215   1.381  1.00  0.00     0.202 C 
BRANCH   5   6
ATOM      6  C   UNL     1       1.367  -0.186   1.889  1.00  0.00     0.261 C 
BRANCH   6   7
ATOM      7  O   UNL     1       2.376  -1.195   1.661  1.00  0.00    -0.460 OA
BRANCH   7   8
ATOM      8  C   UNL     1       2.614  -1.954   0.561  1.00  0.00     0.338 C 
ATOM      9  O   UNL     1       3.411  -2.885   0.620  1.00  0.00    -0.246 OA
BRANCH   8  10
ATOM     10  C   UNL     1       1.919  -1.689  -0.718  1.00  0.00     0.060 A 
ATOM     11  C   UNL     1       1.762  -0.407  -1.211  1.00  0.00     0.016 A 
ATOM     12  C   UNL     1       1.498  -2.750  -1.518  1.00  0.00     0.016 A 
ATOM     13  C   UNL     1       0.925  -0.133  -2.262  1.00  0.00     0.010 A 
ATOM     14  C   UNL     1       0.824  -2.491  -2.720  1.00  0.00     0.010 A 
ATOM     15  C   UNL     1       0.471  -1.173  -3.054  1.00  0.00    -0.014 A 
BRANCH  15  16
ATOM     16  C   UNL     1      -0.463  -0.818  -4.140  1.00  0.00     0.031 A 
ATOM     17  C   UNL     1      -1.866  -1.333  -4.047  1.00  0.00     0.074 A 
ATOM     18  C   UNL     1      -0.105   0.108  -5.054  1.00  0.00     0.049 A 
ATOM     19  N   UNL     1      -2.845  -1.223  -4.899  1.00  0.00    -0.248 NA
ATOM     20  C   UNL     1      -2.216  -2.070  -2.819  1.00  0.00     0.031 C 
ATOM     21  C   UNL     1       1.198   0.789  -5.108  1.00  0.00     0.029 A 
ATOM     22  N   UNL     1      -0.811   0.688  -6.072  1.00  0.00    -0.354 N 
ATOM     23  C   UNL     1      -3.913  -1.907  -4.330  1.00  0.00     0.074 A 
ATOM     24  C   UNL     1      -3.456  -2.451  -3.073  1.00  0.00     0.031 C 
ATOM     25  C   UNL     1       1.170   1.729  -6.062  1.00  0.00     0.029 A 
ATOM     26  C   UNL     1      -0.091   1.625  -6.779  1.00  0.00     0.049 A 
ATOM     27  H   UNL     1      -1.745   0.458  -6.280  1.00  0.00     0.167 HD
ATOM     28  C   UNL     1      -5.162  -2.057  -4.826  1.00  0.00     0.034 A 
ATOM     29  C   UNL     1      -0.397   2.273  -7.919  1.00  0.00     0.034 A 
ATOM     30  C   UNL     1      -5.563  -1.490  -6.086  1.00  0.00     0.049 A 
ATOM     31  C   UNL     1      -1.744   1.974  -8.525  1.00  0.00     0.074 A 
ATOM     32  C   UNL     1      -6.747  -1.655  -6.777  1.00  0.00     0.029 A 
ATOM     33  N   UNL     1      -4.772  -0.629  -6.843  1.00  0.00    -0.354 N 
ATOM     34  N   UNL     1      -2.708   1.211  -8.055  1.00  0.00    -0.248 NA
ATOM     35  C   UNL     1      -2.045   2.606  -9.812  1.00  0.00     0.031 C 
ATOM     36  C   UNL     1      -6.647  -0.944  -7.979  1.00  0.00     0.029 A 
ATOM     37  C   UNL     1      -5.434  -0.268  -8.002  1.00  0.00     0.049 A 
ATOM     38  H   UNL     1      -3.871  -0.323  -6.590  1.00  0.00     0.167 HD
ATOM     39  C   UNL     1      -3.736   1.282  -8.986  1.00  0.00     0.074 A 
ATOM     40  C   UNL     1      -3.287   2.197 -10.019  1.00  0.00     0.031 C 
ATOM     41  C   UNL     1      -4.937   0.646  -9.004  1.00  0.00     0.034 A 
BRANCH  28  42
ATOM     42  C   UNL     1      -6.102  -2.940  -4.047  1.00  0.00     0.023 A 
ATOM     43  C   UNL     1      -6.542  -2.600  -2.754  1.00  0.00     0.031 A 
ATOM     44  C   UNL     1      -6.479  -4.192  -4.562  1.00  0.00     0.131 A 
ATOM     45  C   UNL     1      -7.263  -3.534  -1.994  1.00  0.00     0.055 A 
ATOM     46  C   UNL     1      -7.266  -5.083  -3.832  1.00  0.00     0.041 A 
ATOM     47  F   UNL     1      -6.054  -4.587  -5.773  1.00  0.00    -0.206 F 
ATOM     48  C   UNL     1      -7.650  -4.763  -2.533  1.00  0.00     0.022 A 
BRANCH  45  49
ATOM     49  S   UNL     1      -7.547  -3.188  -0.235  1.00  0.00     0.124 S 
ATOM     50  O   UNL     1      -6.180  -3.124   0.277  1.00  0.00    -0.237 OA
ATOM     51  O   UNL     1      -8.272  -1.923  -0.273  1.00  0.00    -0.237 OA
ATOM     52  O   UNL     1      -8.324  -4.339   0.221  1.00  0.00    -0.744 OA
ENDBRANCH  45  49
ENDBRANCH  28  42
BRANCH  29  53
ATOM     53  C   UNL     1       0.603   3.143  -8.613  1.00  0.00     0.023 A 
ATOM     54  C   UNL     1       0.312   4.474  -8.954  1.00  0.00     0.031 A 
ATOM     55  C   UNL     1       1.848   2.626  -9.025  1.00  0.00     0.131 A 
ATOM     56  C   UNL     1       1.219   5.213  -9.733  1.00  0.00     0.055 A 
ATOM     57  C   UNL     1       2.776   3.389  -9.735  1.00  0.00     0.041 A 
ATOM     58  F   UNL     1       2.187   1.357  -8.743  1.00  0.00    -0.206 F 
ATOM     59  C   UNL     1       2.455   4.686 -10.112  1.00  0.00     0.022 A 
BRANCH  56  60
ATOM     60  S   UNL     1       0.701   6.835 -10.364  1.00  0.00     0.124 S 
ATOM     61  O   UNL     1      -0.550   6.505 -11.036  1.00  0.00    -0.237 OA
ATOM     62  O   UNL     1       0.584   7.611  -9.134  1.00  0.00    -0.237 OA
ATOM     63  O   UNL     1       1.801   7.224 -11.243  1.00  0.00    -0.744 OA
ENDBRANCH  56  60
ENDBRANCH  29  53
BRANCH  41  64
ATOM     64  C   UNL     1      -5.841   0.969 -10.164  1.00  0.00     0.023 A 
ATOM     65  C   UNL     1      -5.497   0.619 -11.479  1.00  0.00     0.031 A 
ATOM     66  C   UNL     1      -7.045   1.661  -9.949  1.00  0.00     0.131 A 
ATOM     67  C   UNL     1      -6.309   1.034 -12.541  1.00  0.00     0.055 A 
ATOM     68  C   UNL     1      -7.890   2.001 -11.004  1.00  0.00     0.041 A 
ATOM     69  F   UNL     1      -7.416   2.020  -8.710  1.00  0.00    -0.206 F 
ATOM     70  C   UNL     1      -7.514   1.703 -12.311  1.00  0.00     0.022 A 
BRANCH  67  71
ATOM     71  S   UNL     1      -5.701   0.801 -14.232  1.00  0.00     0.124 S 
ATOM     72  O   UNL     1      -4.431   1.519 -14.197  1.00  0.00    -0.237 OA
ATOM     73  O   UNL     1      -5.610  -0.651 -14.334  1.00  0.00    -0.237 OA
ATOM     74  O   UNL     1      -6.740   1.417 -15.056  1.00  0.00    -0.744 OA
ENDBRANCH  67  71
ENDBRANCH  41  64
ENDBRANCH  15  16
ENDBRANCH   8  10
ENDBRANCH   7   8
ENDBRANCH   6   7
ENDBRANCH   5   6
ENDBRANCH   4   5
ENDBRANCH   3   4
ENDBRANCH   2   3
ENDBRANCH   1   2
BRANCH   1  75
ATOM     75  C   UNL     1       3.919   3.823   1.167  1.00  0.00     0.188 C 
BRANCH  75  76
ATOM     76  C   UNL     1       3.570   4.100  -0.320  1.00  0.00     0.188 C 
BRANCH  76  77
ATOM     77  O   UNL     1       4.019   3.079  -1.194  1.00  0.00    -0.376 OA
BRANCH  77  78
ATOM     78  C   UNL     1       4.935   3.410  -2.231  1.00  0.00     0.202 C 
BRANCH  78  79
ATOM     79  C   UNL     1       6.229   4.197  -1.920  1.00  0.00     0.261 C 
BRANCH  79  80
ATOM     80  O   UNL     1       6.291   4.729  -0.592  1.00  0.00    -0.463 OA
BRANCH  80  81
ATOM     81  C   UNL     1       6.254   6.078  -0.439  1.00  0.00     0.311 C 
ATOM     82  O   UNL     1       6.375   6.899  -1.334  1.00  0.00    -0.252 OA
BRANCH  81  83
ATOM     83  C   UNL     1       5.919   6.418   0.991  1.00  0.00     0.128 C 
ATOM     84  C   UNL     1       6.983   7.226   1.698  1.00  0.00     0.117 C 
ATOM     85  C   UNL     1       4.659   7.271   1.036  1.00  0.00     0.141 C 
ATOM     86  C   UNL     1       6.193   8.165   2.576  1.00  0.00     0.227 C 
ATOM     87  N   UNL     1       4.858   8.149   2.153  1.00  0.00    -0.311 N 
ATOM     88  O   UNL     1       6.683   8.827   3.463  1.00  0.00    -0.274 OA
BRANCH  87  89
ATOM     89  C   UNL     1       3.943   9.192   2.400  1.00  0.00     0.047 A 
ATOM     90  C   UNL     1       2.570   8.961   2.525  1.00  0.00     0.026 A 
ATOM     91  C   UNL     1       4.421  10.505   2.387  1.00  0.00     0.073 A 
ATOM     92  C   UNL     1       1.698  10.042   2.677  1.00  0.00     0.006 A 
ATOM     93  C   UNL     1       3.552  11.588   2.452  1.00  0.00     0.131 A 
ATOM     94  C   UNL     1       2.188  11.351   2.633  1.00  0.00     0.047 A 
BRANCH  93  95
ATOM     95  O   UNL     1       3.924  12.898   2.331  1.00  0.00    -0.406 OA
BRANCH  95  96
ATOM     96  C   UNL     1       5.224  13.139   1.807  1.00  0.00     0.573 C 
ATOM     97  F   UNL     1       6.180  12.771   2.687  1.00  0.00    -0.132 F 
ATOM     98  F   UNL     1       5.418  12.496   0.634  1.00  0.00    -0.132 F 
ATOM     99  F   UNL     1       5.364  14.465   1.580  1.00  0.00    -0.132 F 
ENDBRANCH  95  96
ENDBRANCH  93  95
ENDBRANCH  87  89
ENDBRANCH  81  83
ENDBRANCH  80  81
ENDBRANCH  79  80
ENDBRANCH  78  79
ENDBRANCH  77  78
ENDBRANCH  76  77
ENDBRANCH  75  76
ENDBRANCH   1  75
TORSDOF 26
