REMARK SMILES COc1cccc(-c2nn(-c3cc4c(cc3C(N)=O)OCO4)cc2C(=O)OCCOCCOCCOCCOC(=O)c2ccc(-c3c4nc(c(-c5cc(S(=O)(=O)[O-])ccc5F)c5ccc([nH]5)c(-c5cc(S(=O)(=O)[O-])ccc5F)c5nc(c(-c6cc(S(=O)(=O)[O-])ccc6F)c6ccc3[nH]6)C=C5)C=C4)cc2)c1
REMARK SMILES IDX 34 1 33 2 32 3 31 4 30 5 29 6 28 7 27 8 25 9 26 10 24 11
REMARK SMILES IDX 8 12 9 13 10 14 23 15 7 16 3 17 4 18 105 19 5 20 6 21 2 22
REMARK SMILES IDX 1 23 11 24 12 25 16 26 13 27 15 28 14 29 22 30 20 31 21 32
REMARK SMILES IDX 17 33 18 34 19 35 35 38 36 39 37 40 38 41 39 42 40 43 41 44
REMARK SMILES IDX 42 45 43 46 104 47 44 48 103 49 45 50 46 51 47 52 97 53
REMARK SMILES IDX 48 54 102 55 96 56 98 57 49 58 101 59 95 60 94 61 50 63
REMARK SMILES IDX 82 64 62 65 81 66 63 67 66 68 80 69 99 70 64 71 65 72 79 74
REMARK SMILES IDX 100 75 67 76 51 77 52 78 60 79 53 80 59 81 61 82 58 83 54 84
REMARK SMILES IDX 55 85 56 86 57 87 83 88 84 89 92 90 85 91 91 92 93 93 90 94
REMARK SMILES IDX 86 95 87 96 88 97 89 98 68 99 69 100 77 101 70 102 76 103
REMARK SMILES IDX 78 104 75 105 71 106 72 107 73 108 74 109
REMARK H PARENT 18 36 18 37 98 62 66 73
REMARK Flexibility Score: inf
ROOT
ATOM      1  C   UNL     1       3.337   9.910  -0.204  1.00  0.00     0.188 C 
ENDROOT
BRANCH   1   2
ATOM      2  O   UNL     1       3.868   8.605   0.019  1.00  0.00    -0.377 OA
BRANCH   2   3
ATOM      3  C   UNL     1       3.352   7.590  -0.821  1.00  0.00     0.188 C 
BRANCH   3   4
ATOM      4  C   UNL     1       2.128   6.854  -0.226  1.00  0.00     0.188 C 
BRANCH   4   5
ATOM      5  O   UNL     1       1.573   7.227   1.029  1.00  0.00    -0.376 OA
BRANCH   5   6
ATOM      6  C   UNL     1       2.400   7.560   2.130  1.00  0.00     0.202 C 
BRANCH   6   7
ATOM      7  C   UNL     1       3.578   6.670   2.558  1.00  0.00     0.261 C 
BRANCH   7   8
ATOM      8  O   UNL     1       4.363   6.102   1.510  1.00  0.00    -0.460 OA
BRANCH   8   9
ATOM      9  C   UNL     1       4.009   4.833   1.122  1.00  0.00     0.342 C 
ATOM     10  O   UNL     1       3.160   4.157   1.644  1.00  0.00    -0.246 OA
BRANCH   9  11
ATOM     11  C   UNL     1       4.735   4.447  -0.076  1.00  0.00     0.106 A 
ATOM     12  C   UNL     1       4.291   3.742  -1.232  1.00  0.00     0.107 A 
ATOM     13  N   UNL     1       5.311   3.532  -2.087  1.00  0.00    -0.167 NA
ATOM     14  N   UNL     1       6.399   3.929  -1.380  1.00  0.00    -0.239 N 
ATOM     15  C   UNL     1       6.038   4.777  -0.367  1.00  0.00     0.131 A 
BRANCH  12  16
ATOM     16  C   UNL     1       2.924   3.358  -1.564  1.00  0.00     0.007 A 
ATOM     17  C   UNL     1       1.047   1.850  -1.293  1.00  0.00     0.119 A 
ATOM     18  C   UNL     1       0.241   2.737  -2.014  1.00  0.00     0.046 A 
ATOM     19  C   UNL     1       2.387   2.168  -1.060  1.00  0.00     0.056 A 
ATOM     20  C   UNL     1       0.770   3.921  -2.526  1.00  0.00     0.005 A 
ATOM     21  C   UNL     1       2.118   4.217  -2.325  1.00  0.00     0.011 A 
BRANCH  17  22
ATOM     22  O   UNL     1       0.412   0.708  -0.887  1.00  0.00    -0.497 OA
ATOM     23  C   UNL     1       1.077  -0.065   0.104  1.00  0.00     0.278 C 
ENDBRANCH  17  22
ENDBRANCH  12  16
BRANCH  14  24
ATOM     24  C   UNL     1       7.714   3.530  -1.716  1.00  0.00     0.081 A 
ATOM     25  C   UNL     1       8.002   3.290  -3.073  1.00  0.00     0.079 A 
ATOM     26  C   UNL     1       8.723   3.374  -0.714  1.00  0.00     0.069 A 
ATOM     27  C   UNL     1       9.301   2.976  -3.400  1.00  0.00     0.167 A 
ATOM     28  C   UNL     1      10.049   3.155  -1.115  1.00  0.00     0.066 A 
ATOM     29  C   UNL     1      10.296   2.944  -2.453  1.00  0.00     0.166 A 
ATOM     30  O   UNL     1       9.765   2.648  -4.635  1.00  0.00    -0.454 OA
ATOM     31  O   UNL     1      11.505   2.600  -2.974  1.00  0.00    -0.454 OA
ATOM     32  C   UNL     1      11.115   2.251  -4.318  1.00  0.00     0.468 C 
BRANCH  26  33
ATOM     33  C   UNL     1       8.376   3.143   0.735  1.00  0.00     0.251 C 
ATOM     34  N   UNL     1       9.375   3.106   1.666  1.00  0.00    -0.366 N 
ATOM     35  O   UNL     1       7.240   2.895   1.119  1.00  0.00    -0.269 OA
ATOM     36  H   UNL     1      10.303   3.298   1.400  1.00  0.00     0.159 HD
ATOM     37  H   UNL     1       9.167   2.885   2.603  1.00  0.00     0.159 HD
ENDBRANCH  26  33
ENDBRANCH  14  24
ENDBRANCH   9  11
ENDBRANCH   8   9
ENDBRANCH   7   8
ENDBRANCH   6   7
ENDBRANCH   5   6
ENDBRANCH   4   5
ENDBRANCH   3   4
ENDBRANCH   2   3
ENDBRANCH   1   2
BRANCH   1  38
ATOM     38  C   UNL     1       1.821  10.067  -0.490  1.00  0.00     0.188 C 
BRANCH  38  39
ATOM     39  O   UNL     1       1.271   9.112  -1.396  1.00  0.00    -0.376 OA
BRANCH  39  40
ATOM     40  C   UNL     1       0.846   9.486  -2.696  1.00  0.00     0.202 C 
BRANCH  40  41
ATOM     41  C   UNL     1       1.963   9.625  -3.725  1.00  0.00     0.261 C 
BRANCH  41  42
ATOM     42  O   UNL     1       3.059  10.381  -3.248  1.00  0.00    -0.460 OA
BRANCH  42  43
ATOM     43  C   UNL     1       2.773  11.664  -2.952  1.00  0.00     0.338 C 
ATOM     44  O   UNL     1       1.673  12.186  -2.910  1.00  0.00    -0.246 OA
BRANCH  43  45
ATOM     45  C   UNL     1       4.038  12.378  -2.786  1.00  0.00     0.060 A 
ATOM     46  C   UNL     1       3.912  13.752  -2.610  1.00  0.00     0.016 A 
ATOM     47  C   UNL     1       5.224  11.763  -3.223  1.00  0.00     0.016 A 
ATOM     48  C   UNL     1       4.853  14.537  -3.214  1.00  0.00     0.010 A 
ATOM     49  C   UNL     1       6.155  12.550  -3.840  1.00  0.00     0.010 A 
ATOM     50  C   UNL     1       5.880  13.908  -3.926  1.00  0.00    -0.014 A 
BRANCH  50  51
ATOM     51  C   UNL     1       6.679  14.744  -4.778  1.00  0.00     0.031 A 
ATOM     52  C   UNL     1       7.639  15.556  -4.022  1.00  0.00     0.074 A 
ATOM     53  C   UNL     1       6.558  14.734  -6.115  1.00  0.00     0.049 A 
ATOM     54  N   UNL     1       7.585  16.823  -3.804  1.00  0.00    -0.248 NA
ATOM     55  C   UNL     1       8.652  14.840  -3.234  1.00  0.00     0.031 C 
ATOM     56  C   UNL     1       5.842  13.782  -6.965  1.00  0.00     0.029 A 
ATOM     57  N   UNL     1       7.180  15.542  -7.007  1.00  0.00    -0.354 N 
ATOM     58  C   UNL     1       8.708  17.105  -3.044  1.00  0.00     0.074 A 
ATOM     59  C   UNL     1       9.178  15.845  -2.537  1.00  0.00     0.031 C 
ATOM     60  C   UNL     1       6.282  13.920  -8.237  1.00  0.00     0.029 A 
ATOM     61  C   UNL     1       7.212  15.039  -8.297  1.00  0.00     0.049 A 
ATOM     62  H   UNL     1       7.574  16.410  -6.760  1.00  0.00     0.167 HD
ATOM     63  C   UNL     1       9.311  18.319  -3.122  1.00  0.00     0.034 A 
ATOM     64  C   UNL     1       8.053  15.446  -9.284  1.00  0.00     0.034 A 
ATOM     65  C   UNL     1       8.421  19.312  -3.685  1.00  0.00     0.049 A 
ATOM     66  C   UNL     1       8.501  16.823  -8.926  1.00  0.00     0.074 A 
ATOM     67  C   UNL     1       7.158  19.765  -3.345  1.00  0.00     0.029 A 
ATOM     68  N   UNL     1       8.610  19.704  -4.993  1.00  0.00    -0.354 N 
ATOM     69  N   UNL     1       7.691  17.849  -8.867  1.00  0.00    -0.248 NA
ATOM     70  C   UNL     1       9.724  16.969  -8.143  1.00  0.00     0.031 C 
ATOM     71  C   UNL     1       6.479  19.933  -4.587  1.00  0.00     0.029 A 
ATOM     72  C   UNL     1       7.383  19.650  -5.614  1.00  0.00     0.049 A 
ATOM     73  H   UNL     1       9.462  19.973  -5.406  1.00  0.00     0.167 HD
ATOM     74  C   UNL     1       8.077  18.557  -7.736  1.00  0.00     0.074 A 
ATOM     75  C   UNL     1       9.393  18.023  -7.389  1.00  0.00     0.031 C 
ATOM     76  C   UNL     1       7.185  19.299  -7.011  1.00  0.00     0.034 A 
BRANCH  63  77
ATOM     77  C   UNL     1      10.803  18.507  -3.033  1.00  0.00     0.023 A 
ATOM     78  C   UNL     1      11.282  19.825  -3.084  1.00  0.00     0.031 A 
ATOM     79  C   UNL     1      11.777  17.489  -3.182  1.00  0.00     0.131 A 
ATOM     80  C   UNL     1      12.631  20.087  -3.370  1.00  0.00     0.055 A 
ATOM     81  C   UNL     1      13.131  17.756  -3.385  1.00  0.00     0.041 A 
ATOM     82  F   UNL     1      11.473  16.188  -3.241  1.00  0.00    -0.206 F 
ATOM     83  C   UNL     1      13.561  19.062  -3.515  1.00  0.00     0.022 A 
BRANCH  80  84
ATOM     84  S   UNL     1      13.102  21.793  -3.740  1.00  0.00     0.124 S 
ATOM     85  O   UNL     1      12.136  22.146  -4.775  1.00  0.00    -0.237 OA
ATOM     86  O   UNL     1      12.925  22.438  -2.444  1.00  0.00    -0.237 OA
ATOM     87  O   UNL     1      14.485  21.669  -4.193  1.00  0.00    -0.744 OA
ENDBRANCH  80  84
ENDBRANCH  63  77
BRANCH  64  88
ATOM     88  C   UNL     1       8.750  14.545 -10.246  1.00  0.00     0.023 A 
ATOM     89  C   UNL     1       9.348  15.012 -11.433  1.00  0.00     0.031 A 
ATOM     90  C   UNL     1       9.015  13.198  -9.898  1.00  0.00     0.131 A 
ATOM     91  C   UNL     1      10.146  14.144 -12.219  1.00  0.00     0.055 A 
ATOM     92  C   UNL     1       9.784  12.341 -10.686  1.00  0.00     0.041 A 
ATOM     93  F   UNL     1       8.603  12.682  -8.729  1.00  0.00    -0.206 F 
ATOM     94  C   UNL     1      10.359  12.813 -11.851  1.00  0.00     0.022 A 
BRANCH  91  95
ATOM     95  S   UNL     1      11.004  14.768 -13.699  1.00  0.00     0.124 S 
ATOM     96  O   UNL     1       9.898  15.018 -14.616  1.00  0.00    -0.237 OA
ATOM     97  O   UNL     1      11.701  15.941 -13.184  1.00  0.00    -0.237 OA
ATOM     98  O   UNL     1      11.878  13.657 -14.080  1.00  0.00    -0.744 OA
ENDBRANCH  91  95
ENDBRANCH  64  88
BRANCH  76  99
ATOM     99  C   UNL     1       5.809  19.576  -7.591  1.00  0.00     0.023 A 
ATOM    100  C   UNL     1       4.898  18.580  -8.011  1.00  0.00     0.031 A 
ATOM    101  C   UNL     1       5.351  20.906  -7.573  1.00  0.00     0.131 A 
ATOM    102  C   UNL     1       3.590  18.936  -8.398  1.00  0.00     0.055 A 
ATOM    103  C   UNL     1       4.049  21.252  -7.935  1.00  0.00     0.041 A 
ATOM    104  F   UNL     1       6.156  21.898  -7.155  1.00  0.00    -0.206 F 
ATOM    105  C   UNL     1       3.164  20.267  -8.355  1.00  0.00     0.022 A 
BRANCH 102 106
ATOM    106  S   UNL     1       2.413  17.669  -8.974  1.00  0.00     0.124 S 
ATOM    107  O   UNL     1       3.188  16.895  -9.936  1.00  0.00    -0.237 OA
ATOM    108  O   UNL     1       2.058  16.982  -7.735  1.00  0.00    -0.237 OA
ATOM    109  O   UNL     1       1.327  18.457  -9.563  1.00  0.00    -0.744 OA
ENDBRANCH 102 106
ENDBRANCH  76  99
ENDBRANCH  50  51
ENDBRANCH  43  45
ENDBRANCH  42  43
ENDBRANCH  41  42
ENDBRANCH  40  41
ENDBRANCH  39  40
ENDBRANCH  38  39
ENDBRANCH   1  38
TORSDOF 27
