REMARK SMILES Nc1oc2ccc(F)cc2c(=O)c1[C@@H]1[NH2+][C@H](C(=O)OCCOCCOCCOCCOC(=O)c2ccc(-c3c4nc(c(-c5cc(S(=O)(=O)[O-])ccc5F)c5ccc([nH]5)c(-c5cc(S(=O)(=O)[O-])ccc5F)c5nc(c(-c6cc(S(=O)(=O)[O-])ccc6F)c6ccc3[nH]6)C=C5)C=C4)cc2)CS1
REMARK SMILES IDX 26 1 25 2 24 3 23 4 22 5 21 6 20 7 19 8 17 9 18 10 16 11
REMARK SMILES IDX 14 12 15 13 98 14 97 17 13 18 2 19 3 20 4 21 11 22 5 23
REMARK SMILES IDX 10 24 12 25 6 26 9 27 7 28 8 29 1 30 27 33 28 34 29 35 30 36
REMARK SMILES IDX 31 37 32 38 33 39 34 40 35 41 96 42 36 43 95 44 37 45 38 46
REMARK SMILES IDX 39 47 89 48 40 49 94 50 88 51 90 52 41 53 93 54 87 55 86 56
REMARK SMILES IDX 42 58 74 59 54 60 73 61 55 62 58 63 72 64 91 65 56 66 57 67
REMARK SMILES IDX 71 69 92 70 59 71 43 72 44 73 52 74 45 75 51 76 53 77 50 78
REMARK SMILES IDX 46 79 47 80 48 81 49 82 75 83 76 84 84 85 77 86 83 87 85 88
REMARK SMILES IDX 82 89 78 90 79 91 80 92 81 93 60 94 61 95 69 96 62 97 68 98
REMARK SMILES IDX 70 99 67 100 63 101 64 102 65 103 66 104
REMARK H PARENT 15 15 15 16 1 31 1 32 90 57 58 68
REMARK Flexibility Score: inf
ROOT
ATOM      1  C   UNL     1      -2.657   1.838  -1.291  1.00  0.00     0.188 C 
ENDROOT
BRANCH   1   2
ATOM      2  O   UNL     1      -1.296   1.430  -1.317  1.00  0.00    -0.377 OA
BRANCH   2   3
ATOM      3  C   UNL     1      -0.509   1.988  -2.354  1.00  0.00     0.188 C 
BRANCH   3   4
ATOM      4  C   UNL     1      -0.196   1.019  -3.514  1.00  0.00     0.188 C 
BRANCH   4   5
ATOM      5  O   UNL     1      -0.918  -0.203  -3.667  1.00  0.00    -0.376 OA
BRANCH   5   6
ATOM      6  C   UNL     1      -1.173  -1.016  -2.525  1.00  0.00     0.202 C 
BRANCH   6   7
ATOM      7  C   UNL     1      -0.029  -1.356  -1.560  1.00  0.00     0.261 C 
BRANCH   7   8
ATOM      8  O   UNL     1       0.869  -0.264  -1.315  1.00  0.00    -0.459 OA
BRANCH   8   9
ATOM      9  C   UNL     1       2.191  -0.493  -1.463  1.00  0.00     0.365 C 
ATOM     10  O   UNL     1       2.671  -1.571  -1.809  1.00  0.00    -0.245 OA
BRANCH   9  11
ATOM     11  C   UNL     1       3.078   0.746  -1.264  1.00  0.00     0.304 C 
ATOM     12  C   UNL     1       2.449   2.062   0.672  1.00  0.00     0.283 C 
ATOM     13  N   UNL     1       2.431   1.992  -0.792  1.00  0.00    -0.319 N 
ATOM     14  S   UNL     1       3.944   1.200   1.230  1.00  0.00    -0.087 SA
ATOM     15  H   UNL     1       2.934   2.795  -1.171  1.00  0.00     0.348 HD
ATOM     16  H   UNL     1       1.462   2.000  -1.109  1.00  0.00     0.348 HD
ATOM     17  C   UNL     1       4.263   0.415  -0.370  1.00  0.00     0.153 C 
BRANCH  12  18
ATOM     18  C   UNL     1       1.170   1.625   1.333  1.00  0.00     0.128 A 
ATOM     19  C   UNL     1       0.782   0.382   1.695  1.00  0.00     0.205 A 
ATOM     20  O   UNL     1      -0.458   0.106   2.247  1.00  0.00    -0.440 OA
ATOM     21  C   UNL     1      -1.101   1.117   2.895  1.00  0.00     0.140 A 
ATOM     22  C   UNL     1       0.247   2.753   1.682  1.00  0.00     0.205 A 
ATOM     23  C   UNL     1      -2.020   0.765   3.873  1.00  0.00     0.051 A 
ATOM     24  C   UNL     1      -0.821   2.452   2.642  1.00  0.00     0.068 A 
ATOM     25  O   UNL     1       0.420   3.904   1.293  1.00  0.00    -0.288 OA
ATOM     26  C   UNL     1      -2.628   1.768   4.627  1.00  0.00     0.043 A 
ATOM     27  C   UNL     1      -1.469   3.462   3.357  1.00  0.00     0.055 A 
ATOM     28  C   UNL     1      -2.361   3.102   4.356  1.00  0.00     0.124 A 
ATOM     29  F   UNL     1      -2.964   4.053   5.079  1.00  0.00    -0.207 F 
BRANCH  19  30
ATOM     30  N   UNL     1       1.532  -0.751   1.569  1.00  0.00    -0.369 N 
ATOM     31  H   UNL     1       1.167  -1.618   1.861  1.00  0.00     0.159 HD
ATOM     32  H   UNL     1       2.438  -0.702   1.187  1.00  0.00     0.159 HD
ENDBRANCH  19  30
ENDBRANCH  12  18
ENDBRANCH   9  11
ENDBRANCH   8   9
ENDBRANCH   7   8
ENDBRANCH   6   7
ENDBRANCH   5   6
ENDBRANCH   4   5
ENDBRANCH   3   4
ENDBRANCH   2   3
ENDBRANCH   1   2
BRANCH   1  33
ATOM     33  C   UNL     1      -3.412   1.821  -2.637  1.00  0.00     0.188 C 
BRANCH  33  34
ATOM     34  O   UNL     1      -2.777   2.574  -3.667  1.00  0.00    -0.376 OA
BRANCH  34  35
ATOM     35  C   UNL     1      -3.232   3.898  -3.913  1.00  0.00     0.202 C 
BRANCH  35  36
ATOM     36  C   UNL     1      -2.996   4.954  -2.819  1.00  0.00     0.261 C 
BRANCH  36  37
ATOM     37  O   UNL     1      -3.581   4.696  -1.533  1.00  0.00    -0.460 OA
BRANCH  37  38
ATOM     38  C   UNL     1      -4.912   4.477  -1.464  1.00  0.00     0.338 C 
ATOM     39  O   UNL     1      -5.708   4.554  -2.384  1.00  0.00    -0.246 OA
BRANCH  38  40
ATOM     40  C   UNL     1      -5.211   3.905  -0.128  1.00  0.00     0.060 A 
ATOM     41  C   UNL     1      -4.755   4.522   1.037  1.00  0.00     0.016 A 
ATOM     42  C   UNL     1      -5.949   2.717  -0.046  1.00  0.00     0.016 A 
ATOM     43  C   UNL     1      -5.085   3.972   2.281  1.00  0.00     0.010 A 
ATOM     44  C   UNL     1      -6.273   2.166   1.201  1.00  0.00     0.010 A 
ATOM     45  C   UNL     1      -5.870   2.803   2.381  1.00  0.00    -0.014 A 
BRANCH  45  46
ATOM     46  C   UNL     1      -6.450   2.428   3.700  1.00  0.00     0.031 A 
ATOM     47  C   UNL     1      -6.041   1.218   4.485  1.00  0.00     0.074 A 
ATOM     48  C   UNL     1      -7.397   3.234   4.218  1.00  0.00     0.049 A 
ATOM     49  N   UNL     1      -6.158   1.023   5.775  1.00  0.00    -0.248 NA
ATOM     50  C   UNL     1      -5.411   0.099   3.770  1.00  0.00     0.031 C 
ATOM     51  C   UNL     1      -7.993   4.375   3.522  1.00  0.00     0.029 A 
ATOM     52  N   UNL     1      -8.030   3.214   5.434  1.00  0.00    -0.354 N 
ATOM     53  C   UNL     1      -5.480  -0.157   6.048  1.00  0.00     0.074 A 
ATOM     54  C   UNL     1      -5.085  -0.715   4.773  1.00  0.00     0.031 C 
ATOM     55  C   UNL     1      -8.906   4.944   4.321  1.00  0.00     0.029 A 
ATOM     56  C   UNL     1      -8.965   4.209   5.583  1.00  0.00     0.049 A 
ATOM     57  H   UNL     1      -7.833   2.549   6.134  1.00  0.00     0.167 HD
ATOM     58  C   UNL     1      -5.152  -0.660   7.261  1.00  0.00     0.034 A 
ATOM     59  C   UNL     1      -9.777   4.505   6.617  1.00  0.00     0.034 A 
ATOM     60  C   UNL     1      -5.724  -0.194   8.498  1.00  0.00     0.049 A 
ATOM     61  C   UNL     1      -9.612   3.755   7.913  1.00  0.00     0.074 A 
ATOM     62  C   UNL     1      -5.471  -0.646   9.781  1.00  0.00     0.029 A 
ATOM     63  N   UNL     1      -6.732   0.753   8.601  1.00  0.00    -0.354 N 
ATOM     64  N   UNL     1      -8.720   2.845   8.230  1.00  0.00    -0.248 NA
ATOM     65  C   UNL     1     -10.538   4.088   9.003  1.00  0.00     0.031 C 
ATOM     66  C   UNL     1      -6.417  -0.073  10.634  1.00  0.00     0.029 A 
ATOM     67  C   UNL     1      -7.192   0.816   9.906  1.00  0.00     0.049 A 
ATOM     68  H   UNL     1      -7.070   1.301   7.856  1.00  0.00     0.167 HD
ATOM     69  C   UNL     1      -8.954   2.523   9.565  1.00  0.00     0.074 A 
ATOM     70  C   UNL     1     -10.062   3.349   9.998  1.00  0.00     0.031 C 
ATOM     71  C   UNL     1      -8.301   1.630  10.352  1.00  0.00     0.034 A 
BRANCH  58  72
ATOM     72  C   UNL     1      -4.096  -1.730   7.352  1.00  0.00     0.023 A 
ATOM     73  C   UNL     1      -4.412  -3.031   7.770  1.00  0.00     0.031 A 
ATOM     74  C   UNL     1      -2.737  -1.379   7.239  1.00  0.00     0.131 A 
ATOM     75  C   UNL     1      -3.379  -3.927   8.083  1.00  0.00     0.055 A 
ATOM     76  C   UNL     1      -1.712  -2.284   7.520  1.00  0.00     0.041 A 
ATOM     77  F   UNL     1      -2.381  -0.130   6.907  1.00  0.00    -0.206 F 
ATOM     78  C   UNL     1      -2.033  -3.563   7.955  1.00  0.00     0.022 A 
BRANCH  75  79
ATOM     79  S   UNL     1      -3.735  -5.575   8.749  1.00  0.00     0.124 S 
ATOM     80  O   UNL     1      -3.100  -6.439   7.756  1.00  0.00    -0.237 OA
ATOM     81  O   UNL     1      -3.075  -5.529  10.050  1.00  0.00    -0.237 OA
ATOM     82  O   UNL     1      -5.192  -5.631   8.778  1.00  0.00    -0.744 OA
ENDBRANCH  75  79
ENDBRANCH  58  72
BRANCH  59  83
ATOM     83  C   UNL     1     -10.773   5.602   6.449  1.00  0.00     0.023 A 
ATOM     84  C   UNL     1     -11.751   5.521   5.439  1.00  0.00     0.031 A 
ATOM     85  C   UNL     1     -10.696   6.785   7.200  1.00  0.00     0.131 A 
ATOM     86  C   UNL     1     -12.558   6.629   5.157  1.00  0.00     0.055 A 
ATOM     87  C   UNL     1     -11.555   7.860   6.966  1.00  0.00     0.041 A 
ATOM     88  F   UNL     1      -9.771   6.916   8.163  1.00  0.00    -0.206 F 
ATOM     89  C   UNL     1     -12.480   7.792   5.927  1.00  0.00     0.022 A 
BRANCH  86  90
ATOM     90  S   UNL     1     -13.632   6.644   3.695  1.00  0.00     0.124 S 
ATOM     91  O   UNL     1     -14.950   6.851   4.286  1.00  0.00    -0.237 OA
ATOM     92  O   UNL     1     -13.093   7.773   2.941  1.00  0.00    -0.237 OA
ATOM     93  O   UNL     1     -13.412   5.334   3.090  1.00  0.00    -0.744 OA
ENDBRANCH  86  90
ENDBRANCH  59  83
BRANCH  71  94
ATOM     94  C   UNL     1      -8.752   1.451  11.785  1.00  0.00     0.023 A 
ATOM     95  C   UNL     1      -7.846   1.670  12.841  1.00  0.00     0.031 A 
ATOM     96  C   UNL     1     -10.011   0.909  12.098  1.00  0.00     0.131 A 
ATOM     97  C   UNL     1      -8.185   1.290  14.146  1.00  0.00     0.055 A 
ATOM     98  C   UNL     1     -10.371   0.596  13.410  1.00  0.00     0.041 A 
ATOM     99  F   UNL     1     -10.910   0.668  11.130  1.00  0.00    -0.206 F 
ATOM    100  C   UNL     1      -9.448   0.767  14.438  1.00  0.00     0.022 A 
BRANCH  97 101
ATOM    101  S   UNL     1      -6.961   1.347  15.484  1.00  0.00     0.124 S 
ATOM    102  O   UNL     1      -7.576   2.289  16.416  1.00  0.00    -0.237 OA
ATOM    103  O   UNL     1      -6.932  -0.043  15.932  1.00  0.00    -0.237 OA
ATOM    104  O   UNL     1      -5.746   1.820  14.830  1.00  0.00    -0.744 OA
ENDBRANCH  97 101
ENDBRANCH  71  94
ENDBRANCH  45  46
ENDBRANCH  38  40
ENDBRANCH  37  38
ENDBRANCH  36  37
ENDBRANCH  35  36
ENDBRANCH  34  35
ENDBRANCH  33  34
ENDBRANCH   1  33
TORSDOF 25
