REMARK SMILES CCC[NH2+][C@@]1(C(=O)OCCOCCOCCOCCOC(=O)c2ccc(-c3c4nc(c(-c5cc(S(=O)(=O)[O-])ccc5F)c5ccc([nH]5)c(-c5cc(S(=O)(=O)[O-])ccc5F)c5nc(c(-c6cc(S(=O)(=O)[O-])ccc6F)c6ccc3[nH]6)C=C5)C=C4)cc2)CCC[C@@H]1CCOC
REMARK SMILES IDX 14 1 13 2 12 3 11 4 10 5 9 6 8 7 6 8 7 9 5 10 86 11 89 12
REMARK SMILES IDX 87 13 88 14 4 15 3 18 2 19 1 20 90 21 91 22 92 23 93 24
REMARK SMILES IDX 15 25 16 26 17 27 18 28 19 29 20 30 21 31 22 32 23 33 24 34
REMARK SMILES IDX 85 35 25 36 84 37 26 38 27 39 28 40 78 41 29 42 83 43 77 44
REMARK SMILES IDX 79 45 30 46 82 47 76 48 75 49 31 51 63 52 43 53 62 54 44 55
REMARK SMILES IDX 47 56 61 57 80 58 45 59 46 60 60 62 81 63 48 64 32 65 33 66
REMARK SMILES IDX 41 67 34 68 40 69 42 70 39 71 35 72 36 73 37 74 38 75 64 76
REMARK SMILES IDX 65 77 73 78 66 79 72 80 74 81 71 82 67 83 68 84 69 85 70 86
REMARK SMILES IDX 49 87 50 88 58 89 51 90 57 91 59 92 56 93 52 94 53 95 54 96
REMARK SMILES IDX 55 97
REMARK H PARENT 4 16 4 17 79 50 47 61
REMARK Flexibility Score: inf
ROOT
ATOM      1  O   UNL     1      -1.373   3.812   5.646  1.00  0.00    -0.377 OA
ENDROOT
BRANCH   1   2
ATOM      2  C   UNL     1      -1.850   2.961   4.623  1.00  0.00     0.188 C 
BRANCH   2   3
ATOM      3  C   UNL     1      -1.490   1.486   4.790  1.00  0.00     0.188 C 
BRANCH   3   4
ATOM      4  O   UNL     1      -1.027   1.030   6.048  1.00  0.00    -0.376 OA
BRANCH   4   5
ATOM      5  C   UNL     1       0.089   1.674   6.647  1.00  0.00     0.202 C 
BRANCH   5   6
ATOM      6  C   UNL     1       1.276   2.228   5.828  1.00  0.00     0.261 C 
BRANCH   6   7
ATOM      7  O   UNL     1       1.023   2.692   4.484  1.00  0.00    -0.459 OA
BRANCH   7   8
ATOM      8  C   UNL     1       2.147   2.815   3.722  1.00  0.00     0.368 C 
ATOM      9  O   UNL     1       3.262   2.549   4.173  1.00  0.00    -0.245 OA
BRANCH   8  10
ATOM     10  C   UNL     1       1.908   3.140   2.192  1.00  0.00     0.197 C 
ATOM     11  C   UNL     1       3.332   3.200   1.549  1.00  0.00     0.081 C 
ATOM     12  C   UNL     1       1.389   4.531   1.673  1.00  0.00     0.065 C 
ATOM     13  C   UNL     1       3.808   4.625   1.841  1.00  0.00     0.008 C 
ATOM     14  C   UNL     1       2.584   5.494   1.618  1.00  0.00     0.011 C 
BRANCH  10  15
ATOM     15  N   UNL     1       1.058   2.091   1.549  1.00  0.00    -0.332 N 
ATOM     16  H   UNL     1       0.090   2.264   1.817  1.00  0.00     0.347 HD
ATOM     17  H   UNL     1       1.232   2.171   0.547  1.00  0.00     0.347 HD
BRANCH  15  18
ATOM     18  C   UNL     1       1.379   0.708   1.897  1.00  0.00     0.261 C 
BRANCH  18  19
ATOM     19  C   UNL     1       0.640  -0.275   0.978  1.00  0.00     0.058 C 
ATOM     20  C   UNL     1       1.130  -0.242  -0.464  1.00  0.00     0.010 C 
ENDBRANCH  18  19
ENDBRANCH  15  18
ENDBRANCH  10  15
BRANCH  12  21
ATOM     21  C   UNL     1       0.063   5.170   2.094  1.00  0.00     0.039 C 
BRANCH  21  22
ATOM     22  C   UNL     1      -0.078   5.622   3.536  1.00  0.00     0.160 C 
BRANCH  22  23
ATOM     23  O   UNL     1       0.866   6.616   3.904  1.00  0.00    -0.385 OA
ATOM     24  C   UNL     1       1.712   6.154   4.955  1.00  0.00     0.194 C 
ENDBRANCH  22  23
ENDBRANCH  21  22
ENDBRANCH  12  21
ENDBRANCH   8  10
ENDBRANCH   7   8
ENDBRANCH   6   7
ENDBRANCH   5   6
ENDBRANCH   4   5
ENDBRANCH   3   4
ENDBRANCH   2   3
ENDBRANCH   1   2
BRANCH   1  25
ATOM     25  C   UNL     1      -2.188   4.148   6.757  1.00  0.00     0.188 C 
BRANCH  25  26
ATOM     26  C   UNL     1      -3.451   3.345   7.104  1.00  0.00     0.188 C 
BRANCH  26  27
ATOM     27  O   UNL     1      -4.168   2.814   6.000  1.00  0.00    -0.376 OA
BRANCH  27  28
ATOM     28  C   UNL     1      -5.268   3.566   5.496  1.00  0.00     0.202 C 
BRANCH  28  29
ATOM     29  C   UNL     1      -4.956   4.889   4.768  1.00  0.00     0.261 C 
BRANCH  29  30
ATOM     30  O   UNL     1      -4.290   5.891   5.547  1.00  0.00    -0.460 OA
BRANCH  30  31
ATOM     31  C   UNL     1      -4.979   6.354   6.614  1.00  0.00     0.338 C 
ATOM     32  O   UNL     1      -6.094   6.024   6.957  1.00  0.00    -0.246 OA
BRANCH  31  33
ATOM     33  C   UNL     1      -4.087   7.211   7.418  1.00  0.00     0.060 A 
ATOM     34  C   UNL     1      -3.755   6.779   8.706  1.00  0.00     0.016 A 
ATOM     35  C   UNL     1      -3.653   8.451   6.942  1.00  0.00     0.016 A 
ATOM     36  C   UNL     1      -3.051   7.623   9.556  1.00  0.00     0.010 A 
ATOM     37  C   UNL     1      -2.966   9.309   7.807  1.00  0.00     0.010 A 
ATOM     38  C   UNL     1      -2.719   8.917   9.135  1.00  0.00    -0.014 A 
BRANCH  38  39
ATOM     39  C   UNL     1      -2.389   9.910  10.186  1.00  0.00     0.031 A 
ATOM     40  C   UNL     1      -3.510  10.760  10.726  1.00  0.00     0.074 A 
ATOM     41  C   UNL     1      -1.167   9.952  10.744  1.00  0.00     0.049 A 
ATOM     42  N   UNL     1      -3.503  11.626  11.705  1.00  0.00    -0.248 NA
ATOM     43  C   UNL     1      -4.821  10.598  10.076  1.00  0.00     0.031 C 
ATOM     44  C   UNL     1      -0.031   9.121  10.348  1.00  0.00     0.029 A 
ATOM     45  N   UNL     1      -0.686  10.710  11.780  1.00  0.00    -0.354 N 
ATOM     46  C   UNL     1      -4.807  12.107  11.792  1.00  0.00     0.074 A 
ATOM     47  C   UNL     1      -5.564  11.470  10.738  1.00  0.00     0.031 C 
ATOM     48  C   UNL     1       1.016   9.411  11.141  1.00  0.00     0.029 A 
ATOM     49  C   UNL     1       0.635  10.470  12.075  1.00  0.00     0.049 A 
ATOM     50  H   UNL     1      -1.236  11.366  12.268  1.00  0.00     0.167 HD
ATOM     51  C   UNL     1      -5.327  12.987  12.681  1.00  0.00     0.034 A 
ATOM     52  C   UNL     1       1.442  11.051  12.985  1.00  0.00     0.034 A 
ATOM     53  C   UNL     1      -4.551  13.624  13.716  1.00  0.00     0.049 A 
ATOM     54  C   UNL     1       0.864  12.109  13.896  1.00  0.00     0.074 A 
ATOM     55  C   UNL     1      -4.967  14.540  14.665  1.00  0.00     0.029 A 
ATOM     56  N   UNL     1      -3.192  13.423  13.928  1.00  0.00    -0.354 N 
ATOM     57  N   UNL     1      -0.370  12.557  13.970  1.00  0.00    -0.248 NA
ATOM     58  C   UNL     1       1.786  12.727  14.856  1.00  0.00     0.031 C 
ATOM     59  C   UNL     1      -3.847  14.955  15.393  1.00  0.00     0.029 A 
ATOM     60  C   UNL     1      -2.747  14.227  14.967  1.00  0.00     0.049 A 
ATOM     61  H   UNL     1      -2.628  12.800  13.416  1.00  0.00     0.167 HD
ATOM     62  C   UNL     1      -0.375  13.488  15.008  1.00  0.00     0.074 A 
ATOM     63  C   UNL     1       0.971  13.512  15.544  1.00  0.00     0.031 C 
ATOM     64  C   UNL     1      -1.396  14.253  15.478  1.00  0.00     0.034 A 
BRANCH  51  65
ATOM     65  C   UNL     1      -6.784  13.357  12.519  1.00  0.00     0.023 A 
ATOM     66  C   UNL     1      -7.814  12.409  12.659  1.00  0.00     0.031 A 
ATOM     67  C   UNL     1      -7.143  14.672  12.174  1.00  0.00     0.131 A 
ATOM     68  C   UNL     1      -9.142  12.774  12.385  1.00  0.00     0.055 A 
ATOM     69  C   UNL     1      -8.474  15.048  11.987  1.00  0.00     0.041 A 
ATOM     70  F   UNL     1      -6.202  15.613  11.996  1.00  0.00    -0.206 F 
ATOM     71  C   UNL     1      -9.482  14.093  12.077  1.00  0.00     0.022 A 
BRANCH  68  72
ATOM     72  S   UNL     1     -10.398  11.468  12.282  1.00  0.00     0.124 S 
ATOM     73  O   UNL     1      -9.850  10.613  11.232  1.00  0.00    -0.237 OA
ATOM     74  O   UNL     1     -10.388  10.913  13.630  1.00  0.00    -0.237 OA
ATOM     75  O   UNL     1     -11.614  12.191  11.913  1.00  0.00    -0.744 OA
ENDBRANCH  68  72
ENDBRANCH  51  65
BRANCH  52  76
ATOM     76  C   UNL     1       2.889  10.689  13.059  1.00  0.00     0.023 A 
ATOM     77  C   UNL     1       3.453  10.153  14.228  1.00  0.00     0.031 A 
ATOM     78  C   UNL     1       3.747  10.946  11.974  1.00  0.00     0.131 A 
ATOM     79  C   UNL     1       4.840   9.943  14.303  1.00  0.00     0.055 A 
ATOM     80  C   UNL     1       5.115  10.677  12.032  1.00  0.00     0.041 A 
ATOM     81  F   UNL     1       3.265  11.466  10.834  1.00  0.00    -0.206 F 
ATOM     82  C   UNL     1       5.672  10.186  13.208  1.00  0.00     0.022 A 
BRANCH  79  83
ATOM     83  S   UNL     1       5.559   9.441  15.892  1.00  0.00     0.124 S 
ATOM     84  O   UNL     1       5.137  10.530  16.765  1.00  0.00    -0.237 OA
ATOM     85  O   UNL     1       4.920   8.150  16.119  1.00  0.00    -0.237 OA
ATOM     86  O   UNL     1       6.993   9.384  15.613  1.00  0.00    -0.744 OA
ENDBRANCH  79  83
ENDBRANCH  52  76
BRANCH  64  87
ATOM     87  C   UNL     1      -1.093  15.149  16.658  1.00  0.00     0.023 A 
ATOM     88  C   UNL     1      -0.153  16.191  16.575  1.00  0.00     0.031 A 
ATOM     89  C   UNL     1      -1.726  14.932  17.895  1.00  0.00     0.131 A 
ATOM     90  C   UNL     1       0.191  16.918  17.724  1.00  0.00     0.055 A 
ATOM     91  C   UNL     1      -1.441  15.714  19.016  1.00  0.00     0.041 A 
ATOM     92  F   UNL     1      -2.631  13.951  18.040  1.00  0.00    -0.206 F 
ATOM     93  C   UNL     1      -0.462  16.700  18.940  1.00  0.00     0.022 A 
BRANCH  90  94
ATOM     94  S   UNL     1       1.606  18.049  17.644  1.00  0.00     0.124 S 
ATOM     95  O   UNL     1       2.672  17.167  17.178  1.00  0.00    -0.237 OA
ATOM     96  O   UNL     1       1.148  19.054  16.691  1.00  0.00    -0.237 OA
ATOM     97  O   UNL     1       1.748  18.519  19.021  1.00  0.00    -0.744 OA
ENDBRANCH  90  94
ENDBRANCH  64  87
ENDBRANCH  38  39
ENDBRANCH  31  33
ENDBRANCH  30  31
ENDBRANCH  29  30
ENDBRANCH  28  29
ENDBRANCH  27  28
ENDBRANCH  26  27
ENDBRANCH  25  26
ENDBRANCH   1  25
TORSDOF 29
