REMARK SMILES Cc1cccc(-c2ncc(C[NH+]3CCC4(CC3)NC(=O)C[C@H]4C(=O)OCCOCCOCCOCCOC(=O)c3ccc(-c4c5nc(c(-c6cc(S(=O)(=O)[O-])ccc6F)c6ccc([nH]6)c(-c6cc(S(=O)(=O)[O-])ccc6F)c6nc(c(-c7cc(S(=O)(=O)[O-])ccc7F)c7ccc4[nH]7)C=C6)C=C5)cc3)cn2)c1
REMARK SMILES IDX 31 1 30 2 29 3 28 4 27 5 26 6 25 7 23 8 24 9 22 10 12 11
REMARK SMILES IDX 13 12 17 13 14 15 16 16 15 17 18 18 19 19 21 21 20 22 11 23
REMARK SMILES IDX 10 24 7 25 8 26 104 27 9 28 103 29 6 30 1 31 2 32 3 33
REMARK SMILES IDX 105 34 4 35 5 36 32 37 33 38 34 39 35 40 36 41 37 42 38 43
REMARK SMILES IDX 39 44 40 45 41 46 102 47 42 48 101 49 43 50 44 51 45 52
REMARK SMILES IDX 95 53 46 54 100 55 94 56 96 57 47 58 99 59 93 60 92 61 48 63
REMARK SMILES IDX 80 64 60 65 79 66 61 67 64 68 78 69 97 70 62 71 63 72 77 74
REMARK SMILES IDX 98 75 65 76 49 77 50 78 58 79 51 80 57 81 59 82 56 83 52 84
REMARK SMILES IDX 53 85 54 86 55 87 81 88 82 89 90 90 83 91 89 92 91 93 88 94
REMARK SMILES IDX 84 95 85 96 86 97 87 98 66 99 67 100 75 101 68 102 74 103
REMARK SMILES IDX 76 104 73 105 69 106 70 107 71 108 72 109
REMARK H PARENT 12 14 18 20 96 62 64 73
REMARK Flexibility Score: inf
ROOT
ATOM      1  O   UNL     1      -2.331   7.189  -3.072  1.00  0.00    -0.377 OA
ENDROOT
BRANCH   1   2
ATOM      2  C   UNL     1      -2.362   8.046  -1.958  1.00  0.00     0.188 C 
BRANCH   2   3
ATOM      3  C   UNL     1      -2.114   9.524  -2.131  1.00  0.00     0.188 C 
BRANCH   3   4
ATOM      4  O   UNL     1      -1.386   9.901  -3.263  1.00  0.00    -0.376 OA
BRANCH   4   5
ATOM      5  C   UNL     1      -0.291   9.053  -3.548  1.00  0.00     0.202 C 
BRANCH   5   6
ATOM      6  C   UNL     1       0.798   8.822  -2.490  1.00  0.00     0.261 C 
BRANCH   6   7
ATOM      7  O   UNL     1       0.598   7.856  -1.425  1.00  0.00    -0.463 OA
BRANCH   7   8
ATOM      8  C   UNL     1       1.068   8.212  -0.204  1.00  0.00     0.311 C 
ATOM      9  O   UNL     1       1.354   9.367   0.096  1.00  0.00    -0.252 OA
BRANCH   8  10
ATOM     10  C   UNL     1       1.335   7.073   0.785  1.00  0.00     0.134 C 
ATOM     11  N   UNL     1      -2.657   6.774   1.917  1.00  0.00    -0.331 N 
ATOM     12  C   UNL     1      -1.617   7.097   2.867  1.00  0.00     0.264 C 
ATOM     13  C   UNL     1      -2.097   6.740   0.593  1.00  0.00     0.264 C 
ATOM     14  H   UNL     1      -3.296   7.554   2.073  1.00  0.00     0.348 HD
ATOM     15  C   UNL     1      -0.309   6.306   2.715  1.00  0.00     0.091 C 
ATOM     16  C   UNL     1      -0.902   5.829   0.316  1.00  0.00     0.091 C 
ATOM     17  C   UNL     1       0.246   6.070   1.274  1.00  0.00     0.064 C 
ATOM     18  N   UNL     1       1.004   4.822   1.348  1.00  0.00    -0.349 N 
ATOM     19  C   UNL     1       2.233   4.841   0.767  1.00  0.00     0.221 C 
ATOM     20  H   UNL     1       0.647   4.018   1.791  1.00  0.00     0.164 HD
ATOM     21  C   UNL     1       2.534   6.226   0.301  1.00  0.00     0.117 C 
ATOM     22  O   UNL     1       2.970   3.857   0.686  1.00  0.00    -0.275 OA
BRANCH  11  23
ATOM     23  C   UNL     1      -3.731   5.809   2.169  1.00  0.00     0.302 C 
BRANCH  23  24
ATOM     24  C   UNL     1      -3.384   4.387   1.869  1.00  0.00     0.043 A 
ATOM     25  C   UNL     1      -2.100   2.112   1.171  1.00  0.00     0.159 A 
ATOM     26  N   UNL     1      -2.127   2.428   2.481  1.00  0.00    -0.236 NA
ATOM     27  N   UNL     1      -2.717   2.816   0.218  1.00  0.00    -0.236 NA
ATOM     28  C   UNL     1      -2.776   3.567   2.792  1.00  0.00     0.124 A 
ATOM     29  C   UNL     1      -3.435   3.879   0.591  1.00  0.00     0.124 A 
BRANCH  25  30
ATOM     30  C   UNL     1      -1.315   0.953   0.754  1.00  0.00     0.019 A 
ATOM     31  C   UNL     1       2.319  -0.034   0.088  1.00  0.00     0.044 C 
ATOM     32  C   UNL     1       0.826  -0.108   0.218  1.00  0.00    -0.050 A 
ATOM     33  C   UNL     1       0.162  -1.319  -0.007  1.00  0.00     0.003 A 
ATOM     34  C   UNL     1       0.080   1.019   0.596  1.00  0.00     0.015 A 
ATOM     35  C   UNL     1      -1.224  -1.391   0.103  1.00  0.00     0.001 A 
ATOM     36  C   UNL     1      -1.953  -0.264   0.480  1.00  0.00     0.012 A 
ENDBRANCH  25  30
ENDBRANCH  23  24
ENDBRANCH  11  23
ENDBRANCH   8  10
ENDBRANCH   7   8
ENDBRANCH   6   7
ENDBRANCH   5   6
ENDBRANCH   4   5
ENDBRANCH   3   4
ENDBRANCH   2   3
ENDBRANCH   1   2
BRANCH   1  37
ATOM     37  C   UNL     1      -3.029   5.979  -2.826  1.00  0.00     0.188 C 
BRANCH  37  38
ATOM     38  C   UNL     1      -4.434   6.284  -3.192  1.00  0.00     0.188 C 
BRANCH  38  39
ATOM     39  O   UNL     1      -5.132   7.051  -2.236  1.00  0.00    -0.376 OA
BRANCH  39  40
ATOM     40  C   UNL     1      -6.453   6.593  -2.045  1.00  0.00     0.202 C 
BRANCH  40  41
ATOM     41  C   UNL     1      -7.218   6.071  -3.296  1.00  0.00     0.261 C 
BRANCH  41  42
ATOM     42  O   UNL     1      -6.729   6.623  -4.554  1.00  0.00    -0.460 OA
BRANCH  42  43
ATOM     43  C   UNL     1      -6.557   5.728  -5.585  1.00  0.00     0.338 C 
ATOM     44  O   UNL     1      -7.238   4.731  -5.759  1.00  0.00    -0.246 OA
BRANCH  43  45
ATOM     45  C   UNL     1      -5.248   5.973  -6.305  1.00  0.00     0.060 A 
ATOM     46  C   UNL     1      -4.481   4.870  -6.721  1.00  0.00     0.016 A 
ATOM     47  C   UNL     1      -4.630   7.221  -6.258  1.00  0.00     0.016 A 
ATOM     48  C   UNL     1      -3.077   4.973  -6.847  1.00  0.00     0.010 A 
ATOM     49  C   UNL     1      -3.228   7.285  -6.273  1.00  0.00     0.010 A 
ATOM     50  C   UNL     1      -2.419   6.151  -6.486  1.00  0.00    -0.014 A 
BRANCH  50  51
ATOM     51  C   UNL     1      -0.981   6.234  -6.056  1.00  0.00     0.031 A 
ATOM     52  C   UNL     1      -0.127   7.428  -6.448  1.00  0.00     0.074 A 
ATOM     53  C   UNL     1      -0.556   5.424  -5.042  1.00  0.00     0.049 A 
ATOM     54  N   UNL     1       1.077   7.678  -6.039  1.00  0.00    -0.248 NA
ATOM     55  C   UNL     1      -0.582   8.473  -7.368  1.00  0.00     0.031 C 
ATOM     56  C   UNL     1       0.449   5.735  -4.019  1.00  0.00     0.029 A 
ATOM     57  N   UNL     1      -0.984   4.182  -4.610  1.00  0.00    -0.354 N 
ATOM     58  C   UNL     1       1.395   9.010  -6.310  1.00  0.00     0.074 A 
ATOM     59  C   UNL     1       0.362   9.415  -7.232  1.00  0.00     0.031 C 
ATOM     60  C   UNL     1       0.588   4.726  -3.143  1.00  0.00     0.029 A 
ATOM     61  C   UNL     1      -0.069   3.591  -3.723  1.00  0.00     0.049 A 
ATOM     62  H   UNL     1      -1.829   3.762  -4.891  1.00  0.00     0.167 HD
ATOM     63  C   UNL     1       2.376   9.646  -5.572  1.00  0.00     0.034 A 
ATOM     64  C   UNL     1       0.606   2.465  -4.109  1.00  0.00     0.034 A 
ATOM     65  C   UNL     1       3.206   8.678  -4.805  1.00  0.00     0.049 A 
ATOM     66  C   UNL     1       2.064   2.868  -4.620  1.00  0.00     0.074 A 
ATOM     67  C   UNL     1       3.824   8.599  -3.561  1.00  0.00     0.029 A 
ATOM     68  N   UNL     1       3.415   7.424  -5.367  1.00  0.00    -0.354 N 
ATOM     69  N   UNL     1       2.623   4.059  -4.452  1.00  0.00    -0.248 NA
ATOM     70  C   UNL     1       3.001   1.993  -5.329  1.00  0.00     0.031 C 
ATOM     71  C   UNL     1       4.288   7.252  -3.365  1.00  0.00     0.029 A 
ATOM     72  C   UNL     1       4.066   6.551  -4.534  1.00  0.00     0.049 A 
ATOM     73  H   UNL     1       3.122   7.185  -6.276  1.00  0.00     0.167 HD
ATOM     74  C   UNL     1       3.847   4.169  -5.078  1.00  0.00     0.074 A 
ATOM     75  C   UNL     1       4.036   2.821  -5.600  1.00  0.00     0.031 C 
ATOM     76  C   UNL     1       4.585   5.341  -5.153  1.00  0.00     0.034 A 
BRANCH  63  77
ATOM     77  C   UNL     1       2.503  11.182  -5.345  1.00  0.00     0.023 A 
ATOM     78  C   UNL     1       3.585  11.704  -4.584  1.00  0.00     0.031 A 
ATOM     79  C   UNL     1       1.549  12.162  -5.713  1.00  0.00     0.131 A 
ATOM     80  C   UNL     1       3.671  13.070  -4.208  1.00  0.00     0.055 A 
ATOM     81  C   UNL     1       1.667  13.532  -5.394  1.00  0.00     0.041 A 
ATOM     82  F   UNL     1       0.420  11.853  -6.360  1.00  0.00    -0.206 F 
ATOM     83  C   UNL     1       2.725  13.994  -4.631  1.00  0.00     0.022 A 
BRANCH  80  84
ATOM     84  S   UNL     1       5.029  13.640  -3.133  1.00  0.00     0.124 S 
ATOM     85  O   UNL     1       4.661  13.064  -1.843  1.00  0.00    -0.237 OA
ATOM     86  O   UNL     1       6.206  13.073  -3.780  1.00  0.00    -0.237 OA
ATOM     87  O   UNL     1       4.934  15.098  -3.205  1.00  0.00    -0.744 OA
ENDBRANCH  80  84
ENDBRANCH  63  77
BRANCH  64  88
ATOM     88  C   UNL     1      -0.474   1.482  -4.593  1.00  0.00     0.023 A 
ATOM     89  C   UNL     1      -1.466   1.057  -3.622  1.00  0.00     0.031 A 
ATOM     90  C   UNL     1      -0.923   1.577  -5.923  1.00  0.00     0.131 A 
ATOM     91  C   UNL     1      -2.844   0.992  -3.964  1.00  0.00     0.055 A 
ATOM     92  C   UNL     1      -2.296   1.543  -6.233  1.00  0.00     0.041 A 
ATOM     93  F   UNL     1      -0.083   1.942  -6.902  1.00  0.00    -0.206 F 
ATOM     94  C   UNL     1      -3.255   1.337  -5.246  1.00  0.00     0.022 A 
BRANCH  91  95
ATOM     95  S   UNL     1      -4.189   0.574  -2.784  1.00  0.00     0.124 S 
ATOM     96  O   UNL     1      -4.167  -0.884  -2.792  1.00  0.00    -0.237 OA
ATOM     97  O   UNL     1      -3.788   1.203  -1.544  1.00  0.00    -0.237 OA
ATOM     98  O   UNL     1      -5.377   1.183  -3.385  1.00  0.00    -0.744 OA
ENDBRANCH  91  95
ENDBRANCH  64  88
BRANCH  76  99
ATOM     99  C   UNL     1       5.862   5.580  -5.976  1.00  0.00     0.023 A 
ATOM    100  C   UNL     1       6.698   4.540  -6.352  1.00  0.00     0.031 A 
ATOM    101  C   UNL     1       6.275   6.872  -6.438  1.00  0.00     0.131 A 
ATOM    102  C   UNL     1       7.712   4.741  -7.306  1.00  0.00     0.055 A 
ATOM    103  C   UNL     1       7.325   7.082  -7.334  1.00  0.00     0.041 A 
ATOM    104  F   UNL     1       5.687   8.013  -6.059  1.00  0.00    -0.206 F 
ATOM    105  C   UNL     1       8.026   5.999  -7.814  1.00  0.00     0.022 A 
BRANCH 102 106
ATOM    106  S   UNL     1       8.533   3.270  -7.945  1.00  0.00     0.124 S 
ATOM    107  O   UNL     1       9.009   2.626  -6.726  1.00  0.00    -0.237 OA
ATOM    108  O   UNL     1       7.431   2.598  -8.629  1.00  0.00    -0.237 OA
ATOM    109  O   UNL     1       9.574   3.808  -8.817  1.00  0.00    -0.744 OA
ENDBRANCH 102 106
ENDBRANCH  76  99
ENDBRANCH  50  51
ENDBRANCH  43  45
ENDBRANCH  42  43
ENDBRANCH  41  42
ENDBRANCH  40  41
ENDBRANCH  39  40
ENDBRANCH  38  39
ENDBRANCH  37  38
ENDBRANCH   1  37
TORSDOF 26
