REMARK SMILES CC(=O)Nc1cccc(-c2cc(F)ccc2C(=O)OCCOCCOCCOCCOC(=O)c2ccc(-c3c4nc(c(-c5cc(S(=O)(=O)[O-])ccc5F)c5ccc([nH]5)c(-c5cc(S(=O)(=O)[O-])ccc5F)c5nc(c(-c6cc(S(=O)(=O)[O-])ccc6F)c6ccc3[nH]6)C=C5)C=C4)cc2)c1
REMARK SMILES IDX 26 1 25 2 24 3 23 4 22 5 21 6 20 7 19 8 17 9 18 10 16 11
REMARK SMILES IDX 10 12 11 13 12 14 15 15 13 16 14 17 9 18 5 19 6 20 97 21
REMARK SMILES IDX 7 22 8 23 4 24 1 25 2 26 3 27 27 29 28 30 29 31 30 32 31 33
REMARK SMILES IDX 32 34 33 35 34 36 35 37 96 38 36 39 95 40 37 41 38 42 39 43
REMARK SMILES IDX 89 44 40 45 94 46 88 47 90 48 41 49 93 50 87 51 86 52 42 54
REMARK SMILES IDX 74 55 54 56 73 57 55 58 58 59 72 60 91 61 56 62 57 63 71 65
REMARK SMILES IDX 92 66 59 67 43 68 44 69 52 70 45 71 51 72 53 73 50 74 46 75
REMARK SMILES IDX 47 76 48 77 49 78 75 79 76 80 84 81 77 82 83 83 85 84 82 85
REMARK SMILES IDX 78 86 79 87 80 88 81 89 60 90 61 91 69 92 62 93 68 94 70 95
REMARK SMILES IDX 67 96 63 97 64 98 65 99 66 100
REMARK H PARENT 4 28 90 53 58 64
REMARK Flexibility Score: inf
ROOT
ATOM      1  C   UNL     1       4.822  -5.422  -2.144  1.00  0.00     0.188 C 
ENDROOT
BRANCH   1   2
ATOM      2  O   UNL     1       5.231  -4.147  -2.624  1.00  0.00    -0.377 OA
BRANCH   2   3
ATOM      3  C   UNL     1       6.376  -3.506  -2.080  1.00  0.00     0.188 C 
BRANCH   3   4
ATOM      4  C   UNL     1       6.736  -3.594  -0.575  1.00  0.00     0.188 C 
BRANCH   4   5
ATOM      5  O   UNL     1       6.020  -4.556   0.169  1.00  0.00    -0.376 OA
BRANCH   5   6
ATOM      6  C   UNL     1       4.964  -4.188   1.034  1.00  0.00     0.202 C 
BRANCH   6   7
ATOM      7  C   UNL     1       3.960  -3.089   0.668  1.00  0.00     0.261 C 
BRANCH   7   8
ATOM      8  O   UNL     1       4.388  -2.199  -0.362  1.00  0.00    -0.460 OA
BRANCH   8   9
ATOM      9  C   UNL     1       4.841  -0.986   0.006  1.00  0.00     0.338 C 
ATOM     10  O   UNL     1       4.998  -0.587   1.149  1.00  0.00    -0.246 OA
BRANCH   9  11
ATOM     11  C   UNL     1       5.297  -0.224  -1.191  1.00  0.00     0.068 A 
ATOM     12  C   UNL     1       4.591  -0.127  -2.422  1.00  0.00    -0.001 A 
ATOM     13  C   UNL     1       5.173   0.669  -3.432  1.00  0.00     0.048 A 
ATOM     14  C   UNL     1       6.416   1.273  -3.251  1.00  0.00     0.123 A 
ATOM     15  C   UNL     1       6.560   0.385  -1.035  1.00  0.00     0.019 A 
ATOM     16  F   UNL     1       6.943   2.005  -4.241  1.00  0.00    -0.207 F 
ATOM     17  C   UNL     1       7.126   1.118  -2.072  1.00  0.00     0.040 A 
BRANCH  12  18
ATOM     18  C   UNL     1       3.336  -0.860  -2.722  1.00  0.00    -0.015 A 
ATOM     19  C   UNL     1       1.214  -1.802  -1.936  1.00  0.00     0.041 A 
ATOM     20  C   UNL     1       1.128  -2.572  -3.098  1.00  0.00     0.026 A 
ATOM     21  C   UNL     1       2.287  -0.918  -1.790  1.00  0.00     0.034 A 
ATOM     22  C   UNL     1       2.100  -2.458  -4.090  1.00  0.00     0.003 A 
ATOM     23  C   UNL     1       3.201  -1.621  -3.896  1.00  0.00     0.009 A 
BRANCH  19  24
ATOM     24  N   UNL     1       0.296  -2.074  -0.906  1.00  0.00    -0.326 N 
ATOM     25  C   UNL     1       0.365   0.031   0.427  1.00  0.00     0.114 C 
ATOM     26  C   UNL     1       0.029  -1.426   0.265  1.00  0.00     0.221 C 
ATOM     27  O   UNL     1      -0.525  -2.039   1.180  1.00  0.00    -0.275 OA
ATOM     28  H   UNL     1      -0.254  -2.877  -1.057  1.00  0.00     0.169 HD
ENDBRANCH  19  24
ENDBRANCH  12  18
ENDBRANCH   9  11
ENDBRANCH   8   9
ENDBRANCH   7   8
ENDBRANCH   6   7
ENDBRANCH   5   6
ENDBRANCH   4   5
ENDBRANCH   3   4
ENDBRANCH   2   3
ENDBRANCH   1   2
BRANCH   1  29
ATOM     29  C   UNL     1       5.881  -6.482  -1.771  1.00  0.00     0.188 C 
BRANCH  29  30
ATOM     30  O   UNL     1       7.221  -6.053  -1.951  1.00  0.00    -0.376 OA
BRANCH  30  31
ATOM     31  C   UNL     1       7.920  -6.549  -3.079  1.00  0.00     0.202 C 
BRANCH  31  32
ATOM     32  C   UNL     1       7.345  -6.253  -4.473  1.00  0.00     0.261 C 
BRANCH  32  33
ATOM     33  O   UNL     1       5.978  -6.626  -4.699  1.00  0.00    -0.460 OA
BRANCH  33  34
ATOM     34  C   UNL     1       5.677  -7.942  -4.652  1.00  0.00     0.338 C 
ATOM     35  O   UNL     1       6.447  -8.862  -4.432  1.00  0.00    -0.246 OA
BRANCH  34  36
ATOM     36  C   UNL     1       4.207  -8.059  -4.732  1.00  0.00     0.060 A 
ATOM     37  C   UNL     1       3.499  -8.612  -3.656  1.00  0.00     0.016 A 
ATOM     38  C   UNL     1       3.531  -7.609  -5.869  1.00  0.00     0.016 A 
ATOM     39  C   UNL     1       2.111  -8.742  -3.728  1.00  0.00     0.010 A 
ATOM     40  C   UNL     1       2.144  -7.761  -5.948  1.00  0.00     0.010 A 
ATOM     41  C   UNL     1       1.431  -8.356  -4.892  1.00  0.00    -0.014 A 
BRANCH  41  42
ATOM     42  C   UNL     1       0.020  -8.768  -5.098  1.00  0.00     0.031 A 
ATOM     43  C   UNL     1      -0.242  -9.997  -5.927  1.00  0.00     0.074 A 
ATOM     44  C   UNL     1      -1.003  -8.088  -4.548  1.00  0.00     0.049 A 
ATOM     45  N   UNL     1      -1.377 -10.505  -6.329  1.00  0.00    -0.248 NA
ATOM     46  C   UNL     1       0.945 -10.753  -6.361  1.00  0.00     0.031 C 
ATOM     47  C   UNL     1      -0.874  -6.927  -3.668  1.00  0.00     0.029 A 
ATOM     48  N   UNL     1      -2.359  -8.279  -4.654  1.00  0.00    -0.354 N 
ATOM     49  C   UNL     1      -1.043 -11.644  -7.055  1.00  0.00     0.074 A 
ATOM     50  C   UNL     1       0.401 -11.721  -7.081  1.00  0.00     0.031 C 
ATOM     51  C   UNL     1      -2.103  -6.503  -3.324  1.00  0.00     0.029 A 
ATOM     52  C   UNL     1      -3.106  -7.329  -3.996  1.00  0.00     0.049 A 
ATOM     53  H   UNL     1      -2.759  -9.026  -5.156  1.00  0.00     0.167 HD
ATOM     54  C   UNL     1      -1.866 -12.553  -7.632  1.00  0.00     0.034 A 
ATOM     55  C   UNL     1      -4.442  -7.136  -3.969  1.00  0.00     0.034 A 
ATOM     56  C   UNL     1      -3.303 -12.456  -7.617  1.00  0.00     0.049 A 
ATOM     57  C   UNL     1      -5.335  -8.089  -4.739  1.00  0.00     0.074 A 
ATOM     58  C   UNL     1      -4.231 -13.302  -8.198  1.00  0.00     0.029 A 
ATOM     59  N   UNL     1      -4.023 -11.448  -6.989  1.00  0.00    -0.354 N 
ATOM     60  N   UNL     1      -5.006  -9.152  -5.439  1.00  0.00    -0.248 NA
ATOM     61  C   UNL     1      -6.780  -7.819  -4.709  1.00  0.00     0.031 C 
ATOM     62  C   UNL     1      -5.506 -12.770  -7.981  1.00  0.00     0.029 A 
ATOM     63  C   UNL     1      -5.381 -11.639  -7.190  1.00  0.00     0.049 A 
ATOM     64  H   UNL     1      -3.627 -10.706  -6.477  1.00  0.00     0.167 HD
ATOM     65  C   UNL     1      -6.209  -9.701  -5.885  1.00  0.00     0.074 A 
ATOM     66  C   UNL     1      -7.266  -8.861  -5.365  1.00  0.00     0.031 C 
ATOM     67  C   UNL     1      -6.424 -10.800  -6.652  1.00  0.00     0.034 A 
BRANCH  54  68
ATOM     68  C   UNL     1      -1.224 -13.710  -8.355  1.00  0.00     0.023 A 
ATOM     69  C   UNL     1      -0.460 -14.671  -7.669  1.00  0.00     0.031 A 
ATOM     70  C   UNL     1      -1.367 -13.852  -9.746  1.00  0.00     0.131 A 
ATOM     71  C   UNL     1       0.178 -15.696  -8.382  1.00  0.00     0.055 A 
ATOM     72  C   UNL     1      -0.795 -14.920 -10.439  1.00  0.00     0.041 A 
ATOM     73  F   UNL     1      -2.062 -12.949 -10.457  1.00  0.00    -0.206 F 
ATOM     74  C   UNL     1      -0.008 -15.844  -9.759  1.00  0.00     0.022 A 
BRANCH  71  75
ATOM     75  S   UNL     1       1.355 -16.759  -7.504  1.00  0.00     0.124 S 
ATOM     76  O   UNL     1       2.340 -15.784  -7.039  1.00  0.00    -0.237 OA
ATOM     77  O   UNL     1       0.524 -17.368  -6.473  1.00  0.00    -0.237 OA
ATOM     78  O   UNL     1       1.833 -17.671  -8.541  1.00  0.00    -0.744 OA
ENDBRANCH  71  75
ENDBRANCH  54  68
BRANCH  55  79
ATOM     79  C   UNL     1      -5.042  -5.978  -3.239  1.00  0.00     0.023 A 
ATOM     80  C   UNL     1      -6.000  -6.178  -2.231  1.00  0.00     0.031 A 
ATOM     81  C   UNL     1      -4.760  -4.653  -3.618  1.00  0.00     0.131 A 
ATOM     82  C   UNL     1      -6.703  -5.083  -1.704  1.00  0.00     0.055 A 
ATOM     83  C   UNL     1      -5.406  -3.562  -3.034  1.00  0.00     0.041 A 
ATOM     84  F   UNL     1      -3.858  -4.397  -4.580  1.00  0.00    -0.206 F 
ATOM     85  C   UNL     1      -6.401  -3.775  -2.086  1.00  0.00     0.022 A 
BRANCH  82  86
ATOM     86  S   UNL     1      -8.130  -5.410  -0.631  1.00  0.00     0.124 S 
ATOM     87  O   UNL     1      -8.940  -6.277  -1.478  1.00  0.00    -0.237 OA
ATOM     88  O   UNL     1      -7.502  -6.044   0.523  1.00  0.00    -0.237 OA
ATOM     89  O   UNL     1      -8.683  -4.079  -0.388  1.00  0.00    -0.744 OA
ENDBRANCH  82  86
ENDBRANCH  55  79
BRANCH  67  90
ATOM     90  C   UNL     1      -7.859 -11.201  -6.908  1.00  0.00     0.023 A 
ATOM     91  C   UNL     1      -8.735 -10.399  -7.660  1.00  0.00     0.031 A 
ATOM     92  C   UNL     1      -8.355 -12.410  -6.385  1.00  0.00     0.131 A 
ATOM     93  C   UNL     1     -10.075 -10.786  -7.818  1.00  0.00     0.055 A 
ATOM     94  C   UNL     1      -9.670 -12.822  -6.604  1.00  0.00     0.041 A 
ATOM     95  F   UNL     1      -7.565 -13.216  -5.658  1.00  0.00    -0.206 F 
ATOM     96  C   UNL     1     -10.542 -12.002  -7.312  1.00  0.00     0.022 A 
BRANCH  93  97
ATOM     97  S   UNL     1     -11.226  -9.632  -8.614  1.00  0.00     0.124 S 
ATOM     98  O   UNL     1     -11.114  -8.454  -7.760  1.00  0.00    -0.237 OA
ATOM     99  O   UNL     1     -10.663  -9.503  -9.954  1.00  0.00    -0.237 OA
ATOM    100  O   UNL     1     -12.510 -10.328  -8.547  1.00  0.00    -0.744 OA
ENDBRANCH  93  97
ENDBRANCH  67  90
ENDBRANCH  41  42
ENDBRANCH  34  36
ENDBRANCH  33  34
ENDBRANCH  32  33
ENDBRANCH  31  32
ENDBRANCH  30  31
ENDBRANCH  29  30
ENDBRANCH   1  29
TORSDOF 25
