REMARK SMILES CC(C)(C[S@](=O)c1cccc(Cl)c1)C(=O)OCCOCCOCCOCCOC(=O)c1ccc(-c2c3nc(c(-c4cc(S(=O)(=O)[O-])ccc4F)c4ccc([nH]4)c(-c4cc(S(=O)(=O)[O-])ccc4F)c4nc(c(-c5cc(S(=O)(=O)[O-])ccc5F)c5ccc2[nH]5)C=C4)C=C3)cc1
REMARK SMILES IDX 22 1 21 2 20 3 19 4 18 5 17 6 16 7 14 8 15 9 2 10 1 11 3 12
REMARK SMILES IDX 4 13 5 14 6 15 7 16 8 17 13 18 9 19 11 20 10 21 12 22 23 23
REMARK SMILES IDX 24 24 25 25 26 26 27 27 28 28 29 29 30 30 31 31 32 32 93 33
REMARK SMILES IDX 33 34 92 35 34 36 35 37 36 38 86 39 37 40 91 41 85 42 87 43
REMARK SMILES IDX 38 44 90 45 84 46 83 47 39 49 71 50 51 51 70 52 52 53 55 54
REMARK SMILES IDX 69 55 88 56 53 57 54 58 68 60 89 61 56 62 40 63 41 64 49 65
REMARK SMILES IDX 42 66 48 67 50 68 47 69 43 70 44 71 45 72 46 73 72 74 73 75
REMARK SMILES IDX 81 76 74 77 80 78 82 79 79 80 75 81 76 82 77 83 78 84 57 85
REMARK SMILES IDX 58 86 66 87 59 88 65 89 67 90 64 91 60 92 61 93 62 94 63 95
REMARK H PARENT 87 48 55 59
REMARK Flexibility Score: inf
ROOT
ATOM      1  O   UNL     1      -1.923   0.097   2.754  1.00  0.00    -0.377 OA
ENDROOT
BRANCH   1   2
ATOM      2  C   UNL     1      -1.537   0.397   1.431  1.00  0.00     0.188 C 
BRANCH   2   3
ATOM      3  C   UNL     1      -1.385   1.892   1.104  1.00  0.00     0.188 C 
BRANCH   3   4
ATOM      4  O   UNL     1      -1.837   2.888   2.008  1.00  0.00    -0.376 OA
BRANCH   4   5
ATOM      5  C   UNL     1      -2.895   2.606   2.910  1.00  0.00     0.202 C 
BRANCH   5   6
ATOM      6  C   UNL     1      -4.269   2.173   2.360  1.00  0.00     0.261 C 
BRANCH   6   7
ATOM      7  O   UNL     1      -4.345   0.985   1.533  1.00  0.00    -0.463 OA
BRANCH   7   8
ATOM      8  C   UNL     1      -4.450   1.159   0.186  1.00  0.00     0.312 C 
ATOM      9  O   UNL     1      -4.390   2.254  -0.363  1.00  0.00    -0.252 OA
BRANCH   8  10
ATOM     10  C   UNL     1      -4.766  -0.148  -0.590  1.00  0.00     0.074 C 
ATOM     11  C   UNL     1      -4.699   0.132  -2.097  1.00  0.00     0.024 C 
ATOM     12  C   UNL     1      -6.268  -0.389  -0.272  1.00  0.00     0.024 C 
BRANCH  10  13
ATOM     13  C   UNL     1      -4.009  -1.413  -0.125  1.00  0.00     0.128 C 
BRANCH  13  14
ATOM     14  S   UNL     1      -2.643  -2.272  -0.928  1.00  0.00     0.054 S 
ATOM     15  O   UNL     1      -1.683  -2.733   0.127  1.00  0.00    -0.254 OA
BRANCH  14  16
ATOM     16  C   UNL     1      -1.629  -1.365  -2.083  1.00  0.00     0.040 A 
ATOM     17  C   UNL     1      -0.936  -2.150  -3.026  1.00  0.00     0.018 A 
ATOM     18  C   UNL     1      -1.402   0.004  -2.099  1.00  0.00     0.038 A 
ATOM     19  C   UNL     1      -0.127  -1.578  -4.013  1.00  0.00     0.003 A 
ATOM     20  C   UNL     1      -0.613   0.585  -3.101  1.00  0.00     0.042 A 
ATOM     21  C   UNL     1       0.013  -0.198  -4.067  1.00  0.00     0.020 A 
ATOM     22  Cl  UNL     1      -0.435   2.296  -3.159  1.00  0.00    -0.084 Cl
ENDBRANCH  14  16
ENDBRANCH  13  14
ENDBRANCH  10  13
ENDBRANCH   8  10
ENDBRANCH   7   8
ENDBRANCH   6   7
ENDBRANCH   5   6
ENDBRANCH   4   5
ENDBRANCH   3   4
ENDBRANCH   2   3
ENDBRANCH   1   2
BRANCH   1  23
ATOM     23  C   UNL     1      -0.868  -0.271   3.631  1.00  0.00     0.188 C 
BRANCH  23  24
ATOM     24  C   UNL     1       0.436   0.529   3.480  1.00  0.00     0.188 C 
BRANCH  24  25
ATOM     25  O   UNL     1       0.986   0.459   2.170  1.00  0.00    -0.376 OA
BRANCH  25  26
ATOM     26  C   UNL     1       1.927  -0.549   1.836  1.00  0.00     0.202 C 
BRANCH  26  27
ATOM     27  C   UNL     1       1.605  -2.044   2.027  1.00  0.00     0.261 C 
BRANCH  27  28
ATOM     28  O   UNL     1       1.116  -2.470   3.305  1.00  0.00    -0.460 OA
BRANCH  28  29
ATOM     29  C   UNL     1       1.872  -2.211   4.394  1.00  0.00     0.338 C 
ATOM     30  O   UNL     1       2.974  -1.709   4.407  1.00  0.00    -0.246 OA
BRANCH  29  31
ATOM     31  C   UNL     1       1.017  -2.430   5.587  1.00  0.00     0.060 A 
ATOM     32  C   UNL     1       0.872  -1.379   6.501  1.00  0.00     0.016 A 
ATOM     33  C   UNL     1       0.368  -3.650   5.808  1.00  0.00     0.016 A 
ATOM     34  C   UNL     1       0.132  -1.561   7.666  1.00  0.00     0.010 A 
ATOM     35  C   UNL     1      -0.350  -3.842   6.995  1.00  0.00     0.010 A 
ATOM     36  C   UNL     1      -0.425  -2.813   7.951  1.00  0.00    -0.014 A 
BRANCH  36  37
ATOM     37  C   UNL     1      -0.830  -3.097   9.351  1.00  0.00     0.031 A 
ATOM     38  C   UNL     1       0.165  -3.800  10.239  1.00  0.00     0.074 A 
ATOM     39  C   UNL     1      -1.998  -2.656   9.851  1.00  0.00     0.049 A 
ATOM     40  N   UNL     1       0.069  -4.132  11.500  1.00  0.00    -0.248 NA
ATOM     41  C   UNL     1       1.445  -4.176   9.616  1.00  0.00     0.031 C 
ATOM     42  C   UNL     1      -3.009  -1.910   9.102  1.00  0.00     0.029 A 
ATOM     43  N   UNL     1      -2.527  -2.765  11.113  1.00  0.00    -0.354 N 
ATOM     44  C   UNL     1       1.271  -4.758  11.818  1.00  0.00     0.074 A 
ATOM     45  C   UNL     1       2.062  -4.795  10.609  1.00  0.00     0.031 C 
ATOM     46  C   UNL     1      -4.038  -1.631   9.922  1.00  0.00     0.029 A 
ATOM     47  C   UNL     1      -3.778  -2.207  11.240  1.00  0.00     0.049 A 
ATOM     48  H   UNL     1      -2.054  -3.201  11.858  1.00  0.00     0.167 HD
ATOM     49  C   UNL     1       1.680  -5.250  13.013  1.00  0.00     0.034 A 
ATOM     50  C   UNL     1      -4.620  -2.186  12.294  1.00  0.00     0.034 A 
ATOM     51  C   UNL     1       0.875  -5.210  14.208  1.00  0.00     0.049 A 
ATOM     52  C   UNL     1      -4.171  -2.811  13.596  1.00  0.00     0.074 A 
ATOM     53  C   UNL     1       1.188  -5.675  15.473  1.00  0.00     0.029 A 
ATOM     54  N   UNL     1      -0.409  -4.684  14.286  1.00  0.00    -0.354 N 
ATOM     55  N   UNL     1      -3.032  -3.401  13.885  1.00  0.00    -0.248 NA
ATOM     56  C   UNL     1      -5.114  -2.749  14.719  1.00  0.00     0.031 C 
ATOM     57  C   UNL     1       0.066  -5.509  16.291  1.00  0.00     0.029 A 
ATOM     58  C   UNL     1      -0.912  -4.844  15.568  1.00  0.00     0.049 A 
ATOM     59  H   UNL     1      -0.891  -4.259  13.540  1.00  0.00     0.167 HD
ATOM     60  C   UNL     1      -3.110  -3.739  15.236  1.00  0.00     0.074 A 
ATOM     61  C   UNL     1      -4.398  -3.269  15.703  1.00  0.00     0.031 C 
ATOM     62  C   UNL     1      -2.201  -4.374  16.021  1.00  0.00     0.034 A 
BRANCH  49  63
ATOM     63  C   UNL     1       3.028  -5.929  13.063  1.00  0.00     0.023 A 
ATOM     64  C   UNL     1       4.227  -5.237  12.816  1.00  0.00     0.031 A 
ATOM     65  C   UNL     1       3.110  -7.305  13.346  1.00  0.00     0.131 A 
ATOM     66  C   UNL     1       5.446  -5.933  12.797  1.00  0.00     0.055 A 
ATOM     67  C   UNL     1       4.333  -7.974  13.407  1.00  0.00     0.041 A 
ATOM     68  F   UNL     1       1.997  -8.026  13.560  1.00  0.00    -0.206 F 
ATOM     69  C   UNL     1       5.510  -7.290  13.120  1.00  0.00     0.022 A 
BRANCH  66  70
ATOM     70  S   UNL     1       6.932  -5.072  12.211  1.00  0.00     0.124 S 
ATOM     71  O   UNL     1       6.535  -4.684  10.860  1.00  0.00    -0.237 OA
ATOM     72  O   UNL     1       7.068  -3.986  13.175  1.00  0.00    -0.237 OA
ATOM     73  O   UNL     1       7.970  -6.099  12.277  1.00  0.00    -0.744 OA
ENDBRANCH  66  70
ENDBRANCH  49  63
BRANCH  50  74
ATOM     74  C   UNL     1      -5.987  -1.597  12.168  1.00  0.00     0.023 A 
ATOM     75  C   UNL     1      -6.403  -0.522  12.971  1.00  0.00     0.031 A 
ATOM     76  C   UNL     1      -6.933  -2.165  11.294  1.00  0.00     0.131 A 
ATOM     77  C   UNL     1      -7.739  -0.091  12.930  1.00  0.00     0.055 A 
ATOM     78  C   UNL     1      -8.242  -1.689  11.208  1.00  0.00     0.041 A 
ATOM     79  F   UNL     1      -6.596  -3.200  10.507  1.00  0.00    -0.206 F 
ATOM     80  C   UNL     1      -8.657  -0.657  12.043  1.00  0.00     0.022 A 
BRANCH  77  81
ATOM     81  S   UNL     1      -8.295   1.142  14.140  1.00  0.00     0.124 S 
ATOM     82  O   UNL     1      -7.962   0.490  15.401  1.00  0.00    -0.237 OA
ATOM     83  O   UNL     1      -7.484   2.302  13.783  1.00  0.00    -0.237 OA
ATOM     84  O   UNL     1      -9.723   1.273  13.861  1.00  0.00    -0.744 OA
ENDBRANCH  77  81
ENDBRANCH  50  74
BRANCH  62  85
ATOM     85  C   UNL     1      -2.545  -4.532  17.486  1.00  0.00     0.023 A 
ATOM     86  C   UNL     1      -3.653  -5.282  17.917  1.00  0.00     0.031 A 
ATOM     87  C   UNL     1      -1.769  -3.885  18.466  1.00  0.00     0.131 A 
ATOM     88  C   UNL     1      -4.006  -5.293  19.275  1.00  0.00     0.055 A 
ATOM     89  C   UNL     1      -2.076  -3.970  19.824  1.00  0.00     0.041 A 
ATOM     90  F   UNL     1      -0.699  -3.152  18.118  1.00  0.00    -0.206 F 
ATOM     91  C   UNL     1      -3.213  -4.658  20.234  1.00  0.00     0.022 A 
BRANCH  88  92
ATOM     92  S   UNL     1      -5.599  -6.018  19.752  1.00  0.00     0.124 S 
ATOM     93  O   UNL     1      -6.531  -5.289  18.898  1.00  0.00    -0.237 OA
ATOM     94  O   UNL     1      -5.408  -7.428  19.429  1.00  0.00    -0.237 OA
ATOM     95  O   UNL     1      -5.699  -5.717  21.179  1.00  0.00    -0.744 OA
ENDBRANCH  88  92
ENDBRANCH  62  85
ENDBRANCH  36  37
ENDBRANCH  29  31
ENDBRANCH  28  29
ENDBRANCH  27  28
ENDBRANCH  26  27
ENDBRANCH  25  26
ENDBRANCH  24  25
ENDBRANCH  23  24
ENDBRANCH   1  23
TORSDOF 26
