REMARK SMILES CN(C(=O)N[C@@](C)(C(=O)OCCOCCOCCOCCOC(=O)c1ccc(-c2c3nc(c(-c4cc(S(=O)(=O)[O-])ccc4F)c4ccc([nH]4)c(-c4cc(S(=O)(=O)[O-])ccc4F)c4nc(c(-c5cc(S(=O)(=O)[O-])ccc5F)c5ccc2[nH]5)C=C4)C=C3)cc1)C(F)(F)F)c1ccc(F)cc1
REMARK SMILES IDX 16 1 15 2 14 3 13 4 12 5 11 6 10 7 8 8 9 9 6 10 7 11 5 12
REMARK SMILES IDX 3 13 4 14 2 16 1 17 92 18 93 19 98 20 94 21 97 22 95 23
REMARK SMILES IDX 96 24 88 25 89 26 90 27 91 28 17 29 18 30 19 31 20 32 21 33
REMARK SMILES IDX 22 34 23 35 24 36 25 37 26 38 87 39 27 40 86 41 28 42 29 43
REMARK SMILES IDX 30 44 80 45 31 46 85 47 79 48 81 49 32 50 84 51 78 52 77 53
REMARK SMILES IDX 33 55 65 56 45 57 64 58 46 59 49 60 63 61 82 62 47 63 48 64
REMARK SMILES IDX 62 66 83 67 50 68 34 69 35 70 43 71 36 72 42 73 44 74 41 75
REMARK SMILES IDX 37 76 38 77 39 78 40 79 66 80 67 81 75 82 68 83 74 84 76 85
REMARK SMILES IDX 73 86 69 87 70 88 71 89 72 90 51 91 52 92 60 93 53 94 59 95
REMARK SMILES IDX 61 96 58 97 54 98 55 99 56 100 57 101
REMARK H PARENT 5 15 81 54 49 65
REMARK Flexibility Score: inf
ROOT
ATOM      1  O   UNL     1       0.962   4.811  -1.980  1.00  0.00    -0.377 OA
ENDROOT
BRANCH   1   2
ATOM      2  C   UNL     1       1.468   3.731  -1.225  1.00  0.00     0.188 C 
BRANCH   2   3
ATOM      3  C   UNL     1       2.465   2.843  -1.989  1.00  0.00     0.188 C 
BRANCH   3   4
ATOM      4  O   UNL     1       2.919   3.209  -3.284  1.00  0.00    -0.376 OA
BRANCH   4   5
ATOM      5  C   UNL     1       2.058   3.796  -4.250  1.00  0.00     0.202 C 
BRANCH   5   6
ATOM      6  C   UNL     1       0.552   3.464  -4.359  1.00  0.00     0.261 C 
BRANCH   6   7
ATOM      7  O   UNL     1      -0.024   2.674  -3.299  1.00  0.00    -0.461 OA
BRANCH   7   8
ATOM      8  C   UNL     1      -0.005   1.337  -3.494  1.00  0.00     0.341 C 
ATOM      9  O   UNL     1       0.386   0.840  -4.544  1.00  0.00    -0.249 OA
BRANCH   8  10
ATOM     10  C   UNL     1      -0.672   0.538  -2.342  1.00  0.00     0.232 C 
ATOM     11  C   UNL     1      -2.155   0.433  -2.775  1.00  0.00     0.058 C 
BRANCH  10  12
ATOM     12  N   UNL     1      -0.773   1.193  -0.923  1.00  0.00    -0.314 N 
ATOM     13  C   UNL     1      -0.427   1.258   0.385  1.00  0.00     0.322 C 
ATOM     14  O   UNL     1      -1.034   2.166   0.972  1.00  0.00    -0.248 OA
ATOM     15  H   UNL     1      -1.411   1.934  -1.042  1.00  0.00     0.166 HD
BRANCH  13  16
ATOM     16  N   UNL     1       0.514   0.494   1.033  1.00  0.00    -0.298 N 
ATOM     17  C   UNL     1       1.283  -0.570   0.432  1.00  0.00     0.155 C 
BRANCH  16  18
ATOM     18  C   UNL     1       0.803   0.643   2.459  1.00  0.00     0.045 A 
ATOM     19  C   UNL     1      -0.186   0.927   3.414  1.00  0.00     0.029 A 
ATOM     20  C   UNL     1       2.099   0.345   2.943  1.00  0.00     0.029 A 
ATOM     21  C   UNL     1       0.092   0.823   4.790  1.00  0.00     0.041 A 
ATOM     22  C   UNL     1       2.378   0.248   4.310  1.00  0.00     0.041 A 
ATOM     23  C   UNL     1       1.363   0.466   5.223  1.00  0.00     0.123 A 
ATOM     24  F   UNL     1       1.609   0.315   6.532  1.00  0.00    -0.207 F 
ENDBRANCH  16  18
ENDBRANCH  13  16
ENDBRANCH  10  12
BRANCH  10  25
ATOM     25  C   UNL     1      -0.051  -0.852  -2.512  1.00  0.00     0.422 C 
ATOM     26  F   UNL     1       1.289  -0.832  -2.306  1.00  0.00    -0.168 F 
ATOM     27  F   UNL     1      -0.602  -1.741  -1.646  1.00  0.00    -0.168 F 
ATOM     28  F   UNL     1      -0.253  -1.397  -3.733  1.00  0.00    -0.168 F 
ENDBRANCH  10  25
ENDBRANCH   8  10
ENDBRANCH   7   8
ENDBRANCH   6   7
ENDBRANCH   5   6
ENDBRANCH   4   5
ENDBRANCH   3   4
ENDBRANCH   2   3
ENDBRANCH   1   2
BRANCH   1  29
ATOM     29  C   UNL     1       1.561   6.073  -1.760  1.00  0.00     0.188 C 
BRANCH  29  30
ATOM     30  C   UNL     1       3.091   6.104  -1.595  1.00  0.00     0.188 C 
BRANCH  30  31
ATOM     31  O   UNL     1       3.584   5.210  -0.603  1.00  0.00    -0.376 OA
BRANCH  31  32
ATOM     32  C   UNL     1       3.837   5.718   0.700  1.00  0.00     0.202 C 
BRANCH  32  33
ATOM     33  C   UNL     1       2.633   6.171   1.546  1.00  0.00     0.261 C 
BRANCH  33  34
ATOM     34  O   UNL     1       1.812   7.219   1.007  1.00  0.00    -0.460 OA
BRANCH  34  35
ATOM     35  C   UNL     1       2.405   8.387   0.662  1.00  0.00     0.338 C 
ATOM     36  O   UNL     1       3.564   8.688   0.828  1.00  0.00    -0.246 OA
BRANCH  35  37
ATOM     37  C   UNL     1       1.434   9.143  -0.172  1.00  0.00     0.060 A 
ATOM     38  C   UNL     1       1.798   9.493  -1.479  1.00  0.00     0.016 A 
ATOM     39  C   UNL     1       0.163   9.461   0.312  1.00  0.00     0.016 A 
ATOM     40  C   UNL     1       0.898  10.175  -2.301  1.00  0.00     0.010 A 
ATOM     41  C   UNL     1      -0.726  10.171  -0.501  1.00  0.00     0.010 A 
ATOM     42  C   UNL     1      -0.356  10.551  -1.804  1.00  0.00    -0.014 A 
BRANCH  42  43
ATOM     43  C   UNL     1      -1.207  11.490  -2.578  1.00  0.00     0.031 A 
ATOM     44  C   UNL     1      -1.173  12.949  -2.218  1.00  0.00     0.074 A 
ATOM     45  C   UNL     1      -1.993  11.060  -3.581  1.00  0.00     0.049 A 
ATOM     46  N   UNL     1      -1.876  13.943  -2.694  1.00  0.00    -0.248 NA
ATOM     47  C   UNL     1      -0.216  13.331  -1.170  1.00  0.00     0.031 C 
ATOM     48  C   UNL     1      -2.082   9.679  -4.049  1.00  0.00     0.029 A 
ATOM     49  N   UNL     1      -2.883  11.744  -4.374  1.00  0.00    -0.354 N 
ATOM     50  C   UNL     1      -1.460  15.069  -1.992  1.00  0.00     0.074 A 
ATOM     51  C   UNL     1      -0.466  14.623  -1.037  1.00  0.00     0.031 C 
ATOM     52  C   UNL     1      -2.997   9.611  -5.031  1.00  0.00     0.029 A 
ATOM     53  C   UNL     1      -3.592  10.933  -5.229  1.00  0.00     0.049 A 
ATOM     54  H   UNL     1      -3.001  12.720  -4.334  1.00  0.00     0.167 HD
ATOM     55  C   UNL     1      -1.869  16.355  -2.134  1.00  0.00     0.034 A 
ATOM     56  C   UNL     1      -4.630  11.215  -6.043  1.00  0.00     0.034 A 
ATOM     57  C   UNL     1      -2.876  16.773  -3.078  1.00  0.00     0.049 A 
ATOM     58  C   UNL     1      -5.138  12.635  -6.122  1.00  0.00     0.074 A 
ATOM     59  C   UNL     1      -3.336  18.052  -3.338  1.00  0.00     0.029 A 
ATOM     60  N   UNL     1      -3.605  15.918  -3.897  1.00  0.00    -0.354 N 
ATOM     61  N   UNL     1      -4.714  13.702  -5.484  1.00  0.00    -0.248 NA
ATOM     62  C   UNL     1      -6.262  12.889  -7.034  1.00  0.00     0.031 C 
ATOM     63  C   UNL     1      -4.405  17.959  -4.235  1.00  0.00     0.029 A 
ATOM     64  C   UNL     1      -4.551  16.635  -4.616  1.00  0.00     0.049 A 
ATOM     65  H   UNL     1      -3.470  14.944  -3.958  1.00  0.00     0.167 HD
ATOM     66  C   UNL     1      -5.510  14.756  -5.928  1.00  0.00     0.074 A 
ATOM     67  C   UNL     1      -6.425  14.198  -6.904  1.00  0.00     0.031 C 
ATOM     68  C   UNL     1      -5.483  16.065  -5.565  1.00  0.00     0.034 A 
BRANCH  55  69
ATOM     69  C   UNL     1      -1.277  17.376  -1.188  1.00  0.00     0.023 A 
ATOM     70  C   UNL     1       0.102  17.644  -1.147  1.00  0.00     0.031 A 
ATOM     71  C   UNL     1      -2.103  18.048  -0.269  1.00  0.00     0.131 A 
ATOM     72  C   UNL     1       0.624  18.480  -0.147  1.00  0.00     0.055 A 
ATOM     73  C   UNL     1      -1.589  18.953   0.661  1.00  0.00     0.041 A 
ATOM     74  F   UNL     1      -3.425  17.816  -0.240  1.00  0.00    -0.206 F 
ATOM     75  C   UNL     1      -0.215  19.158   0.740  1.00  0.00     0.022 A 
BRANCH  72  76
ATOM     76  S   UNL     1       2.422  18.518   0.098  1.00  0.00     0.124 S 
ATOM     77  O   UNL     1       2.724  17.101   0.284  1.00  0.00    -0.237 OA
ATOM     78  O   UNL     1       2.896  19.114  -1.146  1.00  0.00    -0.237 OA
ATOM     79  O   UNL     1       2.588  19.344   1.292  1.00  0.00    -0.744 OA
ENDBRANCH  72  76
ENDBRANCH  55  69
BRANCH  56  80
ATOM     80  C   UNL     1      -5.306  10.115  -6.790  1.00  0.00     0.023 A 
ATOM     81  C   UNL     1      -5.290  10.055  -8.192  1.00  0.00     0.031 A 
ATOM     82  C   UNL     1      -5.998   9.104  -6.095  1.00  0.00     0.131 A 
ATOM     83  C   UNL     1      -5.969   9.017  -8.854  1.00  0.00     0.055 A 
ATOM     84  C   UNL     1      -6.627   8.049  -6.755  1.00  0.00     0.041 A 
ATOM     85  F   UNL     1      -6.051   9.119  -4.753  1.00  0.00    -0.206 F 
ATOM     86  C   UNL     1      -6.620   8.005  -8.145  1.00  0.00     0.022 A 
BRANCH  83  87
ATOM     87  S   UNL     1      -6.036   9.034 -10.667  1.00  0.00     0.124 S 
ATOM     88  O   UNL     1      -6.723  10.294 -10.928  1.00  0.00    -0.237 OA
ATOM     89  O   UNL     1      -4.621   8.988 -11.023  1.00  0.00    -0.237 OA
ATOM     90  O   UNL     1      -6.795   7.829 -10.991  1.00  0.00    -0.744 OA
ENDBRANCH  83  87
ENDBRANCH  56  80
BRANCH  68  91
ATOM     91  C   UNL     1      -6.463  16.994  -6.247  1.00  0.00     0.023 A 
ATOM     92  C   UNL     1      -7.852  16.871  -6.062  1.00  0.00     0.031 A 
ATOM     93  C   UNL     1      -6.001  18.019  -7.092  1.00  0.00     0.131 A 
ATOM     94  C   UNL     1      -8.729  17.723  -6.753  1.00  0.00     0.055 A 
ATOM     95  C   UNL     1      -6.875  18.907  -7.722  1.00  0.00     0.041 A 
ATOM     96  F   UNL     1      -4.686  18.182  -7.314  1.00  0.00    -0.206 F 
ATOM     97  C   UNL     1      -8.248  18.753  -7.565  1.00  0.00     0.022 A 
BRANCH  94  98
ATOM     98  S   UNL     1     -10.512  17.402  -6.659  1.00  0.00     0.124 S 
ATOM     99  O   UNL     1     -10.600  16.038  -7.170  1.00  0.00    -0.237 OA
ATOM    100  O   UNL     1     -10.786  17.570  -5.236  1.00  0.00    -0.237 OA
ATOM    101  O   UNL     1     -11.091  18.426  -7.526  1.00  0.00    -0.744 OA
ENDBRANCH  94  98
ENDBRANCH  68  91
ENDBRANCH  42  43
ENDBRANCH  35  37
ENDBRANCH  34  35
ENDBRANCH  33  34
ENDBRANCH  32  33
ENDBRANCH  31  32
ENDBRANCH  30  31
ENDBRANCH  29  30
ENDBRANCH   1  29
TORSDOF 27
