REMARK SMILES Cc1ccc(S(=O)(=O)N(c2ccccc2)[C@H](C)C(=O)OCCOCCOCCOCCOC(=O)c2ccc(-c3c4nc(c(-c5cc(S(=O)(=O)[O-])ccc5F)c5ccc([nH]5)c(-c5cc(S(=O)(=O)[O-])ccc5F)c5nc(c(-c6cc(S(=O)(=O)[O-])ccc6F)c6ccc3[nH]6)C=C5)C=C4)cc2)cc1
REMARK SMILES IDX 26 1 25 2 24 3 23 4 22 5 21 6 20 7 18 8 19 9 16 10 17 11
REMARK SMILES IDX 9 12 6 13 7 14 8 15 5 16 1 17 2 18 3 19 99 20 4 21 98 22
REMARK SMILES IDX 10 23 11 24 15 25 12 26 14 27 13 28 27 29 28 30 29 31 30 32
REMARK SMILES IDX 31 33 32 34 33 35 34 36 35 37 36 38 97 39 37 40 96 41 38 42
REMARK SMILES IDX 39 43 40 44 90 45 41 46 95 47 89 48 91 49 42 50 94 51 88 52
REMARK SMILES IDX 87 53 43 55 75 56 55 57 74 58 56 59 59 60 73 61 92 62 57 63
REMARK SMILES IDX 58 64 72 66 93 67 60 68 44 69 45 70 53 71 46 72 52 73 54 74
REMARK SMILES IDX 51 75 47 76 48 77 49 78 50 79 76 80 77 81 85 82 78 83 84 84
REMARK SMILES IDX 86 85 83 86 79 87 80 88 81 89 82 90 61 91 62 92 70 93 63 94
REMARK SMILES IDX 69 95 71 96 68 97 64 98 65 99 66 100 67 101
REMARK H PARENT 91 54 59 65
REMARK Flexibility Score: inf
ROOT
ATOM      1  O   UNL     1      -3.961   1.523   2.394  1.00  0.00    -0.377 OA
ENDROOT
BRANCH   1   2
ATOM      2  C   UNL     1      -3.863   2.878   2.024  1.00  0.00     0.188 C 
BRANCH   2   3
ATOM      3  C   UNL     1      -5.032   3.811   2.380  1.00  0.00     0.188 C 
BRANCH   3   4
ATOM      4  O   UNL     1      -6.098   3.339   3.188  1.00  0.00    -0.376 OA
BRANCH   4   5
ATOM      5  C   UNL     1      -6.814   2.195   2.746  1.00  0.00     0.202 C 
BRANCH   5   6
ATOM      6  C   UNL     1      -7.486   2.321   1.393  1.00  0.00     0.261 C 
BRANCH   6   7
ATOM      7  O   UNL     1      -6.555   2.011   0.337  1.00  0.00    -0.462 OA
BRANCH   7   8
ATOM      8  C   UNL     1      -6.354   2.982  -0.581  1.00  0.00     0.329 C 
ATOM      9  O   UNL     1      -6.818   4.116  -0.510  1.00  0.00    -0.250 OA
BRANCH   8  10
ATOM     10  C   UNL     1      -5.470   2.539  -1.738  1.00  0.00     0.206 C 
ATOM     11  C   UNL     1      -4.149   1.884  -1.338  1.00  0.00     0.045 C 
BRANCH  10  12
ATOM     12  N   UNL     1      -6.172   1.772  -2.811  1.00  0.00    -0.252 N 
BRANCH  12  13
ATOM     13  S   UNL     1      -7.593   2.588  -3.379  1.00  0.00     0.265 S 
ATOM     14  O   UNL     1      -7.157   3.892  -3.834  1.00  0.00    -0.201 OA
ATOM     15  O   UNL     1      -8.651   2.452  -2.397  1.00  0.00    -0.201 OA
BRANCH  13  16
ATOM     16  C   UNL     1      -8.073   1.659  -4.817  1.00  0.00     0.088 A 
ATOM     17  C   UNL     1      -8.553  -0.942  -8.178  1.00  0.00     0.044 C 
ATOM     18  C   UNL     1      -8.434  -0.002  -7.020  1.00  0.00    -0.051 A 
ATOM     19  C   UNL     1      -8.077   1.343  -7.199  1.00  0.00     0.005 A 
ATOM     20  C   UNL     1      -8.737  -0.465  -5.740  1.00  0.00     0.005 A 
ATOM     21  C   UNL     1      -7.865   2.172  -6.094  1.00  0.00     0.022 A 
ATOM     22  C   UNL     1      -8.626   0.391  -4.655  1.00  0.00     0.022 A 
ENDBRANCH  13  16
ENDBRANCH  12  13
BRANCH  12  23
ATOM     23  C   UNL     1      -6.258   0.340  -2.679  1.00  0.00     0.053 A 
ATOM     24  C   UNL     1      -7.229  -0.291  -1.914  1.00  0.00     0.027 A 
ATOM     25  C   UNL     1      -5.377  -0.439  -3.436  1.00  0.00     0.027 A 
ATOM     26  C   UNL     1      -7.440  -1.667  -2.062  1.00  0.00     0.002 A 
ATOM     27  C   UNL     1      -5.539  -1.825  -3.516  1.00  0.00     0.002 A 
ATOM     28  C   UNL     1      -6.598  -2.437  -2.857  1.00  0.00     0.000 A 
ENDBRANCH  12  23
ENDBRANCH  10  12
ENDBRANCH   8  10
ENDBRANCH   7   8
ENDBRANCH   6   7
ENDBRANCH   5   6
ENDBRANCH   4   5
ENDBRANCH   3   4
ENDBRANCH   2   3
ENDBRANCH   1   2
BRANCH   1  29
ATOM     29  C   UNL     1      -3.800   1.208   3.772  1.00  0.00     0.188 C 
BRANCH  29  30
ATOM     30  C   UNL     1      -3.757   2.370   4.775  1.00  0.00     0.188 C 
BRANCH  30  31
ATOM     31  O   UNL     1      -2.686   3.268   4.547  1.00  0.00    -0.376 OA
BRANCH  31  32
ATOM     32  C   UNL     1      -1.407   2.907   5.065  1.00  0.00     0.202 C 
BRANCH  32  33
ATOM     33  C   UNL     1      -1.084   1.434   5.430  1.00  0.00     0.261 C 
BRANCH  33  34
ATOM     34  O   UNL     1      -2.025   0.963   6.437  1.00  0.00    -0.460 OA
BRANCH  34  35
ATOM     35  C   UNL     1      -2.127  -0.371   6.691  1.00  0.00     0.338 C 
ATOM     36  O   UNL     1      -1.194  -1.153   6.699  1.00  0.00    -0.246 OA
BRANCH  35  37
ATOM     37  C   UNL     1      -3.587  -0.771   6.761  1.00  0.00     0.060 A 
ATOM     38  C   UNL     1      -3.961  -2.050   6.347  1.00  0.00     0.016 A 
ATOM     39  C   UNL     1      -4.602   0.166   6.952  1.00  0.00     0.016 A 
ATOM     40  C   UNL     1      -5.261  -2.281   5.856  1.00  0.00     0.010 A 
ATOM     41  C   UNL     1      -5.839  -0.015   6.316  1.00  0.00     0.010 A 
ATOM     42  C   UNL     1      -6.131  -1.207   5.640  1.00  0.00    -0.014 A 
BRANCH  42  43
ATOM     43  C   UNL     1      -7.045  -1.139   4.451  1.00  0.00     0.031 A 
ATOM     44  C   UNL     1      -8.343  -0.374   4.451  1.00  0.00     0.074 A 
ATOM     45  C   UNL     1      -6.513  -1.504   3.250  1.00  0.00     0.049 A 
ATOM     46  N   UNL     1      -9.036  -0.091   3.397  1.00  0.00    -0.248 NA
ATOM     47  C   UNL     1      -8.981   0.154   5.655  1.00  0.00     0.031 C 
ATOM     48  C   UNL     1      -6.891  -1.051   1.911  1.00  0.00     0.029 A 
ATOM     49  N   UNL     1      -5.447  -2.380   2.984  1.00  0.00    -0.354 N 
ATOM     50  C   UNL     1     -10.069   0.773   3.717  1.00  0.00     0.074 A 
ATOM     51  C   UNL     1      -9.988   0.888   5.152  1.00  0.00     0.031 C 
ATOM     52  C   UNL     1      -6.156  -1.692   0.999  1.00  0.00     0.029 A 
ATOM     53  C   UNL     1      -5.580  -2.817   1.649  1.00  0.00     0.049 A 
ATOM     54  H   UNL     1      -4.737  -2.641   3.614  1.00  0.00     0.167 HD
ATOM     55  C   UNL     1     -10.851   1.291   2.715  1.00  0.00     0.034 A 
ATOM     56  C   UNL     1      -5.994  -4.090   1.376  1.00  0.00     0.034 A 
ATOM     57  C   UNL     1     -10.694   0.522   1.470  1.00  0.00     0.049 A 
ATOM     58  C   UNL     1      -7.457  -4.231   0.930  1.00  0.00     0.074 A 
ATOM     59  C   UNL     1     -10.514   0.775   0.121  1.00  0.00     0.029 A 
ATOM     60  N   UNL     1     -10.691  -0.861   1.585  1.00  0.00    -0.354 N 
ATOM     61  N   UNL     1      -8.317  -3.243   0.790  1.00  0.00    -0.248 NA
ATOM     62  C   UNL     1      -8.079  -5.514   0.624  1.00  0.00     0.031 C 
ATOM     63  C   UNL     1     -10.442  -0.483  -0.556  1.00  0.00     0.029 A 
ATOM     64  C   UNL     1     -10.529  -1.494   0.384  1.00  0.00     0.049 A 
ATOM     65  H   UNL     1     -10.794  -1.336   2.441  1.00  0.00     0.167 HD
ATOM     66  C   UNL     1      -9.574  -3.727   0.486  1.00  0.00     0.074 A 
ATOM     67  C   UNL     1      -9.359  -5.164   0.398  1.00  0.00     0.031 C 
ATOM     68  C   UNL     1     -10.697  -2.937   0.358  1.00  0.00     0.034 A 
BRANCH  55  69
ATOM     69  C   UNL     1     -11.814   2.482   2.787  1.00  0.00     0.023 A 
ATOM     70  C   UNL     1     -12.607   2.815   1.656  1.00  0.00     0.031 A 
ATOM     71  C   UNL     1     -11.935   3.380   3.866  1.00  0.00     0.131 A 
ATOM     72  C   UNL     1     -13.432   3.962   1.619  1.00  0.00     0.055 A 
ATOM     73  C   UNL     1     -12.796   4.495   3.850  1.00  0.00     0.041 A 
ATOM     74  F   UNL     1     -11.201   3.258   4.979  1.00  0.00    -0.206 F 
ATOM     75  C   UNL     1     -13.544   4.797   2.723  1.00  0.00     0.022 A 
BRANCH  72  76
ATOM     76  S   UNL     1     -14.348   4.369   0.098  1.00  0.00     0.124 S 
ATOM     77  O   UNL     1     -13.273   4.667  -0.841  1.00  0.00    -0.237 OA
ATOM     78  O   UNL     1     -15.105   3.147  -0.149  1.00  0.00    -0.237 OA
ATOM     79  O   UNL     1     -15.159   5.523   0.488  1.00  0.00    -0.744 OA
ENDBRANCH  72  76
ENDBRANCH  55  69
BRANCH  56  80
ATOM     80  C   UNL     1      -5.015  -5.045   2.001  1.00  0.00     0.023 A 
ATOM     81  C   UNL     1      -3.703  -4.865   1.487  1.00  0.00     0.031 A 
ATOM     82  C   UNL     1      -5.133  -5.355   3.366  1.00  0.00     0.131 A 
ATOM     83  C   UNL     1      -2.651  -4.583   2.374  1.00  0.00     0.055 A 
ATOM     84  C   UNL     1      -4.037  -5.209   4.234  1.00  0.00     0.041 A 
ATOM     85  F   UNL     1      -6.341  -5.564   3.913  1.00  0.00    -0.206 F 
ATOM     86  C   UNL     1      -2.817  -4.728   3.751  1.00  0.00     0.022 A 
BRANCH  83  87
ATOM     87  S   UNL     1      -1.215  -3.658   1.724  1.00  0.00     0.124 S 
ATOM     88  O   UNL     1      -0.460  -4.708   1.050  1.00  0.00    -0.237 OA
ATOM     89  O   UNL     1      -1.846  -2.669   0.854  1.00  0.00    -0.237 OA
ATOM     90  O   UNL     1      -0.594  -3.103   2.924  1.00  0.00    -0.744 OA
ENDBRANCH  83  87
ENDBRANCH  56  80
BRANCH  68  91
ATOM     91  C   UNL     1     -12.135  -3.437   0.293  1.00  0.00     0.023 A 
ATOM     92  C   UNL     1     -12.486  -4.649  -0.295  1.00  0.00     0.031 A 
ATOM     93  C   UNL     1     -13.222  -2.688   0.836  1.00  0.00     0.131 A 
ATOM     94  C   UNL     1     -13.801  -5.143  -0.202  1.00  0.00     0.055 A 
ATOM     95  C   UNL     1     -14.546  -3.136   0.837  1.00  0.00     0.041 A 
ATOM     96  F   UNL     1     -13.052  -1.504   1.440  1.00  0.00    -0.206 F 
ATOM     97  C   UNL     1     -14.839  -4.392   0.344  1.00  0.00     0.022 A 
BRANCH  94  98
ATOM     98  S   UNL     1     -14.086  -6.853  -0.712  1.00  0.00     0.124 S 
ATOM     99  O   UNL     1     -13.599  -6.854  -2.087  1.00  0.00    -0.237 OA
ATOM    100  O   UNL     1     -13.264  -7.585   0.249  1.00  0.00    -0.237 OA
ATOM    101  O   UNL     1     -15.527  -7.027  -0.555  1.00  0.00    -0.744 OA
ENDBRANCH  94  98
ENDBRANCH  68  91
ENDBRANCH  42  43
ENDBRANCH  35  37
ENDBRANCH  34  35
ENDBRANCH  33  34
ENDBRANCH  32  33
ENDBRANCH  31  32
ENDBRANCH  30  31
ENDBRANCH  29  30
ENDBRANCH   1  29
TORSDOF 27
