REMARK SMILES CC1(C)[C@@]2(C(=O)OCCOCCOCCOCCOC(=O)c3ccc(-c4c5nc(c(-c6cc(S(=O)(=O)[O-])ccc6F)c6ccc([nH]6)c(-c6cc(S(=O)(=O)[O-])ccc6F)c6nc(c(-c7cc(S(=O)(=O)[O-])ccc7F)c7ccc4[nH]7)C=C6)C=C5)cc3)CC[C@]1(C)/C(=N/NC(=O)c1ccc(Cl)cc1)C2
REMARK SMILES IDX 14 1 13 2 12 3 11 4 10 5 9 6 8 7 7 8 5 9 6 10 4 11 1 12 2 13
REMARK SMILES IDX 3 14 87 15 85 16 101 17 86 18 88 19 89 20 90 21 91 22 92 23
REMARK SMILES IDX 93 25 94 26 95 27 100 28 96 29 99 30 97 31 98 32 15 33 16 34
REMARK SMILES IDX 17 35 18 36 19 37 20 38 21 39 22 40 23 41 84 42 24 43 83 44
REMARK SMILES IDX 25 45 26 46 27 47 77 48 28 49 82 50 76 51 78 52 29 53 81 54
REMARK SMILES IDX 75 55 74 56 30 58 62 59 42 60 61 61 43 62 46 63 60 64 79 65
REMARK SMILES IDX 44 66 45 67 59 69 80 70 47 71 31 72 32 73 40 74 33 75 39 76
REMARK SMILES IDX 41 77 38 78 34 79 35 80 36 81 37 82 63 83 64 84 72 85 65 86
REMARK SMILES IDX 71 87 73 88 70 89 66 90 67 91 68 92 69 93 48 94 49 95 57 96
REMARK SMILES IDX 50 97 56 98 58 99 55 100 51 101 52 102 53 103 54 104
REMARK H PARENT 91 24 78 57 46 68
REMARK Flexibility Score: inf
ROOT
ATOM      1  C   UNL     1       0.875  -3.944   5.522  1.00  0.00     0.188 C 
ENDROOT
BRANCH   1   2
ATOM      2  O   UNL     1       0.873  -3.262   4.265  1.00  0.00    -0.377 OA
BRANCH   2   3
ATOM      3  C   UNL     1       2.141  -2.844   3.791  1.00  0.00     0.188 C 
BRANCH   3   4
ATOM      4  C   UNL     1       2.654  -1.494   4.294  1.00  0.00     0.188 C 
BRANCH   4   5
ATOM      5  O   UNL     1       2.134  -1.000   5.517  1.00  0.00    -0.376 OA
BRANCH   5   6
ATOM      6  C   UNL     1       0.789  -0.505   5.517  1.00  0.00     0.202 C 
BRANCH   6   7
ATOM      7  C   UNL     1       0.405   0.454   4.390  1.00  0.00     0.261 C 
BRANCH   7   8
ATOM      8  O   UNL     1      -0.018  -0.285   3.223  1.00  0.00    -0.463 OA
BRANCH   8   9
ATOM      9  C   UNL     1       0.565   0.035   2.041  1.00  0.00     0.313 C 
ATOM     10  O   UNL     1       1.465   0.852   1.905  1.00  0.00    -0.252 OA
BRANCH   9  11
ATOM     11  C   UNL     1      -0.117  -0.658   0.880  1.00  0.00     0.079 C 
ATOM     12  C   UNL     1       1.504   0.231  -0.967  1.00  0.00     0.013 C 
ATOM     13  C   UNL     1       0.754  -0.980  -0.370  1.00  0.00    -0.008 C 
ATOM     14  C   UNL     1       1.807  -2.091  -0.177  1.00  0.00     0.013 C 
ATOM     15  C   UNL     1      -0.494  -1.433  -1.192  1.00  0.00     0.014 C 
ATOM     16  C   UNL     1      -1.225   0.287   0.307  1.00  0.00     0.021 C 
ATOM     17  C   UNL     1      -0.782  -2.024   1.199  1.00  0.00     0.073 C 
ATOM     18  C   UNL     1      -1.431  -0.215  -1.133  1.00  0.00     0.014 C 
ATOM     19  C   UNL     1      -0.233  -1.975  -2.582  1.00  0.00     0.018 C 
ATOM     20  C   UNL     1      -1.151  -2.432  -0.205  1.00  0.00     0.046 C 
ATOM     21  N   UNL     1      -1.853  -3.407  -0.683  1.00  0.00    -0.181 NA
BRANCH  21  22
ATOM     22  N   UNL     1      -2.441  -4.424  -0.013  1.00  0.00    -0.243 N 
ATOM     23  C   UNL     1      -3.062  -4.601   1.201  1.00  0.00     0.271 C 
ATOM     24  H   UNL     1      -2.417  -5.260  -0.532  1.00  0.00     0.194 HD
ATOM     25  O   UNL     1      -3.384  -5.740   1.546  1.00  0.00    -0.267 OA
BRANCH  23  26
ATOM     26  C   UNL     1      -3.403  -3.497   2.102  1.00  0.00     0.041 A 
ATOM     27  C   UNL     1      -3.011  -3.614   3.445  1.00  0.00     0.015 A 
ATOM     28  C   UNL     1      -4.096  -2.364   1.659  1.00  0.00     0.015 A 
ATOM     29  C   UNL     1      -3.220  -2.553   4.324  1.00  0.00     0.021 A 
ATOM     30  C   UNL     1      -4.310  -1.305   2.549  1.00  0.00     0.021 A 
ATOM     31  C   UNL     1      -3.849  -1.395   3.866  1.00  0.00     0.041 A 
ATOM     32  Cl  UNL     1      -4.013  -0.047   4.922  1.00  0.00    -0.084 Cl
ENDBRANCH  23  26
ENDBRANCH  21  22
ENDBRANCH   9  11
ENDBRANCH   8   9
ENDBRANCH   7   8
ENDBRANCH   6   7
ENDBRANCH   5   6
ENDBRANCH   4   5
ENDBRANCH   3   4
ENDBRANCH   2   3
ENDBRANCH   1   2
BRANCH   1  33
ATOM     33  C   UNL     1       1.906  -5.069   5.693  1.00  0.00     0.188 C 
BRANCH  33  34
ATOM     34  O   UNL     1       2.179  -5.888   4.558  1.00  0.00    -0.376 OA
BRANCH  34  35
ATOM     35  C   UNL     1       1.089  -6.328   3.753  1.00  0.00     0.202 C 
BRANCH  35  36
ATOM     36  C   UNL     1       0.246  -7.447   4.357  1.00  0.00     0.261 C 
BRANCH  36  37
ATOM     37  O   UNL     1      -0.774  -6.909   5.214  1.00  0.00    -0.460 OA
BRANCH  37  38
ATOM     38  C   UNL     1      -0.603  -7.120   6.534  1.00  0.00     0.338 C 
ATOM     39  O   UNL     1       0.335  -7.693   7.078  1.00  0.00    -0.246 OA
BRANCH  38  40
ATOM     40  C   UNL     1      -1.666  -6.430   7.278  1.00  0.00     0.060 A 
ATOM     41  C   UNL     1      -1.303  -5.620   8.360  1.00  0.00     0.016 A 
ATOM     42  C   UNL     1      -3.010  -6.659   6.971  1.00  0.00     0.016 A 
ATOM     43  C   UNL     1      -2.291  -5.088   9.186  1.00  0.00     0.010 A 
ATOM     44  C   UNL     1      -3.997  -6.134   7.805  1.00  0.00     0.010 A 
ATOM     45  C   UNL     1      -3.637  -5.389   8.942  1.00  0.00    -0.014 A 
BRANCH  45  46
ATOM     46  C   UNL     1      -4.654  -5.110   9.982  1.00  0.00     0.031 A 
ATOM     47  C   UNL     1      -5.029  -6.219  10.926  1.00  0.00     0.074 A 
ATOM     48  C   UNL     1      -5.227  -3.899  10.079  1.00  0.00     0.049 A 
ATOM     49  N   UNL     1      -5.931  -6.239  11.872  1.00  0.00    -0.248 NA
ATOM     50  C   UNL     1      -4.288  -7.481  10.771  1.00  0.00     0.031 C 
ATOM     51  C   UNL     1      -4.904  -2.743   9.246  1.00  0.00     0.029 A 
ATOM     52  N   UNL     1      -6.210  -3.447  10.921  1.00  0.00    -0.354 N 
ATOM     53  C   UNL     1      -5.872  -7.516  12.423  1.00  0.00     0.074 A 
ATOM     54  C   UNL     1      -4.871  -8.249  11.677  1.00  0.00     0.031 C 
ATOM     55  C   UNL     1      -5.684  -1.712   9.614  1.00  0.00     0.029 A 
ATOM     56  C   UNL     1      -6.585  -2.148  10.679  1.00  0.00     0.049 A 
ATOM     57  H   UNL     1      -6.609  -4.001  11.630  1.00  0.00     0.167 HD
ATOM     58  C   UNL     1      -6.583  -8.026  13.459  1.00  0.00     0.034 A 
ATOM     59  C   UNL     1      -7.563  -1.410  11.241  1.00  0.00     0.034 A 
ATOM     60  C   UNL     1      -7.593  -7.282  14.172  1.00  0.00     0.049 A 
ATOM     61  C   UNL     1      -8.413  -2.029  12.325  1.00  0.00     0.074 A 
ATOM     62  C   UNL     1      -8.364  -7.683  15.248  1.00  0.00     0.029 A 
ATOM     63  N   UNL     1      -7.986  -5.984  13.865  1.00  0.00    -0.354 N 
ATOM     64  N   UNL     1      -8.338  -3.231  12.852  1.00  0.00    -0.248 NA
ATOM     65  C   UNL     1      -9.476  -1.189  12.890  1.00  0.00     0.031 C 
ATOM     66  C   UNL     1      -9.272  -6.658  15.543  1.00  0.00     0.029 A 
ATOM     67  C   UNL     1      -9.015  -5.585  14.704  1.00  0.00     0.049 A 
ATOM     68  H   UNL     1      -7.590  -5.428  13.155  1.00  0.00     0.167 HD
ATOM     69  C   UNL     1      -9.324  -3.276  13.835  1.00  0.00     0.074 A 
ATOM     70  C   UNL     1      -9.971  -1.980  13.831  1.00  0.00     0.031 C 
ATOM     71  C   UNL     1      -9.658  -4.291  14.674  1.00  0.00     0.034 A 
BRANCH  58  72
ATOM     72  C   UNL     1      -6.332  -9.470  13.823  1.00  0.00     0.023 A 
ATOM     73  C   UNL     1      -5.078  -9.913  14.282  1.00  0.00     0.031 A 
ATOM     74  C   UNL     1      -7.345 -10.431  13.653  1.00  0.00     0.131 A 
ATOM     75  C   UNL     1      -4.845 -11.284  14.472  1.00  0.00     0.055 A 
ATOM     76  C   UNL     1      -7.130 -11.784  13.924  1.00  0.00     0.041 A 
ATOM     77  F   UNL     1      -8.555 -10.074  13.196  1.00  0.00    -0.206 F 
ATOM     78  C   UNL     1      -5.869 -12.220  14.319  1.00  0.00     0.022 A 
BRANCH  75  79
ATOM     79  S   UNL     1      -3.142 -11.842  14.760  1.00  0.00     0.124 S 
ATOM     80  O   UNL     1      -2.454 -11.310  13.586  1.00  0.00    -0.237 OA
ATOM     81  O   UNL     1      -2.815 -11.212  16.033  1.00  0.00    -0.237 OA
ATOM     82  O   UNL     1      -3.260 -13.299  14.796  1.00  0.00    -0.744 OA
ENDBRANCH  75  79
ENDBRANCH  58  72
BRANCH  59  83
ATOM     83  C   UNL     1      -7.817  -0.016  10.779  1.00  0.00     0.023 A 
ATOM     84  C   UNL     1      -7.629   1.075  11.641  1.00  0.00     0.031 A 
ATOM     85  C   UNL     1      -8.296   0.241   9.482  1.00  0.00     0.131 A 
ATOM     86  C   UNL     1      -7.956   2.370  11.211  1.00  0.00     0.055 A 
ATOM     87  C   UNL     1      -8.573   1.536   9.042  1.00  0.00     0.041 A 
ATOM     88  F   UNL     1      -8.493  -0.768   8.618  1.00  0.00    -0.206 F 
ATOM     89  C   UNL     1      -8.414   2.610   9.913  1.00  0.00     0.022 A 
BRANCH  86  90
ATOM     90  S   UNL     1      -7.840   3.735  12.400  1.00  0.00     0.124 S 
ATOM     91  O   UNL     1      -8.764   3.301  13.441  1.00  0.00    -0.237 OA
ATOM     92  O   UNL     1      -6.423   3.712  12.749  1.00  0.00    -0.237 OA
ATOM     93  O   UNL     1      -8.270   4.898  11.626  1.00  0.00    -0.744 OA
ENDBRANCH  86  90
ENDBRANCH  59  83
BRANCH  71  94
ATOM     94  C   UNL     1     -10.743  -4.012  15.687  1.00  0.00     0.023 A 
ATOM     95  C   UNL     1     -12.078  -3.797  15.305  1.00  0.00     0.031 A 
ATOM     96  C   UNL     1     -10.428  -3.948  17.056  1.00  0.00     0.131 A 
ATOM     97  C   UNL     1     -13.038  -3.471  16.275  1.00  0.00     0.055 A 
ATOM     98  C   UNL     1     -11.399  -3.684  18.023  1.00  0.00     0.041 A 
ATOM     99  F   UNL     1      -9.168  -4.144  17.478  1.00  0.00    -0.206 F 
ATOM    100  C   UNL     1     -12.710  -3.430  17.633  1.00  0.00     0.022 A 
BRANCH  97 101
ATOM    101  S   UNL     1     -14.706  -3.009  15.731  1.00  0.00     0.124 S 
ATOM    102  O   UNL     1     -14.436  -1.867  14.863  1.00  0.00    -0.237 OA
ATOM    103  O   UNL     1     -15.165  -4.223  15.063  1.00  0.00    -0.237 OA
ATOM    104  O   UNL     1     -15.398  -2.689  16.978  1.00  0.00    -0.744 OA
ENDBRANCH  97 101
ENDBRANCH  71  94
ENDBRANCH  45  46
ENDBRANCH  38  40
ENDBRANCH  37  38
ENDBRANCH  36  37
ENDBRANCH  35  36
ENDBRANCH  34  35
ENDBRANCH  33  34
ENDBRANCH   1  33
TORSDOF 25
