REMARK SMILES COc1cccc(S(=O)(=O)N[C@H](CC(C)C)C(=O)OCCOCCOCCOCCOC(=O)c2ccc(-c3c4nc(c(-c5cc(S(=O)(=O)[O-])ccc5F)c5ccc([nH]5)c(-c5cc(S(=O)(=O)[O-])ccc5F)c5nc(c(-c6cc(S(=O)(=O)[O-])ccc6F)c6ccc3[nH]6)C=C5)C=C4)cc2)c1
REMARK SMILES IDX 24 1 23 2 22 3 21 4 20 5 19 6 17 7 18 8 12 9 11 10 8 12 9 13
REMARK SMILES IDX 10 14 7 15 3 16 4 17 97 18 5 19 6 20 2 21 1 22 13 23 14 24
REMARK SMILES IDX 15 25 16 26 25 27 26 28 27 29 28 30 29 31 30 32 31 33 32 34
REMARK SMILES IDX 33 35 34 36 35 37 96 38 36 39 95 40 37 41 38 42 39 43 89 44
REMARK SMILES IDX 40 45 94 46 88 47 90 48 41 49 93 50 87 51 86 52 42 54 74 55
REMARK SMILES IDX 54 56 73 57 55 58 58 59 72 60 91 61 56 62 57 63 71 65 92 66
REMARK SMILES IDX 59 67 43 68 44 69 52 70 45 71 51 72 53 73 50 74 46 75 47 76
REMARK SMILES IDX 48 77 49 78 75 79 76 80 84 81 77 82 83 83 85 84 82 85 78 86
REMARK SMILES IDX 79 87 80 88 81 89 60 90 61 91 69 92 62 93 68 94 70 95 67 96
REMARK SMILES IDX 63 97 64 98 65 99 66 100
REMARK H PARENT 11 11 90 53 58 64
REMARK Flexibility Score: inf
ROOT
ATOM      1  C   UNL     1       5.282   0.067   0.601  1.00  0.00     0.188 C 
ENDROOT
BRANCH   1   2
ATOM      2  C   UNL     1       4.660  -1.308   0.326  1.00  0.00     0.188 C 
BRANCH   2   3
ATOM      3  O   UNL     1       5.400  -2.472   0.691  1.00  0.00    -0.376 OA
BRANCH   3   4
ATOM      4  C   UNL     1       6.622  -2.745  -0.013  1.00  0.00     0.202 C 
BRANCH   4   5
ATOM      5  C   UNL     1       6.508  -2.900  -1.545  1.00  0.00     0.261 C 
BRANCH   5   6
ATOM      6  O   UNL     1       6.173  -1.611  -2.091  1.00  0.00    -0.462 OA
BRANCH   6   7
ATOM      7  C   UNL     1       5.900  -1.357  -3.402  1.00  0.00     0.324 C 
ATOM      8  O   UNL     1       5.853  -2.196  -4.288  1.00  0.00    -0.250 OA
BRANCH   7   9
ATOM      9  C   UNL     1       5.613   0.162  -3.550  1.00  0.00     0.180 C 
BRANCH   9  10
ATOM     10  N   UNL     1       5.755   0.744  -4.923  1.00  0.00    -0.197 NA
ATOM     11  H   UNL     1       6.449   1.488  -4.853  1.00  0.00     0.142 HD
BRANCH  10  12
ATOM     12  S   UNL     1       4.425   1.402  -5.729  1.00  0.00     0.241 S 
ATOM     13  O   UNL     1       3.236   0.864  -5.103  1.00  0.00    -0.207 OA
ATOM     14  O   UNL     1       4.690   1.196  -7.136  1.00  0.00    -0.207 OA
BRANCH  12  15
ATOM     15  C   UNL     1       4.347   3.187  -5.523  1.00  0.00     0.086 A 
ATOM     16  C   UNL     1       5.171   5.355  -4.829  1.00  0.00     0.120 A 
ATOM     17  C   UNL     1       3.916   5.924  -5.039  1.00  0.00     0.046 A 
ATOM     18  C   UNL     1       5.417   4.008  -5.152  1.00  0.00     0.068 A 
ATOM     19  C   UNL     1       2.881   5.139  -5.535  1.00  0.00     0.005 A 
ATOM     20  C   UNL     1       3.089   3.774  -5.750  1.00  0.00     0.022 A 
BRANCH  16  21
ATOM     21  O   UNL     1       6.154   6.193  -4.373  1.00  0.00    -0.497 OA
ATOM     22  C   UNL     1       6.516   5.933  -3.014  1.00  0.00     0.278 C 
ENDBRANCH  16  21
ENDBRANCH  12  15
ENDBRANCH  10  12
ENDBRANCH   9  10
BRANCH   9  23
ATOM     23  C   UNL     1       6.630   0.888  -2.651  1.00  0.00     0.035 C 
BRANCH  23  24
ATOM     24  C   UNL     1       6.378   2.365  -2.388  1.00  0.00    -0.015 C 
ATOM     25  C   UNL     1       4.966   2.701  -1.891  1.00  0.00     0.007 C 
ATOM     26  C   UNL     1       7.491   2.913  -1.491  1.00  0.00     0.007 C 
ENDBRANCH  23  24
ENDBRANCH   9  23
ENDBRANCH   7   9
ENDBRANCH   6   7
ENDBRANCH   5   6
ENDBRANCH   4   5
ENDBRANCH   3   4
ENDBRANCH   2   3
ENDBRANCH   1   2
BRANCH   1  27
ATOM     27  O   UNL     1       6.690   0.036   0.734  1.00  0.00    -0.377 OA
BRANCH  27  28
ATOM     28  C   UNL     1       7.213   0.546   1.957  1.00  0.00     0.188 C 
BRANCH  28  29
ATOM     29  C   UNL     1       6.636  -0.095   3.230  1.00  0.00     0.188 C 
BRANCH  29  30
ATOM     30  O   UNL     1       5.258   0.219   3.451  1.00  0.00    -0.376 OA
BRANCH  30  31
ATOM     31  C   UNL     1       4.977   1.297   4.343  1.00  0.00     0.202 C 
BRANCH  31  32
ATOM     32  C   UNL     1       5.217   2.704   3.768  1.00  0.00     0.261 C 
BRANCH  32  33
ATOM     33  O   UNL     1       6.596   3.055   3.569  1.00  0.00    -0.460 OA
BRANCH  33  34
ATOM     34  C   UNL     1       7.399   3.003   4.660  1.00  0.00     0.338 C 
ATOM     35  O   UNL     1       7.069   2.790   5.799  1.00  0.00    -0.246 OA
BRANCH  34  36
ATOM     36  C   UNL     1       8.797   3.060   4.182  1.00  0.00     0.060 A 
ATOM     37  C   UNL     1       9.650   2.000   4.505  1.00  0.00     0.016 A 
ATOM     38  C   UNL     1       9.264   4.160   3.460  1.00  0.00     0.016 A 
ATOM     39  C   UNL     1      10.995   2.059   4.146  1.00  0.00     0.010 A 
ATOM     40  C   UNL     1      10.617   4.227   3.116  1.00  0.00     0.010 A 
ATOM     41  C   UNL     1      11.494   3.194   3.492  1.00  0.00    -0.014 A 
BRANCH  41  42
ATOM     42  C   UNL     1      12.960   3.400   3.405  1.00  0.00     0.031 A 
ATOM     43  C   UNL     1      13.629   4.187   4.499  1.00  0.00     0.074 A 
ATOM     44  C   UNL     1      13.682   2.887   2.395  1.00  0.00     0.049 A 
ATOM     45  N   UNL     1      14.887   4.512   4.642  1.00  0.00    -0.248 NA
ATOM     46  C   UNL     1      12.752   4.676   5.575  1.00  0.00     0.031 C 
ATOM     47  C   UNL     1      13.150   2.073   1.304  1.00  0.00     0.029 A 
ATOM     48  N   UNL     1      15.024   2.979   2.126  1.00  0.00    -0.354 N 
ATOM     49  C   UNL     1      14.956   5.241   5.825  1.00  0.00     0.074 A 
ATOM     50  C   UNL     1      13.605   5.343   6.336  1.00  0.00     0.031 C 
ATOM     51  C   UNL     1      14.159   1.745   0.476  1.00  0.00     0.029 A 
ATOM     52  C   UNL     1      15.398   2.350   0.962  1.00  0.00     0.049 A 
ATOM     53  H   UNL     1      15.659   3.452   2.711  1.00  0.00     0.167 HD
ATOM     54  C   UNL     1      16.045   5.769   6.434  1.00  0.00     0.034 A 
ATOM     55  C   UNL     1      16.601   2.289   0.355  1.00  0.00     0.034 A 
ATOM     56  C   UNL     1      17.381   5.682   5.900  1.00  0.00     0.049 A 
ATOM     57  C   UNL     1      17.784   2.973   0.998  1.00  0.00     0.074 A 
ATOM     58  C   UNL     1      18.561   6.163   6.441  1.00  0.00     0.029 A 
ATOM     59  N   UNL     1      17.713   5.091   4.687  1.00  0.00    -0.354 N 
ATOM     60  N   UNL     1      17.842   3.639   2.129  1.00  0.00    -0.248 NA
ATOM     61  C   UNL     1      19.064   2.894   0.281  1.00  0.00     0.031 C 
ATOM     62  C   UNL     1      19.590   5.930   5.522  1.00  0.00     0.029 A 
ATOM     63  C   UNL     1      19.070   5.234   4.442  1.00  0.00     0.049 A 
ATOM     64  H   UNL     1      17.076   4.638   4.088  1.00  0.00     0.167 HD
ATOM     65  C   UNL     1      19.173   4.027   2.274  1.00  0.00     0.074 A 
ATOM     66  C   UNL     1      19.881   3.516   1.118  1.00  0.00     0.031 C 
ATOM     67  C   UNL     1      19.759   4.732   3.276  1.00  0.00     0.034 A 
BRANCH  54  68
ATOM     68  C   UNL     1      15.810   6.539   7.711  1.00  0.00     0.023 A 
ATOM     69  C   UNL     1      15.305   5.918   8.867  1.00  0.00     0.031 A 
ATOM     70  C   UNL     1      16.037   7.925   7.753  1.00  0.00     0.131 A 
ATOM     71  C   UNL     1      14.966   6.694   9.986  1.00  0.00     0.055 A 
ATOM     72  C   UNL     1      15.775   8.679   8.899  1.00  0.00     0.041 A 
ATOM     73  F   UNL     1      16.494   8.576   6.672  1.00  0.00    -0.206 F 
ATOM     74  C   UNL     1      15.219   8.067  10.018  1.00  0.00     0.022 A 
BRANCH  71  75
ATOM     75  S   UNL     1      14.039   5.910  11.335  1.00  0.00     0.124 S 
ATOM     76  O   UNL     1      12.863   5.404  10.630  1.00  0.00    -0.237 OA
ATOM     77  O   UNL     1      14.977   4.904  11.819  1.00  0.00    -0.237 OA
ATOM     78  O   UNL     1      13.775   7.014  12.256  1.00  0.00    -0.744 OA
ENDBRANCH  71  75
ENDBRANCH  54  68
BRANCH  55  79
ATOM     79  C   UNL     1      16.754   1.585  -0.950  1.00  0.00     0.023 A 
ATOM     80  C   UNL     1      17.557   0.439  -1.065  1.00  0.00     0.031 A 
ATOM     81  C   UNL     1      16.142   2.083  -2.114  1.00  0.00     0.131 A 
ATOM     82  C   UNL     1      17.760  -0.148  -2.324  1.00  0.00     0.055 A 
ATOM     83  C   UNL     1      16.311   1.469  -3.356  1.00  0.00     0.041 A 
ATOM     84  F   UNL     1      15.365   3.176  -2.058  1.00  0.00    -0.206 F 
ATOM     85  C   UNL     1      17.134   0.353  -3.468  1.00  0.00     0.022 A 
BRANCH  82  86
ATOM     86  S   UNL     1      18.915  -1.540  -2.457  1.00  0.00     0.124 S 
ATOM     87  O   UNL     1      20.160  -0.939  -1.994  1.00  0.00    -0.237 OA
ATOM     88  O   UNL     1      18.307  -2.524  -1.567  1.00  0.00    -0.237 OA
ATOM     89  O   UNL     1      18.875  -1.881  -3.878  1.00  0.00    -0.744 OA
ENDBRANCH  82  86
ENDBRANCH  55  79
BRANCH  67  90
ATOM     90  C   UNL     1      21.250   4.950   3.183  1.00  0.00     0.023 A 
ATOM     91  C   UNL     1      21.820   5.771   2.195  1.00  0.00     0.031 A 
ATOM     92  C   UNL     1      22.113   4.320   4.098  1.00  0.00     0.131 A 
ATOM     93  C   UNL     1      23.215   5.901   2.114  1.00  0.00     0.055 A 
ATOM     94  C   UNL     1      23.496   4.499   4.049  1.00  0.00     0.041 A 
ATOM     95  F   UNL     1      21.623   3.524   5.062  1.00  0.00    -0.206 F 
ATOM     96  C   UNL     1      24.055   5.284   3.045  1.00  0.00     0.022 A 
BRANCH  93  97
ATOM     97  S   UNL     1      23.927   6.823   0.723  1.00  0.00     0.124 S 
ATOM     98  O   UNL     1      23.411   6.085  -0.426  1.00  0.00    -0.237 OA
ATOM     99  O   UNL     1      23.377   8.160   0.920  1.00  0.00    -0.237 OA
ATOM    100  O   UNL     1      25.369   6.709   0.937  1.00  0.00    -0.744 OA
ENDBRANCH  93  97
ENDBRANCH  67  90
ENDBRANCH  41  42
ENDBRANCH  34  36
ENDBRANCH  33  34
ENDBRANCH  32  33
ENDBRANCH  31  32
ENDBRANCH  30  31
ENDBRANCH  29  30
ENDBRANCH  28  29
ENDBRANCH  27  28
ENDBRANCH   1  27
TORSDOF 29
