REMARK SMILES O=C(OCCOCCOCCOCCOC(=O)c1ccc(Br)c(NC(=S)NC(=O)c2cccs2)c1)c1ccc(-c2c3nc(c(-c4cc(S(=O)(=O)[O-])ccc4F)c4ccc([nH]4)c(-c4cc(S(=O)(=O)[O-])ccc4F)c4nc(c(-c5cc(S(=O)(=O)[O-])ccc5F)c5ccc2[nH]5)C=C4)C=C3)cc1
REMARK SMILES IDX 10 1 9 2 8 3 7 4 6 5 5 6 4 7 3 8 2 9 1 10 36 11 37 12 98 13
REMARK SMILES IDX 38 14 97 15 39 16 40 17 41 18 91 19 42 20 96 21 90 22 92 23
REMARK SMILES IDX 43 24 95 25 89 26 88 27 44 29 76 30 56 31 75 32 57 33 60 34
REMARK SMILES IDX 74 35 93 36 58 37 59 38 73 40 94 41 61 42 45 43 46 44 54 45
REMARK SMILES IDX 47 46 53 47 55 48 52 49 48 50 49 51 50 52 51 53 77 54 78 55
REMARK SMILES IDX 86 56 79 57 85 58 87 59 84 60 80 61 81 62 82 63 83 64 62 65
REMARK SMILES IDX 63 66 71 67 64 68 70 69 72 70 69 71 65 72 66 73 67 74 68 75
REMARK SMILES IDX 11 76 12 77 13 78 14 79 15 80 16 81 17 82 18 83 19 84 35 85
REMARK SMILES IDX 20 86 23 87 21 88 22 89 24 90 25 92 26 93 27 94 28 95 29 97
REMARK SMILES IDX 30 98 31 99 34 100 32 101 33 102
REMARK H PARENT 92 28 60 39 24 91 27 96
REMARK Flexibility Score: inf
ROOT
ATOM      1  C   UNL     1       3.331   1.545   3.324  1.00  0.00     0.188 C 
ENDROOT
BRANCH   1   2
ATOM      2  O   UNL     1       1.927   1.377   3.306  1.00  0.00    -0.377 OA
BRANCH   2   3
ATOM      3  C   UNL     1       1.472   0.446   2.353  1.00  0.00     0.188 C 
BRANCH   3   4
ATOM      4  C   UNL     1       2.242   0.381   1.032  1.00  0.00     0.188 C 
BRANCH   4   5
ATOM      5  O   UNL     1       3.650   0.210   1.145  1.00  0.00    -0.376 OA
BRANCH   5   6
ATOM      6  C   UNL     1       4.588   0.960   0.366  1.00  0.00     0.202 C 
BRANCH   6   7
ATOM      7  C   UNL     1       4.391   1.020  -1.145  1.00  0.00     0.261 C 
BRANCH   7   8
ATOM      8  O   UNL     1       3.110   0.606  -1.643  1.00  0.00    -0.460 OA
BRANCH   8   9
ATOM      9  C   UNL     1       2.520  -0.612  -1.682  1.00  0.00     0.338 C 
ATOM     10  O   UNL     1       1.336  -0.661  -2.019  1.00  0.00    -0.246 OA
BRANCH   9  11
ATOM     11  C   UNL     1       3.173  -1.888  -1.260  1.00  0.00     0.060 A 
ATOM     12  C   UNL     1       4.278  -1.987  -0.422  1.00  0.00     0.016 A 
ATOM     13  C   UNL     1       2.559  -3.085  -1.651  1.00  0.00     0.016 A 
ATOM     14  C   UNL     1       4.827  -3.177  -0.030  1.00  0.00     0.010 A 
ATOM     15  C   UNL     1       3.083  -4.316  -1.248  1.00  0.00     0.010 A 
ATOM     16  C   UNL     1       4.239  -4.344  -0.463  1.00  0.00    -0.014 A 
BRANCH  16  17
ATOM     17  C   UNL     1       5.068  -5.528  -0.282  1.00  0.00     0.031 A 
ATOM     18  C   UNL     1       5.854  -5.959  -1.472  1.00  0.00     0.074 A 
ATOM     19  C   UNL     1       5.279  -5.998   0.958  1.00  0.00     0.049 A 
ATOM     20  N   UNL     1       6.603  -7.008  -1.625  1.00  0.00    -0.248 NA
ATOM     21  C   UNL     1       5.797  -5.073  -2.654  1.00  0.00     0.031 C 
ATOM     22  C   UNL     1       4.730  -5.420   2.191  1.00  0.00     0.029 A 
ATOM     23  N   UNL     1       6.040  -7.042   1.389  1.00  0.00    -0.354 N 
ATOM     24  C   UNL     1       7.061  -6.939  -2.932  1.00  0.00     0.074 A 
ATOM     25  C   UNL     1       6.508  -5.752  -3.536  1.00  0.00     0.031 C 
ATOM     26  C   UNL     1       5.159  -6.140   3.239  1.00  0.00     0.029 A 
ATOM     27  C   UNL     1       5.933  -7.267   2.740  1.00  0.00     0.049 A 
ATOM     28  H   UNL     1       6.609  -7.581   0.793  1.00  0.00     0.167 HD
ATOM     29  C   UNL     1       7.865  -7.824  -3.557  1.00  0.00     0.034 A 
ATOM     30  C   UNL     1       6.367  -8.320   3.454  1.00  0.00     0.034 A 
ATOM     31  C   UNL     1       8.362  -8.993  -2.887  1.00  0.00     0.049 A 
ATOM     32  C   UNL     1       7.107  -9.390   2.690  1.00  0.00     0.074 A 
ATOM     33  C   UNL     1       9.110 -10.030  -3.401  1.00  0.00     0.029 A 
ATOM     34  N   UNL     1       8.138  -9.277  -1.542  1.00  0.00    -0.354 N 
ATOM     35  N   UNL     1       7.444  -9.411   1.417  1.00  0.00    -0.248 NA
ATOM     36  C   UNL     1       7.519 -10.575   3.443  1.00  0.00     0.031 C 
ATOM     37  C   UNL     1       9.255 -10.986  -2.392  1.00  0.00     0.029 A 
ATOM     38  C   UNL     1       8.700 -10.494  -1.216  1.00  0.00     0.049 A 
ATOM     39  H   UNL     1       7.650  -8.695  -0.915  1.00  0.00     0.167 HD
ATOM     40  C   UNL     1       8.146 -10.595   1.226  1.00  0.00     0.074 A 
ATOM     41  C   UNL     1       8.188 -11.251   2.520  1.00  0.00     0.031 C 
ATOM     42  C   UNL     1       8.711 -11.098   0.097  1.00  0.00     0.034 A 
BRANCH  29  43
ATOM     43  C   UNL     1       8.104  -7.609  -5.024  1.00  0.00     0.023 A 
ATOM     44  C   UNL     1       8.766  -6.471  -5.517  1.00  0.00     0.031 A 
ATOM     45  C   UNL     1       7.555  -8.511  -5.952  1.00  0.00     0.131 A 
ATOM     46  C   UNL     1       8.795  -6.229  -6.898  1.00  0.00     0.055 A 
ATOM     47  C   UNL     1       7.672  -8.312  -7.326  1.00  0.00     0.041 A 
ATOM     48  F   UNL     1       6.859  -9.580  -5.535  1.00  0.00    -0.206 F 
ATOM     49  C   UNL     1       8.283  -7.158  -7.807  1.00  0.00     0.022 A 
BRANCH  46  50
ATOM     50  S   UNL     1       9.347  -4.602  -7.480  1.00  0.00     0.124 S 
ATOM     51  O   UNL     1       8.377  -3.715  -6.840  1.00  0.00    -0.237 OA
ATOM     52  O   UNL     1      10.711  -4.528  -6.968  1.00  0.00    -0.237 OA
ATOM     53  O   UNL     1       9.229  -4.699  -8.933  1.00  0.00    -0.744 OA
ENDBRANCH  46  50
ENDBRANCH  29  43
BRANCH  30  54
ATOM     54  C   UNL     1       6.037  -8.462   4.900  1.00  0.00     0.023 A 
ATOM     55  C   UNL     1       7.046  -8.621   5.860  1.00  0.00     0.031 A 
ATOM     56  C   UNL     1       4.700  -8.521   5.340  1.00  0.00     0.131 A 
ATOM     57  C   UNL     1       6.706  -8.898   7.194  1.00  0.00     0.055 A 
ATOM     58  C   UNL     1       4.367  -8.723   6.680  1.00  0.00     0.041 A 
ATOM     59  F   UNL     1       3.687  -8.389   4.467  1.00  0.00    -0.206 F 
ATOM     60  C   UNL     1       5.375  -8.932   7.614  1.00  0.00     0.022 A 
BRANCH  57  61
ATOM     61  S   UNL     1       8.032  -9.354   8.344  1.00  0.00     0.124 S 
ATOM     62  O   UNL     1       8.635 -10.492   7.659  1.00  0.00    -0.237 OA
ATOM     63  O   UNL     1       8.830  -8.134   8.387  1.00  0.00    -0.237 OA
ATOM     64  O   UNL     1       7.316  -9.674   9.577  1.00  0.00    -0.744 OA
ENDBRANCH  57  61
ENDBRANCH  30  54
BRANCH  42  65
ATOM     65  C   UNL     1       9.480 -12.383   0.242  1.00  0.00     0.023 A 
ATOM     66  C   UNL     1       8.851 -13.588   0.585  1.00  0.00     0.031 A 
ATOM     67  C   UNL     1      10.867 -12.394   0.008  1.00  0.00     0.131 A 
ATOM     68  C   UNL     1       9.621 -14.746   0.749  1.00  0.00     0.055 A 
ATOM     69  C   UNL     1      11.611 -13.567   0.082  1.00  0.00     0.041 A 
ATOM     70  F   UNL     1      11.515 -11.263  -0.318  1.00  0.00    -0.206 F 
ATOM     71  C   UNL     1      10.991 -14.750   0.470  1.00  0.00     0.022 A 
BRANCH  68  72
ATOM     72  S   UNL     1       8.829 -16.215   1.451  1.00  0.00     0.124 S 
ATOM     73  O   UNL     1       8.326 -15.707   2.724  1.00  0.00    -0.237 OA
ATOM     74  O   UNL     1       7.818 -16.535   0.449  1.00  0.00    -0.237 OA
ATOM     75  O   UNL     1       9.925 -17.176   1.556  1.00  0.00    -0.744 OA
ENDBRANCH  68  72
ENDBRANCH  42  65
ENDBRANCH  16  17
ENDBRANCH   9  11
ENDBRANCH   8   9
ENDBRANCH   7   8
ENDBRANCH   6   7
ENDBRANCH   5   6
ENDBRANCH   4   5
ENDBRANCH   3   4
ENDBRANCH   2   3
ENDBRANCH   1   2
BRANCH   1  76
ATOM     76  C   UNL     1       4.262   0.344   3.714  1.00  0.00     0.188 C 
BRANCH  76  77
ATOM     77  O   UNL     1       3.591  -0.865   3.954  1.00  0.00    -0.376 OA
BRANCH  77  78
ATOM     78  C   UNL     1       2.908  -0.957   5.193  1.00  0.00     0.202 C 
BRANCH  78  79
ATOM     79  C   UNL     1       2.760   0.234   6.197  1.00  0.00     0.261 C 
BRANCH  79  80
ATOM     80  O   UNL     1       3.351   1.526   5.864  1.00  0.00    -0.460 OA
BRANCH  80  81
ATOM     81  C   UNL     1       4.475   1.971   6.489  1.00  0.00     0.338 C 
ATOM     82  O   UNL     1       4.839   1.497   7.555  1.00  0.00    -0.246 OA
BRANCH  81  83
ATOM     83  C   UNL     1       5.090   3.337   5.799  1.00  0.00     0.062 A 
ATOM     84  C   UNL     1       4.017   4.596   6.558  1.00  0.00     0.017 A 
ATOM     85  C   UNL     1       6.808   4.120   4.977  1.00  0.00     0.043 A 
ATOM     86  C   UNL     1       4.583   6.285   6.492  1.00  0.00     0.019 A 
ATOM     87  C   UNL     1       7.162   5.719   4.840  1.00  0.00     0.055 A 
ATOM     88  C   UNL     1       6.083   6.796   5.654  1.00  0.00     0.041 A 
ATOM     89  Br  UNL     1       6.379   8.659   5.463  1.00  0.00    -0.049 Br
BRANCH  87  90
ATOM     90  N   UNL     1       8.023   5.880   3.724  1.00  0.00    -0.331 N 
ATOM     91  H   UNL     1       8.335   6.801   3.574  1.00  0.00     0.169 HD
BRANCH  90  92
ATOM     92  C   UNL     1       8.500   4.943   2.805  1.00  0.00     0.177 C 
ATOM     93  S   UNL     1       9.470   5.553   1.571  1.00  0.00    -0.040 S 
BRANCH  92  94
ATOM     94  N   UNL     1       8.281   3.513   2.760  1.00  0.00    -0.298 N 
ATOM     95  C   UNL     1       7.651   2.221   3.254  1.00  0.00     0.267 C 
ATOM     96  H   UNL     1       8.840   3.220   2.003  1.00  0.00     0.172 HD
ATOM     97  O   UNL     1       8.033   1.163   2.760  1.00  0.00    -0.268 OA
BRANCH  95  98
ATOM     98  C   UNL     1       6.471   2.318   4.208  1.00  0.00     0.092 A 
ATOM     99  C   UNL     1       5.380   3.482   3.664  1.00  0.00     0.025 A 
ATOM    100  S   UNL     1       7.141   2.531   6.407  1.00  0.00    -0.139 S 
ATOM    101  C   UNL     1       5.161   4.933   4.845  1.00  0.00     0.012 A 
ATOM    102  C   UNL     1       6.137   4.654   6.546  1.00  0.00     0.065 A 
ENDBRANCH  95  98
ENDBRANCH  92  94
ENDBRANCH  90  92
ENDBRANCH  87  90
ENDBRANCH  81  83
ENDBRANCH  80  81
ENDBRANCH  79  80
ENDBRANCH  78  79
ENDBRANCH  77  78
ENDBRANCH  76  77
ENDBRANCH   1  76
TORSDOF 27
