REMARK SMILES O=C(OCCOCCOCCOCCOC(=O)c1ccc(-c2c3nc(c(-c4cc(S(=O)(=O)[O-])ccc4F)c4ccc([nH]4)c(-c4cc(S(=O)(=O)[O-])ccc4F)c4nc(c(-c5cc(S(=O)(=O)[O-])ccc5F)c5ccc2[nH]5)C=C4)C=C3)cc1)C1=Cc2cc(Cl)cc(C#Cc3ccccc3)c2O[C@@H]1C(F)(F)F
REMARK SMILES IDX 10 1 9 2 8 3 7 4 6 5 5 6 4 7 3 8 2 9 1 10 81 11 82 12 99 13
REMARK SMILES IDX 83 14 98 15 84 16 97 17 85 18 88 19 86 20 87 21 100 22
REMARK SMILES IDX 101 23 102 24 103 25 89 26 90 27 91 28 92 29 96 30 93 31
REMARK SMILES IDX 95 32 94 33 11 34 12 35 13 36 14 37 15 38 16 39 17 40 18 41
REMARK SMILES IDX 19 42 80 43 20 44 79 45 21 46 22 47 23 48 73 49 24 50 78 51
REMARK SMILES IDX 72 52 74 53 25 54 77 55 71 56 70 57 26 59 58 60 38 61 57 62
REMARK SMILES IDX 39 63 42 64 56 65 75 66 40 67 41 68 55 70 76 71 43 72 27 73
REMARK SMILES IDX 28 74 36 75 29 76 35 77 37 78 34 79 30 80 31 81 32 82 33 83
REMARK SMILES IDX 59 84 60 85 68 86 61 87 67 88 69 89 66 90 62 91 63 92 64 93
REMARK SMILES IDX 65 94 44 95 45 96 53 97 46 98 52 99 54 100 51 101 47 102
REMARK SMILES IDX 48 103 49 104 50 105
REMARK H PARENT 74 58 42 69
REMARK Flexibility Score: inf
ROOT
ATOM      1  C   UNL     1       2.982   2.379  -3.483  1.00  0.00     0.188 C 
ENDROOT
BRANCH   1   2
ATOM      2  O   UNL     1       1.718   2.976  -3.219  1.00  0.00    -0.377 OA
BRANCH   2   3
ATOM      3  C   UNL     1       0.715   2.092  -2.732  1.00  0.00     0.188 C 
BRANCH   3   4
ATOM      4  C   UNL     1       0.883   1.863  -1.237  1.00  0.00     0.188 C 
BRANCH   4   5
ATOM      5  O   UNL     1       2.090   1.204  -0.925  1.00  0.00    -0.376 OA
BRANCH   5   6
ATOM      6  C   UNL     1       2.271  -0.104  -1.433  1.00  0.00     0.202 C 
BRANCH   6   7
ATOM      7  C   UNL     1       2.016  -1.256  -0.461  1.00  0.00     0.261 C 
BRANCH   7   8
ATOM      8  O   UNL     1       1.724  -0.820   0.880  1.00  0.00    -0.460 OA
BRANCH   8   9
ATOM      9  C   UNL     1       2.525  -1.285   1.877  1.00  0.00     0.338 C 
ATOM     10  O   UNL     1       2.148  -2.128   2.678  1.00  0.00    -0.246 OA
BRANCH   9  11
ATOM     11  C   UNL     1       3.806  -0.535   2.047  1.00  0.00     0.087 C 
ATOM     12  C   UNL     1       4.906  -1.285   2.243  1.00  0.00     0.027 C 
ATOM     13  C   UNL     1       3.940   0.717   1.243  1.00  0.00     0.316 C 
ATOM     14  C   UNL     1       5.816  -1.325   1.079  1.00  0.00     0.020 A 
ATOM     15  O   UNL     1       4.705   0.507   0.012  1.00  0.00    -0.474 OA
ATOM     16  C   UNL     1       6.923  -2.169   1.085  1.00  0.00     0.032 A 
ATOM     17  C   UNL     1       5.457  -0.650  -0.102  1.00  0.00     0.143 A 
ATOM     18  C   UNL     1       7.593  -2.413  -0.110  1.00  0.00     0.043 A 
ATOM     19  C   UNL     1       5.948  -1.121  -1.351  1.00  0.00     0.069 A 
ATOM     20  Cl  UNL     1       9.031  -3.356  -0.091  1.00  0.00    -0.084 Cl
ATOM     21  C   UNL     1       7.067  -1.964  -1.325  1.00  0.00     0.041 A 
BRANCH  13  22
ATOM     22  C   UNL     1       4.266   1.935   2.121  1.00  0.00     0.430 C 
ATOM     23  F   UNL     1       4.034   3.102   1.476  1.00  0.00    -0.167 F 
ATOM     24  F   UNL     1       3.447   1.947   3.214  1.00  0.00    -0.167 F 
ATOM     25  F   UNL     1       5.531   1.952   2.584  1.00  0.00    -0.167 F 
ENDBRANCH  13  22
BRANCH  19  26
ATOM     26  C   UNL     1       5.238  -1.036  -2.642  1.00  0.00    -0.058 C 
ATOM     27  C   UNL     1       4.613  -1.139  -3.673  1.00  0.00    -0.062 C 
BRANCH  27  28
ATOM     28  C   UNL     1       3.848  -1.241  -4.925  1.00  0.00     0.025 A 
ATOM     29  C   UNL     1       3.521  -0.087  -5.638  1.00  0.00     0.017 A 
ATOM     30  C   UNL     1       3.501  -2.448  -5.529  1.00  0.00     0.017 A 
ATOM     31  C   UNL     1       2.885  -0.099  -6.890  1.00  0.00     0.001 A 
ATOM     32  C   UNL     1       2.974  -2.464  -6.842  1.00  0.00     0.001 A 
ATOM     33  C   UNL     1       2.670  -1.299  -7.528  1.00  0.00     0.000 A 
ENDBRANCH  27  28
ENDBRANCH  19  26
ENDBRANCH   9  11
ENDBRANCH   8   9
ENDBRANCH   7   8
ENDBRANCH   6   7
ENDBRANCH   5   6
ENDBRANCH   4   5
ENDBRANCH   3   4
ENDBRANCH   2   3
ENDBRANCH   1   2
BRANCH   1  34
ATOM     34  C   UNL     1       4.185   2.899  -2.672  1.00  0.00     0.188 C 
BRANCH  34  35
ATOM     35  O   UNL     1       4.415   4.295  -2.516  1.00  0.00    -0.376 OA
BRANCH  35  36
ATOM     36  C   UNL     1       3.430   5.180  -3.003  1.00  0.00     0.202 C 
BRANCH  36  37
ATOM     37  C   UNL     1       3.444   5.413  -4.529  1.00  0.00     0.261 C 
BRANCH  37  38
ATOM     38  O   UNL     1       3.978   4.357  -5.368  1.00  0.00    -0.460 OA
BRANCH  38  39
ATOM     39  C   UNL     1       5.329   4.230  -5.474  1.00  0.00     0.338 C 
ATOM     40  O   UNL     1       6.157   4.986  -4.997  1.00  0.00    -0.246 OA
BRANCH  39  41
ATOM     41  C   UNL     1       5.675   2.942  -6.168  1.00  0.00     0.060 A 
ATOM     42  C   UNL     1       6.594   2.049  -5.587  1.00  0.00     0.016 A 
ATOM     43  C   UNL     1       5.105   2.587  -7.389  1.00  0.00     0.016 A 
ATOM     44  C   UNL     1       6.927   0.809  -6.201  1.00  0.00     0.010 A 
ATOM     45  C   UNL     1       5.445   1.354  -7.996  1.00  0.00     0.010 A 
ATOM     46  C   UNL     1       6.362   0.428  -7.424  1.00  0.00    -0.014 A 
BRANCH  46  47
ATOM     47  C   UNL     1       6.738  -0.818  -8.223  1.00  0.00     0.031 A 
ATOM     48  C   UNL     1       7.208  -0.599  -9.648  1.00  0.00     0.074 A 
ATOM     49  C   UNL     1       6.654  -2.114  -7.821  1.00  0.00     0.049 A 
ATOM     50  N   UNL     1       7.301  -1.441 -10.645  1.00  0.00    -0.248 NA
ATOM     51  C   UNL     1       7.641   0.769  -9.977  1.00  0.00     0.031 C 
ATOM     52  C   UNL     1       6.453  -2.598  -6.461  1.00  0.00     0.029 A 
ATOM     53  N   UNL     1       6.660  -3.295  -8.560  1.00  0.00    -0.354 N 
ATOM     54  C   UNL     1       7.798  -0.705 -11.714  1.00  0.00     0.074 A 
ATOM     55  C   UNL     1       7.885   0.671 -11.273  1.00  0.00     0.031 C 
ATOM     56  C   UNL     1       6.187  -3.921  -6.479  1.00  0.00     0.029 A 
ATOM     57  C   UNL     1       6.206  -4.403  -7.854  1.00  0.00     0.049 A 
ATOM     58  H   UNL     1       6.958  -3.341  -9.497  1.00  0.00     0.167 HD
ATOM     59  C   UNL     1       8.209  -1.133 -12.932  1.00  0.00     0.034 A 
ATOM     60  C   UNL     1       5.816  -5.640  -8.257  1.00  0.00     0.034 A 
ATOM     61  C   UNL     1       8.205  -2.506 -13.359  1.00  0.00     0.049 A 
ATOM     62  C   UNL     1       6.053  -6.050  -9.694  1.00  0.00     0.074 A 
ATOM     63  C   UNL     1       8.717  -3.039 -14.530  1.00  0.00     0.029 A 
ATOM     64  N   UNL     1       7.660  -3.562 -12.647  1.00  0.00    -0.354 N 
ATOM     65  N   UNL     1       6.570  -5.349 -10.674  1.00  0.00    -0.248 NA
ATOM     66  C   UNL     1       5.726  -7.438 -10.062  1.00  0.00     0.031 C 
ATOM     67  C   UNL     1       8.401  -4.399 -14.568  1.00  0.00     0.029 A 
ATOM     68  C   UNL     1       7.766  -4.732 -13.383  1.00  0.00     0.049 A 
ATOM     69  H   UNL     1       7.256  -3.492 -11.752  1.00  0.00     0.167 HD
ATOM     70  C   UNL     1       6.720  -6.239 -11.736  1.00  0.00     0.074 A 
ATOM     71  C   UNL     1       6.207  -7.515 -11.294  1.00  0.00     0.031 C 
ATOM     72  C   UNL     1       7.276  -6.017 -12.953  1.00  0.00     0.034 A 
BRANCH  59  73
ATOM     73  C   UNL     1       8.714  -0.095 -13.899  1.00  0.00     0.023 A 
ATOM     74  C   UNL     1       9.877   0.649 -13.641  1.00  0.00     0.031 A 
ATOM     75  C   UNL     1       8.023   0.147 -15.099  1.00  0.00     0.131 A 
ATOM     76  C   UNL     1      10.275   1.651 -14.536  1.00  0.00     0.055 A 
ATOM     77  C   UNL     1       8.474   1.085 -16.027  1.00  0.00     0.041 A 
ATOM     78  F   UNL     1       6.897  -0.525 -15.386  1.00  0.00    -0.206 F 
ATOM     79  C   UNL     1       9.599   1.854 -15.741  1.00  0.00     0.022 A 
BRANCH  76  80
ATOM     80  S   UNL     1      11.611   2.769 -14.037  1.00  0.00     0.124 S 
ATOM     81  O   UNL     1      11.045   3.385 -12.839  1.00  0.00    -0.237 OA
ATOM     82  O   UNL     1      12.725   1.854 -13.819  1.00  0.00    -0.237 OA
ATOM     83  O   UNL     1      11.752   3.665 -15.183  1.00  0.00    -0.744 OA
ENDBRANCH  76  80
ENDBRANCH  59  73
BRANCH  60  84
ATOM     84  C   UNL     1       5.110  -6.616  -7.349  1.00  0.00     0.023 A 
ATOM     85  C   UNL     1       5.682  -7.840  -6.966  1.00  0.00     0.031 A 
ATOM     86  C   UNL     1       3.750  -6.434  -7.037  1.00  0.00     0.131 A 
ATOM     87  C   UNL     1       4.888  -8.829  -6.346  1.00  0.00     0.055 A 
ATOM     88  C   UNL     1       2.987  -7.378  -6.344  1.00  0.00     0.041 A 
ATOM     89  F   UNL     1       3.094  -5.367  -7.498  1.00  0.00    -0.206 F 
ATOM     90  C   UNL     1       3.553  -8.597  -6.010  1.00  0.00     0.022 A 
BRANCH  87  91
ATOM     91  S   UNL     1       5.571 -10.499  -6.141  1.00  0.00     0.124 S 
ATOM     92  O   UNL     1       5.921 -10.841  -7.515  1.00  0.00    -0.237 OA
ATOM     93  O   UNL     1       6.685 -10.255  -5.232  1.00  0.00    -0.237 OA
ATOM     94  O   UNL     1       4.457 -11.256  -5.573  1.00  0.00    -0.744 OA
ENDBRANCH  87  91
ENDBRANCH  60  84
BRANCH  72  95
ATOM     95  C   UNL     1       7.449  -7.195 -13.878  1.00  0.00     0.023 A 
ATOM     96  C   UNL     1       6.354  -7.867 -14.444  1.00  0.00     0.031 A 
ATOM     97  C   UNL     1       8.742  -7.637 -14.219  1.00  0.00     0.131 A 
ATOM     98  C   UNL     1       6.570  -8.966 -15.291  1.00  0.00     0.055 A 
ATOM     99  C   UNL     1       8.952  -8.688 -15.112  1.00  0.00     0.041 A 
ATOM    100  F   UNL     1       9.827  -7.038 -13.701  1.00  0.00    -0.206 F 
ATOM    101  C   UNL     1       7.861  -9.365 -15.646  1.00  0.00     0.022 A 
BRANCH  98 102
ATOM    102  S   UNL     1       5.136  -9.914 -15.869  1.00  0.00     0.124 S 
ATOM    103  O   UNL     1       4.562 -10.389 -14.615  1.00  0.00    -0.237 OA
ATOM    104  O   UNL     1       4.361  -8.904 -16.582  1.00  0.00    -0.237 OA
ATOM    105  O   UNL     1       5.728 -10.950 -16.714  1.00  0.00    -0.744 OA
ENDBRANCH  98 102
ENDBRANCH  72  95
ENDBRANCH  46  47
ENDBRANCH  39  41
ENDBRANCH  38  39
ENDBRANCH  37  38
ENDBRANCH  36  37
ENDBRANCH  35  36
ENDBRANCH  34  35
ENDBRANCH   1  34
TORSDOF 26
