REMARK SMILES C[C@H](Cc1ccc(N)cc1)C(=O)OCCOCCOCCOCCOC(=O)c1ccc(-c2c3nc(c(-c4cc(S(=O)(=O)[O-])ccc4F)c4ccc([nH]4)c(-c4cc(S(=O)(=O)[O-])ccc4F)c4nc(c(-c5cc(S(=O)(=O)[O-])ccc5F)c5ccc2[nH]5)C=C4)C=C3)cc1
REMARK SMILES IDX 19 1 18 2 17 3 16 4 15 5 14 6 13 7 11 8 12 9 2 10 1 11 3 12
REMARK SMILES IDX 4 13 5 14 10 15 6 16 9 17 7 18 8 19 20 22 21 23 22 24 23 25
REMARK SMILES IDX 24 26 25 27 26 28 27 29 28 30 29 31 90 32 30 33 89 34 31 35
REMARK SMILES IDX 32 36 33 37 83 38 34 39 88 40 82 41 84 42 35 43 87 44 81 45
REMARK SMILES IDX 80 46 36 48 68 49 48 50 67 51 49 52 52 53 66 54 85 55 50 56
REMARK SMILES IDX 51 57 65 59 86 60 53 61 37 62 38 63 46 64 39 65 45 66 47 67
REMARK SMILES IDX 44 68 40 69 41 70 42 71 43 72 69 73 70 74 78 75 71 76 77 77
REMARK SMILES IDX 79 78 76 79 72 80 73 81 74 82 75 83 54 84 55 85 63 86 56 87
REMARK SMILES IDX 62 88 64 89 61 90 57 91 58 92 59 93 60 94
REMARK H PARENT 8 20 8 21 84 47 52 58
REMARK Flexibility Score: inf
ROOT
ATOM      1  O   UNL     1      -1.751  -0.436  -0.872  1.00  0.00    -0.377 OA
ENDROOT
BRANCH   1   2
ATOM      2  C   UNL     1      -1.386  -1.629  -0.215  1.00  0.00     0.188 C 
BRANCH   2   3
ATOM      3  C   UNL     1      -2.193  -2.085   1.008  1.00  0.00     0.188 C 
BRANCH   3   4
ATOM      4  O   UNL     1      -3.538  -1.681   1.096  1.00  0.00    -0.376 OA
BRANCH   4   5
ATOM      5  C   UNL     1      -3.896  -0.401   1.591  1.00  0.00     0.202 C 
BRANCH   5   6
ATOM      6  C   UNL     1      -2.919   0.696   2.052  1.00  0.00     0.261 C 
BRANCH   6   7
ATOM      7  O   UNL     1      -1.565   0.635   1.595  1.00  0.00    -0.463 OA
BRANCH   7   8
ATOM      8  C   UNL     1      -0.628   0.364   2.526  1.00  0.00     0.309 C 
ATOM      9  O   UNL     1      -0.896   0.031   3.680  1.00  0.00    -0.252 OA
BRANCH   8  10
ATOM     10  C   UNL     1       0.819   0.463   2.054  1.00  0.00     0.100 C 
ATOM     11  C   UNL     1       1.573   1.341   3.054  1.00  0.00     0.020 C 
BRANCH  10  12
ATOM     12  C   UNL     1       1.214   0.804   0.599  1.00  0.00     0.050 C 
BRANCH  12  13
ATOM     13  C   UNL     1       0.502   1.822  -0.252  1.00  0.00    -0.047 A 
ATOM     14  C   UNL     1      -0.212   2.905   0.258  1.00  0.00     0.006 A 
ATOM     15  C   UNL     1       0.568   1.673  -1.651  1.00  0.00     0.006 A 
ATOM     16  C   UNL     1      -0.900   3.768  -0.604  1.00  0.00     0.026 A 
ATOM     17  C   UNL     1      -0.111   2.544  -2.505  1.00  0.00     0.026 A 
ATOM     18  C   UNL     1      -0.846   3.606  -1.989  1.00  0.00     0.031 A 
BRANCH  18  19
ATOM     19  N   UNL     1      -1.576   4.426  -2.824  1.00  0.00    -0.399 N 
ATOM     20  H   UNL     1      -2.093   5.175  -2.450  1.00  0.00     0.156 HD
ATOM     21  H   UNL     1      -1.581   4.261  -3.795  1.00  0.00     0.156 HD
ENDBRANCH  18  19
ENDBRANCH  12  13
ENDBRANCH  10  12
ENDBRANCH   8  10
ENDBRANCH   7   8
ENDBRANCH   6   7
ENDBRANCH   5   6
ENDBRANCH   4   5
ENDBRANCH   3   4
ENDBRANCH   2   3
ENDBRANCH   1   2
BRANCH   1  22
ATOM     22  C   UNL     1      -2.991  -0.318  -1.556  1.00  0.00     0.188 C 
BRANCH  22  23
ATOM     23  C   UNL     1      -3.864  -1.556  -1.840  1.00  0.00     0.188 C 
BRANCH  23  24
ATOM     24  O   UNL     1      -3.165  -2.790  -1.859  1.00  0.00    -0.376 OA
BRANCH  24  25
ATOM     25  C   UNL     1      -2.752  -3.294  -3.120  1.00  0.00     0.202 C 
BRANCH  25  26
ATOM     26  C   UNL     1      -1.789  -2.432  -3.952  1.00  0.00     0.261 C 
BRANCH  26  27
ATOM     27  O   UNL     1      -2.269  -1.137  -4.351  1.00  0.00    -0.460 OA
BRANCH  27  28
ATOM     28  C   UNL     1      -3.392  -1.080  -5.098  1.00  0.00     0.338 C 
ATOM     29  O   UNL     1      -4.036  -2.025  -5.526  1.00  0.00    -0.246 OA
BRANCH  28  30
ATOM     30  C   UNL     1      -3.817   0.333  -5.168  1.00  0.00     0.060 A 
ATOM     31  C   UNL     1      -5.016   0.719  -4.556  1.00  0.00     0.016 A 
ATOM     32  C   UNL     1      -3.029   1.277  -5.830  1.00  0.00     0.016 A 
ATOM     33  C   UNL     1      -5.437   2.050  -4.614  1.00  0.00     0.010 A 
ATOM     34  C   UNL     1      -3.465   2.604  -5.907  1.00  0.00     0.010 A 
ATOM     35  C   UNL     1      -4.680   2.996  -5.315  1.00  0.00    -0.014 A 
BRANCH  35  36
ATOM     36  C   UNL     1      -5.219   4.361  -5.554  1.00  0.00     0.031 A 
ATOM     37  C   UNL     1      -5.826   4.674  -6.894  1.00  0.00     0.074 A 
ATOM     38  C   UNL     1      -5.178   5.307  -4.596  1.00  0.00     0.049 A 
ATOM     39  N   UNL     1      -6.267   5.813  -7.360  1.00  0.00    -0.248 NA
ATOM     40  C   UNL     1      -5.962   3.546  -7.830  1.00  0.00     0.031 C 
ATOM     41  C   UNL     1      -4.704   5.104  -3.229  1.00  0.00     0.029 A 
ATOM     42  N   UNL     1      -5.523   6.637  -4.635  1.00  0.00    -0.354 N 
ATOM     43  C   UNL     1      -6.737   5.542  -8.641  1.00  0.00     0.074 A 
ATOM     44  C   UNL     1      -6.494   4.137  -8.890  1.00  0.00     0.031 C 
ATOM     45  C   UNL     1      -4.736   6.279  -2.575  1.00  0.00     0.029 A 
ATOM     46  C   UNL     1      -5.205   7.322  -3.484  1.00  0.00     0.049 A 
ATOM     47  H   UNL     1      -5.957   7.059  -5.411  1.00  0.00     0.167 HD
ATOM     48  C   UNL     1      -7.326   6.387  -9.521  1.00  0.00     0.034 A 
ATOM     49  C   UNL     1      -5.248   8.643  -3.210  1.00  0.00     0.034 A 
ATOM     50  C   UNL     1      -7.554   7.787  -9.261  1.00  0.00     0.049 A 
ATOM     51  C   UNL     1      -5.781   9.590  -4.262  1.00  0.00     0.074 A 
ATOM     52  C   UNL     1      -8.167   8.723 -10.076  1.00  0.00     0.029 A 
ATOM     53  N   UNL     1      -7.162   8.460  -8.111  1.00  0.00    -0.354 N 
ATOM     54  N   UNL     1      -6.244   9.317  -5.461  1.00  0.00    -0.248 NA
ATOM     55  C   UNL     1      -5.816  11.018  -3.918  1.00  0.00     0.031 C 
ATOM     56  C   UNL     1      -8.064   9.974  -9.461  1.00  0.00     0.029 A 
ATOM     57  C   UNL     1      -7.473   9.806  -8.219  1.00  0.00     0.049 A 
ATOM     58  H   UNL     1      -6.727   8.041  -7.334  1.00  0.00     0.167 HD
ATOM     59  C   UNL     1      -6.663  10.536  -5.993  1.00  0.00     0.074 A 
ATOM     60  C   UNL     1      -6.413  11.538  -4.980  1.00  0.00     0.031 C 
ATOM     61  C   UNL     1      -7.211  10.801  -7.206  1.00  0.00     0.034 A 
BRANCH  48  62
ATOM     62  C   UNL     1      -7.717   5.837 -10.870  1.00  0.00     0.023 A 
ATOM     63  C   UNL     1      -8.724   4.868 -11.017  1.00  0.00     0.031 A 
ATOM     64  C   UNL     1      -7.080   6.309 -12.032  1.00  0.00     0.131 A 
ATOM     65  C   UNL     1      -9.034   4.370 -12.293  1.00  0.00     0.055 A 
ATOM     66  C   UNL     1      -7.443   5.864 -13.304  1.00  0.00     0.041 A 
ATOM     67  F   UNL     1      -6.093   7.215 -11.949  1.00  0.00    -0.206 F 
ATOM     68  C   UNL     1      -8.419   4.882 -13.439  1.00  0.00     0.022 A 
BRANCH  65  69
ATOM     69  S   UNL     1     -10.172   2.965 -12.427  1.00  0.00     0.124 S 
ATOM     70  O   UNL     1      -9.482   1.950 -11.634  1.00  0.00    -0.237 OA
ATOM     71  O   UNL     1     -11.401   3.498 -11.851  1.00  0.00    -0.237 OA
ATOM     72  O   UNL     1     -10.220   2.698 -13.863  1.00  0.00    -0.744 OA
ENDBRANCH  65  69
ENDBRANCH  48  62
BRANCH  49  73
ATOM     73  C   UNL     1      -4.725   9.175  -1.916  1.00  0.00     0.023 A 
ATOM     74  C   UNL     1      -5.550   9.893  -1.036  1.00  0.00     0.031 A 
ATOM     75  C   UNL     1      -3.361   9.057  -1.587  1.00  0.00     0.131 A 
ATOM     76  C   UNL     1      -4.994  10.526   0.087  1.00  0.00     0.055 A 
ATOM     77  C   UNL     1      -2.825   9.635  -0.434  1.00  0.00     0.041 A 
ATOM     78  F   UNL     1      -2.523   8.380  -2.389  1.00  0.00    -0.206 F 
ATOM     79  C   UNL     1      -3.640  10.392   0.401  1.00  0.00     0.022 A 
BRANCH  76  80
ATOM     80  S   UNL     1      -6.046  11.638   1.062  1.00  0.00     0.124 S 
ATOM     81  O   UNL     1      -6.506  12.576   0.044  1.00  0.00    -0.237 OA
ATOM     82  O   UNL     1      -7.049  10.718   1.587  1.00  0.00    -0.237 OA
ATOM     83  O   UNL     1      -5.128  12.191   2.054  1.00  0.00    -0.744 OA
ENDBRANCH  76  80
ENDBRANCH  49  73
BRANCH  61  84
ATOM     84  C   UNL     1      -7.621  12.229  -7.483  1.00  0.00     0.023 A 
ATOM     85  C   UNL     1      -6.678  13.268  -7.566  1.00  0.00     0.031 A 
ATOM     86  C   UNL     1      -8.978  12.556  -7.658  1.00  0.00     0.131 A 
ATOM     87  C   UNL     1      -7.107  14.590  -7.753  1.00  0.00     0.055 A 
ATOM     88  C   UNL     1      -9.393  13.863  -7.917  1.00  0.00     0.041 A 
ATOM     89  F   UNL     1      -9.926  11.608  -7.585  1.00  0.00    -0.206 F 
ATOM     90  C   UNL     1      -8.457  14.892  -7.950  1.00  0.00     0.022 A 
BRANCH  87  91
ATOM     91  S   UNL     1      -5.887  15.926  -7.630  1.00  0.00     0.124 S 
ATOM     92  O   UNL     1      -5.364  15.734  -6.281  1.00  0.00    -0.237 OA
ATOM     93  O   UNL     1      -4.969  15.613  -8.720  1.00  0.00    -0.237 OA
ATOM     94  O   UNL     1      -6.684  17.137  -7.819  1.00  0.00    -0.744 OA
ENDBRANCH  87  91
ENDBRANCH  61  84
ENDBRANCH  35  36
ENDBRANCH  28  30
ENDBRANCH  27  28
ENDBRANCH  26  27
ENDBRANCH  25  26
ENDBRANCH  24  25
ENDBRANCH  23  24
ENDBRANCH  22  23
ENDBRANCH   1  22
TORSDOF 26
