REMARK SMILES O=C(OCCOCCOCCOCCOC(=O)[C@H]1[C@H]2CC[C@H](CC2)[C@@H]1C(=O)Nc1ccc(Cc2ccncc2)cc1)c1ccc(-c2c3nc(c(-c4cc(S(=O)(=O)[O-])ccc4F)c4ccc([nH]4)c(-c4cc(S(=O)(=O)[O-])ccc4F)c4nc(c(-c5cc(S(=O)(=O)[O-])ccc5F)c5ccc2[nH]5)C=C4)C=C3)cc1
REMARK SMILES IDX 10 1 9 2 8 3 7 4 6 5 5 6 4 7 3 8 2 9 1 10 42 11 43 12 104 13
REMARK SMILES IDX 44 14 103 15 45 16 46 17 47 18 97 19 48 20 102 21 96 22
REMARK SMILES IDX 98 23 49 24 101 25 95 26 94 27 50 29 82 30 62 31 81 32 63 33
REMARK SMILES IDX 66 34 80 35 99 36 64 37 65 38 79 40 100 41 67 42 51 43 52 44
REMARK SMILES IDX 60 45 53 46 59 47 61 48 58 49 54 50 55 51 56 52 57 53 83 54
REMARK SMILES IDX 84 55 92 56 85 57 91 58 93 59 90 60 86 61 87 62 88 63 89 64
REMARK SMILES IDX 68 65 69 66 77 67 70 68 76 69 78 70 75 71 71 72 72 73 73 74
REMARK SMILES IDX 74 75 11 76 12 77 13 78 14 79 15 80 16 81 17 82 18 83 19 84
REMARK SMILES IDX 25 85 24 86 20 87 22 88 23 89 21 90 26 91 27 92 28 93 29 95
REMARK SMILES IDX 30 96 41 97 31 98 40 99 32 100 33 101 34 102 35 103 39 104
REMARK SMILES IDX 36 105 38 106 37 107
REMARK H PARENT 98 28 66 39 28 94
REMARK Flexibility Score: inf
ROOT
ATOM      1  C   UNL     1       3.672  -2.251   2.197  1.00  0.00     0.188 C 
ENDROOT
BRANCH   1   2
ATOM      2  O   UNL     1       2.252  -2.125   2.215  1.00  0.00    -0.377 OA
BRANCH   2   3
ATOM      3  C   UNL     1       1.667  -1.586   1.035  1.00  0.00     0.188 C 
BRANCH   3   4
ATOM      4  C   UNL     1       2.154  -0.174   0.740  1.00  0.00     0.188 C 
BRANCH   4   5
ATOM      5  O   UNL     1       3.521  -0.218   0.321  1.00  0.00    -0.376 OA
BRANCH   5   6
ATOM      6  C   UNL     1       4.362   0.782   0.888  1.00  0.00     0.202 C 
BRANCH   6   7
ATOM      7  C   UNL     1       4.324   2.116   0.145  1.00  0.00     0.261 C 
BRANCH   7   8
ATOM      8  O   UNL     1       3.043   2.406  -0.432  1.00  0.00    -0.460 OA
BRANCH   8   9
ATOM      9  C   UNL     1       2.534   2.001  -1.624  1.00  0.00     0.338 C 
ATOM     10  O   UNL     1       1.435   2.457  -1.946  1.00  0.00    -0.246 OA
BRANCH   9  11
ATOM     11  C   UNL     1       3.162   0.985  -2.543  1.00  0.00     0.060 A 
ATOM     12  C   UNL     1       4.353   0.290  -2.319  1.00  0.00     0.016 A 
ATOM     13  C   UNL     1       2.458   0.688  -3.729  1.00  0.00     0.016 A 
ATOM     14  C   UNL     1       4.829  -0.666  -3.206  1.00  0.00     0.010 A 
ATOM     15  C   UNL     1       2.956  -0.228  -4.662  1.00  0.00     0.010 A 
ATOM     16  C   UNL     1       4.161  -0.885  -4.404  1.00  0.00    -0.014 A 
BRANCH  16  17
ATOM     17  C   UNL     1       4.929  -1.553  -5.466  1.00  0.00     0.031 A 
ATOM     18  C   UNL     1       5.777  -0.669  -6.333  1.00  0.00     0.074 A 
ATOM     19  C   UNL     1       5.003  -2.892  -5.517  1.00  0.00     0.049 A 
ATOM     20  N   UNL     1       6.523  -0.973  -7.356  1.00  0.00    -0.248 NA
ATOM     21  C   UNL     1       5.813   0.759  -5.964  1.00  0.00     0.031 C 
ATOM     22  C   UNL     1       4.364  -3.807  -4.570  1.00  0.00     0.029 A 
ATOM     23  N   UNL     1       5.666  -3.715  -6.385  1.00  0.00    -0.354 N 
ATOM     24  C   UNL     1       7.098   0.226  -7.766  1.00  0.00     0.074 A 
ATOM     25  C   UNL     1       6.635   1.258  -6.870  1.00  0.00     0.031 C 
ATOM     26  C   UNL     1       4.655  -5.071  -4.924  1.00  0.00     0.029 A 
ATOM     27  C   UNL     1       5.434  -5.051  -6.159  1.00  0.00     0.049 A 
ATOM     28  H   UNL     1       6.253  -3.382  -7.103  1.00  0.00     0.167 HD
ATOM     29  C   UNL     1       7.914   0.440  -8.824  1.00  0.00     0.034 A 
ATOM     30  C   UNL     1       5.768  -6.116  -6.914  1.00  0.00     0.034 A 
ATOM     31  C   UNL     1       8.291  -0.618  -9.722  1.00  0.00     0.049 A 
ATOM     32  C   UNL     1       6.538  -5.839  -8.187  1.00  0.00     0.074 A 
ATOM     33  C   UNL     1       8.996  -0.548 -10.907  1.00  0.00     0.029 A 
ATOM     34  N   UNL     1       7.958  -1.956  -9.528  1.00  0.00    -0.354 N 
ATOM     35  N   UNL     1       7.007  -4.692  -8.634  1.00  0.00    -0.248 NA
ATOM     36  C   UNL     1       6.807  -6.981  -9.067  1.00  0.00     0.031 C 
ATOM     37  C   UNL     1       9.028  -1.833 -11.462  1.00  0.00     0.029 A 
ATOM     38  C   UNL     1       8.408  -2.718 -10.589  1.00  0.00     0.049 A 
ATOM     39  H   UNL     1       7.473  -2.309  -8.748  1.00  0.00     0.167 HD
ATOM     40  C   UNL     1       7.631  -4.978  -9.843  1.00  0.00     0.074 A 
ATOM     41  C   UNL     1       7.504  -6.411 -10.039  1.00  0.00     0.031 C 
ATOM     42  C   UNL     1       8.246  -4.147 -10.725  1.00  0.00     0.034 A 
BRANCH  29  43
ATOM     43  C   UNL     1       8.280   1.874  -9.113  1.00  0.00     0.023 A 
ATOM     44  C   UNL     1       9.081   2.633  -8.239  1.00  0.00     0.031 A 
ATOM     45  C   UNL     1       7.693   2.531 -10.208  1.00  0.00     0.131 A 
ATOM     46  C   UNL     1       9.201   4.020  -8.430  1.00  0.00     0.055 A 
ATOM     47  C   UNL     1       7.879   3.896 -10.435  1.00  0.00     0.041 A 
ATOM     48  F   UNL     1       6.886   1.867 -11.050  1.00  0.00    -0.206 F 
ATOM     49  C   UNL     1       8.622   4.652  -9.534  1.00  0.00     0.022 A 
BRANCH  46  50
ATOM     50  S   UNL     1       9.983   5.016  -7.129  1.00  0.00     0.124 S 
ATOM     51  O   UNL     1       9.090   4.777  -5.997  1.00  0.00    -0.237 OA
ATOM     52  O   UNL     1      11.311   4.424  -7.030  1.00  0.00    -0.237 OA
ATOM     53  O   UNL     1       9.945   6.375  -7.667  1.00  0.00    -0.744 OA
ENDBRANCH  46  50
ENDBRANCH  29  43
BRANCH  30  54
ATOM     54  C   UNL     1       5.291  -7.489  -6.570  1.00  0.00     0.023 A 
ATOM     55  C   UNL     1       6.184  -8.558  -6.402  1.00  0.00     0.031 A 
ATOM     56  C   UNL     1       3.914  -7.774  -6.474  1.00  0.00     0.131 A 
ATOM     57  C   UNL     1       5.693  -9.859  -6.198  1.00  0.00     0.055 A 
ATOM     58  C   UNL     1       3.433  -9.057  -6.204  1.00  0.00     0.041 A 
ATOM     59  F   UNL     1       3.004  -6.801  -6.644  1.00  0.00    -0.206 F 
ATOM     60  C   UNL     1       4.325 -10.114  -6.078  1.00  0.00     0.022 A 
BRANCH  57  61
ATOM     61  S   UNL     1       6.872 -11.237  -6.183  1.00  0.00     0.124 S 
ATOM     62  O   UNL     1       7.461 -11.132  -7.513  1.00  0.00    -0.237 OA
ATOM     63  O   UNL     1       7.738 -10.870  -5.068  1.00  0.00    -0.237 OA
ATOM     64  O   UNL     1       6.025 -12.407  -5.964  1.00  0.00    -0.744 OA
ENDBRANCH  57  61
ENDBRANCH  30  54
BRANCH  42  65
ATOM     65  C   UNL     1       8.838  -4.786 -11.949  1.00  0.00     0.023 A 
ATOM     66  C   UNL     1       8.024  -5.301 -12.970  1.00  0.00     0.031 A 
ATOM     67  C   UNL     1      10.233  -4.851 -12.104  1.00  0.00     0.131 A 
ATOM     68  C   UNL     1       8.614  -5.900 -14.090  1.00  0.00     0.055 A 
ATOM     69  C   UNL     1      10.814  -5.398 -13.246  1.00  0.00     0.041 A 
ATOM     70  F   UNL     1      11.049  -4.367 -11.154  1.00  0.00    -0.206 F 
ATOM     71  C   UNL     1      10.003  -5.934 -14.243  1.00  0.00     0.022 A 
BRANCH  68  72
ATOM     72  S   UNL     1       7.540  -6.686 -15.319  1.00  0.00     0.124 S 
ATOM     73  O   UNL     1       6.896  -7.733 -14.532  1.00  0.00    -0.237 OA
ATOM     74  O   UNL     1       6.680  -5.583 -15.737  1.00  0.00    -0.237 OA
ATOM     75  O   UNL     1       8.476  -7.160 -16.337  1.00  0.00    -0.744 OA
ENDBRANCH  68  72
ENDBRANCH  42  65
ENDBRANCH  16  17
ENDBRANCH   9  11
ENDBRANCH   8   9
ENDBRANCH   7   8
ENDBRANCH   6   7
ENDBRANCH   5   6
ENDBRANCH   4   5
ENDBRANCH   3   4
ENDBRANCH   2   3
ENDBRANCH   1   2
BRANCH   1  76
ATOM     76  C   UNL     1       4.314  -3.034   1.052  1.00  0.00     0.188 C 
BRANCH  76  77
ATOM     77  O   UNL     1       3.421  -3.955   0.443  1.00  0.00    -0.376 OA
BRANCH  77  78
ATOM     78  C   UNL     1       3.313  -5.241   1.039  1.00  0.00     0.202 C 
BRANCH  78  79
ATOM     79  C   UNL     1       2.489  -5.335   2.340  1.00  0.00     0.261 C 
BRANCH  79  80
ATOM     80  O   UNL     1       3.037  -4.961   3.638  1.00  0.00    -0.463 OA
BRANCH  80  81
ATOM     81  C   UNL     1       4.366  -4.905   3.859  1.00  0.00     0.310 C 
ATOM     82  O   UNL     1       5.222  -5.106   3.009  1.00  0.00    -0.252 OA
BRANCH  81  83
ATOM     83  C   UNL     1       4.758  -4.462   5.258  1.00  0.00     0.115 C 
ATOM     84  C   UNL     1       4.494  -2.961   5.560  1.00  0.00     0.004 C 
ATOM     85  C   UNL     1       4.189  -5.378   6.364  1.00  0.00     0.096 C 
ATOM     86  C   UNL     1       2.994  -2.659   5.730  1.00  0.00     0.005 C 
ATOM     87  C   UNL     1       5.177  -2.642   6.900  1.00  0.00     0.005 C 
ATOM     88  C   UNL     1       3.487  -4.454   7.423  1.00  0.00     0.002 C 
ATOM     89  C   UNL     1       2.373  -3.649   6.720  1.00  0.00     0.005 C 
ATOM     90  C   UNL     1       4.470  -3.411   8.019  1.00  0.00     0.005 C 
BRANCH  85  91
ATOM     91  C   UNL     1       5.297  -6.233   7.024  1.00  0.00     0.228 C 
ATOM     92  O   UNL     1       5.454  -6.252   8.248  1.00  0.00    -0.274 OA
ATOM     93  N   UNL     1       6.192  -6.943   6.269  1.00  0.00    -0.326 N 
ATOM     94  H   UNL     1       7.031  -7.173   6.731  1.00  0.00     0.169 HD
BRANCH  93  95
ATOM     95  C   UNL     1       6.109  -7.396   4.948  1.00  0.00     0.041 A 
ATOM     96  C   UNL     1       5.041  -8.175   4.508  1.00  0.00     0.026 A 
ATOM     97  C   UNL     1       7.159  -7.101   4.074  1.00  0.00     0.026 A 
ATOM     98  C   UNL     1       4.986  -8.594   3.172  1.00  0.00     0.006 A 
ATOM     99  C   UNL     1       7.070  -7.463   2.724  1.00  0.00     0.006 A 
ATOM    100  C   UNL     1       5.970  -8.194   2.253  1.00  0.00    -0.043 A 
BRANCH 100 101
ATOM    101  C   UNL     1       5.790  -8.449   0.767  1.00  0.00     0.071 C 
BRANCH 101 102
ATOM    102  C   UNL     1       6.868  -9.272   0.111  1.00  0.00    -0.041 A 
ATOM    103  C   UNL     1       7.179 -10.551   0.579  1.00  0.00     0.024 A 
ATOM    104  C   UNL     1       7.528  -8.808  -1.034  1.00  0.00     0.024 A 
ATOM    105  C   UNL     1       8.166 -11.275  -0.070  1.00  0.00     0.111 A 
ATOM    106  C   UNL     1       8.490  -9.617  -1.624  1.00  0.00     0.111 A 
ATOM    107  N   UNL     1       8.852 -10.823  -1.135  1.00  0.00    -0.265 NA
ENDBRANCH 101 102
ENDBRANCH 100 101
ENDBRANCH  93  95
ENDBRANCH  85  91
ENDBRANCH  81  83
ENDBRANCH  80  81
ENDBRANCH  79  80
ENDBRANCH  78  79
ENDBRANCH  77  78
ENDBRANCH  76  77
ENDBRANCH   1  76
TORSDOF 27
