REMARK SMILES CS(=O)(=O)c1ccc(/C=C(/C(=O)OCCOCCOCCOCCOC(=O)c2ccc(-c3c4nc(c(-c5cc(S(=O)(=O)[O-])ccc5F)c5ccc([nH]5)c(-c5cc(S(=O)(=O)[O-])ccc5F)c5nc(c(-c6cc(S(=O)(=O)[O-])ccc6F)c6ccc3[nH]6)C=C5)C=C4)cc2)c2ccc(O)cc2)cc1
REMARK SMILES IDX 20 1 19 2 18 3 17 4 16 5 15 6 14 7 13 8 11 9 12 10 10 11
REMARK SMILES IDX 9 12 8 13 5 14 6 15 99 16 7 17 98 18 2 19 1 20 3 21 4 22
REMARK SMILES IDX 91 23 92 24 97 25 93 26 96 27 94 28 95 29 21 31 22 32 23 33
REMARK SMILES IDX 24 34 25 35 26 36 27 37 28 38 29 39 90 40 30 41 89 42 31 43
REMARK SMILES IDX 32 44 33 45 83 46 34 47 88 48 82 49 84 50 35 51 87 52 81 53
REMARK SMILES IDX 80 54 36 56 68 57 48 58 67 59 49 60 52 61 66 62 85 63 50 64
REMARK SMILES IDX 51 65 65 67 86 68 53 69 37 70 38 71 46 72 39 73 45 74 47 75
REMARK SMILES IDX 44 76 40 77 41 78 42 79 43 80 69 81 70 82 78 83 71 84 77 85
REMARK SMILES IDX 79 86 76 87 72 88 73 89 74 90 75 91 54 92 55 93 63 94 56 95
REMARK SMILES IDX 62 96 64 97 61 98 57 99 58 100 59 101 60 102
REMARK H PARENT 95 30 84 55 52 66
REMARK Flexibility Score: inf
ROOT
ATOM      1  C   UNL     1       4.909   8.461  -6.008  1.00  0.00     0.188 C 
ENDROOT
BRANCH   1   2
ATOM      2  O   UNL     1       4.359   7.216  -5.589  1.00  0.00    -0.377 OA
BRANCH   2   3
ATOM      3  C   UNL     1       4.896   6.012  -6.106  1.00  0.00     0.188 C 
BRANCH   3   4
ATOM      4  C   UNL     1       5.085   5.882  -7.635  1.00  0.00     0.188 C 
BRANCH   4   5
ATOM      5  O   UNL     1       4.796   7.070  -8.346  1.00  0.00    -0.376 OA
BRANCH   5   6
ATOM      6  C   UNL     1       3.576   7.140  -9.062  1.00  0.00     0.202 C 
BRANCH   6   7
ATOM      7  C   UNL     1       2.251   6.897  -8.320  1.00  0.00     0.261 C 
BRANCH   7   8
ATOM      8  O   UNL     1       2.243   5.836  -7.353  1.00  0.00    -0.460 OA
BRANCH   8   9
ATOM      9  C   UNL     1       2.169   4.563  -7.808  1.00  0.00     0.338 C 
ATOM     10  O   UNL     1       2.070   4.234  -8.980  1.00  0.00    -0.246 OA
BRANCH   9  11
ATOM     11  C   UNL     1       2.379   3.590  -6.677  1.00  0.00     0.067 C 
ATOM     12  C   UNL     1       1.828   3.867  -5.468  1.00  0.00     0.024 C 
BRANCH  12  13
ATOM     13  C   UNL     1       1.698   2.992  -4.277  1.00  0.00    -0.025 A 
ATOM     14  C   UNL     1       0.973   1.059  -2.382  1.00  0.00     0.067 A 
ATOM     15  C   UNL     1       2.176   0.933  -3.070  1.00  0.00     0.021 A 
ATOM     16  C   UNL     1       0.192   2.204  -2.528  1.00  0.00     0.021 A 
ATOM     17  C   UNL     1       2.555   1.927  -3.974  1.00  0.00     0.009 A 
ATOM     18  C   UNL     1       0.562   3.170  -3.469  1.00  0.00     0.009 A 
BRANCH  14  19
ATOM     19  S   UNL     1       0.362  -0.319  -1.446  1.00  0.00     0.175 S 
ATOM     20  C   UNL     1       1.030  -0.057   0.170  1.00  0.00     0.163 C 
ATOM     21  O   UNL     1       0.966  -1.521  -1.992  1.00  0.00    -0.224 OA
ATOM     22  O   UNL     1      -1.081  -0.192  -1.366  1.00  0.00    -0.224 OA
ENDBRANCH  14  19
ENDBRANCH  12  13
BRANCH  11  23
ATOM     23  C   UNL     1       3.166   2.370  -6.956  1.00  0.00    -0.011 A 
ATOM     24  C   UNL     1       4.572   2.405  -6.871  1.00  0.00     0.013 A 
ATOM     25  C   UNL     1       2.538   1.142  -7.182  1.00  0.00     0.013 A 
ATOM     26  C   UNL     1       5.331   1.243  -6.990  1.00  0.00     0.047 A 
ATOM     27  C   UNL     1       3.297  -0.029  -7.281  1.00  0.00     0.047 A 
ATOM     28  C   UNL     1       4.685   0.032  -7.176  1.00  0.00     0.115 A 
BRANCH  28  29
ATOM     29  O   UNL     1       5.457  -1.091  -7.223  1.00  0.00    -0.508 OA
ATOM     30  H   UNL     1       6.388  -1.022  -7.150  1.00  0.00     0.293 HD
ENDBRANCH  28  29
ENDBRANCH  11  23
ENDBRANCH   9  11
ENDBRANCH   8   9
ENDBRANCH   7   8
ENDBRANCH   6   7
ENDBRANCH   5   6
ENDBRANCH   4   5
ENDBRANCH   3   4
ENDBRANCH   2   3
ENDBRANCH   1   2
BRANCH   1  31
ATOM     31  C   UNL     1       6.348   8.556  -6.569  1.00  0.00     0.188 C 
BRANCH  31  32
ATOM     32  O   UNL     1       7.141   7.391  -6.394  1.00  0.00    -0.376 OA
BRANCH  32  33
ATOM     33  C   UNL     1       8.144   7.420  -5.394  1.00  0.00     0.202 C 
BRANCH  33  34
ATOM     34  C   UNL     1       7.672   7.561  -3.941  1.00  0.00     0.261 C 
BRANCH  34  35
ATOM     35  O   UNL     1       6.842   8.696  -3.652  1.00  0.00    -0.460 OA
BRANCH  35  36
ATOM     36  C   UNL     1       7.387   9.920  -3.826  1.00  0.00     0.338 C 
ATOM     37  O   UNL     1       8.527  10.168  -4.186  1.00  0.00    -0.246 OA
BRANCH  36  38
ATOM     38  C   UNL     1       6.300  10.912  -3.703  1.00  0.00     0.060 A 
ATOM     39  C   UNL     1       5.990  11.727  -4.800  1.00  0.00     0.016 A 
ATOM     40  C   UNL     1       5.565  11.011  -2.519  1.00  0.00     0.016 A 
ATOM     41  C   UNL     1       4.957  12.660  -4.707  1.00  0.00     0.010 A 
ATOM     42  C   UNL     1       4.549  11.964  -2.418  1.00  0.00     0.010 A 
ATOM     43  C   UNL     1       4.260  12.812  -3.502  1.00  0.00    -0.014 A 
BRANCH  43  44
ATOM     44  C   UNL     1       3.368  13.984  -3.316  1.00  0.00     0.031 A 
ATOM     45  C   UNL     1       3.914  15.184  -2.591  1.00  0.00     0.074 A 
ATOM     46  C   UNL     1       2.115  13.996  -3.803  1.00  0.00     0.049 A 
ATOM     47  N   UNL     1       3.322  16.305  -2.272  1.00  0.00    -0.248 NA
ATOM     48  C   UNL     1       5.319  15.099  -2.163  1.00  0.00     0.031 C 
ATOM     49  C   UNL     1       1.494  12.911  -4.562  1.00  0.00     0.029 A 
ATOM     50  N   UNL     1       1.137  14.956  -3.726  1.00  0.00    -0.354 N 
ATOM     51  C   UNL     1       4.279  17.058  -1.600  1.00  0.00     0.074 A 
ATOM     52  C   UNL     1       5.475  16.247  -1.524  1.00  0.00     0.031 C 
ATOM     53  C   UNL     1       0.235  13.264  -4.872  1.00  0.00     0.029 A 
ATOM     54  C   UNL     1      -0.055  14.578  -4.300  1.00  0.00     0.049 A 
ATOM     55  H   UNL     1       1.275  15.832  -3.300  1.00  0.00     0.167 HD
ATOM     56  C   UNL     1       4.170  18.313  -1.100  1.00  0.00     0.034 A 
ATOM     57  C   UNL     1      -1.248  15.208  -4.331  1.00  0.00     0.034 A 
ATOM     58  C   UNL     1       2.963  19.100  -1.173  1.00  0.00     0.049 A 
ATOM     59  C   UNL     1      -1.374  16.569  -3.685  1.00  0.00     0.074 A 
ATOM     60  C   UNL     1       2.748  20.389  -0.720  1.00  0.00     0.029 A 
ATOM     61  N   UNL     1       1.759  18.665  -1.714  1.00  0.00    -0.354 N 
ATOM     62  N   UNL     1      -0.458  17.281  -3.068  1.00  0.00    -0.248 NA
ATOM     63  C   UNL     1      -2.692  17.213  -3.748  1.00  0.00     0.031 C 
ATOM     64  C   UNL     1       1.396  20.698  -0.903  1.00  0.00     0.029 A 
ATOM     65  C   UNL     1       0.787  19.642  -1.564  1.00  0.00     0.049 A 
ATOM     66  H   UNL     1       1.617  17.790  -2.143  1.00  0.00     0.167 HD
ATOM     67  C   UNL     1      -1.085  18.470  -2.697  1.00  0.00     0.074 A 
ATOM     68  C   UNL     1      -2.450  18.383  -3.176  1.00  0.00     0.031 C 
ATOM     69  C   UNL     1      -0.578  19.538  -2.029  1.00  0.00     0.034 A 
BRANCH  56  70
ATOM     70  C   UNL     1       5.369  18.878  -0.375  1.00  0.00     0.023 A 
ATOM     71  C   UNL     1       6.600  19.091  -1.021  1.00  0.00     0.031 A 
ATOM     72  C   UNL     1       5.289  19.174   0.998  1.00  0.00     0.131 A 
ATOM     73  C   UNL     1       7.716  19.509  -0.281  1.00  0.00     0.055 A 
ATOM     74  C   UNL     1       6.380  19.675   1.709  1.00  0.00     0.041 A 
ATOM     75  F   UNL     1       4.150  18.965   1.677  1.00  0.00    -0.206 F 
ATOM     76  C   UNL     1       7.608  19.830   1.074  1.00  0.00     0.022 A 
BRANCH  73  77
ATOM     77  S   UNL     1       9.347  19.472  -1.076  1.00  0.00     0.124 S 
ATOM     78  O   UNL     1       9.442  18.074  -1.490  1.00  0.00    -0.237 OA
ATOM     79  O   UNL     1       9.196  20.447  -2.150  1.00  0.00    -0.237 OA
ATOM     80  O   UNL     1      10.260  19.860  -0.003  1.00  0.00    -0.744 OA
ENDBRANCH  73  77
ENDBRANCH  56  70
BRANCH  57  81
ATOM     81  C   UNL     1      -2.434  14.546  -4.949  1.00  0.00     0.023 A 
ATOM     82  C   UNL     1      -3.086  15.101  -6.062  1.00  0.00     0.031 A 
ATOM     83  C   UNL     1      -2.966  13.365  -4.399  1.00  0.00     0.131 A 
ATOM     84  C   UNL     1      -4.253  14.501  -6.562  1.00  0.00     0.055 A 
ATOM     85  C   UNL     1      -4.092  12.740  -4.935  1.00  0.00     0.041 A 
ATOM     86  F   UNL     1      -2.388  12.795  -3.329  1.00  0.00    -0.206 F 
ATOM     87  C   UNL     1      -4.750  13.315  -6.017  1.00  0.00     0.022 A 
BRANCH  84  88
ATOM     88  S   UNL     1      -5.166  15.340  -7.886  1.00  0.00     0.124 S 
ATOM     89  O   UNL     1      -5.473  16.624  -7.266  1.00  0.00    -0.237 OA
ATOM     90  O   UNL     1      -4.183  15.365  -8.963  1.00  0.00    -0.237 OA
ATOM     91  O   UNL     1      -6.315  14.466  -8.114  1.00  0.00    -0.744 OA
ENDBRANCH  84  88
ENDBRANCH  57  81
BRANCH  69  92
ATOM     92  C   UNL     1      -1.496  20.721  -1.814  1.00  0.00     0.023 A 
ATOM     93  C   UNL     1      -2.650  20.632  -1.015  1.00  0.00     0.031 A 
ATOM     94  C   UNL     1      -1.215  21.956  -2.428  1.00  0.00     0.131 A 
ATOM     95  C   UNL     1      -3.510  21.735  -0.903  1.00  0.00     0.055 A 
ATOM     96  C   UNL     1      -2.035  23.071  -2.252  1.00  0.00     0.041 A 
ATOM     97  F   UNL     1      -0.131  22.101  -3.207  1.00  0.00    -0.206 F 
ATOM     98  C   UNL     1      -3.199  22.960  -1.498  1.00  0.00     0.022 A 
BRANCH  95  99
ATOM     99  S   UNL     1      -5.102  21.517  -0.060  1.00  0.00     0.124 S 
ATOM    100  O   UNL     1      -5.705  20.434  -0.830  1.00  0.00    -0.237 OA
ATOM    101  O   UNL     1      -4.691  21.180   1.300  1.00  0.00    -0.237 OA
ATOM    102  O   UNL     1      -5.749  22.819  -0.206  1.00  0.00    -0.744 OA
ENDBRANCH  95  99
ENDBRANCH  69  92
ENDBRANCH  43  44
ENDBRANCH  36  38
ENDBRANCH  35  36
ENDBRANCH  34  35
ENDBRANCH  33  34
ENDBRANCH  32  33
ENDBRANCH  31  32
ENDBRANCH   1  31
TORSDOF 27
