REMARK SMILES Cc1ccc(-c2cc(Cl)cc3c2O[C@H](C(F)(F)F)C(C(=O)OCCOCCOCCOCCOC(=O)c2ccc(-c4c5nc(c(-c6cc(S(=O)(=O)[O-])ccc6F)c6ccc([nH]6)c(-c6cc(S(=O)(=O)[O-])ccc6F)c6nc(c(-c7cc(S(=O)(=O)[O-])ccc7F)c7ccc4[nH]7)C=C6)C=C5)cc2)=C3)cc1F
REMARK SMILES IDX 29 1 28 2 27 3 26 4 25 5 24 6 23 7 22 8 20 9 21 10 19 11
REMARK SMILES IDX 6 12 7 13 12 14 8 15 11 16 13 17 9 18 10 19 100 20 14 21
REMARK SMILES IDX 5 22 1 23 2 24 3 25 102 26 4 27 101 28 103 29 15 30 16 31
REMARK SMILES IDX 17 32 18 33 30 34 31 35 32 36 33 37 34 38 35 39 36 40 37 41
REMARK SMILES IDX 38 42 99 43 39 44 98 45 40 46 41 47 42 48 92 49 43 50 97 51
REMARK SMILES IDX 91 52 93 53 44 54 96 55 90 56 89 57 45 59 77 60 57 61 76 62
REMARK SMILES IDX 58 63 61 64 75 65 94 66 59 67 60 68 74 70 95 71 62 72 46 73
REMARK SMILES IDX 47 74 55 75 48 76 54 77 56 78 53 79 49 80 50 81 51 82 52 83
REMARK SMILES IDX 78 84 79 85 87 86 80 87 86 88 88 89 85 90 81 91 82 92 83 93
REMARK SMILES IDX 84 94 63 95 64 96 72 97 65 98 71 99 73 100 70 101 66 102
REMARK SMILES IDX 67 103 68 104 69 105
REMARK H PARENT 93 58 61 69
REMARK Flexibility Score: inf
ROOT
ATOM      1  C   UNL     1      -3.669  -3.116   7.481  1.00  0.00     0.188 C 
ENDROOT
BRANCH   1   2
ATOM      2  O   UNL     1      -3.680  -2.856   5.462  1.00  0.00    -0.377 OA
BRANCH   2   3
ATOM      3  C   UNL     1      -4.813  -3.347   4.220  1.00  0.00     0.188 C 
BRANCH   3   4
ATOM      4  C   UNL     1      -5.761  -4.860   4.096  1.00  0.00     0.188 C 
BRANCH   4   5
ATOM      5  O   UNL     1      -6.145  -5.898   5.054  1.00  0.00    -0.376 OA
BRANCH   5   6
ATOM      6  C   UNL     1      -5.322  -6.973   5.600  1.00  0.00     0.202 C 
BRANCH   6   7
ATOM      7  C   UNL     1      -4.202  -7.800   4.815  1.00  0.00     0.261 C 
BRANCH   7   8
ATOM      8  O   UNL     1      -3.261  -7.082   3.946  1.00  0.00    -0.460 OA
BRANCH   8   9
ATOM      9  C   UNL     1      -3.600  -6.984   2.648  1.00  0.00     0.338 C 
ATOM     10  O   UNL     1      -4.278  -7.832   2.076  1.00  0.00    -0.246 OA
BRANCH   9  11
ATOM     11  C   UNL     1      -3.316  -5.645   2.021  1.00  0.00     0.087 C 
ATOM     12  C   UNL     1      -3.082  -1.926  -0.029  1.00  0.00     0.026 A 
ATOM     13  C   UNL     1      -4.064  -1.686  -1.015  1.00  0.00     0.033 A 
ATOM     14  C   UNL     1      -3.215  -3.100   0.751  1.00  0.00     0.135 A 
ATOM     15  C   UNL     1      -5.146  -2.547  -1.187  1.00  0.00     0.042 A 
ATOM     16  C   UNL     1      -4.253  -4.002   0.499  1.00  0.00     0.019 A 
ATOM     17  O   UNL     1      -2.363  -3.310   1.802  1.00  0.00    -0.475 OA
ATOM     18  Cl  UNL     1      -6.329  -2.220  -2.393  1.00  0.00    -0.084 Cl
ATOM     19  C   UNL     1      -5.250  -3.699  -0.426  1.00  0.00     0.032 A 
ATOM     20  C   UNL     1      -4.287  -5.289   1.163  1.00  0.00     0.027 C 
ATOM     21  C   UNL     1      -2.208  -4.665   2.363  1.00  0.00     0.316 C 
BRANCH  12  22
ATOM     22  C   UNL     1      -1.929  -0.995   0.057  1.00  0.00    -0.012 A 
ATOM     23  C   UNL     1       1.479   1.706   0.018  1.00  0.00     0.047 C 
ATOM     24  C   UNL     1       0.291   0.793   0.017  1.00  0.00    -0.015 A 
ATOM     25  C   UNL     1      -1.015   1.287   0.053  1.00  0.00     0.007 A 
ATOM     26  C   UNL     1       0.472  -0.590   0.002  1.00  0.00     0.126 A 
ATOM     27  C   UNL     1      -2.106   0.404   0.072  1.00  0.00     0.009 A 
ATOM     28  C   UNL     1      -0.610  -1.471   0.020  1.00  0.00     0.048 A 
ATOM     29  F   UNL     1       1.713  -1.094  -0.060  1.00  0.00    -0.207 F 
ENDBRANCH  12  22
BRANCH  21  30
ATOM     30  C   UNL     1      -0.823  -5.109   1.918  1.00  0.00     0.430 C 
ATOM     31  F   UNL     1       0.099  -4.143   2.154  1.00  0.00    -0.167 F 
ATOM     32  F   UNL     1      -0.414  -6.223   2.557  1.00  0.00    -0.167 F 
ATOM     33  F   UNL     1      -0.789  -5.356   0.586  1.00  0.00    -0.167 F 
ENDBRANCH  21  30
ENDBRANCH   9  11
ENDBRANCH   8   9
ENDBRANCH   7   8
ENDBRANCH   6   7
ENDBRANCH   5   6
ENDBRANCH   4   5
ENDBRANCH   3   4
ENDBRANCH   2   3
ENDBRANCH   1   2
BRANCH   1  34
ATOM     34  C   UNL     1      -4.947  -3.608   8.547  1.00  0.00     0.188 C 
BRANCH  34  35
ATOM     35  O   UNL     1      -6.370  -3.779   8.479  1.00  0.00    -0.376 OA
BRANCH  35  36
ATOM     36  C   UNL     1      -7.275  -2.683   8.379  1.00  0.00     0.202 C 
BRANCH  36  37
ATOM     37  C   UNL     1      -7.194  -1.452   9.305  1.00  0.00     0.261 C 
BRANCH  37  38
ATOM     38  O   UNL     1      -6.077  -1.397  10.189  1.00  0.00    -0.460 OA
BRANCH  38  39
ATOM     39  C   UNL     1      -6.146  -2.153  11.313  1.00  0.00     0.338 C 
ATOM     40  O   UNL     1      -7.172  -2.555  11.840  1.00  0.00    -0.246 OA
BRANCH  39  41
ATOM     41  C   UNL     1      -4.788  -2.747  11.546  1.00  0.00     0.060 A 
ATOM     42  C   UNL     1      -3.606  -2.103  11.117  1.00  0.00     0.016 A 
ATOM     43  C   UNL     1      -4.807  -4.141  11.716  1.00  0.00     0.016 A 
ATOM     44  C   UNL     1      -2.522  -2.878  10.678  1.00  0.00     0.010 A 
ATOM     45  C   UNL     1      -3.730  -4.901  11.284  1.00  0.00     0.010 A 
ATOM     46  C   UNL     1      -2.628  -4.278  10.685  1.00  0.00    -0.014 A 
BRANCH  46  47
ATOM     47  C   UNL     1      -1.541  -5.169  10.284  1.00  0.00     0.031 A 
ATOM     48  C   UNL     1      -0.410  -5.162  11.228  1.00  0.00     0.074 A 
ATOM     49  C   UNL     1      -1.628  -6.026   9.232  1.00  0.00     0.049 A 
ATOM     50  N   UNL     1       0.794  -5.500  10.948  1.00  0.00    -0.248 NA
ATOM     51  C   UNL     1      -0.562  -4.700  12.615  1.00  0.00     0.031 C 
ATOM     52  C   UNL     1      -0.782  -7.153   8.851  1.00  0.00     0.029 A 
ATOM     53  N   UNL     1      -2.426  -5.899   8.089  1.00  0.00    -0.354 N 
ATOM     54  C   UNL     1       1.373  -5.782  12.169  1.00  0.00     0.074 A 
ATOM     55  C   UNL     1       0.615  -5.043  13.141  1.00  0.00     0.031 C 
ATOM     56  C   UNL     1      -0.786  -7.280   7.505  1.00  0.00     0.029 A 
ATOM     57  C   UNL     1      -1.552  -6.150   7.000  1.00  0.00     0.049 A 
ATOM     58  H   UNL     1      -3.386  -5.682   8.049  1.00  0.00     0.167 HD
ATOM     59  C   UNL     1       2.203  -6.860  12.246  1.00  0.00     0.034 A 
ATOM     60  C   UNL     1      -1.099  -5.135   6.192  1.00  0.00     0.034 A 
ATOM     61  C   UNL     1       2.428  -7.416  10.912  1.00  0.00     0.049 A 
ATOM     62  C   UNL     1       0.415  -5.097   6.170  1.00  0.00     0.074 A 
ATOM     63  C   UNL     1       1.973  -8.546  10.251  1.00  0.00     0.029 A 
ATOM     64  N   UNL     1       2.942  -6.585   9.933  1.00  0.00    -0.354 N 
ATOM     65  N   UNL     1       1.113  -5.556   7.175  1.00  0.00    -0.248 NA
ATOM     66  C   UNL     1       1.284  -4.662   5.076  1.00  0.00     0.031 C 
ATOM     67  C   UNL     1       2.250  -8.395   8.864  1.00  0.00     0.029 A 
ATOM     68  C   UNL     1       2.812  -7.146   8.682  1.00  0.00     0.049 A 
ATOM     69  H   UNL     1       3.347  -5.705  10.108  1.00  0.00     0.167 HD
ATOM     70  C   UNL     1       2.422  -5.678   6.813  1.00  0.00     0.074 A 
ATOM     71  C   UNL     1       2.506  -4.978   5.549  1.00  0.00     0.031 C 
ATOM     72  C   UNL     1       3.314  -6.407   7.543  1.00  0.00     0.034 A 
BRANCH  59  73
ATOM     73  C   UNL     1       2.554  -7.587  13.525  1.00  0.00     0.023 A 
ATOM     74  C   UNL     1       2.490  -7.026  14.820  1.00  0.00     0.031 A 
ATOM     75  C   UNL     1       2.971  -8.938  13.473  1.00  0.00     0.131 A 
ATOM     76  C   UNL     1       2.786  -7.796  15.964  1.00  0.00     0.055 A 
ATOM     77  C   UNL     1       3.282  -9.691  14.605  1.00  0.00     0.041 A 
ATOM     78  F   UNL     1       3.079  -9.610  12.321  1.00  0.00    -0.206 F 
ATOM     79  C   UNL     1       3.187  -9.125  15.860  1.00  0.00     0.022 A 
BRANCH  76  80
ATOM     80  S   UNL     1       2.627  -7.120  17.642  1.00  0.00     0.124 S 
ATOM     81  O   UNL     1       1.763  -8.106  18.291  1.00  0.00    -0.237 OA
ATOM     82  O   UNL     1       4.011  -7.108  18.104  1.00  0.00    -0.237 OA
ATOM     83  O   UNL     1       2.016  -5.810  17.436  1.00  0.00    -0.744 OA
ENDBRANCH  76  80
ENDBRANCH  59  73
BRANCH  60  84
ATOM     84  C   UNL     1      -2.103  -4.018   6.014  1.00  0.00     0.023 A 
ATOM     85  C   UNL     1      -1.846  -2.331   6.211  1.00  0.00     0.031 A 
ATOM     86  C   UNL     1      -3.785  -4.615   6.055  1.00  0.00     0.131 A 
ATOM     87  C   UNL     1      -3.186  -1.181   6.427  1.00  0.00     0.055 A 
ATOM     88  C   UNL     1      -5.255  -3.502   6.302  1.00  0.00     0.041 A 
ATOM     89  F   UNL     1      -3.830  -5.486   5.086  1.00  0.00    -0.206 F 
ATOM     90  C   UNL     1      -4.897  -1.719   6.486  1.00  0.00     0.022 A 
BRANCH  87  91
ATOM     91  S   UNL     1      -2.703   0.208   7.569  1.00  0.00     0.124 S 
ATOM     92  O   UNL     1      -2.432   1.295   6.640  1.00  0.00    -0.237 OA
ATOM     93  O   UNL     1      -3.895   0.348   8.402  1.00  0.00    -0.237 OA
ATOM     94  O   UNL     1      -1.544  -0.342   8.271  1.00  0.00    -0.744 OA
ENDBRANCH  87  91
ENDBRANCH  60  84
BRANCH  72  95
ATOM     95  C   UNL     1       4.785  -6.444   7.298  1.00  0.00     0.023 A 
ATOM     96  C   UNL     1       5.635  -6.502   8.422  1.00  0.00     0.031 A 
ATOM     97  C   UNL     1       5.397  -6.440   6.045  1.00  0.00     0.131 A 
ATOM     98  C   UNL     1       7.015  -6.409   8.296  1.00  0.00     0.055 A 
ATOM     99  C   UNL     1       6.779  -6.281   5.914  1.00  0.00     0.041 A 
ATOM    100  F   UNL     1       4.685  -6.627   4.922  1.00  0.00    -0.206 F 
ATOM    101  C   UNL     1       7.592  -6.234   7.045  1.00  0.00     0.022 A 
BRANCH  98 102
ATOM    102  S   UNL     1       8.072  -6.564   9.756  1.00  0.00     0.124 S 
ATOM    103  O   UNL     1       8.924  -7.691   9.384  1.00  0.00    -0.237 OA
ATOM    104  O   UNL     1       8.729  -5.261   9.788  1.00  0.00    -0.237 OA
ATOM    105  O   UNL     1       7.137  -6.822  10.845  1.00  0.00    -0.744 OA
ENDBRANCH  98 102
ENDBRANCH  72  95
ENDBRANCH  46  47
ENDBRANCH  39  41
ENDBRANCH  38  39
ENDBRANCH  37  38
ENDBRANCH  36  37
ENDBRANCH  35  36
ENDBRANCH  34  35
ENDBRANCH   1  34
TORSDOF 25
