REMARK SMILES [NH3+][C@@H](Cc1ccc(F)cc1C(F)(F)F)C(=O)OCCOCCOCCOCCOC(=O)c1ccc(-c2c3nc(c(-c4cc(S(=O)(=O)[O-])ccc4F)c4ccc([nH]4)c(-c4cc(S(=O)(=O)[O-])ccc4F)c4nc(c(-c5cc(S(=O)(=O)[O-])ccc5F)c5ccc2[nH]5)C=C4)C=C3)cc1
REMARK SMILES IDX 23 1 22 2 21 3 20 4 19 5 18 6 17 7 15 8 16 9 2 10 1 11 3 15
REMARK SMILES IDX 4 16 5 17 10 18 6 19 9 20 7 21 8 22 11 23 12 24 13 25 14 26
REMARK SMILES IDX 24 27 25 28 26 29 27 30 28 31 29 32 30 33 31 34 32 35 33 36
REMARK SMILES IDX 94 37 34 38 93 39 35 40 36 41 37 42 87 43 38 44 92 45 86 46
REMARK SMILES IDX 88 47 39 48 91 49 85 50 84 51 40 53 72 54 52 55 71 56 53 57
REMARK SMILES IDX 56 58 70 59 89 60 54 61 55 62 69 64 90 65 57 66 41 67 42 68
REMARK SMILES IDX 50 69 43 70 49 71 51 72 48 73 44 74 45 75 46 76 47 77 73 78
REMARK SMILES IDX 74 79 82 80 75 81 81 82 83 83 80 84 76 85 77 86 78 87 79 88
REMARK SMILES IDX 58 89 59 90 67 91 60 92 66 93 68 94 65 95 61 96 62 97 63 98
REMARK SMILES IDX 64 99
REMARK H PARENT 1 12 1 13 1 14 88 52 56 63
REMARK Flexibility Score: inf
ROOT
ATOM      1  O   UNL     1      -1.837   2.017  -0.399  1.00  0.00    -0.377 OA
ENDROOT
BRANCH   1   2
ATOM      2  C   UNL     1      -1.270   0.736  -0.611  1.00  0.00     0.188 C 
BRANCH   2   3
ATOM      3  C   UNL     1      -1.995  -0.201  -1.597  1.00  0.00     0.188 C 
BRANCH   3   4
ATOM      4  O   UNL     1      -3.340  -0.456  -1.216  1.00  0.00    -0.376 OA
BRANCH   4   5
ATOM      5  C   UNL     1      -3.664  -1.597  -0.440  1.00  0.00     0.202 C 
BRANCH   5   6
ATOM      6  C   UNL     1      -2.835  -1.964   0.799  1.00  0.00     0.261 C 
BRANCH   6   7
ATOM      7  O   UNL     1      -1.412  -1.872   0.641  1.00  0.00    -0.459 OA
BRANCH   7   8
ATOM      8  C   UNL     1      -0.737  -2.905   0.080  1.00  0.00     0.365 C 
ATOM      9  O   UNL     1      -1.253  -3.945  -0.308  1.00  0.00    -0.245 OA
BRANCH   8  10
ATOM     10  C   UNL     1       0.776  -2.605   0.015  1.00  0.00     0.296 C 
BRANCH  10  11
ATOM     11  N   UNL     1       1.074  -1.304  -0.625  1.00  0.00    -0.346 N 
ATOM     12  H   UNL     1       2.083  -1.157  -0.642  1.00  0.00     0.345 HD
ATOM     13  H   UNL     1       0.629  -0.555  -0.095  1.00  0.00     0.345 HD
ATOM     14  H   UNL     1       0.714  -1.305  -1.580  1.00  0.00     0.345 HD
ENDBRANCH  10  11
BRANCH  10  15
ATOM     15  C   UNL     1       1.487  -2.762   1.373  1.00  0.00     0.113 C 
BRANCH  15  16
ATOM     16  C   UNL     1       0.857  -2.135   2.608  1.00  0.00    -0.029 A 
ATOM     17  C   UNL     1       0.060  -2.992   3.401  1.00  0.00     0.007 A 
ATOM     18  C   UNL     1       1.030  -0.790   3.024  1.00  0.00     0.062 A 
ATOM     19  C   UNL     1      -0.549  -2.545   4.573  1.00  0.00     0.039 A 
ATOM     20  C   UNL     1       0.380  -0.355   4.202  1.00  0.00     0.052 A 
ATOM     21  C   UNL     1      -0.384  -1.229   4.962  1.00  0.00     0.123 A 
ATOM     22  F   UNL     1      -0.958  -0.795   6.090  1.00  0.00    -0.207 F 
BRANCH  18  23
ATOM     23  C   UNL     1       1.836   0.254   2.283  1.00  0.00     0.416 C 
ATOM     24  F   UNL     1       1.068   0.963   1.412  1.00  0.00    -0.166 F 
ATOM     25  F   UNL     1       2.420   1.171   3.104  1.00  0.00    -0.166 F 
ATOM     26  F   UNL     1       2.853  -0.254   1.533  1.00  0.00    -0.166 F 
ENDBRANCH  18  23
ENDBRANCH  15  16
ENDBRANCH  10  15
ENDBRANCH   8  10
ENDBRANCH   7   8
ENDBRANCH   6   7
ENDBRANCH   5   6
ENDBRANCH   4   5
ENDBRANCH   3   4
ENDBRANCH   2   3
ENDBRANCH   1   2
BRANCH   1  27
ATOM     27  C   UNL     1      -3.197   1.999  -0.002  1.00  0.00     0.188 C 
BRANCH  27  28
ATOM     28  C   UNL     1      -4.143   2.348  -1.160  1.00  0.00     0.188 C 
BRANCH  28  29
ATOM     29  O   UNL     1      -3.630   2.415  -2.478  1.00  0.00    -0.376 OA
BRANCH  29  30
ATOM     30  C   UNL     1      -2.512   3.213  -2.830  1.00  0.00     0.202 C 
BRANCH  30  31
ATOM     31  C   UNL     1      -1.915   4.400  -2.041  1.00  0.00     0.261 C 
BRANCH  31  32
ATOM     32  O   UNL     1      -2.368   4.668  -0.718  1.00  0.00    -0.460 OA
BRANCH  32  33
ATOM     33  C   UNL     1      -3.477   5.426  -0.610  1.00  0.00     0.338 C 
ATOM     34  O   UNL     1      -4.136   5.898  -1.520  1.00  0.00    -0.246 OA
BRANCH  33  35
ATOM     35  C   UNL     1      -3.871   5.425   0.814  1.00  0.00     0.060 A 
ATOM     36  C   UNL     1      -5.140   4.937   1.150  1.00  0.00     0.016 A 
ATOM     37  C   UNL     1      -2.995   5.872   1.809  1.00  0.00     0.016 A 
ATOM     38  C   UNL     1      -5.552   4.929   2.477  1.00  0.00     0.010 A 
ATOM     39  C   UNL     1      -3.424   5.897   3.139  1.00  0.00     0.010 A 
ATOM     40  C   UNL     1      -4.719   5.461   3.469  1.00  0.00    -0.014 A 
BRANCH  40  41
ATOM     41  C   UNL     1      -5.314   5.773   4.788  1.00  0.00     0.031 A 
ATOM     42  C   UNL     1      -5.834   7.166   5.012  1.00  0.00     0.074 A 
ATOM     43  C   UNL     1      -5.476   4.823   5.725  1.00  0.00     0.049 A 
ATOM     44  N   UNL     1      -6.440   7.667   6.055  1.00  0.00    -0.248 NA
ATOM     45  C   UNL     1      -5.649   8.121   3.906  1.00  0.00     0.031 C 
ATOM     46  C   UNL     1      -5.068   3.426   5.589  1.00  0.00     0.029 A 
ATOM     47  N   UNL     1      -6.046   4.890   6.971  1.00  0.00    -0.354 N 
ATOM     48  C   UNL     1      -6.710   8.991   5.732  1.00  0.00     0.074 A 
ATOM     49  C   UNL     1      -6.170   9.228   4.412  1.00  0.00     0.031 C 
ATOM     50  C   UNL     1      -5.410   2.764   6.709  1.00  0.00     0.029 A 
ATOM     51  C   UNL     1      -6.031   3.696   7.651  1.00  0.00     0.049 A 
ATOM     52  H   UNL     1      -6.429   5.717   7.344  1.00  0.00     0.167 HD
ATOM     53  C   UNL     1      -7.360   9.923   6.468  1.00  0.00     0.034 A 
ATOM     54  C   UNL     1      -6.456   3.393   8.894  1.00  0.00     0.034 A 
ATOM     55  C   UNL     1      -7.892   9.672   7.782  1.00  0.00     0.049 A 
ATOM     56  C   UNL     1      -7.091   4.469   9.738  1.00  0.00     0.074 A 
ATOM     57  C   UNL     1      -8.588  10.540   8.604  1.00  0.00     0.029 A 
ATOM     58  N   UNL     1      -7.773   8.474   8.473  1.00  0.00    -0.354 N 
ATOM     59  N   UNL     1      -7.333   5.722   9.427  1.00  0.00    -0.248 NA
ATOM     60  C   UNL     1      -7.509   4.097  11.097  1.00  0.00     0.031 C 
ATOM     61  C   UNL     1      -8.817   9.895   9.821  1.00  0.00     0.029 A 
ATOM     62  C   UNL     1      -8.342   8.595   9.729  1.00  0.00     0.049 A 
ATOM     63  H   UNL     1      -7.348   7.659   8.121  1.00  0.00     0.167 HD
ATOM     64  C   UNL     1      -7.949   6.282  10.543  1.00  0.00     0.074 A 
ATOM     65  C   UNL     1      -8.040   5.231  11.537  1.00  0.00     0.031 C 
ATOM     66  C   UNL     1      -8.409   7.546  10.720  1.00  0.00     0.034 A 
BRANCH  53  67
ATOM     67  C   UNL     1      -7.481  11.309   5.891  1.00  0.00     0.023 A 
ATOM     68  C   UNL     1      -8.265  11.576   4.756  1.00  0.00     0.031 A 
ATOM     69  C   UNL     1      -6.800  12.380   6.495  1.00  0.00     0.131 A 
ATOM     70  C   UNL     1      -8.313  12.878   4.234  1.00  0.00     0.055 A 
ATOM     71  C   UNL     1      -6.905  13.684   6.010  1.00  0.00     0.041 A 
ATOM     72  F   UNL     1      -6.017  12.175   7.566  1.00  0.00    -0.206 F 
ATOM     73  C   UNL     1      -7.658  13.937   4.868  1.00  0.00     0.022 A 
BRANCH  70  74
ATOM     74  S   UNL     1      -9.167  13.153   2.658  1.00  0.00     0.124 S 
ATOM     75  O   UNL     1      -8.378  12.328   1.747  1.00  0.00    -0.237 OA
ATOM     76  O   UNL     1     -10.517  12.681   2.943  1.00  0.00    -0.237 OA
ATOM     77  O   UNL     1      -9.043  14.595   2.449  1.00  0.00    -0.744 OA
ENDBRANCH  70  74
ENDBRANCH  53  67
BRANCH  54  78
ATOM     78  C   UNL     1      -6.260   2.013   9.417  1.00  0.00     0.023 A 
ATOM     79  C   UNL     1      -7.342   1.142   9.610  1.00  0.00     0.031 A 
ATOM     80  C   UNL     1      -4.965   1.535   9.693  1.00  0.00     0.131 A 
ATOM     81  C   UNL     1      -7.110  -0.166  10.067  1.00  0.00     0.055 A 
ATOM     82  C   UNL     1      -4.737   0.225  10.114  1.00  0.00     0.041 A 
ATOM     83  F   UNL     1      -3.898   2.330   9.518  1.00  0.00    -0.206 F 
ATOM     84  C   UNL     1      -5.814  -0.634  10.305  1.00  0.00     0.022 A 
BRANCH  81  85
ATOM     85  S   UNL     1      -8.529  -1.263  10.342  1.00  0.00     0.124 S 
ATOM     86  O   UNL     1      -9.198  -0.608  11.460  1.00  0.00    -0.237 OA
ATOM     87  O   UNL     1      -9.216  -1.204   9.056  1.00  0.00    -0.237 OA
ATOM     88  O   UNL     1      -7.908  -2.550  10.651  1.00  0.00    -0.744 OA
ENDBRANCH  81  85
ENDBRANCH  54  78
BRANCH  66  89
ATOM     89  C   UNL     1      -9.080   7.880  12.026  1.00  0.00     0.023 A 
ATOM     90  C   UNL     1      -8.347   8.033  13.214  1.00  0.00     0.031 A 
ATOM     91  C   UNL     1     -10.462   8.147  12.057  1.00  0.00     0.131 A 
ATOM     92  C   UNL     1      -9.002   8.433  14.389  1.00  0.00     0.055 A 
ATOM     93  C   UNL     1     -11.099   8.588  13.216  1.00  0.00     0.041 A 
ATOM     94  F   UNL     1     -11.205   8.021  10.945  1.00  0.00    -0.206 F 
ATOM     95  C   UNL     1     -10.368   8.732  14.392  1.00  0.00     0.022 A 
BRANCH  92  96
ATOM     96  S   UNL     1      -8.048   8.551  15.927  1.00  0.00     0.124 S 
ATOM     97  O   UNL     1      -7.672   7.160  16.155  1.00  0.00    -0.237 OA
ATOM     98  O   UNL     1      -6.962   9.453  15.559  1.00  0.00    -0.237 OA
ATOM     99  O   UNL     1      -9.007   9.099  16.885  1.00  0.00    -0.744 OA
ENDBRANCH  92  96
ENDBRANCH  66  89
ENDBRANCH  40  41
ENDBRANCH  33  35
ENDBRANCH  32  33
ENDBRANCH  31  32
ENDBRANCH  30  31
ENDBRANCH  29  30
ENDBRANCH  28  29
ENDBRANCH  27  28
ENDBRANCH   1  27
TORSDOF 27
