REMARK SMILES CN1C(=O)C[C@H](C(=O)OCCOCCOCCOCCOC(=O)c2ccc(-c3c4nc(c(-c5cc(S(=O)(=O)[O-])ccc5F)c5ccc([nH]5)c(-c5cc(S(=O)(=O)[O-])ccc5F)c5nc(c(-c6cc(S(=O)(=O)[O-])ccc6F)c6ccc3[nH]6)C=C5)C=C4)cc2)C12CC[NH+](Cc1cnn(-c3ccccc3F)c1)CC2
REMARK SMILES IDX 15 1 14 2 13 3 12 4 11 5 10 6 9 7 7 8 8 9 6 10 1 11 2 12
REMARK SMILES IDX 3 13 87 14 4 15 5 16 88 17 105 18 89 19 104 20 90 21 91 23
REMARK SMILES IDX 92 24 93 25 103 26 94 27 95 28 96 29 97 30 101 31 98 32
REMARK SMILES IDX 100 33 102 34 99 35 16 36 17 37 18 38 19 39 20 40 21 41
REMARK SMILES IDX 22 42 23 43 24 44 25 45 86 46 26 47 85 48 27 49 28 50 29 51
REMARK SMILES IDX 79 52 30 53 84 54 78 55 80 56 31 57 83 58 77 59 76 60 32 62
REMARK SMILES IDX 64 63 44 64 63 65 45 66 48 67 62 68 81 69 46 70 47 71 61 73
REMARK SMILES IDX 82 74 49 75 33 76 34 77 42 78 35 79 41 80 43 81 40 82 36 83
REMARK SMILES IDX 37 84 38 85 39 86 65 87 66 88 74 89 67 90 73 91 75 92 72 93
REMARK SMILES IDX 68 94 69 95 70 96 71 97 50 98 51 99 59 100 52 101 58 102
REMARK SMILES IDX 60 103 57 104 53 105 54 106 55 107 56 108
REMARK H PARENT 90 22 80 61 48 72
REMARK Flexibility Score: inf
ROOT
ATOM      1  O   UNL     1       3.189  -2.323   4.409  1.00  0.00    -0.377 OA
ENDROOT
BRANCH   1   2
ATOM      2  C   UNL     1       2.667  -1.631   5.548  1.00  0.00     0.188 C 
BRANCH   2   3
ATOM      3  C   UNL     1       1.290  -2.149   5.905  1.00  0.00     0.188 C 
BRANCH   3   4
ATOM      4  O   UNL     1       1.253  -3.277   6.756  1.00  0.00    -0.376 OA
BRANCH   4   5
ATOM      5  C   UNL     1       0.451  -4.385   6.332  1.00  0.00     0.202 C 
BRANCH   5   6
ATOM      6  C   UNL     1      -0.930  -4.207   5.648  1.00  0.00     0.261 C 
BRANCH   6   7
ATOM      7  O   UNL     1      -0.973  -3.308   4.519  1.00  0.00    -0.463 OA
BRANCH   7   8
ATOM      8  C   UNL     1      -1.480  -2.076   4.729  1.00  0.00     0.311 C 
ATOM      9  O   UNL     1      -1.990  -1.724   5.789  1.00  0.00    -0.252 OA
BRANCH   8  10
ATOM     10  C   UNL     1      -1.292  -1.094   3.585  1.00  0.00     0.134 C 
ATOM     11  C   UNL     1       0.324   0.419   0.549  1.00  0.00     0.147 C 
ATOM     12  N   UNL     1      -0.287   0.038   1.811  1.00  0.00    -0.339 N 
ATOM     13  C   UNL     1      -0.189   0.905   2.889  1.00  0.00     0.223 C 
ATOM     14  C   UNL     1      -0.609  -1.374   2.208  1.00  0.00     0.067 C 
ATOM     15  O   UNL     1       0.225   2.053   2.877  1.00  0.00    -0.275 OA
ATOM     16  C   UNL     1      -0.591   0.162   4.119  1.00  0.00     0.118 C 
ATOM     17  C   UNL     1      -1.636  -2.009   1.255  1.00  0.00     0.091 C 
ATOM     18  C   UNL     1       0.712  -2.170   2.124  1.00  0.00     0.091 C 
ATOM     19  C   UNL     1      -1.738  -3.527   1.413  1.00  0.00     0.265 C 
ATOM     20  C   UNL     1       0.631  -3.696   2.101  1.00  0.00     0.265 C 
ATOM     21  N   UNL     1      -0.475  -4.245   1.331  1.00  0.00    -0.331 N 
ATOM     22  H   UNL     1      -0.698  -5.084   1.867  1.00  0.00     0.348 HD
BRANCH  21  23
ATOM     23  C   UNL     1      -0.132  -4.832   0.031  1.00  0.00     0.302 C 
BRANCH  23  24
ATOM     24  C   UNL     1       0.351  -3.813  -0.939  1.00  0.00     0.045 A 
ATOM     25  C   UNL     1       1.682  -3.474  -1.257  1.00  0.00     0.145 A 
ATOM     26  C   UNL     1      -0.392  -2.992  -1.760  1.00  0.00     0.124 A 
ATOM     27  N   UNL     1       1.765  -2.462  -2.123  1.00  0.00    -0.176 NA
ATOM     28  N   UNL     1       0.474  -2.099  -2.345  1.00  0.00    -0.237 N 
BRANCH  28  29
ATOM     29  C   UNL     1       0.169  -0.894  -3.026  1.00  0.00     0.100 A 
ATOM     30  C   UNL     1       1.172  -0.242  -3.759  1.00  0.00     0.031 A 
ATOM     31  C   UNL     1      -1.093  -0.300  -2.927  1.00  0.00     0.148 A 
ATOM     32  C   UNL     1       0.899   0.970  -4.400  1.00  0.00     0.002 A 
ATOM     33  C   UNL     1      -1.356   0.921  -3.546  1.00  0.00     0.041 A 
ATOM     34  F   UNL     1      -2.067  -0.821  -2.167  1.00  0.00    -0.205 F 
ATOM     35  C   UNL     1      -0.364   1.552  -4.292  1.00  0.00     0.003 A 
ENDBRANCH  28  29
ENDBRANCH  23  24
ENDBRANCH  21  23
ENDBRANCH   8  10
ENDBRANCH   7   8
ENDBRANCH   6   7
ENDBRANCH   5   6
ENDBRANCH   4   5
ENDBRANCH   3   4
ENDBRANCH   2   3
ENDBRANCH   1   2
BRANCH   1  36
ATOM     36  C   UNL     1       3.662  -3.639   4.652  1.00  0.00     0.188 C 
BRANCH  36  37
ATOM     37  C   UNL     1       4.647  -3.765   5.817  1.00  0.00     0.188 C 
BRANCH  37  38
ATOM     38  O   UNL     1       5.696  -2.816   6.010  1.00  0.00    -0.376 OA
BRANCH  38  39
ATOM     39  C   UNL     1       5.930  -1.765   5.087  1.00  0.00     0.202 C 
BRANCH  39  40
ATOM     40  C   UNL     1       6.690  -2.105   3.804  1.00  0.00     0.261 C 
BRANCH  40  41
ATOM     41  O   UNL     1       6.316  -3.334   3.184  1.00  0.00    -0.460 OA
BRANCH  41  42
ATOM     42  C   UNL     1       6.966  -4.425   3.652  1.00  0.00     0.338 C 
ATOM     43  O   UNL     1       7.796  -4.475   4.546  1.00  0.00    -0.246 OA
BRANCH  42  44
ATOM     44  C   UNL     1       6.441  -5.605   2.951  1.00  0.00     0.060 A 
ATOM     45  C   UNL     1       5.886  -6.654   3.693  1.00  0.00     0.016 A 
ATOM     46  C   UNL     1       6.541  -5.683   1.560  1.00  0.00     0.016 A 
ATOM     47  C   UNL     1       5.435  -7.798   3.041  1.00  0.00     0.010 A 
ATOM     48  C   UNL     1       6.110  -6.838   0.912  1.00  0.00     0.010 A 
ATOM     49  C   UNL     1       5.575  -7.906   1.652  1.00  0.00    -0.014 A 
BRANCH  49  50
ATOM     50  C   UNL     1       5.286  -9.185   0.969  1.00  0.00     0.031 A 
ATOM     51  C   UNL     1       6.434 -10.086   0.619  1.00  0.00     0.074 A 
ATOM     52  C   UNL     1       4.022  -9.505   0.641  1.00  0.00     0.049 A 
ATOM     53  N   UNL     1       6.440 -11.176  -0.100  1.00  0.00    -0.248 NA
ATOM     54  C   UNL     1       7.755  -9.702   1.146  1.00  0.00     0.031 C 
ATOM     55  C   UNL     1       2.837  -8.716   0.982  1.00  0.00     0.029 A 
ATOM     56  N   UNL     1       3.528 -10.563  -0.077  1.00  0.00    -0.354 N 
ATOM     57  C   UNL     1       7.764 -11.600  -0.130  1.00  0.00     0.074 A 
ATOM     58  C   UNL     1       8.535 -10.642   0.632  1.00  0.00     0.031 C 
ATOM     59  C   UNL     1       1.755  -9.305   0.445  1.00  0.00     0.029 A 
ATOM     60  C   UNL     1       2.177 -10.475  -0.322  1.00  0.00     0.049 A 
ATOM     61  H   UNL     1       4.085 -11.314  -0.386  1.00  0.00     0.167 HD
ATOM     62  C   UNL     1       8.280 -12.689  -0.747  1.00  0.00     0.034 A 
ATOM     63  C   UNL     1       1.389 -11.224  -1.119  1.00  0.00     0.034 A 
ATOM     64  C   UNL     1       7.487 -13.623  -1.505  1.00  0.00     0.049 A 
ATOM     65  C   UNL     1       2.011 -12.379  -1.873  1.00  0.00     0.074 A 
ATOM     66  C   UNL     1       7.896 -14.787  -2.131  1.00  0.00     0.029 A 
ATOM     67  N   UNL     1       6.129 -13.488  -1.762  1.00  0.00    -0.354 N 
ATOM     68  N   UNL     1       3.257 -12.798  -1.861  1.00  0.00    -0.248 NA
ATOM     69  C   UNL     1       1.125 -13.161  -2.745  1.00  0.00     0.031 C 
ATOM     70  C   UNL     1       6.809 -15.303  -2.842  1.00  0.00     0.029 A 
ATOM     71  C   UNL     1       5.698 -14.516  -2.584  1.00  0.00     0.049 A 
ATOM     72  H   UNL     1       5.557 -12.768  -1.410  1.00  0.00     0.167 HD
ATOM     73  C   UNL     1       3.294 -13.904  -2.707  1.00  0.00     0.074 A 
ATOM     74  C   UNL     1       1.943 -14.103  -3.188  1.00  0.00     0.031 C 
ATOM     75  C   UNL     1       4.346 -14.686  -3.061  1.00  0.00     0.034 A 
BRANCH  62  76
ATOM     76  C   UNL     1       9.772 -12.898  -0.687  1.00  0.00     0.023 A 
ATOM     77  C   UNL     1      10.438 -13.192   0.514  1.00  0.00     0.031 A 
ATOM     78  C   UNL     1      10.536 -12.825  -1.866  1.00  0.00     0.131 A 
ATOM     79  C   UNL     1      11.831 -13.367   0.515  1.00  0.00     0.055 A 
ATOM     80  C   UNL     1      11.910 -13.068  -1.869  1.00  0.00     0.041 A 
ATOM     81  F   UNL     1       9.956 -12.519  -3.037  1.00  0.00    -0.206 F 
ATOM     82  C   UNL     1      12.566 -13.334  -0.672  1.00  0.00     0.022 A 
BRANCH  79  83
ATOM     83  S   UNL     1      12.686 -13.540   2.105  1.00  0.00     0.124 S 
ATOM     84  O   UNL     1      12.334 -12.287   2.768  1.00  0.00    -0.237 OA
ATOM     85  O   UNL     1      12.082 -14.747   2.658  1.00  0.00    -0.237 OA
ATOM     86  O   UNL     1      14.092 -13.663   1.727  1.00  0.00    -0.744 OA
ENDBRANCH  79  83
ENDBRANCH  62  76
BRANCH  63  87
ATOM     87  C   UNL     1      -0.048 -10.873  -1.320  1.00  0.00     0.023 A 
ATOM     88  C   UNL     1      -1.067 -11.785  -1.008  1.00  0.00     0.031 A 
ATOM     89  C   UNL     1      -0.421  -9.649  -1.908  1.00  0.00     0.131 A 
ATOM     90  C   UNL     1      -2.397 -11.492  -1.349  1.00  0.00     0.055 A 
ATOM     91  C   UNL     1      -1.753  -9.334  -2.181  1.00  0.00     0.041 A 
ATOM     92  F   UNL     1       0.510  -8.736  -2.230  1.00  0.00    -0.206 F 
ATOM     93  C   UNL     1      -2.749 -10.267  -1.919  1.00  0.00     0.022 A 
BRANCH  90  94
ATOM     94  S   UNL     1      -3.645 -12.795  -1.156  1.00  0.00     0.124 S 
ATOM     95  O   UNL     1      -3.067 -13.876  -1.946  1.00  0.00    -0.237 OA
ATOM     96  O   UNL     1      -3.655 -12.989   0.290  1.00  0.00    -0.237 OA
ATOM     97  O   UNL     1      -4.854 -12.191  -1.712  1.00  0.00    -0.744 OA
ENDBRANCH  90  94
ENDBRANCH  63  87
BRANCH  75  98
ATOM     98  C   UNL     1       4.066 -15.841  -3.991  1.00  0.00     0.023 A 
ATOM     99  C   UNL     1       3.667 -15.634  -5.323  1.00  0.00     0.031 A 
ATOM    100  C   UNL     1       4.211 -17.167  -3.542  1.00  0.00     0.131 A 
ATOM    101  C   UNL     1       3.379 -16.733  -6.144  1.00  0.00     0.055 A 
ATOM    102  C   UNL     1       3.989 -18.256  -4.385  1.00  0.00     0.041 A 
ATOM    103  F   UNL     1       4.586 -17.424  -2.279  1.00  0.00    -0.206 F 
ATOM    104  C   UNL     1       3.559 -18.043  -5.691  1.00  0.00     0.022 A 
BRANCH 101 105
ATOM    105  S   UNL     1       2.683 -16.429  -7.791  1.00  0.00     0.124 S 
ATOM    106  O   UNL     1       1.450 -15.717  -7.470  1.00  0.00    -0.237 OA
ATOM    107  O   UNL     1       3.728 -15.638  -8.432  1.00  0.00    -0.237 OA
ATOM    108  O   UNL     1       2.499 -17.772  -8.338  1.00  0.00    -0.744 OA
ENDBRANCH 101 105
ENDBRANCH  75  98
ENDBRANCH  49  50
ENDBRANCH  42  44
ENDBRANCH  41  42
ENDBRANCH  40  41
ENDBRANCH  39  40
ENDBRANCH  38  39
ENDBRANCH  37  38
ENDBRANCH  36  37
ENDBRANCH   1  36
TORSDOF 26
