REMARK SMILES O=C(N[C@@H](Cc1ccccc1)C(=O)N[C@@H](CS)C(=O)N[C@@H](CO)C(=O)OCCOCCOCCOCCOC(=O)c1ccc(-c2c3nc(c(-c4cc(S(=O)(=O)[O-])ccc4F)c4ccc([nH]4)c(-c4cc(S(=O)(=O)[O-])ccc4F)c4nc(c(-c5cc(S(=O)(=O)[O-])ccc5F)c5ccc2[nH]5)C=C4)C=C3)cc1)c1ccc(F)cc1
REMARK SMILES IDX 30 1 29 2 28 3 27 4 26 5 24 6 25 7 21 8 20 9 18 10 19 11
REMARK SMILES IDX 15 13 14 14 12 15 13 16 4 18 3 19 1 20 2 21 104 23 105 24
REMARK SMILES IDX 110 25 106 26 109 27 107 28 108 29 5 30 6 31 7 32 11 33 8 34
REMARK SMILES IDX 10 35 9 36 16 37 17 38 22 40 23 41 31 43 32 44 33 45 34 46
REMARK SMILES IDX 35 47 36 48 37 49 38 50 39 51 40 52 41 53 42 54 103 55 43 56
REMARK SMILES IDX 102 57 44 58 45 59 46 60 96 61 47 62 101 63 95 64 97 65
REMARK SMILES IDX 48 66 100 67 94 68 93 69 49 71 81 72 61 73 80 74 62 75 65 76
REMARK SMILES IDX 79 77 98 78 63 79 64 80 78 82 99 83 66 84 50 85 51 86 59 87
REMARK SMILES IDX 52 88 58 89 60 90 57 91 53 92 54 93 55 94 56 95 82 96 83 97
REMARK SMILES IDX 91 98 84 99 90 100 92 101 89 102 85 103 86 104 87 105 88 106
REMARK SMILES IDX 67 107 68 108 76 109 69 110 75 111 77 112 74 113 70 114
REMARK SMILES IDX 71 115 72 116 73 117
REMARK H PARENT 20 12 14 17 3 22 17 39 23 42 97 70 65 81
REMARK Flexibility Score: inf
ROOT
ATOM      1  C   UNL     1       1.944  -0.579  -8.065  1.00  0.00     0.188 C 
ENDROOT
BRANCH   1   2
ATOM      2  O   UNL     1       1.465  -0.183  -9.341  1.00  0.00    -0.376 OA
BRANCH   2   3
ATOM      3  C   UNL     1       2.321  -0.217 -10.475  1.00  0.00     0.202 C 
BRANCH   3   4
ATOM      4  C   UNL     1       3.802   0.204 -10.413  1.00  0.00     0.261 C 
BRANCH   4   5
ATOM      5  O   UNL     1       4.436   0.090  -9.132  1.00  0.00    -0.462 OA
BRANCH   5   6
ATOM      6  C   UNL     1       4.822   1.246  -8.529  1.00  0.00     0.331 C 
ATOM      7  O   UNL     1       4.704   2.367  -9.009  1.00  0.00    -0.250 OA
BRANCH   6   8
ATOM      8  C   UNL     1       5.456   0.995  -7.152  1.00  0.00     0.218 C 
BRANCH   8   9
ATOM      9  N   UNL     1       5.306  -0.355  -6.611  1.00  0.00    -0.339 N 
ATOM     10  C   UNL     1       5.095  -0.764  -5.339  1.00  0.00     0.244 C 
ATOM     11  O   UNL     1       5.780  -1.722  -4.966  1.00  0.00    -0.273 OA
ATOM     12  H   UNL     1       5.369  -1.079  -7.275  1.00  0.00     0.164 HD
BRANCH  10  13
ATOM     13  C   UNL     1       4.159  -0.048  -4.335  1.00  0.00     0.181 C 
BRANCH  13  14
ATOM     14  N   UNL     1       4.895   0.806  -3.427  1.00  0.00    -0.342 N 
ATOM     15  C   UNL     1       5.240   0.546  -2.132  1.00  0.00     0.243 C 
ATOM     16  O   UNL     1       6.157   1.235  -1.668  1.00  0.00    -0.273 OA
ATOM     17  H   UNL     1       5.179   1.678  -3.785  1.00  0.00     0.164 HD
BRANCH  15  18
ATOM     18  C   UNL     1       4.493  -0.472  -1.213  1.00  0.00     0.176 C 
BRANCH  18  19
ATOM     19  N   UNL     1       3.075  -0.132  -1.069  1.00  0.00    -0.340 N 
ATOM     20  O   UNL     1       1.167   0.399  -0.002  1.00  0.00    -0.269 OA
ATOM     21  C   UNL     1       2.390   0.311   0.035  1.00  0.00     0.251 C 
ATOM     22  H   UNL     1       2.533  -0.237  -1.884  1.00  0.00     0.164 HD
BRANCH  21  23
ATOM     23  C   UNL     1       3.108   0.649   1.284  1.00  0.00     0.040 A 
ATOM     24  C   UNL     1       4.182   1.549   1.284  1.00  0.00     0.017 A 
ATOM     25  C   UNL     1       2.676   0.069   2.484  1.00  0.00     0.017 A 
ATOM     26  C   UNL     1       4.881   1.796   2.466  1.00  0.00     0.040 A 
ATOM     27  C   UNL     1       3.365   0.337   3.668  1.00  0.00     0.040 A 
ATOM     28  C   UNL     1       4.470   1.183   3.645  1.00  0.00     0.123 A 
ATOM     29  F   UNL     1       5.146   1.416   4.777  1.00  0.00    -0.207 F 
ENDBRANCH  21  23
ENDBRANCH  18  19
BRANCH  18  30
ATOM     30  C   UNL     1       4.818  -1.986  -1.270  1.00  0.00     0.070 C 
BRANCH  30  31
ATOM     31  C   UNL     1       4.274  -2.938  -2.312  1.00  0.00    -0.045 A 
ATOM     32  C   UNL     1       2.972  -2.896  -2.824  1.00  0.00     0.004 A 
ATOM     33  C   UNL     1       5.126  -3.958  -2.776  1.00  0.00     0.004 A 
ATOM     34  C   UNL     1       2.613  -3.690  -3.918  1.00  0.00     0.000 A 
ATOM     35  C   UNL     1       4.750  -4.790  -3.828  1.00  0.00     0.000 A 
ATOM     36  C   UNL     1       3.513  -4.620  -4.434  1.00  0.00     0.000 A 
ENDBRANCH  30  31
ENDBRANCH  18  30
ENDBRANCH  15  18
ENDBRANCH  13  14
BRANCH  13  37
ATOM     37  C   UNL     1       2.764   0.432  -4.750  1.00  0.00     0.101 C 
BRANCH  37  38
ATOM     38  S   UNL     1       2.565   2.094  -5.453  1.00  0.00    -0.177 SA
ATOM     39  H   UNL     1       2.869   3.025  -4.509  1.00  0.00     0.102 HD
ENDBRANCH  37  38
ENDBRANCH  13  37
ENDBRANCH  10  13
ENDBRANCH   8   9
BRANCH   8  40
ATOM     40  C   UNL     1       6.952   1.313  -7.254  1.00  0.00     0.193 C 
BRANCH  40  41
ATOM     41  O   UNL     1       7.639   0.343  -8.044  1.00  0.00    -0.394 OA
ATOM     42  H   UNL     1       7.550  -0.531  -7.632  1.00  0.00     0.210 HD
ENDBRANCH  40  41
ENDBRANCH   8  40
ENDBRANCH   6   8
ENDBRANCH   5   6
ENDBRANCH   4   5
ENDBRANCH   3   4
ENDBRANCH   2   3
ENDBRANCH   1   2
BRANCH   1  43
ATOM     43  C   UNL     1       2.710  -1.900  -7.878  1.00  0.00     0.188 C 
BRANCH  43  44
ATOM     44  O   UNL     1       3.203  -2.440  -9.083  1.00  0.00    -0.377 OA
BRANCH  44  45
ATOM     45  C   UNL     1       2.450  -3.532  -9.599  1.00  0.00     0.188 C 
BRANCH  45  46
ATOM     46  C   UNL     1       0.907  -3.416  -9.555  1.00  0.00     0.188 C 
BRANCH  46  47
ATOM     47  O   UNL     1       0.408  -3.114  -8.256  1.00  0.00    -0.376 OA
BRANCH  47  48
ATOM     48  C   UNL     1      -0.200  -4.133  -7.484  1.00  0.00     0.202 C 
BRANCH  48  49
ATOM     49  C   UNL     1       0.610  -5.372  -7.068  1.00  0.00     0.261 C 
BRANCH  49  50
ATOM     50  O   UNL     1       1.516  -5.919  -8.029  1.00  0.00    -0.460 OA
BRANCH  50  51
ATOM     51  C   UNL     1       0.973  -6.652  -9.026  1.00  0.00     0.338 C 
ATOM     52  O   UNL     1      -0.214  -6.898  -9.173  1.00  0.00    -0.246 OA
BRANCH  51  53
ATOM     53  C   UNL     1       2.027  -6.912 -10.031  1.00  0.00     0.060 A 
ATOM     54  C   UNL     1       1.852  -6.403 -11.325  1.00  0.00     0.016 A 
ATOM     55  C   UNL     1       3.189  -7.616  -9.703  1.00  0.00     0.016 A 
ATOM     56  C   UNL     1       2.828  -6.609 -12.299  1.00  0.00     0.010 A 
ATOM     57  C   UNL     1       4.151  -7.854 -10.692  1.00  0.00     0.010 A 
ATOM     58  C   UNL     1       3.964  -7.371 -12.000  1.00  0.00    -0.014 A 
BRANCH  58  59
ATOM     59  C   UNL     1       4.852  -7.825 -13.099  1.00  0.00     0.031 A 
ATOM     60  C   UNL     1       4.617  -9.191 -13.683  1.00  0.00     0.074 A 
ATOM     61  C   UNL     1       5.827  -7.037 -13.585  1.00  0.00     0.049 A 
ATOM     62  N   UNL     1       5.303  -9.841 -14.585  1.00  0.00    -0.248 NA
ATOM     63  C   UNL     1       3.444  -9.919 -13.174  1.00  0.00     0.031 C 
ATOM     64  C   UNL     1       6.103  -5.669 -13.151  1.00  0.00     0.029 A 
ATOM     65  N   UNL     1       6.775  -7.282 -14.548  1.00  0.00    -0.354 N 
ATOM     66  C   UNL     1       4.651 -11.058 -14.750  1.00  0.00     0.074 A 
ATOM     67  C   UNL     1       3.534 -11.066 -13.829  1.00  0.00     0.031 C 
ATOM     68  C   UNL     1       7.162  -5.202 -13.835  1.00  0.00     0.029 A 
ATOM     69  C   UNL     1       7.670  -6.252 -14.717  1.00  0.00     0.049 A 
ATOM     70  H   UNL     1       6.810  -8.117 -15.069  1.00  0.00     0.167 HD
ATOM     71  C   UNL     1       4.955 -12.073 -15.595  1.00  0.00     0.034 A 
ATOM     72  C   UNL     1       8.789  -6.182 -15.468  1.00  0.00     0.034 A 
ATOM     73  C   UNL     1       6.085 -12.055 -16.490  1.00  0.00     0.049 A 
ATOM     74  C   UNL     1       9.183  -7.378 -16.307  1.00  0.00     0.074 A 
ATOM     75  C   UNL     1       6.484 -13.026 -17.392  1.00  0.00     0.029 A 
ATOM     76  N   UNL     1       7.011 -11.023 -16.583  1.00  0.00    -0.354 N 
ATOM     77  N   UNL     1       8.562  -8.526 -16.456  1.00  0.00    -0.248 NA
ATOM     78  C   UNL     1      10.430  -7.268 -17.078  1.00  0.00     0.031 C 
ATOM     79  C   UNL     1       7.694 -12.620 -17.965  1.00  0.00     0.029 A 
ATOM     80  C   UNL     1       8.004 -11.354 -17.492  1.00  0.00     0.049 A 
ATOM     81  H   UNL     1       6.968 -10.180 -16.077  1.00  0.00     0.167 HD
ATOM     82  C   UNL     1       9.327  -9.259 -17.361  1.00  0.00     0.074 A 
ATOM     83  C   UNL     1      10.446  -8.419 -17.734  1.00  0.00     0.031 C 
ATOM     84  C   UNL     1       9.122 -10.511 -17.846  1.00  0.00     0.034 A 
BRANCH  71  85
ATOM     85  C   UNL     1       4.088 -13.306 -15.539  1.00  0.00     0.023 A 
ATOM     86  C   UNL     1       2.723 -13.270 -15.876  1.00  0.00     0.031 A 
ATOM     87  C   UNL     1       4.628 -14.533 -15.113  1.00  0.00     0.131 A 
ATOM     88  C   UNL     1       1.932 -14.417 -15.713  1.00  0.00     0.055 A 
ATOM     89  C   UNL     1       3.853 -15.691 -15.035  1.00  0.00     0.041 A 
ATOM     90  F   UNL     1       5.917 -14.622 -14.750  1.00  0.00    -0.206 F 
ATOM     91  C   UNL     1       2.493 -15.634 -15.322  1.00  0.00     0.022 A 
BRANCH  88  92
ATOM     92  S   UNL     1       0.132 -14.257 -15.874  1.00  0.00     0.124 S 
ATOM     93  O   UNL     1      -0.165 -13.242 -14.867  1.00  0.00    -0.237 OA
ATOM     94  O   UNL     1      -0.025 -13.843 -17.264  1.00  0.00    -0.237 OA
ATOM     95  O   UNL     1      -0.360 -15.597 -15.562  1.00  0.00    -0.744 OA
ENDBRANCH  88  92
ENDBRANCH  71  85
BRANCH  72  96
ATOM     96  C   UNL     1       9.659  -4.970 -15.425  1.00  0.00     0.023 A 
ATOM     97  C   UNL     1       9.902  -4.209 -16.580  1.00  0.00     0.031 A 
ATOM     98  C   UNL     1      10.317  -4.593 -14.240  1.00  0.00     0.131 A 
ATOM     99  C   UNL     1      10.815  -3.143 -16.537  1.00  0.00     0.055 A 
ATOM    100  C   UNL     1      11.177  -3.494 -14.188  1.00  0.00     0.041 A 
ATOM    101  F   UNL     1      10.130  -5.290 -13.108  1.00  0.00    -0.206 F 
ATOM    102  C   UNL     1      11.441  -2.770 -15.346  1.00  0.00     0.022 A 
BRANCH  99 103
ATOM    103  S   UNL     1      11.253  -2.313 -18.090  1.00  0.00     0.124 S 
ATOM    104  O   UNL     1      11.773  -3.422 -18.882  1.00  0.00    -0.237 OA
ATOM    105  O   UNL     1       9.967  -1.768 -18.514  1.00  0.00    -0.237 OA
ATOM    106  O   UNL     1      12.243  -1.321 -17.678  1.00  0.00    -0.744 OA
ENDBRANCH  99 103
ENDBRANCH  72  96
BRANCH  84 107
ATOM    107  C   UNL     1      10.106 -11.031 -18.867  1.00  0.00     0.023 A 
ATOM    108  C   UNL     1      11.447 -11.298 -18.538  1.00  0.00     0.031 A 
ATOM    109  C   UNL     1       9.691 -11.276 -20.189  1.00  0.00     0.131 A 
ATOM    110  C   UNL     1      12.334 -11.746 -19.528  1.00  0.00     0.055 A 
ATOM    111  C   UNL     1      10.562 -11.785 -21.153  1.00  0.00     0.041 A 
ATOM    112  F   UNL     1       8.423 -11.037 -20.562  1.00  0.00    -0.206 F 
ATOM    113  C   UNL     1      11.895 -12.012 -20.828  1.00  0.00     0.022 A 
BRANCH 110 114
ATOM    114  S   UNL     1      14.095 -11.899 -19.118  1.00  0.00     0.124 S 
ATOM    115  O   UNL     1      14.431 -10.537 -18.718  1.00  0.00    -0.237 OA
ATOM    116  O   UNL     1      14.082 -12.892 -18.048  1.00  0.00    -0.237 OA
ATOM    117  O   UNL     1      14.701 -12.347 -20.370  1.00  0.00    -0.744 OA
ENDBRANCH 110 114
ENDBRANCH  84 107
ENDBRANCH  58  59
ENDBRANCH  51  53
ENDBRANCH  50  51
ENDBRANCH  49  50
ENDBRANCH  48  49
ENDBRANCH  47  48
ENDBRANCH  46  47
ENDBRANCH  45  46
ENDBRANCH  44  45
ENDBRANCH  43  44
ENDBRANCH   1  43
TORSDOF 35
