REMARK SMILES CC(C)(C)C(=O)NCc1ccc(C(=O)OCCOCCOCCOCCOC(=O)c2ccc(-c3c4nc(c(-c5cc(S(=O)(=O)[O-])ccc5F)c5ccc([nH]5)c(-c5cc(S(=O)(=O)[O-])ccc5F)c5nc(c(-c6cc(S(=O)(=O)[O-])ccc6F)c6ccc3[nH]6)C=C5)C=C4)cc2)o1
REMARK SMILES IDX 21 1 20 2 19 3 18 4 17 5 16 6 15 7 13 8 14 9 12 10 9 11
REMARK SMILES IDX 10 12 93 13 11 14 8 15 7 16 5 17 6 18 2 20 1 21 3 22 4 23
REMARK SMILES IDX 22 24 23 25 24 26 25 27 26 28 27 29 28 30 29 31 30 32 31 33
REMARK SMILES IDX 92 34 32 35 91 36 33 37 34 38 35 39 85 40 36 41 90 42 84 43
REMARK SMILES IDX 86 44 37 45 89 46 83 47 82 48 38 50 70 51 50 52 69 53 51 54
REMARK SMILES IDX 54 55 68 56 87 57 52 58 53 59 67 61 88 62 55 63 39 64 40 65
REMARK SMILES IDX 48 66 41 67 47 68 49 69 46 70 42 71 43 72 44 73 45 74 71 75
REMARK SMILES IDX 72 76 80 77 73 78 79 79 81 80 78 81 74 82 75 83 76 84 77 85
REMARK SMILES IDX 56 86 57 87 65 88 58 89 64 90 66 91 63 92 59 93 60 94 61 95
REMARK SMILES IDX 62 96
REMARK H PARENT 7 19 86 49 54 60
REMARK Flexibility Score: inf
ROOT
ATOM      1  O   UNL     1      -6.521  -5.635  -1.143  1.00  0.00    -0.377 OA
ENDROOT
BRANCH   1   2
ATOM      2  C   UNL     1      -5.582  -4.724  -0.587  1.00  0.00     0.188 C 
BRANCH   2   3
ATOM      3  C   UNL     1      -5.544  -3.401  -1.368  1.00  0.00     0.188 C 
BRANCH   3   4
ATOM      4  O   UNL     1      -6.639  -3.274  -2.267  1.00  0.00    -0.376 OA
BRANCH   4   5
ATOM      5  C   UNL     1      -6.430  -3.602  -3.635  1.00  0.00     0.202 C 
BRANCH   5   6
ATOM      6  C   UNL     1      -5.896  -4.989  -4.048  1.00  0.00     0.261 C 
BRANCH   6   7
ATOM      7  O   UNL     1      -4.729  -5.478  -3.374  1.00  0.00    -0.457 OA
BRANCH   7   8
ATOM      8  C   UNL     1      -3.546  -4.839  -3.545  1.00  0.00     0.374 C 
ATOM      9  O   UNL     1      -3.365  -3.894  -4.306  1.00  0.00    -0.242 OA
BRANCH   8  10
ATOM     10  C   UNL     1      -2.615  -5.366  -2.570  1.00  0.00     0.211 A 
ATOM     11  C   UNL     1      -1.067  -5.196  -1.003  1.00  0.00     0.124 A 
ATOM     12  C   UNL     1      -1.543  -6.488  -0.937  1.00  0.00     0.048 A 
ATOM     13  O   UNL     1      -1.694  -4.519  -2.011  1.00  0.00    -0.452 OA
ATOM     14  C   UNL     1      -2.537  -6.596  -1.938  1.00  0.00     0.058 A 
BRANCH  11  15
ATOM     15  C   UNL     1      -0.097  -4.437  -0.170  1.00  0.00     0.191 C 
BRANCH  15  16
ATOM     16  N   UNL     1       0.696  -3.569  -1.010  1.00  0.00    -0.348 N 
ATOM     17  C   UNL     1       1.019  -2.255  -0.934  1.00  0.00     0.225 C 
ATOM     18  O   UNL     1       1.761  -1.831  -1.827  1.00  0.00    -0.275 OA
ATOM     19  H   UNL     1       1.078  -4.023  -1.795  1.00  0.00     0.163 HD
BRANCH  17  20
ATOM     20  C   UNL     1       0.522  -1.328   0.196  1.00  0.00     0.041 C 
ATOM     21  C   UNL     1       1.118   0.081  -0.046  1.00  0.00     0.021 C 
ATOM     22  C   UNL     1       1.024  -1.800   1.567  1.00  0.00     0.021 C 
ATOM     23  C   UNL     1      -1.006  -1.176   0.172  1.00  0.00     0.021 C 
ENDBRANCH  17  20
ENDBRANCH  15  16
ENDBRANCH  11  15
ENDBRANCH   8  10
ENDBRANCH   7   8
ENDBRANCH   6   7
ENDBRANCH   5   6
ENDBRANCH   4   5
ENDBRANCH   3   4
ENDBRANCH   2   3
ENDBRANCH   1   2
BRANCH   1  24
ATOM     24  C   UNL     1      -7.791  -5.681  -0.492  1.00  0.00     0.188 C 
BRANCH  24  25
ATOM     25  C   UNL     1      -8.490  -4.347  -0.163  1.00  0.00     0.188 C 
BRANCH  25  26
ATOM     26  O   UNL     1      -7.770  -3.566   0.799  1.00  0.00    -0.376 OA
BRANCH  26  27
ATOM     27  C   UNL     1      -8.347  -3.513   2.102  1.00  0.00     0.202 C 
BRANCH  27  28
ATOM     28  C   UNL     1      -8.002  -4.731   2.970  1.00  0.00     0.261 C 
BRANCH  28  29
ATOM     29  O   UNL     1      -8.551  -5.976   2.509  1.00  0.00    -0.460 OA
BRANCH  29  30
ATOM     30  C   UNL     1      -9.899  -6.050   2.420  1.00  0.00     0.338 C 
ATOM     31  O   UNL     1     -10.699  -5.198   2.760  1.00  0.00    -0.246 OA
BRANCH  30  32
ATOM     32  C   UNL     1     -10.244  -7.272   1.667  1.00  0.00     0.060 A 
ATOM     33  C   UNL     1     -11.122  -7.165   0.581  1.00  0.00     0.016 A 
ATOM     34  C   UNL     1      -9.731  -8.514   2.048  1.00  0.00     0.016 A 
ATOM     35  C   UNL     1     -11.532  -8.315  -0.096  1.00  0.00     0.010 A 
ATOM     36  C   UNL     1     -10.154  -9.664   1.381  1.00  0.00     0.010 A 
ATOM     37  C   UNL     1     -11.086  -9.572   0.333  1.00  0.00    -0.014 A 
BRANCH  37  38
ATOM     38  C   UNL     1     -11.760 -10.803  -0.146  1.00  0.00     0.031 A 
ATOM     39  C   UNL     1     -12.896 -11.349   0.676  1.00  0.00     0.074 A 
ATOM     40  C   UNL     1     -11.363 -11.432  -1.266  1.00  0.00     0.049 A 
ATOM     41  N   UNL     1     -13.582 -12.451   0.523  1.00  0.00    -0.248 NA
ATOM     42  C   UNL     1     -13.302 -10.539   1.836  1.00  0.00     0.031 C 
ATOM     43  C   UNL     1     -10.300 -10.978  -2.160  1.00  0.00     0.029 A 
ATOM     44  N   UNL     1     -11.805 -12.602  -1.831  1.00  0.00    -0.354 N 
ATOM     45  C   UNL     1     -14.501 -12.468   1.567  1.00  0.00     0.074 A 
ATOM     46  C   UNL     1     -14.258 -11.286   2.365  1.00  0.00     0.031 C 
ATOM     47  C   UNL     1     -10.157 -11.874  -3.154  1.00  0.00     0.029 A 
ATOM     48  C   UNL     1     -11.094 -12.978  -2.946  1.00  0.00     0.049 A 
ATOM     49  H   UNL     1     -12.559 -13.123  -1.472  1.00  0.00     0.167 HD
ATOM     50  C   UNL     1     -15.465 -13.384   1.833  1.00  0.00     0.034 A 
ATOM     51  C   UNL     1     -11.175 -14.099  -3.692  1.00  0.00     0.034 A 
ATOM     52  C   UNL     1     -15.676 -14.573   1.048  1.00  0.00     0.049 A 
ATOM     53  C   UNL     1     -12.197 -15.150  -3.328  1.00  0.00     0.074 A 
ATOM     54  C   UNL     1     -16.616 -15.572   1.227  1.00  0.00     0.029 A 
ATOM     55  N   UNL     1     -14.921 -14.932  -0.062  1.00  0.00    -0.354 N 
ATOM     56  N   UNL     1     -13.066 -15.154  -2.343  1.00  0.00    -0.248 NA
ATOM     57  C   UNL     1     -12.252 -16.346  -4.181  1.00  0.00     0.031 C 
ATOM     58  C   UNL     1     -16.391 -16.563   0.264  1.00  0.00     0.029 A 
ATOM     59  C   UNL     1     -15.356 -16.149  -0.560  1.00  0.00     0.049 A 
ATOM     60  H   UNL     1     -14.184 -14.399  -0.439  1.00  0.00     0.167 HD
ATOM     61  C   UNL     1     -13.791 -16.336  -2.480  1.00  0.00     0.074 A 
ATOM     62  C   UNL     1     -13.261 -17.016  -3.644  1.00  0.00     0.031 C 
ATOM     63  C   UNL     1     -14.810 -16.813  -1.720  1.00  0.00     0.034 A 
BRANCH  50  64
ATOM     64  C   UNL     1     -16.311 -13.147   3.058  1.00  0.00     0.023 A 
ATOM     65  C   UNL     1     -17.171 -12.039   3.156  1.00  0.00     0.031 A 
ATOM     66  C   UNL     1     -16.213 -14.006   4.167  1.00  0.00     0.131 A 
ATOM     67  C   UNL     1     -17.838 -11.775   4.362  1.00  0.00     0.055 A 
ATOM     68  C   UNL     1     -16.940 -13.781   5.337  1.00  0.00     0.041 A 
ATOM     69  F   UNL     1     -15.389 -15.065   4.140  1.00  0.00    -0.206 F 
ATOM     70  C   UNL     1     -17.746 -12.652   5.446  1.00  0.00     0.022 A 
BRANCH  67  71
ATOM     71  S   UNL     1     -18.704 -10.192   4.545  1.00  0.00     0.124 S 
ATOM     72  O   UNL     1     -17.622  -9.236   4.326  1.00  0.00    -0.237 OA
ATOM     73  O   UNL     1     -19.716 -10.263   3.497  1.00  0.00    -0.237 OA
ATOM     74  O   UNL     1     -19.218 -10.238   5.913  1.00  0.00    -0.744 OA
ENDBRANCH  67  71
ENDBRANCH  50  64
BRANCH  51  75
ATOM     75  C   UNL     1     -10.238 -14.319  -4.830  1.00  0.00     0.023 A 
ATOM     76  C   UNL     1     -10.705 -14.391  -6.152  1.00  0.00     0.031 A 
ATOM     77  C   UNL     1      -8.865 -14.522  -4.602  1.00  0.00     0.131 A 
ATOM     78  C   UNL     1      -9.815 -14.704  -7.191  1.00  0.00     0.055 A 
ATOM     79  C   UNL     1      -7.976 -14.786  -5.645  1.00  0.00     0.041 A 
ATOM     80  F   UNL     1      -8.367 -14.464  -3.357  1.00  0.00    -0.206 F 
ATOM     81  C   UNL     1      -8.452 -14.891  -6.948  1.00  0.00     0.022 A 
BRANCH  78  82
ATOM     82  S   UNL     1     -10.479 -14.940  -8.863  1.00  0.00     0.124 S 
ATOM     83  O   UNL     1     -11.423 -16.032  -8.656  1.00  0.00    -0.237 OA
ATOM     84  O   UNL     1     -11.061 -13.632  -9.144  1.00  0.00    -0.237 OA
ATOM     85  O   UNL     1      -9.297 -15.276  -9.654  1.00  0.00    -0.744 OA
ENDBRANCH  78  82
ENDBRANCH  51  75
BRANCH  63  86
ATOM     86  C   UNL     1     -15.451 -18.105  -2.161  1.00  0.00     0.023 A 
ATOM     87  C   UNL     1     -14.777 -19.336  -2.076  1.00  0.00     0.031 A 
ATOM     88  C   UNL     1     -16.762 -18.099  -2.670  1.00  0.00     0.131 A 
ATOM     89  C   UNL     1     -15.402 -20.506  -2.536  1.00  0.00     0.055 A 
ATOM     90  C   UNL     1     -17.397 -19.273  -3.079  1.00  0.00     0.041 A 
ATOM     91  F   UNL     1     -17.450 -16.951  -2.771  1.00  0.00    -0.206 F 
ATOM     92  C   UNL     1     -16.712 -20.483  -3.023  1.00  0.00     0.022 A 
BRANCH  89  93
ATOM     93  S   UNL     1     -14.454 -22.052  -2.557  1.00  0.00     0.124 S 
ATOM     94  O   UNL     1     -13.331 -21.709  -3.423  1.00  0.00    -0.237 OA
ATOM     95  O   UNL     1     -14.136 -22.242  -1.145  1.00  0.00    -0.237 OA
ATOM     96  O   UNL     1     -15.394 -23.023  -3.114  1.00  0.00    -0.744 OA
ENDBRANCH  89  93
ENDBRANCH  63  86
ENDBRANCH  37  38
ENDBRANCH  30  32
ENDBRANCH  29  30
ENDBRANCH  28  29
ENDBRANCH  27  28
ENDBRANCH  26  27
ENDBRANCH  25  26
ENDBRANCH  24  25
ENDBRANCH   1  24
TORSDOF 26
