REMARK SMILES CC(C)[NH2+][C@@]1(C(=O)OCCOCCOCCOCCOC(=O)c2ccc(-c3c4nc(c(-c5cc(S(=O)(=O)[O-])ccc5F)c5ccc([nH]5)c(-c5cc(S(=O)(=O)[O-])ccc5F)c5nc(c(-c6cc(S(=O)(=O)[O-])ccc6F)c6ccc3[nH]6)C=C5)C=C4)cc2)CC[C@H](Sc2ccccn2)C1
REMARK SMILES IDX 15 1 14 2 13 3 12 4 11 5 10 6 9 7 8 8 6 9 7 10 5 11 86 12
REMARK SMILES IDX 96 13 87 14 88 15 4 16 2 19 1 20 3 21 89 22 90 23 91 24
REMARK SMILES IDX 95 25 92 26 94 27 93 28 16 29 17 30 18 31 19 32 20 33 21 34
REMARK SMILES IDX 22 35 23 36 24 37 85 38 25 39 84 40 26 41 27 42 28 43 78 44
REMARK SMILES IDX 29 45 83 46 77 47 79 48 30 49 82 50 76 51 75 52 31 54 63 55
REMARK SMILES IDX 43 56 62 57 44 58 47 59 61 60 80 61 45 62 46 63 60 65 81 66
REMARK SMILES IDX 48 67 32 68 33 69 41 70 34 71 40 72 42 73 39 74 35 75 36 76
REMARK SMILES IDX 37 77 38 78 64 79 65 80 73 81 66 82 72 83 74 84 71 85 67 86
REMARK SMILES IDX 68 87 69 88 70 89 49 90 50 91 58 92 51 93 57 94 59 95 56 96
REMARK SMILES IDX 52 97 53 98 54 99 55 100
REMARK H PARENT 4 17 4 18 79 53 47 64
REMARK Flexibility Score: inf
ROOT
ATOM      1  C   UNL     1      -5.211  -3.762   1.938  1.00  0.00     0.188 C 
ENDROOT
BRANCH   1   2
ATOM      2  O   UNL     1      -3.908  -3.307   2.247  1.00  0.00    -0.377 OA
BRANCH   2   3
ATOM      3  C   UNL     1      -3.339  -2.489   1.259  1.00  0.00     0.188 C 
BRANCH   3   4
ATOM      4  C   UNL     1      -3.990  -1.174   0.832  1.00  0.00     0.188 C 
BRANCH   4   5
ATOM      5  O   UNL     1      -5.256  -1.147   0.205  1.00  0.00    -0.376 OA
BRANCH   5   6
ATOM      6  C   UNL     1      -5.655  -1.940  -0.898  1.00  0.00     0.202 C 
BRANCH   6   7
ATOM      7  C   UNL     1      -4.736  -2.497  -1.999  1.00  0.00     0.261 C 
BRANCH   7   8
ATOM      8  O   UNL     1      -3.460  -3.004  -1.592  1.00  0.00    -0.459 OA
BRANCH   8   9
ATOM      9  C   UNL     1      -2.388  -2.236  -1.893  1.00  0.00     0.368 C 
ATOM     10  O   UNL     1      -2.478  -1.186  -2.529  1.00  0.00    -0.245 OA
BRANCH   9  11
ATOM     11  C   UNL     1      -0.996  -2.784  -1.355  1.00  0.00     0.195 C 
ATOM     12  C   UNL     1      -0.349  -3.396  -2.606  1.00  0.00     0.082 C 
ATOM     13  C   UNL     1      -0.887  -3.998  -0.408  1.00  0.00     0.096 C 
ATOM     14  C   UNL     1      -1.014  -4.790  -2.682  1.00  0.00     0.022 C 
ATOM     15  C   UNL     1      -1.141  -5.265  -1.229  1.00  0.00     0.060 C 
BRANCH  11  16
ATOM     16  N   UNL     1      -0.419  -1.600  -0.697  1.00  0.00    -0.330 N 
ATOM     17  H   UNL     1      -0.824  -0.797  -1.177  1.00  0.00     0.347 HD
ATOM     18  H   UNL     1      -0.636  -1.805   0.278  1.00  0.00     0.347 HD
BRANCH  16  19
ATOM     19  C   UNL     1       0.998  -1.319  -0.599  1.00  0.00     0.176 C 
ATOM     20  C   UNL     1       1.089   0.170  -0.227  1.00  0.00     0.075 C 
ATOM     21  C   UNL     1       1.710  -2.126   0.487  1.00  0.00     0.075 C 
ENDBRANCH  16  19
ENDBRANCH  11  16
BRANCH  15  22
ATOM     22  S   UNL     1      -2.751  -5.954  -0.713  1.00  0.00    -0.103 SA
BRANCH  22  23
ATOM     23  C   UNL     1      -2.888  -7.527  -1.508  1.00  0.00     0.096 A 
ATOM     24  C   UNL     1      -1.918  -8.107  -2.313  1.00  0.00     0.035 A 
ATOM     25  N   UNL     1      -4.074  -8.132  -1.273  1.00  0.00    -0.250 NA
ATOM     26  C   UNL     1      -2.194  -9.322  -2.937  1.00  0.00     0.004 A 
ATOM     27  C   UNL     1      -4.308  -9.322  -1.865  1.00  0.00     0.112 A 
ATOM     28  C   UNL     1      -3.415  -9.941  -2.715  1.00  0.00     0.020 A 
ENDBRANCH  22  23
ENDBRANCH  15  22
ENDBRANCH   9  11
ENDBRANCH   8   9
ENDBRANCH   7   8
ENDBRANCH   6   7
ENDBRANCH   5   6
ENDBRANCH   4   5
ENDBRANCH   3   4
ENDBRANCH   2   3
ENDBRANCH   1   2
BRANCH   1  29
ATOM     29  C   UNL     1      -6.236  -2.926   2.696  1.00  0.00     0.188 C 
BRANCH  29  30
ATOM     30  O   UNL     1      -5.729  -1.948   3.587  1.00  0.00    -0.376 OA
BRANCH  30  31
ATOM     31  C   UNL     1      -4.769  -2.246   4.592  1.00  0.00     0.202 C 
BRANCH  31  32
ATOM     32  C   UNL     1      -4.243  -3.638   5.027  1.00  0.00     0.261 C 
BRANCH  32  33
ATOM     33  O   UNL     1      -4.843  -4.831   4.527  1.00  0.00    -0.460 OA
BRANCH  33  34
ATOM     34  C   UNL     1      -6.065  -5.156   4.991  1.00  0.00     0.338 C 
ATOM     35  O   UNL     1      -6.724  -4.537   5.807  1.00  0.00    -0.246 OA
BRANCH  34  36
ATOM     36  C   UNL     1      -6.542  -6.307   4.188  1.00  0.00     0.060 A 
ATOM     37  C   UNL     1      -7.727  -6.173   3.453  1.00  0.00     0.016 A 
ATOM     38  C   UNL     1      -5.818  -7.503   4.144  1.00  0.00     0.016 A 
ATOM     39  C   UNL     1      -8.217  -7.245   2.708  1.00  0.00     0.010 A 
ATOM     40  C   UNL     1      -6.326  -8.588   3.423  1.00  0.00     0.010 A 
ATOM     41  C   UNL     1      -7.549  -8.476   2.736  1.00  0.00    -0.014 A 
BRANCH  41  42
ATOM     42  C   UNL     1      -8.261  -9.698   2.288  1.00  0.00     0.031 A 
ATOM     43  C   UNL     1      -8.959 -10.521   3.339  1.00  0.00     0.074 A 
ATOM     44  C   UNL     1      -8.333 -10.053   0.994  1.00  0.00     0.049 A 
ATOM     45  N   UNL     1      -9.578 -11.666   3.229  1.00  0.00    -0.248 NA
ATOM     46  C   UNL     1      -8.953  -9.966   4.702  1.00  0.00     0.031 C 
ATOM     47  C   UNL     1      -7.784  -9.291  -0.125  1.00  0.00     0.029 A 
ATOM     48  N   UNL     1      -8.897 -11.158   0.404  1.00  0.00    -0.354 N 
ATOM     49  C   UNL     1     -10.033 -11.972   4.508  1.00  0.00     0.074 A 
ATOM     50  C   UNL     1      -9.579 -10.912   5.382  1.00  0.00     0.031 C 
ATOM     51  C   UNL     1      -8.025  -9.962  -1.266  1.00  0.00     0.029 A 
ATOM     52  C   UNL     1      -8.686 -11.227  -0.953  1.00  0.00     0.049 A 
ATOM     53  H   UNL     1      -9.405 -11.837   0.906  1.00  0.00     0.167 HD
ATOM     54  C   UNL     1     -10.770 -13.034   4.913  1.00  0.00     0.034 A 
ATOM     55  C   UNL     1      -8.957 -12.216  -1.829  1.00  0.00     0.034 A 
ATOM     56  C   UNL     1     -11.198 -14.090   4.030  1.00  0.00     0.049 A 
ATOM     57  C   UNL     1      -9.658 -13.461  -1.335  1.00  0.00     0.074 A 
ATOM     58  C   UNL     1     -11.945 -15.214   4.331  1.00  0.00     0.029 A 
ATOM     59  N   UNL     1     -10.901 -14.161   2.675  1.00  0.00    -0.354 N 
ATOM     60  N   UNL     1     -10.071 -13.751  -0.122  1.00  0.00    -0.248 NA
ATOM     61  C   UNL     1      -9.943 -14.504  -2.329  1.00  0.00     0.031 C 
ATOM     62  C   UNL     1     -12.028 -16.004   3.180  1.00  0.00     0.029 A 
ATOM     63  C   UNL     1     -11.417 -15.328   2.135  1.00  0.00     0.049 A 
ATOM     64  H   UNL     1     -10.398 -13.481   2.171  1.00  0.00     0.167 HD
ATOM     65  C   UNL     1     -10.707 -14.988  -0.220  1.00  0.00     0.074 A 
ATOM     66  C   UNL     1     -10.620 -15.387  -1.610  1.00  0.00     0.031 C 
ATOM     67  C   UNL     1     -11.321 -15.718   0.747  1.00  0.00     0.034 A 
BRANCH  54  68
ATOM     68  C   UNL     1     -11.094 -13.128   6.385  1.00  0.00     0.023 A 
ATOM     69  C   UNL     1     -11.877 -12.159   7.038  1.00  0.00     0.031 A 
ATOM     70  C   UNL     1     -10.569 -14.179   7.158  1.00  0.00     0.131 A 
ATOM     71  C   UNL     1     -12.046 -12.219   8.430  1.00  0.00     0.055 A 
ATOM     72  C   UNL     1     -10.815 -14.281   8.528  1.00  0.00     0.041 A 
ATOM     73  F   UNL     1      -9.791 -15.118   6.597  1.00  0.00    -0.206 F 
ATOM     74  C   UNL     1     -11.544 -13.288   9.175  1.00  0.00     0.022 A 
BRANCH  71  75
ATOM     75  S   UNL     1     -12.794 -10.797   9.274  1.00  0.00     0.124 S 
ATOM     76  O   UNL     1     -11.894  -9.715   8.882  1.00  0.00    -0.237 OA
ATOM     77  O   UNL     1     -14.133 -10.757   8.698  1.00  0.00    -0.237 OA
ATOM     78  O   UNL     1     -12.733 -11.167  10.687  1.00  0.00    -0.744 OA
ENDBRANCH  71  75
ENDBRANCH  54  68
BRANCH  55  79
ATOM     79  C   UNL     1      -8.521 -12.106  -3.253  1.00  0.00     0.023 A 
ATOM     80  C   UNL     1      -9.452 -12.090  -4.302  1.00  0.00     0.031 A 
ATOM     81  C   UNL     1      -7.153 -12.078  -3.587  1.00  0.00     0.131 A 
ATOM     82  C   UNL     1      -9.007 -12.096  -5.634  1.00  0.00     0.055 A 
ATOM     83  C   UNL     1      -6.716 -12.029  -4.912  1.00  0.00     0.041 A 
ATOM     84  F   UNL     1      -6.216 -12.094  -2.626  1.00  0.00    -0.206 F 
ATOM     85  C   UNL     1      -7.646 -12.051  -5.946  1.00  0.00     0.022 A 
BRANCH  82  86
ATOM     86  S   UNL     1     -10.233 -12.257  -6.961  1.00  0.00     0.124 S 
ATOM     87  O   UNL     1     -10.869 -13.524  -6.623  1.00  0.00    -0.237 OA
ATOM     88  O   UNL     1     -11.043 -11.059  -6.770  1.00  0.00    -0.237 OA
ATOM     89  O   UNL     1      -9.419 -12.269  -8.175  1.00  0.00    -0.744 OA
ENDBRANCH  82  86
ENDBRANCH  55  79
BRANCH  67  90
ATOM     90  C   UNL     1     -12.011 -16.994   0.322  1.00  0.00     0.023 A 
ATOM     91  C   UNL     1     -11.300 -18.103  -0.168  1.00  0.00     0.031 A 
ATOM     92  C   UNL     1     -13.412 -17.098   0.420  1.00  0.00     0.131 A 
ATOM     93  C   UNL     1     -11.995 -19.247  -0.591  1.00  0.00     0.055 A 
ATOM     94  C   UNL     1     -14.091 -18.263   0.062  1.00  0.00     0.041 A 
ATOM     95  F   UNL     1     -14.144 -16.070   0.876  1.00  0.00    -0.206 F 
ATOM     96  C   UNL     1     -13.383 -19.342  -0.459  1.00  0.00     0.022 A 
BRANCH  93  97
ATOM     97  S   UNL     1     -11.071 -20.578  -1.405  1.00  0.00     0.124 S 
ATOM     98  O   UNL     1     -10.465 -19.878  -2.534  1.00  0.00    -0.237 OA
ATOM     99  O   UNL     1     -10.153 -21.009  -0.356  1.00  0.00    -0.237 OA
ATOM    100  O   UNL     1     -12.105 -21.548  -1.760  1.00  0.00    -0.744 OA
ENDBRANCH  93  97
ENDBRANCH  67  90
ENDBRANCH  41  42
ENDBRANCH  34  36
ENDBRANCH  33  34
ENDBRANCH  32  33
ENDBRANCH  31  32
ENDBRANCH  30  31
ENDBRANCH  29  30
ENDBRANCH   1  29
TORSDOF 27
