REMARK SMILES Cn1ncc(C(=O)OCCOCCOCCOCCOC(=O)c2ccc(-c3c4nc(c(-c5cc(S(=O)(=O)[O-])ccc5F)c5ccc([nH]5)c(-c5cc(S(=O)(=O)[O-])ccc5F)c5nc(c(-c6cc(S(=O)(=O)[O-])ccc6F)c6ccc3[nH]6)C=C5)C=C4)cc2)c1C(=O)Nc1ccccn1
REMARK SMILES IDX 15 1 14 2 13 3 12 4 11 5 10 6 9 7 8 8 6 9 7 10 5 11 1 12
REMARK SMILES IDX 2 13 3 14 86 15 4 16 87 17 88 18 89 19 90 21 91 22 95 23
REMARK SMILES IDX 92 24 94 25 93 26 16 27 17 28 18 29 19 30 20 31 21 32 22 33
REMARK SMILES IDX 23 34 24 35 85 36 25 37 84 38 26 39 27 40 28 41 78 42 29 43
REMARK SMILES IDX 83 44 77 45 79 46 30 47 82 48 76 49 75 50 31 52 63 53 43 54
REMARK SMILES IDX 62 55 44 56 47 57 61 58 80 59 45 60 46 61 60 63 81 64 48 65
REMARK SMILES IDX 32 66 33 67 41 68 34 69 40 70 42 71 39 72 35 73 36 74 37 75
REMARK SMILES IDX 38 76 64 77 65 78 73 79 66 80 72 81 74 82 71 83 67 84 68 85
REMARK SMILES IDX 69 86 70 87 49 88 50 89 58 90 51 91 57 92 59 93 56 94 52 95
REMARK SMILES IDX 53 96 54 97 55 98
REMARK H PARENT 89 20 79 51 47 62
REMARK Flexibility Score: inf
ROOT
ATOM      1  C   UNL     1       3.572  -3.571  -3.098  1.00  0.00     0.188 C 
ENDROOT
BRANCH   1   2
ATOM      2  O   UNL     1       2.557  -2.704  -2.613  1.00  0.00    -0.377 OA
BRANCH   2   3
ATOM      3  C   UNL     1       2.899  -1.420  -2.122  1.00  0.00     0.188 C 
BRANCH   3   4
ATOM      4  C   UNL     1       4.220  -1.185  -1.363  1.00  0.00     0.188 C 
BRANCH   4   5
ATOM      5  O   UNL     1       4.959  -2.353  -1.021  1.00  0.00    -0.376 OA
BRANCH   5   6
ATOM      6  C   UNL     1       4.993  -2.694   0.360  1.00  0.00     0.202 C 
BRANCH   6   7
ATOM      7  C   UNL     1       3.739  -3.443   0.816  1.00  0.00     0.261 C 
BRANCH   7   8
ATOM      8  O   UNL     1       2.551  -2.653   0.672  1.00  0.00    -0.460 OA
BRANCH   8   9
ATOM      9  C   UNL     1       2.435  -1.599   1.515  1.00  0.00     0.342 C 
ATOM     10  O   UNL     1       3.249  -1.308   2.386  1.00  0.00    -0.246 OA
BRANCH   9  11
ATOM     11  C   UNL     1       1.354  -0.710   1.149  1.00  0.00     0.111 A 
ATOM     12  C   UNL     1      -1.873   0.698   1.294  1.00  0.00     0.174 C 
ATOM     13  N   UNL     1      -0.565   0.261   0.863  1.00  0.00    -0.262 N 
ATOM     14  N   UNL     1       0.333   1.252   0.661  1.00  0.00    -0.180 NA
ATOM     15  C   UNL     1       0.002  -0.998   0.910  1.00  0.00     0.140 A 
ATOM     16  C   UNL     1       1.492   0.675   0.956  1.00  0.00     0.151 A 
BRANCH  15  17
ATOM     17  C   UNL     1      -0.587  -2.326   0.967  1.00  0.00     0.275 C 
ATOM     18  O   UNL     1       0.036  -3.256   1.490  1.00  0.00    -0.267 OA
ATOM     19  N   UNL     1      -1.849  -2.666   0.566  1.00  0.00    -0.305 N 
ATOM     20  H   UNL     1      -2.030  -3.630   0.646  1.00  0.00     0.171 HD
BRANCH  19  21
ATOM     21  C   UNL     1      -2.925  -1.957   0.073  1.00  0.00     0.132 A 
ATOM     22  C   UNL     1      -2.882  -1.169  -1.065  1.00  0.00     0.047 A 
ATOM     23  N   UNL     1      -4.036  -2.105   0.824  1.00  0.00    -0.239 NA
ATOM     24  C   UNL     1      -4.032  -0.449  -1.403  1.00  0.00     0.005 A 
ATOM     25  C   UNL     1      -5.118  -1.373   0.500  1.00  0.00     0.113 A 
ATOM     26  C   UNL     1      -5.162  -0.528  -0.591  1.00  0.00     0.020 A 
ENDBRANCH  19  21
ENDBRANCH  15  17
ENDBRANCH   9  11
ENDBRANCH   8   9
ENDBRANCH   7   8
ENDBRANCH   6   7
ENDBRANCH   5   6
ENDBRANCH   4   5
ENDBRANCH   3   4
ENDBRANCH   2   3
ENDBRANCH   1   2
BRANCH   1  27
ATOM     27  C   UNL     1       4.742  -2.986  -3.909  1.00  0.00     0.188 C 
BRANCH  27  28
ATOM     28  O   UNL     1       4.527  -1.658  -4.380  1.00  0.00    -0.376 OA
BRANCH  28  29
ATOM     29  C   UNL     1       4.274  -1.542  -5.775  1.00  0.00     0.202 C 
BRANCH  29  30
ATOM     30  C   UNL     1       2.848  -1.937  -6.173  1.00  0.00     0.261 C 
BRANCH  30  31
ATOM     31  O   UNL     1       2.540  -3.330  -6.008  1.00  0.00    -0.460 OA
BRANCH  31  32
ATOM     32  C   UNL     1       3.283  -4.209  -6.717  1.00  0.00     0.338 C 
ATOM     33  O   UNL     1       4.162  -3.952  -7.518  1.00  0.00    -0.246 OA
BRANCH  32  34
ATOM     34  C   UNL     1       2.961  -5.562  -6.226  1.00  0.00     0.060 A 
ATOM     35  C   UNL     1       3.995  -6.369  -5.736  1.00  0.00     0.016 A 
ATOM     36  C   UNL     1       1.643  -6.023  -6.245  1.00  0.00     0.016 A 
ATOM     37  C   UNL     1       3.712  -7.661  -5.291  1.00  0.00     0.010 A 
ATOM     38  C   UNL     1       1.365  -7.322  -5.818  1.00  0.00     0.010 A 
ATOM     39  C   UNL     1       2.403  -8.155  -5.368  1.00  0.00    -0.014 A 
BRANCH  39  40
ATOM     40  C   UNL     1       2.146  -9.603  -5.183  1.00  0.00     0.031 A 
ATOM     41  C   UNL     1       2.175 -10.485  -6.402  1.00  0.00     0.074 A 
ATOM     42  C   UNL     1       1.885 -10.121  -3.970  1.00  0.00     0.049 A 
ATOM     43  N   UNL     1       1.935 -11.765  -6.509  1.00  0.00    -0.248 NA
ATOM     44  C   UNL     1       2.514  -9.824  -7.673  1.00  0.00     0.031 C 
ATOM     45  C   UNL     1       1.858  -9.369  -2.717  1.00  0.00     0.029 A 
ATOM     46  N   UNL     1       1.579 -11.406  -3.600  1.00  0.00    -0.354 N 
ATOM     47  C   UNL     1       2.104 -12.066  -7.856  1.00  0.00     0.074 A 
ATOM     48  C   UNL     1       2.426 -10.827  -8.530  1.00  0.00     0.031 C 
ATOM     49  C   UNL     1       1.535 -10.207  -1.715  1.00  0.00     0.029 A 
ATOM     50  C   UNL     1       1.304 -11.544  -2.260  1.00  0.00     0.049 A 
ATOM     51  H   UNL     1       1.559 -12.159  -4.234  1.00  0.00     0.167 HD
ATOM     52  C   UNL     1       2.008 -13.269  -8.473  1.00  0.00     0.034 A 
ATOM     53  C   UNL     1       0.889 -12.622  -1.564  1.00  0.00     0.034 A 
ATOM     54  C   UNL     1       1.651 -14.489  -7.797  1.00  0.00     0.049 A 
ATOM     55  C   UNL     1       0.693 -13.933  -2.291  1.00  0.00     0.074 A 
ATOM     56  C   UNL     1       1.528 -15.764  -8.322  1.00  0.00     0.029 A 
ATOM     57  N   UNL     1       1.341 -14.584  -6.446  1.00  0.00    -0.354 N 
ATOM     58  N   UNL     1       0.878 -14.212  -3.561  1.00  0.00    -0.248 NA
ATOM     59  C   UNL     1       0.236 -15.075  -1.486  1.00  0.00     0.031 C 
ATOM     60  C   UNL     1       1.081 -16.615  -7.304  1.00  0.00     0.029 A 
ATOM     61  C   UNL     1       0.993 -15.887  -6.128  1.00  0.00     0.049 A 
ATOM     62  H   UNL     1       1.364 -13.835  -5.808  1.00  0.00     0.167 HD
ATOM     63  C   UNL     1       0.588 -15.568  -3.699  1.00  0.00     0.074 A 
ATOM     64  C   UNL     1       0.226 -16.051  -2.383  1.00  0.00     0.031 C 
ATOM     65  C   UNL     1       0.623 -16.347  -4.811  1.00  0.00     0.034 A 
BRANCH  52  66
ATOM     66  C   UNL     1       2.241 -13.293  -9.962  1.00  0.00     0.023 A 
ATOM     67  C   UNL     1       3.500 -12.994 -10.514  1.00  0.00     0.031 A 
ATOM     68  C   UNL     1       1.182 -13.569 -10.843  1.00  0.00     0.131 A 
ATOM     69  C   UNL     1       3.651 -12.911 -11.906  1.00  0.00     0.055 A 
ATOM     70  C   UNL     1       1.356 -13.556 -12.228  1.00  0.00     0.041 A 
ATOM     71  F   UNL     1      -0.046 -13.835 -10.371  1.00  0.00    -0.206 F 
ATOM     72  C   UNL     1       2.592 -13.212 -12.767  1.00  0.00     0.022 A 
BRANCH  69  73
ATOM     73  S   UNL     1       5.212 -12.273 -12.574  1.00  0.00     0.124 S 
ATOM     74  O   UNL     1       5.264 -10.939 -11.980  1.00  0.00    -0.237 OA
ATOM     75  O   UNL     1       6.186 -13.235 -12.072  1.00  0.00    -0.237 OA
ATOM     76  O   UNL     1       5.000 -12.296 -14.020  1.00  0.00    -0.744 OA
ENDBRANCH  69  73
ENDBRANCH  52  66
BRANCH  53  77
ATOM     77  C   UNL     1       0.579 -12.515  -0.109  1.00  0.00     0.023 A 
ATOM     78  C   UNL     1       1.319 -13.230   0.847  1.00  0.00     0.031 A 
ATOM     79  C   UNL     1      -0.513 -11.751   0.339  1.00  0.00     0.131 A 
ATOM     80  C   UNL     1       0.929 -13.204   2.195  1.00  0.00     0.055 A 
ATOM     81  C   UNL     1      -0.867 -11.688   1.687  1.00  0.00     0.041 A 
ATOM     82  F   UNL     1      -1.256 -11.053  -0.535  1.00  0.00    -0.206 F 
ATOM     83  C   UNL     1      -0.152 -12.429   2.623  1.00  0.00     0.022 A 
BRANCH  80  84
ATOM     84  S   UNL     1       1.803 -14.271   3.374  1.00  0.00     0.124 S 
ATOM     85  O   UNL     1       1.597 -15.591   2.789  1.00  0.00    -0.237 OA
ATOM     86  O   UNL     1       3.163 -13.745   3.308  1.00  0.00    -0.237 OA
ATOM     87  O   UNL     1       1.104 -14.031   4.635  1.00  0.00    -0.744 OA
ENDBRANCH  80  84
ENDBRANCH  53  77
BRANCH  65  88
ATOM     88  C   UNL     1       0.301 -17.810  -4.634  1.00  0.00     0.023 A 
ATOM     89  C   UNL     1      -0.996 -18.250  -4.320  1.00  0.00     0.031 A 
ATOM     90  C   UNL     1       1.312 -18.776  -4.782  1.00  0.00     0.131 A 
ATOM     91  C   UNL     1      -1.239 -19.618  -4.118  1.00  0.00     0.055 A 
ATOM     92  C   UNL     1       1.054 -20.139  -4.632  1.00  0.00     0.041 A 
ATOM     93  F   UNL     1       2.569 -18.410  -5.083  1.00  0.00    -0.206 F 
ATOM     94  C   UNL     1      -0.225 -20.566  -4.287  1.00  0.00     0.022 A 
BRANCH  91  95
ATOM     95  S   UNL     1      -2.884 -20.139  -3.559  1.00  0.00     0.124 S 
ATOM     96  O   UNL     1      -3.019 -19.419  -2.297  1.00  0.00    -0.237 OA
ATOM     97  O   UNL     1      -3.743 -19.685  -4.648  1.00  0.00    -0.237 OA
ATOM     98  O   UNL     1      -2.760 -21.591  -3.434  1.00  0.00    -0.744 OA
ENDBRANCH  91  95
ENDBRANCH  65  88
ENDBRANCH  39  40
ENDBRANCH  32  34
ENDBRANCH  31  32
ENDBRANCH  30  31
ENDBRANCH  29  30
ENDBRANCH  28  29
ENDBRANCH  27  28
ENDBRANCH   1  27
TORSDOF 25
