REMARK SMILES CCSc1nc(CC(=O)N[C@@H](C(=O)OCCOCCOCCOCCOC(=O)c2ccc(-c3c4nc(c(-c5cc(S(=O)(=O)[O-])ccc5F)c5ccc([nH]5)c(-c5cc(S(=O)(=O)[O-])ccc5F)c5nc(c(-c6cc(S(=O)(=O)[O-])ccc6F)c6ccc3[nH]6)C=C5)C=C4)cc2)C2=C(C)N=N[C@@H]2C)cs1
REMARK SMILES IDX 19 1 18 2 17 3 16 4 15 5 14 6 12 7 13 8 11 9 10 10 8 11 9 12
REMARK SMILES IDX 7 14 6 15 4 16 5 17 100 18 99 19 3 20 2 21 1 22 92 23 93 24
REMARK SMILES IDX 97 25 94 26 95 27 96 28 98 29 20 30 21 31 22 32 23 33 24 34
REMARK SMILES IDX 25 35 26 36 27 37 28 38 29 39 30 40 91 41 31 42 90 43 32 44
REMARK SMILES IDX 33 45 34 46 84 47 35 48 89 49 83 50 85 51 36 52 88 53 82 54
REMARK SMILES IDX 81 55 37 57 69 58 49 59 68 60 50 61 53 62 67 63 86 64 51 65
REMARK SMILES IDX 52 66 66 68 87 69 54 70 38 71 39 72 47 73 40 74 46 75 48 76
REMARK SMILES IDX 45 77 41 78 42 79 43 80 44 81 70 82 71 83 79 84 72 85 78 86
REMARK SMILES IDX 80 87 77 88 73 89 74 90 75 91 76 92 55 93 56 94 64 95 57 96
REMARK SMILES IDX 63 97 65 98 62 99 58 100 59 101 60 102 61 103
REMARK H PARENT 10 13 85 56 53 67
REMARK Flexibility Score: inf
ROOT
ATOM      1  C   UNL     1       5.588  -2.669  -3.994  1.00  0.00     0.188 C 
ENDROOT
BRANCH   1   2
ATOM      2  C   UNL     1       4.311  -3.029  -4.787  1.00  0.00     0.188 C 
BRANCH   2   3
ATOM      3  O   UNL     1       3.250  -2.098  -4.924  1.00  0.00    -0.376 OA
BRANCH   3   4
ATOM      4  C   UNL     1       2.960  -1.240  -3.836  1.00  0.00     0.202 C 
BRANCH   4   5
ATOM      5  C   UNL     1       2.783  -1.842  -2.431  1.00  0.00     0.261 C 
BRANCH   5   6
ATOM      6  O   UNL     1       3.696  -2.878  -2.005  1.00  0.00    -0.461 OA
BRANCH   6   7
ATOM      7  C   UNL     1       3.215  -4.152  -1.924  1.00  0.00     0.333 C 
ATOM      8  O   UNL     1       2.052  -4.458  -2.170  1.00  0.00    -0.249 OA
BRANCH   7   9
ATOM      9  C   UNL     1       4.299  -5.210  -1.494  1.00  0.00     0.223 C 
BRANCH   9  10
ATOM     10  N   UNL     1       5.708  -4.844  -1.349  1.00  0.00    -0.339 N 
ATOM     11  C   UNL     1       6.398  -4.452  -0.243  1.00  0.00     0.226 C 
ATOM     12  O   UNL     1       7.611  -4.263  -0.358  1.00  0.00    -0.275 OA
ATOM     13  H   UNL     1       6.237  -4.888  -2.178  1.00  0.00     0.164 HD
BRANCH  11  14
ATOM     14  C   UNL     1       5.710  -4.336   1.096  1.00  0.00     0.157 C 
BRANCH  14  15
ATOM     15  C   UNL     1       4.788  -3.170   1.157  1.00  0.00     0.062 A 
ATOM     16  C   UNL     1       2.777  -2.257   1.372  1.00  0.00     0.150 A 
ATOM     17  N   UNL     1       3.417  -3.399   1.219  1.00  0.00    -0.234 NA
ATOM     18  S   UNL     1       3.771  -0.861   1.426  1.00  0.00    -0.116 S 
ATOM     19  C   UNL     1       5.155  -1.839   1.202  1.00  0.00     0.092 A 
BRANCH  16  20
ATOM     20  S   UNL     1       1.058  -2.239   1.700  1.00  0.00    -0.096 SA
BRANCH  20  21
ATOM     21  C   UNL     1       0.336  -1.435   0.243  1.00  0.00     0.074 C 
ATOM     22  C   UNL     1       0.631   0.051   0.133  1.00  0.00     0.016 C 
ENDBRANCH  20  21
ENDBRANCH  16  20
ENDBRANCH  14  15
ENDBRANCH  11  14
ENDBRANCH   9  10
BRANCH   9  23
ATOM     23  C   UNL     1       4.289  -6.455  -2.340  1.00  0.00     0.012 C 
ATOM     24  C   UNL     1       4.527  -7.711  -1.946  1.00  0.00     0.064 C 
ATOM     25  C   UNL     1       3.928  -6.584  -3.787  1.00  0.00     0.156 C 
ATOM     26  C   UNL     1       5.059  -8.181  -0.640  1.00  0.00     0.069 C 
ATOM     27  N   UNL     1       4.219  -8.636  -2.910  1.00  0.00    -0.160 NA
ATOM     28  N   UNL     1       3.763  -8.059  -3.934  1.00  0.00    -0.181 NA
ATOM     29  C   UNL     1       5.045  -6.202  -4.768  1.00  0.00     0.040 C 
ENDBRANCH   9  23
ENDBRANCH   7   9
ENDBRANCH   6   7
ENDBRANCH   5   6
ENDBRANCH   4   5
ENDBRANCH   3   4
ENDBRANCH   2   3
ENDBRANCH   1   2
BRANCH   1  30
ATOM     30  O   UNL     1       5.637  -1.339  -3.525  1.00  0.00    -0.377 OA
BRANCH  30  31
ATOM     31  C   UNL     1       6.366  -0.445  -4.352  1.00  0.00     0.188 C 
BRANCH  31  32
ATOM     32  C   UNL     1       6.126  -0.573  -5.869  1.00  0.00     0.188 C 
BRANCH  32  33
ATOM     33  O   UNL     1       6.356  -1.886  -6.373  1.00  0.00    -0.376 OA
BRANCH  33  34
ATOM     34  C   UNL     1       7.605  -2.216  -6.958  1.00  0.00     0.202 C 
BRANCH  34  35
ATOM     35  C   UNL     1       8.858  -2.238  -6.064  1.00  0.00     0.261 C 
BRANCH  35  36
ATOM     36  O   UNL     1       9.157  -1.045  -5.329  1.00  0.00    -0.460 OA
BRANCH  36  37
ATOM     37  C   UNL     1       9.283   0.104  -6.026  1.00  0.00     0.338 C 
ATOM     38  O   UNL     1       9.255   0.220  -7.240  1.00  0.00    -0.246 OA
BRANCH  37  39
ATOM     39  C   UNL     1       9.199   1.229  -5.066  1.00  0.00     0.060 A 
ATOM     40  C   UNL     1       8.247   2.230  -5.299  1.00  0.00     0.016 A 
ATOM     41  C   UNL     1      10.020   1.286  -3.935  1.00  0.00     0.016 A 
ATOM     42  C   UNL     1       8.148   3.317  -4.436  1.00  0.00     0.010 A 
ATOM     43  C   UNL     1       9.946   2.397  -3.087  1.00  0.00     0.010 A 
ATOM     44  C   UNL     1       9.044   3.440  -3.367  1.00  0.00    -0.014 A 
BRANCH  44  45
ATOM     45  C   UNL     1       9.223   4.784  -2.764  1.00  0.00     0.031 A 
ATOM     46  C   UNL     1      10.325   5.649  -3.320  1.00  0.00     0.074 A 
ATOM     47  C   UNL     1       8.378   5.266  -1.837  1.00  0.00     0.049 A 
ATOM     48  N   UNL     1      10.667   6.870  -3.006  1.00  0.00    -0.248 NA
ATOM     49  C   UNL     1      11.149   5.048  -4.382  1.00  0.00     0.031 C 
ATOM     50  C   UNL     1       7.237   4.545  -1.276  1.00  0.00     0.029 A 
ATOM     51  N   UNL     1       8.345   6.488  -1.213  1.00  0.00    -0.354 N 
ATOM     52  C   UNL     1      11.744   7.183  -3.830  1.00  0.00     0.074 A 
ATOM     53  C   UNL     1      12.028   6.006  -4.622  1.00  0.00     0.031 C 
ATOM     54  C   UNL     1       6.613   5.342  -0.389  1.00  0.00     0.029 A 
ATOM     55  C   UNL     1       7.329   6.614  -0.295  1.00  0.00     0.049 A 
ATOM     56  H   UNL     1       8.988   7.208  -1.406  1.00  0.00     0.167 HD
ATOM     57  C   UNL     1      12.425   8.349  -3.930  1.00  0.00     0.034 A 
ATOM     58  C   UNL     1       7.029   7.634   0.536  1.00  0.00     0.034 A 
ATOM     59  C   UNL     1      12.139   9.508  -3.124  1.00  0.00     0.049 A 
ATOM     60  C   UNL     1       7.868   8.892   0.479  1.00  0.00     0.074 A 
ATOM     61  C   UNL     1      12.767  10.741  -3.133  1.00  0.00     0.029 A 
ATOM     62  N   UNL     1      11.148   9.575  -2.152  1.00  0.00    -0.354 N 
ATOM     63  N   UNL     1       8.885   9.177  -0.304  1.00  0.00    -0.248 NA
ATOM     64  C   UNL     1       7.507   9.970   1.408  1.00  0.00     0.031 C 
ATOM     65  C   UNL     1      12.213  11.521  -2.113  1.00  0.00     0.029 A 
ATOM     66  C   UNL     1      11.172  10.814  -1.532  1.00  0.00     0.049 A 
ATOM     67  H   UNL     1      10.520   8.848  -1.936  1.00  0.00     0.167 HD
ATOM     68  C   UNL     1       9.257  10.482   0.015  1.00  0.00     0.074 A 
ATOM     69  C   UNL     1       8.344  10.930   1.046  1.00  0.00     0.031 C 
ATOM     70  C   UNL     1      10.259  11.244  -0.498  1.00  0.00     0.034 A 
BRANCH  57  71
ATOM     71  C   UNL     1      13.581   8.394  -4.901  1.00  0.00     0.023 A 
ATOM     72  C   UNL     1      13.398   8.228  -6.286  1.00  0.00     0.031 A 
ATOM     73  C   UNL     1      14.895   8.561  -4.428  1.00  0.00     0.131 A 
ATOM     74  C   UNL     1      14.512   8.156  -7.136  1.00  0.00     0.055 A 
ATOM     75  C   UNL     1      15.992   8.578  -5.290  1.00  0.00     0.041 A 
ATOM     76  F   UNL     1      15.136   8.692  -3.114  1.00  0.00    -0.206 F 
ATOM     77  C   UNL     1      15.806   8.359  -6.652  1.00  0.00     0.022 A 
BRANCH  74  78
ATOM     78  S   UNL     1      14.259   7.637  -8.856  1.00  0.00     0.124 S 
ATOM     79  O   UNL     1      13.637   6.327  -8.679  1.00  0.00    -0.237 OA
ATOM     80  O   UNL     1      13.396   8.688  -9.380  1.00  0.00    -0.237 OA
ATOM     81  O   UNL     1      15.612   7.606  -9.407  1.00  0.00    -0.744 OA
ENDBRANCH  74  78
ENDBRANCH  57  71
BRANCH  58  82
ATOM     82  C   UNL     1       5.914   7.511   1.522  1.00  0.00     0.023 A 
ATOM     83  C   UNL     1       4.814   8.383   1.498  1.00  0.00     0.031 A 
ATOM     84  C   UNL     1       5.975   6.561   2.558  1.00  0.00     0.131 A 
ATOM     85  C   UNL     1       3.850   8.325   2.518  1.00  0.00     0.055 A 
ATOM     86  C   UNL     1       4.982   6.466   3.535  1.00  0.00     0.041 A 
ATOM     87  F   UNL     1       7.007   5.705   2.636  1.00  0.00    -0.206 F 
ATOM     88  C   UNL     1       3.919   7.362   3.527  1.00  0.00     0.022 A 
BRANCH  85  89
ATOM     89  S   UNL     1       2.555   9.595   2.566  1.00  0.00     0.124 S 
ATOM     90  O   UNL     1       3.345  10.819   2.649  1.00  0.00    -0.237 OA
ATOM     91  O   UNL     1       1.859   9.364   1.305  1.00  0.00    -0.237 OA
ATOM     92  O   UNL     1       1.794   9.259   3.767  1.00  0.00    -0.744 OA
ENDBRANCH  85  89
ENDBRANCH  58  82
BRANCH  70  93
ATOM     93  C   UNL     1      10.378  12.662   0.014  1.00  0.00     0.023 A 
ATOM     94  C   UNL     1      10.677  12.946   1.358  1.00  0.00     0.031 A 
ATOM     95  C   UNL     1      10.166  13.748  -0.856  1.00  0.00     0.131 A 
ATOM     96  C   UNL     1      10.677  14.275   1.809  1.00  0.00     0.055 A 
ATOM     97  C   UNL     1      10.246  15.070  -0.419  1.00  0.00     0.041 A 
ATOM     98  F   UNL     1       9.875  13.541  -2.151  1.00  0.00    -0.206 F 
ATOM     99  C   UNL     1      10.484  15.340   0.925  1.00  0.00     0.022 A 
BRANCH  96 100
ATOM    100  S   UNL     1      10.798  14.587   3.592  1.00  0.00     0.124 S 
ATOM    101  O   UNL     1       9.682  13.805   4.112  1.00  0.00    -0.237 OA
ATOM    102  O   UNL     1      12.131  14.082   3.906  1.00  0.00    -0.237 OA
ATOM    103  O   UNL     1      10.643  16.036   3.697  1.00  0.00    -0.744 OA
ENDBRANCH  96 100
ENDBRANCH  70  93
ENDBRANCH  44  45
ENDBRANCH  37  39
ENDBRANCH  36  37
ENDBRANCH  35  36
ENDBRANCH  34  35
ENDBRANCH  33  34
ENDBRANCH  32  33
ENDBRANCH  31  32
ENDBRANCH  30  31
ENDBRANCH   1  30
TORSDOF 29
