REMARK SMILES O=C(OCCOCCOCCOCCOC(=O)c1ccc(-c2c3nc(c(-c4cc(S(=O)(=O)[O-])ccc4F)c4ccc([nH]4)c(-c4cc(S(=O)(=O)[O-])ccc4F)c4nc(c(-c5cc(S(=O)(=O)[O-])ccc5F)c5ccc2[nH]5)C=C4)C=C3)cc1)C1=Cc2cc(C(F)(F)F)ccc2O[C@@H]1C(F)(F)F
REMARK SMILES IDX 10 1 9 2 8 3 7 4 6 5 5 6 4 7 3 8 2 9 1 10 81 11 82 12 94 13
REMARK SMILES IDX 83 14 93 15 84 16 92 17 85 18 91 19 90 20 95 21 96 22 97 23
REMARK SMILES IDX 98 24 86 25 87 26 88 27 89 28 11 29 12 30 13 31 14 32 15 33
REMARK SMILES IDX 16 34 17 35 18 36 19 37 80 38 20 39 79 40 21 41 22 42 23 43
REMARK SMILES IDX 73 44 24 45 78 46 72 47 74 48 25 49 77 50 71 51 70 52 26 54
REMARK SMILES IDX 58 55 38 56 57 57 39 58 42 59 56 60 75 61 40 62 41 63 55 65
REMARK SMILES IDX 76 66 43 67 27 68 28 69 36 70 29 71 35 72 37 73 34 74 30 75
REMARK SMILES IDX 31 76 32 77 33 78 59 79 60 80 68 81 61 82 67 83 69 84 66 85
REMARK SMILES IDX 62 86 63 87 64 88 65 89 44 90 45 91 53 92 46 93 52 94 54 95
REMARK SMILES IDX 51 96 47 97 48 98 49 99 50 100
REMARK H PARENT 74 53 42 64
REMARK Flexibility Score: inf
ROOT
ATOM      1  C   UNL     1       4.238   2.679   2.430  1.00  0.00     0.188 C 
ENDROOT
BRANCH   1   2
ATOM      2  O   UNL     1       2.910   2.822   2.878  1.00  0.00    -0.377 OA
BRANCH   2   3
ATOM      3  C   UNL     1       2.024   1.987   2.171  1.00  0.00     0.188 C 
BRANCH   3   4
ATOM      4  C   UNL     1       2.306   0.480   2.289  1.00  0.00     0.188 C 
BRANCH   4   5
ATOM      5  O   UNL     1       3.606  -0.155   2.021  1.00  0.00    -0.376 OA
BRANCH   5   6
ATOM      6  C   UNL     1       4.339  -0.704   0.632  1.00  0.00     0.202 C 
BRANCH   6   7
ATOM      7  C   UNL     1       3.566  -0.563  -1.405  1.00  0.00     0.261 C 
BRANCH   7   8
ATOM      8  O   UNL     1       2.637  -1.549  -2.086  1.00  0.00    -0.460 OA
BRANCH   8   9
ATOM      9  C   UNL     1       2.853  -2.806  -1.684  1.00  0.00     0.338 C 
ATOM     10  O   UNL     1       2.204  -3.792  -1.928  1.00  0.00    -0.246 OA
BRANCH   9  11
ATOM     11  C   UNL     1       3.734  -2.494  -0.570  1.00  0.00     0.087 C 
ATOM     12  C   UNL     1       5.105  -2.160  -0.977  1.00  0.00     0.027 C 
ATOM     13  C   UNL     1       2.491  -1.250   0.207  1.00  0.00     0.316 C 
ATOM     14  C   UNL     1       5.771  -0.490  -1.028  1.00  0.00     0.018 A 
ATOM     15  O   UNL     1       3.132   0.584   0.043  1.00  0.00    -0.475 OA
ATOM     16  C   UNL     1       7.045  -0.293  -1.482  1.00  0.00     0.025 A 
ATOM     17  C   UNL     1       4.816   0.894  -0.631  1.00  0.00     0.128 A 
ATOM     18  C   UNL     1       7.480   1.054  -1.565  1.00  0.00     0.056 A 
ATOM     19  C   UNL     1       5.294   2.174  -0.738  1.00  0.00     0.048 A 
ATOM     20  C   UNL     1       6.643   2.211  -1.199  1.00  0.00     0.017 A 
BRANCH  13  21
ATOM     21  C   UNL     1       2.202  -2.215   1.532  1.00  0.00     0.430 C 
ATOM     22  F   UNL     1       1.324  -1.780   2.454  1.00  0.00    -0.167 F 
ATOM     23  F   UNL     1       1.630  -3.365   1.054  1.00  0.00    -0.167 F 
ATOM     24  F   UNL     1       3.308  -2.648   2.186  1.00  0.00    -0.167 F 
ENDBRANCH  13  21
BRANCH  18  25
ATOM     25  C   UNL     1       8.902   1.253  -2.090  1.00  0.00     0.416 C 
ATOM     26  F   UNL     1       9.827   0.634  -1.301  1.00  0.00    -0.166 F 
ATOM     27  F   UNL     1       9.062   0.707  -3.329  1.00  0.00    -0.166 F 
ATOM     28  F   UNL     1       9.291   2.548  -2.189  1.00  0.00    -0.166 F 
ENDBRANCH  18  25
ENDBRANCH   9  11
ENDBRANCH   8   9
ENDBRANCH   7   8
ENDBRANCH   6   7
ENDBRANCH   5   6
ENDBRANCH   4   5
ENDBRANCH   3   4
ENDBRANCH   2   3
ENDBRANCH   1   2
BRANCH   1  29
ATOM     29  C   UNL     1       5.230   2.076   3.430  1.00  0.00     0.188 C 
BRANCH  29  30
ATOM     30  O   UNL     1       4.821   1.347   4.576  1.00  0.00    -0.376 OA
BRANCH  30  31
ATOM     31  C   UNL     1       3.629   1.663   5.271  1.00  0.00     0.202 C 
BRANCH  31  32
ATOM     32  C   UNL     1       3.372   3.048   5.882  1.00  0.00     0.261 C 
BRANCH  32  33
ATOM     33  O   UNL     1       3.594   4.174   5.027  1.00  0.00    -0.460 OA
BRANCH  33  34
ATOM     34  C   UNL     1       4.845   4.684   5.057  1.00  0.00     0.338 C 
ATOM     35  O   UNL     1       5.761   4.326   5.777  1.00  0.00    -0.246 OA
BRANCH  34  36
ATOM     36  C   UNL     1       5.010   5.633   3.933  1.00  0.00     0.060 A 
ATOM     37  C   UNL     1       6.146   5.518   3.114  1.00  0.00     0.016 A 
ATOM     38  C   UNL     1       4.074   6.641   3.702  1.00  0.00     0.016 A 
ATOM     39  C   UNL     1       6.377   6.434   2.092  1.00  0.00     0.010 A 
ATOM     40  C   UNL     1       4.330   7.589   2.712  1.00  0.00     0.010 A 
ATOM     41  C   UNL     1       5.506   7.515   1.941  1.00  0.00    -0.014 A 
BRANCH  41  42
ATOM     42  C   UNL     1       5.954   8.724   1.214  1.00  0.00     0.031 A 
ATOM     43  C   UNL     1       6.500   9.856   2.038  1.00  0.00     0.074 A 
ATOM     44  C   UNL     1       5.854   8.832  -0.119  1.00  0.00     0.049 A 
ATOM     45  N   UNL     1       6.769  11.085   1.693  1.00  0.00    -0.248 NA
ATOM     46  C   UNL     1       6.752   9.555   3.457  1.00  0.00     0.031 C 
ATOM     47  C   UNL     1       5.414   7.771  -1.021  1.00  0.00     0.029 A 
ATOM     48  N   UNL     1       6.089   9.905  -0.940  1.00  0.00    -0.354 N 
ATOM     49  C   UNL     1       7.187  11.717   2.859  1.00  0.00     0.074 A 
ATOM     50  C   UNL     1       7.105  10.741   3.923  1.00  0.00     0.031 C 
ATOM     51  C   UNL     1       5.378   8.259  -2.273  1.00  0.00     0.029 A 
ATOM     52  C   UNL     1       5.731   9.679  -2.247  1.00  0.00     0.049 A 
ATOM     53  H   UNL     1       6.476  10.753  -0.624  1.00  0.00     0.167 HD
ATOM     54  C   UNL     1       7.597  12.998   3.022  1.00  0.00     0.034 A 
ATOM     55  C   UNL     1       5.646  10.535  -3.286  1.00  0.00     0.034 A 
ATOM     56  C   UNL     1       7.644  13.953   1.944  1.00  0.00     0.049 A 
ATOM     57  C   UNL     1       6.002  11.988  -3.069  1.00  0.00     0.074 A 
ATOM     58  C   UNL     1       8.053  15.273   1.980  1.00  0.00     0.029 A 
ATOM     59  N   UNL     1       7.244  13.696   0.637  1.00  0.00    -0.354 N 
ATOM     60  N   UNL     1       6.380  12.591  -1.964  1.00  0.00    -0.248 NA
ATOM     61  C   UNL     1       5.921  12.874  -4.237  1.00  0.00     0.031 C 
ATOM     62  C   UNL     1       7.801  15.841   0.728  1.00  0.00     0.029 A 
ATOM     63  C   UNL     1       7.354  14.846  -0.128  1.00  0.00     0.049 A 
ATOM     64  H   UNL     1       6.928  12.825   0.304  1.00  0.00     0.167 HD
ATOM     65  C   UNL     1       6.626  13.917  -2.316  1.00  0.00     0.074 A 
ATOM     66  C   UNL     1       6.344  14.026  -3.733  1.00  0.00     0.031 C 
ATOM     67  C   UNL     1       7.066  14.943  -1.542  1.00  0.00     0.034 A 
BRANCH  54  68
ATOM     68  C   UNL     1       7.938  13.444   4.425  1.00  0.00     0.023 A 
ATOM     69  C   UNL     1       8.951  12.826   5.178  1.00  0.00     0.031 A 
ATOM     70  C   UNL     1       7.188  14.459   5.046  1.00  0.00     0.131 A 
ATOM     71  C   UNL     1       9.116  13.153   6.532  1.00  0.00     0.055 A 
ATOM     72  C   UNL     1       7.430  14.856   6.362  1.00  0.00     0.041 A 
ATOM     73  F   UNL     1       6.185  15.068   4.393  1.00  0.00    -0.206 F 
ATOM     74  C   UNL     1       8.384  14.186   7.121  1.00  0.00     0.022 A 
BRANCH  71  75
ATOM     75  S   UNL     1      10.148  12.072   7.559  1.00  0.00     0.124 S 
ATOM     76  O   UNL     1       9.518  10.771   7.343  1.00  0.00    -0.237 OA
ATOM     77  O   UNL     1      11.471  12.246   6.970  1.00  0.00    -0.237 OA
ATOM     78  O   UNL     1       9.985  12.619   8.904  1.00  0.00    -0.744 OA
ENDBRANCH  71  75
ENDBRANCH  54  68
BRANCH  55  79
ATOM     79  C   UNL     1       5.156  10.051  -4.607  1.00  0.00     0.023 A 
ATOM     80  C   UNL     1       5.987  10.052  -5.737  1.00  0.00     0.031 A 
ATOM     81  C   UNL     1       3.836   9.585  -4.760  1.00  0.00     0.131 A 
ATOM     82  C   UNL     1       5.484   9.622  -6.974  1.00  0.00     0.055 A 
ATOM     83  C   UNL     1       3.359   9.104  -5.979  1.00  0.00     0.041 A 
ATOM     84  F   UNL     1       2.996   9.569  -3.713  1.00  0.00    -0.206 F 
ATOM     85  C   UNL     1       4.184   9.128  -7.099  1.00  0.00     0.022 A 
BRANCH  82  86
ATOM     86  S   UNL     1       6.534   9.788  -8.444  1.00  0.00     0.124 S 
ATOM     87  O   UNL     1       6.776  11.226  -8.472  1.00  0.00    -0.237 OA
ATOM     88  O   UNL     1       7.676   8.950  -8.096  1.00  0.00    -0.237 OA
ATOM     89  O   UNL     1       5.692   9.274  -9.522  1.00  0.00    -0.744 OA
ENDBRANCH  82  86
ENDBRANCH  55  79
BRANCH  67  90
ATOM     90  C   UNL     1       7.357  16.262  -2.220  1.00  0.00     0.023 A 
ATOM     91  C   UNL     1       6.352  17.057  -2.795  1.00  0.00     0.031 A 
ATOM     92  C   UNL     1       8.680  16.747  -2.249  1.00  0.00     0.131 A 
ATOM     93  C   UNL     1       6.691  18.273  -3.410  1.00  0.00     0.055 A 
ATOM     94  C   UNL     1       8.999  17.990  -2.795  1.00  0.00     0.041 A 
ATOM     95  F   UNL     1       9.684  16.026  -1.725  1.00  0.00    -0.206 F 
ATOM     96  C   UNL     1       8.003  18.757  -3.389  1.00  0.00     0.022 A 
BRANCH  93  97
ATOM     97  S   UNL     1       5.413  19.177  -4.327  1.00  0.00     0.124 S 
ATOM     98  O   UNL     1       4.988  18.185  -5.309  1.00  0.00    -0.237 OA
ATOM     99  O   UNL     1       4.445  19.497  -3.283  1.00  0.00    -0.237 OA
ATOM    100  O   UNL     1       6.133  20.325  -4.877  1.00  0.00    -0.744 OA
ENDBRANCH  93  97
ENDBRANCH  67  90
ENDBRANCH  41  42
ENDBRANCH  34  36
ENDBRANCH  33  34
ENDBRANCH  32  33
ENDBRANCH  31  32
ENDBRANCH  30  31
ENDBRANCH  29  30
ENDBRANCH   1  29
TORSDOF 25
