REMARK SMILES O=C(OCCOCCOCCOCCOC(=O)c1nc(F)ccc1Br)c1ccc(-c2c3nc(c(-c4cc(S(=O)(=O)[O-])ccc4F)c4ccc([nH]4)c(-c4cc(S(=O)(=O)[O-])ccc4F)c4nc(c(-c5cc(S(=O)(=O)[O-])ccc5F)c5ccc2[nH]5)C=C4)C=C3)cc1
REMARK SMILES IDX 7 1 6 2 5 3 4 4 3 5 2 6 1 7 26 8 27 9 88 10 28 11 87 12
REMARK SMILES IDX 29 13 30 14 31 15 81 16 32 17 86 18 80 19 82 20 33 21 85 22
REMARK SMILES IDX 79 23 78 24 34 26 66 27 46 28 65 29 47 30 50 31 64 32 83 33
REMARK SMILES IDX 48 34 49 35 63 37 84 38 51 39 35 40 36 41 44 42 37 43 43 44
REMARK SMILES IDX 45 45 42 46 38 47 39 48 40 49 41 50 67 51 68 52 76 53 69 54
REMARK SMILES IDX 75 55 77 56 74 57 70 58 71 59 72 60 73 61 52 62 53 63 61 64
REMARK SMILES IDX 54 65 60 66 62 67 59 68 55 69 56 70 57 71 58 72 8 73 9 74
REMARK SMILES IDX 10 75 11 76 12 77 13 78 14 79 15 80 16 81 17 82 18 83 19 84
REMARK SMILES IDX 24 85 20 86 23 87 25 88 21 89 22 90
REMARK H PARENT 82 25 50 36
REMARK Flexibility Score: inf
ROOT
ATOM      1  C   UNL     1       2.336  -1.174  -0.261  1.00  0.00     0.188 C 
ENDROOT
BRANCH   1   2
ATOM      2  O   UNL     1       3.654  -0.650  -0.456  1.00  0.00    -0.376 OA
BRANCH   2   3
ATOM      3  C   UNL     1       4.556  -0.907   0.616  1.00  0.00     0.202 C 
BRANCH   3   4
ATOM      4  C   UNL     1       4.497   0.109   1.755  1.00  0.00     0.261 C 
BRANCH   4   5
ATOM      5  O   UNL     1       3.179   0.611   1.998  1.00  0.00    -0.460 OA
BRANCH   5   6
ATOM      6  C   UNL     1       2.537   1.646   1.402  1.00  0.00     0.338 C 
ATOM      7  O   UNL     1       1.433   1.951   1.861  1.00  0.00    -0.246 OA
BRANCH   6   8
ATOM      8  C   UNL     1       3.019   2.405   0.190  1.00  0.00     0.060 A 
ATOM      9  C   UNL     1       2.127   3.365  -0.334  1.00  0.00     0.016 A 
ATOM     10  C   UNL     1       4.240   2.248  -0.472  1.00  0.00     0.016 A 
ATOM     11  C   UNL     1       2.451   4.143  -1.453  1.00  0.00     0.010 A 
ATOM     12  C   UNL     1       4.568   3.010  -1.596  1.00  0.00     0.010 A 
ATOM     13  C   UNL     1       3.685   3.974  -2.081  1.00  0.00    -0.014 A 
BRANCH  13  14
ATOM     14  C   UNL     1       4.173   4.912  -3.112  1.00  0.00     0.031 A 
ATOM     15  C   UNL     1       4.134   4.563  -4.566  1.00  0.00     0.074 A 
ATOM     16  C   UNL     1       4.790   6.026  -2.671  1.00  0.00     0.049 A 
ATOM     17  N   UNL     1       4.570   5.261  -5.580  1.00  0.00    -0.248 NA
ATOM     18  C   UNL     1       3.543   3.267  -4.934  1.00  0.00     0.031 C 
ATOM     19  C   UNL     1       4.939   6.384  -1.257  1.00  0.00     0.029 A 
ATOM     20  N   UNL     1       5.450   7.023  -3.339  1.00  0.00    -0.354 N 
ATOM     21  C   UNL     1       4.288   4.506  -6.712  1.00  0.00     0.074 A 
ATOM     22  C   UNL     1       3.681   3.274  -6.256  1.00  0.00     0.031 C 
ATOM     23  C   UNL     1       5.686   7.491  -1.162  1.00  0.00     0.029 A 
ATOM     24  C   UNL     1       6.076   7.918  -2.502  1.00  0.00     0.049 A 
ATOM     25  H   UNL     1       5.474   7.092  -4.321  1.00  0.00     0.167 HD
ATOM     26  C   UNL     1       4.510   4.837  -8.006  1.00  0.00     0.034 A 
ATOM     27  C   UNL     1       6.886   8.959  -2.781  1.00  0.00     0.034 A 
ATOM     28  C   UNL     1       5.140   6.073  -8.406  1.00  0.00     0.049 A 
ATOM     29  C   UNL     1       7.103   9.316  -4.226  1.00  0.00     0.074 A 
ATOM     30  C   UNL     1       5.334   6.555  -9.688  1.00  0.00     0.029 A 
ATOM     31  N   UNL     1       5.689   7.008  -7.539  1.00  0.00    -0.354 N 
ATOM     32  N   UNL     1       6.688   8.677  -5.295  1.00  0.00    -0.248 NA
ATOM     33  C   UNL     1       7.854  10.544  -4.517  1.00  0.00     0.031 C 
ATOM     34  C   UNL     1       6.064   7.739  -9.600  1.00  0.00     0.029 A 
ATOM     35  C   UNL     1       6.252   8.046  -8.261  1.00  0.00     0.049 A 
ATOM     36  H   UNL     1       5.679   6.943  -6.557  1.00  0.00     0.167 HD
ATOM     37  C   UNL     1       7.094   9.440  -6.382  1.00  0.00     0.074 A 
ATOM     38  C   UNL     1       7.780  10.596  -5.842  1.00  0.00     0.031 C 
ATOM     39  C   UNL     1       6.912   9.205  -7.705  1.00  0.00     0.034 A 
BRANCH  26  40
ATOM     40  C   UNL     1       4.047   3.914  -9.108  1.00  0.00     0.023 A 
ATOM     41  C   UNL     1       4.974   3.393 -10.032  1.00  0.00     0.031 A 
ATOM     42  C   UNL     1       2.677   3.733  -9.368  1.00  0.00     0.131 A 
ATOM     43  C   UNL     1       4.518   2.771 -11.202  1.00  0.00     0.055 A 
ATOM     44  C   UNL     1       2.229   3.074 -10.515  1.00  0.00     0.041 A 
ATOM     45  F   UNL     1       1.752   4.219  -8.525  1.00  0.00    -0.206 F 
ATOM     46  C   UNL     1       3.150   2.605 -11.447  1.00  0.00     0.022 A 
BRANCH  43  47
ATOM     47  S   UNL     1       5.674   2.226 -12.490  1.00  0.00     0.124 S 
ATOM     48  O   UNL     1       5.293   0.826 -12.666  1.00  0.00    -0.237 OA
ATOM     49  O   UNL     1       5.331   3.109 -13.601  1.00  0.00    -0.237 OA
ATOM     50  O   UNL     1       6.988   2.438 -11.894  1.00  0.00    -0.744 OA
ENDBRANCH  43  47
ENDBRANCH  26  40
BRANCH  27  51
ATOM     51  C   UNL     1       7.454   9.746  -1.649  1.00  0.00     0.023 A 
ATOM     52  C   UNL     1       8.322   9.141  -0.718  1.00  0.00     0.031 A 
ATOM     53  C   UNL     1       7.015  11.054  -1.389  1.00  0.00     0.131 A 
ATOM     54  C   UNL     1       8.667   9.819   0.459  1.00  0.00     0.055 A 
ATOM     55  C   UNL     1       7.415  11.751  -0.247  1.00  0.00     0.041 A 
ATOM     56  F   UNL     1       6.167  11.662  -2.232  1.00  0.00    -0.206 F 
ATOM     57  C   UNL     1       8.229  11.126   0.693  1.00  0.00     0.022 A 
BRANCH  54  58
ATOM     58  S   UNL     1       9.556   8.971   1.795  1.00  0.00     0.124 S 
ATOM     59  O   UNL     1      10.816   9.706   1.836  1.00  0.00    -0.237 OA
ATOM     60  O   UNL     1       8.666   9.182   2.934  1.00  0.00    -0.237 OA
ATOM     61  O   UNL     1       9.643   7.590   1.330  1.00  0.00    -0.744 OA
ENDBRANCH  54  58
ENDBRANCH  27  51
BRANCH  39  62
ATOM     62  C   UNL     1       7.439  10.207  -8.700  1.00  0.00     0.023 A 
ATOM     63  C   UNL     1       6.540  10.881  -9.548  1.00  0.00     0.031 A 
ATOM     64  C   UNL     1       8.816  10.330  -8.948  1.00  0.00     0.131 A 
ATOM     65  C   UNL     1       7.026  11.595 -10.648  1.00  0.00     0.055 A 
ATOM     66  C   UNL     1       9.298  11.087 -10.016  1.00  0.00     0.041 A 
ATOM     67  F   UNL     1       9.708   9.697  -8.171  1.00  0.00    -0.206 F 
ATOM     68  C   UNL     1       8.401  11.707 -10.883  1.00  0.00     0.022 A 
BRANCH  65  69
ATOM     69  S   UNL     1       5.894  12.312 -11.871  1.00  0.00     0.124 S 
ATOM     70  O   UNL     1       6.284  13.720 -11.856  1.00  0.00    -0.237 OA
ATOM     71  O   UNL     1       6.248  11.579 -13.083  1.00  0.00    -0.237 OA
ATOM     72  O   UNL     1       4.568  12.031 -11.330  1.00  0.00    -0.744 OA
ENDBRANCH  65  69
ENDBRANCH  39  62
ENDBRANCH  13  14
ENDBRANCH   6   8
ENDBRANCH   5   6
ENDBRANCH   4   5
ENDBRANCH   3   4
ENDBRANCH   2   3
ENDBRANCH   1   2
BRANCH   1  73
ATOM     73  C   UNL     1       1.839  -1.890  -1.513  1.00  0.00     0.188 C 
BRANCH  73  74
ATOM     74  O   UNL     1       2.492  -3.127  -1.784  1.00  0.00    -0.377 OA
BRANCH  74  75
ATOM     75  C   UNL     1       3.904  -3.094  -1.952  1.00  0.00     0.188 C 
BRANCH  75  76
ATOM     76  C   UNL     1       4.523  -2.096  -2.951  1.00  0.00     0.188 C 
BRANCH  76  77
ATOM     77  O   UNL     1       3.587  -1.496  -3.834  1.00  0.00    -0.376 OA
BRANCH  77  78
ATOM     78  C   UNL     1       3.693  -1.898  -5.196  1.00  0.00     0.202 C 
BRANCH  78  79
ATOM     79  C   UNL     1       3.052  -3.260  -5.473  1.00  0.00     0.261 C 
BRANCH  79  80
ATOM     80  O   UNL     1       3.609  -4.338  -4.703  1.00  0.00    -0.458 OA
BRANCH  80  81
ATOM     81  C   UNL     1       4.829  -4.826  -5.053  1.00  0.00     0.358 C 
ATOM     82  O   UNL     1       5.516  -4.467  -5.979  1.00  0.00    -0.244 OA
BRANCH  81  83
ATOM     83  C   UNL     1       5.213  -5.799  -3.980  1.00  0.00     0.165 A 
ATOM     84  N   UNL     1       4.239  -6.693  -3.635  1.00  0.00    -0.211 NA
ATOM     85  C   UNL     1       6.405  -5.658  -3.266  1.00  0.00     0.051 A 
ATOM     86  C   UNL     1       4.447  -7.428  -2.530  1.00  0.00     0.213 A 
ATOM     87  C   UNL     1       6.575  -6.437  -2.118  1.00  0.00     0.023 A 
ATOM     88  Br  UNL     1       7.772  -4.414  -3.675  1.00  0.00    -0.048 Br
ATOM     89  F   UNL     1       3.492  -8.297  -2.171  1.00  0.00    -0.185 F 
ATOM     90  C   UNL     1       5.577  -7.330  -1.738  1.00  0.00     0.061 A 
ENDBRANCH  81  83
ENDBRANCH  80  81
ENDBRANCH  79  80
ENDBRANCH  78  79
ENDBRANCH  77  78
ENDBRANCH  76  77
ENDBRANCH  75  76
ENDBRANCH  74  75
ENDBRANCH  73  74
ENDBRANCH   1  73
TORSDOF 23
