REMARK SMILES COC(=O)[C@H]1CCN(C(=O)N2CCC[C@@H]2C(=O)OCCOCCOCCOCCOC(=O)c2ccc(-c3c4nc(c(-c5cc(S(=O)(=O)[O-])ccc5F)c5ccc([nH]5)c(-c5cc(S(=O)(=O)[O-])ccc5F)c5nc(c(-c6cc(S(=O)(=O)[O-])ccc6F)c6ccc3[nH]6)C=C5)C=C4)cc2)C1
REMARK SMILES IDX 23 1 22 2 21 3 20 4 19 5 18 6 16 7 17 8 15 9 11 10 12 11
REMARK SMILES IDX 13 12 14 13 9 14 10 15 8 16 5 17 6 18 96 19 7 20 3 21 4 22
REMARK SMILES IDX 2 23 1 24 24 25 25 26 26 27 27 28 28 29 29 30 30 31 31 32
REMARK SMILES IDX 32 33 33 34 34 35 95 36 35 37 94 38 36 39 37 40 38 41 88 42
REMARK SMILES IDX 39 43 93 44 87 45 89 46 40 47 92 48 86 49 85 50 41 52 73 53
REMARK SMILES IDX 53 54 72 55 54 56 57 57 71 58 90 59 55 60 56 61 70 63 91 64
REMARK SMILES IDX 58 65 42 66 43 67 51 68 44 69 50 70 52 71 49 72 45 73 46 74
REMARK SMILES IDX 47 75 48 76 74 77 75 78 83 79 76 80 82 81 84 82 81 83 77 84
REMARK SMILES IDX 78 85 79 86 80 87 59 88 60 89 68 90 61 91 67 92 69 93 66 94
REMARK SMILES IDX 62 95 63 96 64 97 65 98
REMARK H PARENT 89 51 57 62
REMARK Flexibility Score: inf
ROOT
ATOM      1  C   UNL     1       3.920  -8.236  -0.927  1.00  0.00     0.188 C 
ENDROOT
BRANCH   1   2
ATOM      2  C   UNL     1       5.122  -7.638  -1.670  1.00  0.00     0.188 C 
BRANCH   2   3
ATOM      3  O   UNL     1       5.828  -6.508  -1.186  1.00  0.00    -0.376 OA
BRANCH   3   4
ATOM      4  C   UNL     1       5.188  -5.398  -0.574  1.00  0.00     0.202 C 
BRANCH   4   5
ATOM      5  C   UNL     1       3.955  -4.697  -1.169  1.00  0.00     0.261 C 
BRANCH   5   6
ATOM      6  O   UNL     1       2.892  -5.538  -1.637  1.00  0.00    -0.462 OA
BRANCH   6   7
ATOM      7  C   UNL     1       2.923  -5.800  -2.964  1.00  0.00     0.329 C 
ATOM      8  O   UNL     1       3.772  -5.342  -3.724  1.00  0.00    -0.250 OA
BRANCH   7   9
ATOM      9  C   UNL     1       1.749  -6.662  -3.466  1.00  0.00     0.197 C 
ATOM     10  N   UNL     1       0.698  -5.822  -3.989  1.00  0.00    -0.311 N 
ATOM     11  C   UNL     1      -0.573  -6.494  -3.963  1.00  0.00     0.122 C 
ATOM     12  C   UNL     1      -0.504  -7.225  -2.642  1.00  0.00     0.024 C 
ATOM     13  C   UNL     1       0.982  -7.576  -2.490  1.00  0.00     0.039 C 
BRANCH  10  14
ATOM     14  C   UNL     1       0.971  -4.705  -4.719  1.00  0.00     0.320 C 
ATOM     15  O   UNL     1       1.547  -4.739  -5.800  1.00  0.00    -0.248 OA
BRANCH  14  16
ATOM     16  N   UNL     1       0.673  -3.551  -4.032  1.00  0.00    -0.324 N 
ATOM     17  C   UNL     1       0.264  -1.263  -3.680  1.00  0.00     0.120 C 
ATOM     18  C   UNL     1      -0.726  -2.127  -2.885  1.00  0.00     0.039 C 
ATOM     19  C   UNL     1       1.102  -2.251  -4.491  1.00  0.00     0.136 C 
ATOM     20  C   UNL     1       0.014  -3.438  -2.744  1.00  0.00     0.122 C 
BRANCH  17  21
ATOM     21  C   UNL     1      -0.355  -0.276  -4.630  1.00  0.00     0.310 C 
ATOM     22  O   UNL     1       0.143   0.813  -4.884  1.00  0.00    -0.252 OA
BRANCH  21  23
ATOM     23  O   UNL     1      -1.461  -0.782  -5.238  1.00  0.00    -0.469 OA
ATOM     24  C   UNL     1      -2.020   0.071  -6.233  1.00  0.00     0.282 C 
ENDBRANCH  21  23
ENDBRANCH  17  21
ENDBRANCH  14  16
ENDBRANCH  10  14
ENDBRANCH   7   9
ENDBRANCH   6   7
ENDBRANCH   5   6
ENDBRANCH   4   5
ENDBRANCH   3   4
ENDBRANCH   2   3
ENDBRANCH   1   2
BRANCH   1  25
ATOM     25  O   UNL     1       3.379  -7.429   0.095  1.00  0.00    -0.377 OA
BRANCH  25  26
ATOM     26  C   UNL     1       3.815  -7.669   1.429  1.00  0.00     0.188 C 
BRANCH  26  27
ATOM     27  C   UNL     1       5.245  -8.204   1.646  1.00  0.00     0.188 C 
BRANCH  27  28
ATOM     28  O   UNL     1       5.575  -9.328   0.840  1.00  0.00    -0.376 OA
BRANCH  28  29
ATOM     29  C   UNL     1       5.391 -10.630   1.379  1.00  0.00     0.202 C 
BRANCH  29  30
ATOM     30  C   UNL     1       3.958 -11.071   1.734  1.00  0.00     0.261 C 
BRANCH  30  31
ATOM     31  O   UNL     1       3.274 -10.305   2.739  1.00  0.00    -0.460 OA
BRANCH  31  32
ATOM     32  C   UNL     1       3.887 -10.161   3.936  1.00  0.00     0.338 C 
ATOM     33  O   UNL     1       4.920 -10.689   4.288  1.00  0.00    -0.246 OA
BRANCH  32  34
ATOM     34  C   UNL     1       3.205  -9.073   4.676  1.00  0.00     0.060 A 
ATOM     35  C   UNL     1       3.972  -7.982   5.104  1.00  0.00     0.016 A 
ATOM     36  C   UNL     1       1.840  -9.133   4.968  1.00  0.00     0.016 A 
ATOM     37  C   UNL     1       3.390  -6.980   5.876  1.00  0.00     0.010 A 
ATOM     38  C   UNL     1       1.261  -8.134   5.759  1.00  0.00     0.010 A 
ATOM     39  C   UNL     1       2.045  -7.077   6.256  1.00  0.00    -0.014 A 
BRANCH  39  40
ATOM     40  C   UNL     1       1.543  -6.180   7.329  1.00  0.00     0.031 A 
ATOM     41  C   UNL     1       1.475  -6.710   8.738  1.00  0.00     0.074 A 
ATOM     42  C   UNL     1       1.241  -4.894   7.076  1.00  0.00     0.049 A 
ATOM     43  N   UNL     1       1.150  -6.095   9.846  1.00  0.00    -0.248 NA
ATOM     44  C   UNL     1       1.821  -8.128   8.915  1.00  0.00     0.031 C 
ATOM     45  C   UNL     1       1.317  -4.253   5.764  1.00  0.00     0.029 A 
ATOM     46  N   UNL     1       0.830  -3.892   7.918  1.00  0.00    -0.354 N 
ATOM     47  C   UNL     1       1.249  -7.051  10.853  1.00  0.00     0.074 A 
ATOM     48  C   UNL     1       1.617  -8.295  10.212  1.00  0.00     0.031 C 
ATOM     49  C   UNL     1       0.985  -2.957   5.894  1.00  0.00     0.029 A 
ATOM     50  C   UNL     1       0.640  -2.684   7.288  1.00  0.00     0.049 A 
ATOM     51  H   UNL     1       0.685  -4.025   8.883  1.00  0.00     0.167 HD
ATOM     52  C   UNL     1       1.062  -6.902  12.189  1.00  0.00     0.034 A 
ATOM     53  C   UNL     1       0.232  -1.498   7.782  1.00  0.00     0.034 A 
ATOM     54  C   UNL     1       0.680  -5.656  12.810  1.00  0.00     0.049 A 
ATOM     55  C   UNL     1      -0.056  -1.378   9.260  1.00  0.00     0.074 A 
ATOM     56  C   UNL     1       0.485  -5.386  14.154  1.00  0.00     0.029 A 
ATOM     57  N   UNL     1       0.414  -4.473  12.130  1.00  0.00    -0.354 N 
ATOM     58  N   UNL     1       0.063  -2.282  10.206  1.00  0.00    -0.248 NA
ATOM     59  C   UNL     1      -0.519  -0.068   9.733  1.00  0.00     0.031 C 
ATOM     60  C   UNL     1       0.011  -4.075  14.276  1.00  0.00     0.029 A 
ATOM     61  C   UNL     1       0.010  -3.488  13.021  1.00  0.00     0.049 A 
ATOM     62  H   UNL     1       0.499  -4.352  11.157  1.00  0.00     0.167 HD
ATOM     63  C   UNL     1      -0.274  -1.634  11.394  1.00  0.00     0.074 A 
ATOM     64  C   UNL     1      -0.578  -0.262  11.041  1.00  0.00     0.031 C 
ATOM     65  C   UNL     1      -0.319  -2.126  12.661  1.00  0.00     0.034 A 
BRANCH  52  66
ATOM     66  C   UNL     1       1.197  -8.140  13.048  1.00  0.00     0.023 A 
ATOM     67  C   UNL     1       2.399  -8.866  13.133  1.00  0.00     0.031 A 
ATOM     68  C   UNL     1       0.084  -8.635  13.753  1.00  0.00     0.131 A 
ATOM     69  C   UNL     1       2.434 -10.088  13.823  1.00  0.00     0.055 A 
ATOM     70  C   UNL     1       0.153  -9.801  14.518  1.00  0.00     0.041 A 
ATOM     71  F   UNL     1      -1.099  -8.005  13.691  1.00  0.00    -0.206 F 
ATOM     72  C   UNL     1       1.327 -10.546  14.540  1.00  0.00     0.022 A 
BRANCH  69  73
ATOM     73  S   UNL     1       3.884 -11.160  13.615  1.00  0.00     0.124 S 
ATOM     74  O   UNL     1       3.937 -11.306  12.162  1.00  0.00    -0.237 OA
ATOM     75  O   UNL     1       4.950 -10.368  14.217  1.00  0.00    -0.237 OA
ATOM     76  O   UNL     1       3.519 -12.374  14.342  1.00  0.00    -0.744 OA
ENDBRANCH  69  73
ENDBRANCH  52  66
BRANCH  53  77
ATOM     77  C   UNL     1       0.061  -0.321   6.880  1.00  0.00     0.023 A 
ATOM     78  C   UNL     1       0.833   0.840   7.050  1.00  0.00     0.031 A 
ATOM     79  C   UNL     1      -0.916  -0.320   5.869  1.00  0.00     0.131 A 
ATOM     80  C   UNL     1       0.585   1.968   6.253  1.00  0.00     0.055 A 
ATOM     81  C   UNL     1      -1.120   0.785   5.040  1.00  0.00     0.041 A 
ATOM     82  F   UNL     1      -1.684  -1.402   5.665  1.00  0.00    -0.206 F 
ATOM     83  C   UNL     1      -0.375   1.943   5.239  1.00  0.00     0.022 A 
BRANCH  80  84
ATOM     84  S   UNL     1       1.482   3.503   6.615  1.00  0.00     0.124 S 
ATOM     85  O   UNL     1       1.076   3.765   7.991  1.00  0.00    -0.237 OA
ATOM     86  O   UNL     1       2.869   3.095   6.420  1.00  0.00    -0.237 OA
ATOM     87  O   UNL     1       0.965   4.441   5.620  1.00  0.00    -0.744 OA
ENDBRANCH  80  84
ENDBRANCH  53  77
BRANCH  65  88
ATOM     88  C   UNL     1      -0.670  -1.149  13.763  1.00  0.00     0.023 A 
ATOM     89  C   UNL     1      -1.908  -0.483  13.800  1.00  0.00     0.031 A 
ATOM     90  C   UNL     1       0.271  -0.836  14.762  1.00  0.00     0.131 A 
ATOM     91  C   UNL     1      -2.134   0.528  14.748  1.00  0.00     0.055 A 
ATOM     92  C   UNL     1       0.006   0.107  15.757  1.00  0.00     0.041 A 
ATOM     93  F   UNL     1       1.473  -1.434  14.783  1.00  0.00    -0.206 F 
ATOM     94  C   UNL     1      -1.193   0.813  15.739  1.00  0.00     0.022 A 
BRANCH  91  95
ATOM     95  S   UNL     1      -3.604   1.576  14.564  1.00  0.00     0.124 S 
ATOM     96  O   UNL     1      -3.461   2.060  13.195  1.00  0.00    -0.237 OA
ATOM     97  O   UNL     1      -4.691   0.630  14.795  1.00  0.00    -0.237 OA
ATOM     98  O   UNL     1      -3.433   2.591  15.602  1.00  0.00    -0.744 OA
ENDBRANCH  91  95
ENDBRANCH  65  88
ENDBRANCH  39  40
ENDBRANCH  32  34
ENDBRANCH  31  32
ENDBRANCH  30  31
ENDBRANCH  29  30
ENDBRANCH  28  29
ENDBRANCH  27  28
ENDBRANCH  26  27
ENDBRANCH  25  26
ENDBRANCH   1  25
TORSDOF 27
