REMARK SMILES O=C1[NH+]=C(Nc2ccc(C(=O)OCCOCCOCCOCCOC(=O)c3ccc(-c4c5nc(c(-c6cc(S(=O)(=O)[O-])ccc6F)c6ccc([nH]6)c(-c6cc(S(=O)(=O)[O-])ccc6F)c6nc(c(-c7cc(S(=O)(=O)[O-])ccc7F)c7ccc4[nH]7)C=C6)C=C5)cc3)c(O)c2)S/C1=C\c1ccc[nH]1
REMARK SMILES IDX 19 1 18 2 17 3 16 4 15 5 14 6 13 7 12 8 10 9 11 10 9 11 6 12
REMARK SMILES IDX 7 13 92 14 8 15 90 16 5 17 1 18 2 19 3 20 94 21 4 22 93 24
REMARK SMILES IDX 95 25 96 27 97 28 100 29 98 30 99 31 91 33 20 35 21 36 22 37
REMARK SMILES IDX 23 38 24 39 25 40 26 41 27 42 28 43 89 44 29 45 88 46 30 47
REMARK SMILES IDX 31 48 32 49 82 50 33 51 87 52 81 53 83 54 34 55 86 56 80 57
REMARK SMILES IDX 79 58 35 60 67 61 47 62 66 63 48 64 51 65 65 66 84 67 49 68
REMARK SMILES IDX 50 69 64 71 85 72 52 73 36 74 37 75 45 76 38 77 44 78 46 79
REMARK SMILES IDX 43 80 39 81 40 82 41 83 42 84 68 85 69 86 77 87 70 88 76 89
REMARK SMILES IDX 78 90 75 91 71 92 72 93 73 94 74 95 53 96 54 97 62 98 55 99
REMARK SMILES IDX 61 100 63 101 60 102 56 103 57 104 58 105 59 106
REMARK H PARENT 3 23 5 26 100 32 91 34 83 59 51 70
REMARK Flexibility Score: inf
ROOT
ATOM      1  C   UNL     1      -3.402   8.674  -2.589  1.00  0.00     0.188 C 
ENDROOT
BRANCH   1   2
ATOM      2  O   UNL     1      -2.288   8.135  -1.878  1.00  0.00    -0.377 OA
BRANCH   2   3
ATOM      3  C   UNL     1      -2.568   7.120  -0.929  1.00  0.00     0.188 C 
BRANCH   3   4
ATOM      4  C   UNL     1      -2.816   7.681   0.484  1.00  0.00     0.188 C 
BRANCH   4   5
ATOM      5  O   UNL     1      -3.162   9.048   0.594  1.00  0.00    -0.376 OA
BRANCH   5   6
ATOM      6  C   UNL     1      -2.261  10.110   0.321  1.00  0.00     0.202 C 
BRANCH   6   7
ATOM      7  C   UNL     1      -0.787  10.012  -0.130  1.00  0.00     0.261 C 
BRANCH   7   8
ATOM      8  O   UNL     1      -0.203   8.723  -0.296  1.00  0.00    -0.460 OA
BRANCH   8   9
ATOM      9  C   UNL     1       0.323   8.149   0.806  1.00  0.00     0.341 C 
ATOM     10  O   UNL     1       0.384   8.629   1.924  1.00  0.00    -0.246 OA
BRANCH   9  11
ATOM     11  C   UNL     1       0.614   6.733   0.482  1.00  0.00     0.102 A 
ATOM     12  C   UNL     1       1.109   4.004   0.010  1.00  0.00     0.129 A 
ATOM     13  C   UNL     1       0.432   4.410   1.164  1.00  0.00     0.053 A 
ATOM     14  C   UNL     1       1.464   4.972  -0.940  1.00  0.00     0.098 A 
ATOM     15  C   UNL     1       0.227   5.768   1.422  1.00  0.00     0.024 A 
ATOM     16  C   UNL     1       1.175   6.319  -0.728  1.00  0.00     0.134 A 
BRANCH  12  17
ATOM     17  N   UNL     1       1.444   2.667  -0.222  1.00  0.00    -0.234 N 
ATOM     18  O   UNL     1      -2.268  -0.138   0.100  1.00  0.00    -0.240 OA
ATOM     19  C   UNL     1      -1.087   0.193   0.063  1.00  0.00     0.346 C 
ATOM     20  N   UNL     1      -0.630   1.491   0.039  1.00  0.00    -0.199 N 
ATOM     21  C   UNL     1       0.031  -0.795   0.031  1.00  0.00     0.111 C 
ATOM     22  C   UNL     1       0.654   1.572  -0.069  1.00  0.00     0.322 C 
ATOM     23  H   UNL     1      -1.221   2.276   0.099  1.00  0.00     0.316 HD
ATOM     24  S   UNL     1       1.522   0.049  -0.070  1.00  0.00     0.006 SA
ATOM     25  C   UNL     1      -0.181  -2.119   0.055  1.00  0.00     0.050 C 
ATOM     26  H   UNL     1       2.363   2.498  -0.534  1.00  0.00     0.313 HD
BRANCH  25  27
ATOM     27  C   UNL     1       0.867  -3.068   0.130  1.00  0.00     0.039 A 
ATOM     28  C   UNL     1       1.877  -3.298   1.044  1.00  0.00     0.027 A 
ATOM     29  N   UNL     1       0.973  -4.023  -0.852  1.00  0.00    -0.362 N 
ATOM     30  C   UNL     1       2.620  -4.415   0.593  1.00  0.00     0.020 A 
ATOM     31  C   UNL     1       2.045  -4.838  -0.584  1.00  0.00     0.083 A 
ATOM     32  H   UNL     1       0.374  -4.109  -1.628  1.00  0.00     0.166 HD
ENDBRANCH  25  27
ENDBRANCH  12  17
BRANCH  16  33
ATOM     33  O   UNL     1       1.439   7.165  -1.767  1.00  0.00    -0.507 OA
ATOM     34  H   UNL     1       1.264   8.082  -1.681  1.00  0.00     0.293 HD
ENDBRANCH  16  33
ENDBRANCH   9  11
ENDBRANCH   8   9
ENDBRANCH   7   8
ENDBRANCH   6   7
ENDBRANCH   5   6
ENDBRANCH   4   5
ENDBRANCH   3   4
ENDBRANCH   2   3
ENDBRANCH   1   2
BRANCH   1  35
ATOM     35  C   UNL     1      -4.777   8.810  -1.890  1.00  0.00     0.188 C 
BRANCH  35  36
ATOM     36  O   UNL     1      -5.167   7.660  -1.150  1.00  0.00    -0.376 OA
BRANCH  36  37
ATOM     37  C   UNL     1      -6.168   6.808  -1.679  1.00  0.00     0.202 C 
BRANCH  37  38
ATOM     38  C   UNL     1      -5.820   6.017  -2.947  1.00  0.00     0.261 C 
BRANCH  38  39
ATOM     39  O   UNL     1      -5.329   6.779  -4.056  1.00  0.00    -0.460 OA
BRANCH  39  40
ATOM     40  C   UNL     1      -6.165   7.682  -4.617  1.00  0.00     0.338 C 
ATOM     41  O   UNL     1      -7.308   7.927  -4.283  1.00  0.00    -0.246 OA
BRANCH  40  42
ATOM     42  C   UNL     1      -5.367   8.451  -5.596  1.00  0.00     0.060 A 
ATOM     43  C   UNL     1      -5.207   9.834  -5.431  1.00  0.00     0.016 A 
ATOM     44  C   UNL     1      -4.746   7.787  -6.655  1.00  0.00     0.016 A 
ATOM     45  C   UNL     1      -4.440  10.562  -6.345  1.00  0.00     0.010 A 
ATOM     46  C   UNL     1      -3.998   8.519  -7.577  1.00  0.00     0.010 A 
ATOM     47  C   UNL     1      -3.863   9.913  -7.444  1.00  0.00    -0.014 A 
BRANCH  47  48
ATOM     48  C   UNL     1      -3.296  10.681  -8.579  1.00  0.00     0.031 A 
ATOM     49  C   UNL     1      -4.161  10.871  -9.794  1.00  0.00     0.074 A 
ATOM     50  C   UNL     1      -2.035  11.149  -8.561  1.00  0.00     0.049 A 
ATOM     51  N   UNL     1      -3.846  11.320 -10.979  1.00  0.00    -0.248 NA
ATOM     52  C   UNL     1      -5.572  10.482  -9.648  1.00  0.00     0.031 C 
ATOM     53  C   UNL     1      -1.124  11.082  -7.421  1.00  0.00     0.029 A 
ATOM     54  N   UNL     1      -1.296  11.753  -9.549  1.00  0.00    -0.354 N 
ATOM     55  C   UNL     1      -5.015  11.248 -11.729  1.00  0.00     0.074 A 
ATOM     56  C   UNL     1      -6.035  10.684 -10.871  1.00  0.00     0.031 C 
ATOM     57  C   UNL     1       0.063  11.600  -7.783  1.00  0.00     0.029 A 
ATOM     58  C   UNL     1       0.014  11.982  -9.194  1.00  0.00     0.049 A 
ATOM     59  H   UNL     1      -1.667  11.998 -10.427  1.00  0.00     0.167 HD
ATOM     60  C   UNL     1      -5.216  11.617 -13.017  1.00  0.00     0.034 A 
ATOM     61  C   UNL     1       1.059  12.403  -9.938  1.00  0.00     0.034 A 
ATOM     62  C   UNL     1      -4.181  12.162 -13.860  1.00  0.00     0.049 A 
ATOM     63  C   UNL     1       0.841  12.706 -11.406  1.00  0.00     0.074 A 
ATOM     64  C   UNL     1      -4.274  12.580 -15.175  1.00  0.00     0.029 A 
ATOM     65  N   UNL     1      -2.860  12.348 -13.476  1.00  0.00    -0.354 N 
ATOM     66  N   UNL     1      -0.264  12.626 -12.112  1.00  0.00    -0.248 NA
ATOM     67  C   UNL     1       2.011  13.152 -12.177  1.00  0.00     0.031 C 
ATOM     68  C   UNL     1      -2.995  12.935 -15.611  1.00  0.00     0.029 A 
ATOM     69  C   UNL     1      -2.121  12.837 -14.540  1.00  0.00     0.049 A 
ATOM     70  H   UNL     1      -2.501  12.159 -12.578  1.00  0.00     0.167 HD
ATOM     71  C   UNL     1       0.071  13.056 -13.396  1.00  0.00     0.074 A 
ATOM     72  C   UNL     1       1.479  13.391 -13.367  1.00  0.00     0.031 C 
ATOM     73  C   UNL     1      -0.716  13.174 -14.495  1.00  0.00     0.034 A 
BRANCH  60  74
ATOM     74  C   UNL     1      -6.587  11.383 -13.602  1.00  0.00     0.023 A 
ATOM     75  C   UNL     1      -7.729  12.028 -13.098  1.00  0.00     0.031 A 
ATOM     76  C   UNL     1      -6.758  10.476 -14.663  1.00  0.00     0.131 A 
ATOM     77  C   UNL     1      -8.997  11.703 -13.603  1.00  0.00     0.055 A 
ATOM     78  C   UNL     1      -8.012  10.222 -15.221  1.00  0.00     0.041 A 
ATOM     79  F   UNL     1      -5.709   9.807 -15.167  1.00  0.00    -0.206 F 
ATOM     80  C   UNL     1      -9.144  10.826 -14.681  1.00  0.00     0.022 A 
BRANCH  77  81
ATOM     81  S   UNL     1     -10.460  12.322 -12.730  1.00  0.00     0.124 S 
ATOM     82  O   UNL     1     -10.255  11.779 -11.389  1.00  0.00    -0.237 OA
ATOM     83  O   UNL     1     -10.319  13.767 -12.862  1.00  0.00    -0.237 OA
ATOM     84  O   UNL     1     -11.575  11.732 -13.469  1.00  0.00    -0.744 OA
ENDBRANCH  77  81
ENDBRANCH  60  74
BRANCH  61  85
ATOM     85  C   UNL     1       2.423  12.515  -9.340  1.00  0.00     0.023 A 
ATOM     86  C   UNL     1       3.093  13.748  -9.289  1.00  0.00     0.031 A 
ATOM     87  C   UNL     1       3.105  11.378  -8.869  1.00  0.00     0.131 A 
ATOM     88  C   UNL     1       4.418  13.807  -8.829  1.00  0.00     0.055 A 
ATOM     89  C   UNL     1       4.400  11.453  -8.353  1.00  0.00     0.041 A 
ATOM     90  F   UNL     1       2.518  10.171  -8.903  1.00  0.00    -0.206 F 
ATOM     91  C   UNL     1       5.070  12.672  -8.344  1.00  0.00     0.022 A 
BRANCH  88  92
ATOM     92  S   UNL     1       5.317  15.377  -8.973  1.00  0.00     0.124 S 
ATOM     93  O   UNL     1       5.242  15.628 -10.408  1.00  0.00    -0.237 OA
ATOM     94  O   UNL     1       4.524  16.259  -8.123  1.00  0.00    -0.237 OA
ATOM     95  O   UNL     1       6.648  15.054  -8.464  1.00  0.00    -0.744 OA
ENDBRANCH  88  92
ENDBRANCH  61  85
BRANCH  73  96
ATOM     96  C   UNL     1      -0.100  13.760 -15.744  1.00  0.00     0.023 A 
ATOM     97  C   UNL     1       0.888  13.086 -16.482  1.00  0.00     0.031 A 
ATOM     98  C   UNL     1      -0.547  15.006 -16.222  1.00  0.00     0.131 A 
ATOM     99  C   UNL     1       1.420  13.678 -17.639  1.00  0.00     0.055 A 
ATOM    100  C   UNL     1      -0.060  15.560 -17.405  1.00  0.00     0.041 A 
ATOM    101  F   UNL     1      -1.487  15.696 -15.554  1.00  0.00    -0.206 F 
ATOM    102  C   UNL     1       0.935  14.899 -18.117  1.00  0.00     0.022 A 
BRANCH  99 103
ATOM    103  S   UNL     1       2.805  12.865 -18.482  1.00  0.00     0.124 S 
ATOM    104  O   UNL     1       3.820  12.831 -17.434  1.00  0.00    -0.237 OA
ATOM    105  O   UNL     1       2.231  11.576 -18.855  1.00  0.00    -0.237 OA
ATOM    106  O   UNL     1       3.099  13.758 -19.601  1.00  0.00    -0.744 OA
ENDBRANCH  99 103
ENDBRANCH  73  96
ENDBRANCH  47  48
ENDBRANCH  40  42
ENDBRANCH  39  40
ENDBRANCH  38  39
ENDBRANCH  37  38
ENDBRANCH  36  37
ENDBRANCH  35  36
ENDBRANCH   1  35
TORSDOF 26
