REMARK SMILES CC(C)[C@H](C)CNC(=O)N[C@H]1C=C[C@@H](C(=O)OCCOCCOCCOCCOC(=O)c2ccc(-c3c4nc(c(-c5cc(S(=O)(=O)[O-])ccc5F)c5ccc([nH]5)c(-c5cc(S(=O)(=O)[O-])ccc5F)c5nc(c(-c6cc(S(=O)(=O)[O-])ccc6F)c6ccc3[nH]6)C=C5)C=C4)cc2)C1
REMARK SMILES IDX 22 1 21 2 20 3 19 4 18 5 17 6 15 7 16 8 14 9 11 10 12 11
REMARK SMILES IDX 95 12 13 13 10 14 7 15 8 16 9 18 6 20 4 21 5 22 2 23 1 24
REMARK SMILES IDX 3 25 23 26 24 27 25 28 26 29 27 30 28 31 29 32 30 33 31 34
REMARK SMILES IDX 32 35 33 36 94 37 34 38 93 39 35 40 36 41 37 42 87 43 38 44
REMARK SMILES IDX 92 45 86 46 88 47 39 48 91 49 85 50 84 51 40 53 72 54 52 55
REMARK SMILES IDX 71 56 53 57 56 58 70 59 89 60 54 61 55 62 69 64 90 65 57 66
REMARK SMILES IDX 41 67 42 68 50 69 43 70 49 71 51 72 48 73 44 74 45 75 46 76
REMARK SMILES IDX 47 77 73 78 74 79 82 80 75 81 81 82 83 83 80 84 76 85 77 86
REMARK SMILES IDX 78 87 79 88 58 89 59 90 67 91 60 92 66 93 68 94 65 95 61 96
REMARK SMILES IDX 62 97 63 98 64 99
REMARK H PARENT 7 17 10 19 88 52 56 63
REMARK Flexibility Score: inf
ROOT
ATOM      1  C   UNL     1      -0.270   0.665   5.090  1.00  0.00     0.188 C 
ENDROOT
BRANCH   1   2
ATOM      2  C   UNL     1       0.021  -0.766   4.627  1.00  0.00     0.188 C 
BRANCH   2   3
ATOM      3  O   UNL     1       1.148  -0.886   3.781  1.00  0.00    -0.376 OA
BRANCH   3   4
ATOM      4  C   UNL     1       0.926  -0.923   2.375  1.00  0.00     0.202 C 
BRANCH   4   5
ATOM      5  C   UNL     1      -0.488  -0.849   1.790  1.00  0.00     0.261 C 
BRANCH   5   6
ATOM      6  O   UNL     1      -1.227   0.360   2.062  1.00  0.00    -0.463 OA
BRANCH   6   7
ATOM      7  C   UNL     1      -2.514   0.212   2.482  1.00  0.00     0.312 C 
ATOM      8  O   UNL     1      -3.025  -0.877   2.738  1.00  0.00    -0.252 OA
BRANCH   7   9
ATOM      9  C   UNL     1      -3.325   1.512   2.593  1.00  0.00     0.124 C 
ATOM     10  C   UNL     1      -3.661   3.597   1.350  1.00  0.00     0.107 C 
ATOM     11  C   UNL     1      -4.651   2.576   0.934  1.00  0.00    -0.006 C 
ATOM     12  C   UNL     1      -2.658   2.852   2.242  1.00  0.00     0.048 C 
ATOM     13  C   UNL     1      -4.501   1.452   1.644  1.00  0.00    -0.014 C 
BRANCH  10  14
ATOM     14  N   UNL     1      -3.119   4.374   0.260  1.00  0.00    -0.332 N 
ATOM     15  N   UNL     1      -1.832   3.042  -1.221  1.00  0.00    -0.338 N 
ATOM     16  C   UNL     1      -2.262   4.215  -0.750  1.00  0.00     0.315 C 
ATOM     17  H   UNL     1      -1.069   3.114  -1.839  1.00  0.00     0.165 HD
ATOM     18  O   UNL     1      -1.847   5.243  -1.291  1.00  0.00    -0.249 OA
ATOM     19  H   UNL     1      -3.489   5.286   0.264  1.00  0.00     0.165 HD
BRANCH  15  20
ATOM     20  C   UNL     1      -2.278   1.687  -0.993  1.00  0.00     0.121 C 
BRANCH  20  21
ATOM     21  C   UNL     1      -1.618   0.620  -1.893  1.00  0.00     0.008 C 
ATOM     22  C   UNL     1      -0.083   0.745  -1.831  1.00  0.00     0.010 C 
BRANCH  21  23
ATOM     23  C   UNL     1      -2.049  -0.842  -1.539  1.00  0.00    -0.013 C 
ATOM     24  C   UNL     1      -3.450  -0.996  -0.949  1.00  0.00     0.008 C 
ATOM     25  C   UNL     1      -1.903  -1.789  -2.731  1.00  0.00     0.008 C 
ENDBRANCH  21  23
ENDBRANCH  20  21
ENDBRANCH  15  20
ENDBRANCH  10  14
ENDBRANCH   7   9
ENDBRANCH   6   7
ENDBRANCH   5   6
ENDBRANCH   4   5
ENDBRANCH   3   4
ENDBRANCH   2   3
ENDBRANCH   1   2
BRANCH   1  26
ATOM     26  O   UNL     1      -0.192   1.698   4.114  1.00  0.00    -0.377 OA
BRANCH  26  27
ATOM     27  C   UNL     1       1.110   2.142   3.711  1.00  0.00     0.188 C 
BRANCH  27  28
ATOM     28  C   UNL     1       2.222   2.082   4.763  1.00  0.00     0.188 C 
BRANCH  28  29
ATOM     29  O   UNL     1       1.939   2.693   6.024  1.00  0.00    -0.376 OA
BRANCH  29  30
ATOM     30  C   UNL     1       1.113   3.854   6.034  1.00  0.00     0.202 C 
BRANCH  30  31
ATOM     31  C   UNL     1       1.835   5.162   5.724  1.00  0.00     0.261 C 
BRANCH  31  32
ATOM     32  O   UNL     1       2.219   5.258   4.344  1.00  0.00    -0.460 OA
BRANCH  32  33
ATOM     33  C   UNL     1       3.518   4.983   4.094  1.00  0.00     0.338 C 
ATOM     34  O   UNL     1       4.363   4.621   4.905  1.00  0.00    -0.246 OA
BRANCH  33  35
ATOM     35  C   UNL     1       3.792   5.087   2.652  1.00  0.00     0.060 A 
ATOM     36  C   UNL     1       4.607   4.116   2.053  1.00  0.00     0.016 A 
ATOM     37  C   UNL     1       3.375   6.210   1.934  1.00  0.00     0.016 A 
ATOM     38  C   UNL     1       5.084   4.311   0.758  1.00  0.00     0.010 A 
ATOM     39  C   UNL     1       3.860   6.410   0.643  1.00  0.00     0.010 A 
ATOM     40  C   UNL     1       4.764   5.492   0.078  1.00  0.00    -0.014 A 
BRANCH  40  41
ATOM     41  C   UNL     1       5.563   5.923  -1.092  1.00  0.00     0.031 A 
ATOM     42  C   UNL     1       6.715   6.858  -0.843  1.00  0.00     0.074 A 
ATOM     43  C   UNL     1       5.234   5.546  -2.337  1.00  0.00     0.049 A 
ATOM     44  N   UNL     1       7.443   7.530  -1.693  1.00  0.00    -0.248 NA
ATOM     45  C   UNL     1       7.077   7.076   0.567  1.00  0.00     0.031 C 
ATOM     46  C   UNL     1       4.164   4.613  -2.681  1.00  0.00     0.029 A 
ATOM     47  N   UNL     1       5.750   5.936  -3.546  1.00  0.00    -0.354 N 
ATOM     48  C   UNL     1       8.333   8.272  -0.922  1.00  0.00     0.074 A 
ATOM     49  C   UNL     1       8.037   7.981   0.464  1.00  0.00     0.031 C 
ATOM     50  C   UNL     1       4.074   4.534  -4.020  1.00  0.00     0.029 A 
ATOM     51  C   UNL     1       5.046   5.446  -4.620  1.00  0.00     0.049 A 
ATOM     52  H   UNL     1       6.545   6.510  -3.636  1.00  0.00     0.167 HD
ATOM     53  C   UNL     1       9.304   9.123  -1.336  1.00  0.00     0.034 A 
ATOM     54  C   UNL     1       5.146   5.745  -5.931  1.00  0.00     0.034 A 
ATOM     55  C   UNL     1       9.562   9.409  -2.725  1.00  0.00     0.049 A 
ATOM     56  C   UNL     1       6.182   6.749  -6.374  1.00  0.00     0.074 A 
ATOM     57  C   UNL     1      10.530  10.231  -3.274  1.00  0.00     0.029 A 
ATOM     58  N   UNL     1       8.831   8.890  -3.788  1.00  0.00    -0.354 N 
ATOM     59  N   UNL     1       7.027   7.441  -5.643  1.00  0.00    -0.248 NA
ATOM     60  C   UNL     1       6.281   7.011  -7.815  1.00  0.00     0.031 C 
ATOM     61  C   UNL     1      10.340  10.263  -4.660  1.00  0.00     0.029 A 
ATOM     62  C   UNL     1       9.303   9.400  -4.985  1.00  0.00     0.049 A 
ATOM     63  H   UNL     1       8.085   8.254  -3.701  1.00  0.00     0.167 HD
ATOM     64  C   UNL     1       7.777   8.197  -6.540  1.00  0.00     0.074 A 
ATOM     65  C   UNL     1       7.284   7.877  -7.864  1.00  0.00     0.031 C 
ATOM     66  C   UNL     1       8.790   9.067  -6.294  1.00  0.00     0.034 A 
BRANCH  53  67
ATOM     67  C   UNL     1      10.091   9.846  -0.269  1.00  0.00     0.023 A 
ATOM     68  C   UNL     1      10.898   9.157   0.654  1.00  0.00     0.031 A 
ATOM     69  C   UNL     1       9.982  11.241  -0.134  1.00  0.00     0.131 A 
ATOM     70  C   UNL     1      11.495   9.852   1.718  1.00  0.00     0.055 A 
ATOM     71  C   UNL     1      10.646  11.938   0.879  1.00  0.00     0.041 A 
ATOM     72  F   UNL     1       9.207  11.951  -0.969  1.00  0.00    -0.206 F 
ATOM     73  C   UNL     1      11.393  11.241   1.823  1.00  0.00     0.022 A 
BRANCH  70  74
ATOM     74  S   UNL     1      12.270   8.896   3.051  1.00  0.00     0.124 S 
ATOM     75  O   UNL     1      11.163   8.050   3.491  1.00  0.00    -0.237 OA
ATOM     76  O   UNL     1      13.358   8.216   2.360  1.00  0.00    -0.237 OA
ATOM     77  O   UNL     1      12.682   9.918   4.011  1.00  0.00    -0.744 OA
ENDBRANCH  70  74
ENDBRANCH  53  67
BRANCH  54  78
ATOM     78  C   UNL     1       4.200   5.135  -6.906  1.00  0.00     0.023 A 
ATOM     79  C   UNL     1       4.641   4.223  -7.876  1.00  0.00     0.031 A 
ATOM     80  C   UNL     1       2.833   5.467  -6.883  1.00  0.00     0.131 A 
ATOM     81  C   UNL     1       3.727   3.691  -8.800  1.00  0.00     0.055 A 
ATOM     82  C   UNL     1       1.921   4.903  -7.776  1.00  0.00     0.041 A 
ATOM     83  F   UNL     1       2.360   6.332  -5.971  1.00  0.00    -0.206 F 
ATOM     84  C   UNL     1       2.369   4.015  -8.748  1.00  0.00     0.022 A 
BRANCH  81  85
ATOM     85  S   UNL     1       4.349   2.596 -10.106  1.00  0.00     0.124 S 
ATOM     86  O   UNL     1       5.283   3.469 -10.807  1.00  0.00    -0.237 OA
ATOM     87  O   UNL     1       4.942   1.509  -9.334  1.00  0.00    -0.237 OA
ATOM     88  O   UNL     1       3.144   2.240 -10.853  1.00  0.00    -0.744 OA
ENDBRANCH  81  85
ENDBRANCH  54  78
BRANCH  66  89
ATOM     89  C   UNL     1       9.473   9.686  -7.487  1.00  0.00     0.023 A 
ATOM     90  C   UNL     1       8.845  10.658  -8.284  1.00  0.00     0.031 A 
ATOM     91  C   UNL     1      10.791   9.313  -7.807  1.00  0.00     0.131 A 
ATOM     92  C   UNL     1       9.526  11.201  -9.384  1.00  0.00     0.055 A 
ATOM     93  C   UNL     1      11.480   9.892  -8.872  1.00  0.00     0.041 A 
ATOM     94  F   UNL     1      11.435   8.389  -7.075  1.00  0.00    -0.206 F 
ATOM     95  C   UNL     1      10.845  10.837  -9.672  1.00  0.00     0.022 A 
BRANCH  92  96
ATOM     96  S   UNL     1       8.649  12.358 -10.472  1.00  0.00     0.124 S 
ATOM     97  O   UNL     1       7.560  11.530 -10.979  1.00  0.00    -0.237 OA
ATOM     98  O   UNL     1       8.265  13.424  -9.553  1.00  0.00    -0.237 OA
ATOM     99  O   UNL     1       9.659  12.729 -11.462  1.00  0.00    -0.744 OA
ENDBRANCH  92  96
ENDBRANCH  66  89
ENDBRANCH  40  41
ENDBRANCH  33  35
ENDBRANCH  32  33
ENDBRANCH  31  32
ENDBRANCH  30  31
ENDBRANCH  29  30
ENDBRANCH  28  29
ENDBRANCH  27  28
ENDBRANCH  26  27
ENDBRANCH   1  26
TORSDOF 27
