REMARK SMILES O=C(CNC(=O)OCc1ccccc1)NCC(=O)OCCOCCOCCOCCOC(=O)c1ccc(-c2c3nc(c(-c4cc(S(=O)(=O)[O-])ccc4F)c4ccc([nH]4)c(-c4cc(S(=O)(=O)[O-])ccc4F)c4nc(c(-c5cc(S(=O)(=O)[O-])ccc5F)c5ccc2[nH]5)C=C4)C=C3)cc1
REMARK SMILES IDX 23 1 22 2 21 3 20 4 19 5 17 6 18 7 16 8 15 9 1 10 2 11 3 13
REMARK SMILES IDX 4 14 5 15 6 17 7 18 8 19 9 20 10 21 14 22 11 23 13 24 12 25
REMARK SMILES IDX 24 26 25 27 26 28 27 29 28 30 29 31 30 32 31 33 32 34 33 35
REMARK SMILES IDX 34 36 35 37 96 38 36 39 95 40 37 41 38 42 39 43 89 44 40 45
REMARK SMILES IDX 94 46 88 47 90 48 41 49 93 50 87 51 86 52 42 54 74 55 54 56
REMARK SMILES IDX 73 57 55 58 58 59 72 60 91 61 56 62 57 63 71 65 92 66 59 67
REMARK SMILES IDX 43 68 44 69 52 70 45 71 51 72 53 73 50 74 46 75 47 76 48 77
REMARK SMILES IDX 49 78 75 79 76 80 84 81 77 82 83 83 85 84 82 85 78 86 79 87
REMARK SMILES IDX 80 88 81 89 60 90 61 91 69 92 62 93 68 94 70 95 67 96 63 97
REMARK SMILES IDX 64 98 65 99 66 100
REMARK H PARENT 15 12 4 16 90 53 58 64
REMARK Flexibility Score: inf
ROOT
ATOM      1  C   UNL     1       4.246   3.645  -2.741  1.00  0.00     0.188 C 
ENDROOT
BRANCH   1   2
ATOM      2  O   UNL     1       4.042   5.046  -2.651  1.00  0.00    -0.376 OA
BRANCH   2   3
ATOM      3  C   UNL     1       3.166   5.585  -1.669  1.00  0.00     0.202 C 
BRANCH   3   4
ATOM      4  C   UNL     1       1.814   4.929  -1.331  1.00  0.00     0.261 C 
BRANCH   4   5
ATOM      5  O   UNL     1       1.831   3.496  -1.185  1.00  0.00    -0.462 OA
BRANCH   5   6
ATOM      6  C   UNL     1       1.023   2.793  -2.014  1.00  0.00     0.325 C 
ATOM      7  O   UNL     1       0.272   3.299  -2.845  1.00  0.00    -0.250 OA
BRANCH   6   8
ATOM      8  C   UNL     1       1.213   1.271  -1.946  1.00  0.00     0.238 C 
BRANCH   8   9
ATOM      9  N   UNL     1       2.088   0.613  -0.987  1.00  0.00    -0.344 N 
ATOM     10  O   UNL     1       0.606   0.485   0.748  1.00  0.00    -0.273 OA
ATOM     11  C   UNL     1       1.700   0.210   0.270  1.00  0.00     0.240 C 
ATOM     12  H   UNL     1       3.020   0.446  -1.255  1.00  0.00     0.164 HD
BRANCH  11  13
ATOM     13  C   UNL     1       2.807  -0.527   1.055  1.00  0.00     0.219 C 
BRANCH  13  14
ATOM     14  N   UNL     1       3.683  -1.252   0.137  1.00  0.00    -0.312 N 
ATOM     15  C   UNL     1       5.041  -1.364   0.183  1.00  0.00     0.407 C 
ATOM     16  H   UNL     1       3.237  -1.716  -0.608  1.00  0.00     0.167 HD
ATOM     17  O   UNL     1       5.642  -1.892  -0.737  1.00  0.00    -0.225 OA
BRANCH  15  18
ATOM     18  O   UNL     1       5.596  -0.847   1.304  1.00  0.00    -0.445 OA
BRANCH  18  19
ATOM     19  C   UNL     1       7.029  -0.943   1.388  1.00  0.00     0.270 C 
BRANCH  19  20
ATOM     20  C   UNL     1       7.464  -2.188   2.122  1.00  0.00    -0.011 A 
ATOM     21  C   UNL     1       7.465  -3.434   1.477  1.00  0.00     0.007 A 
ATOM     22  C   UNL     1       7.876  -2.125   3.461  1.00  0.00     0.007 A 
ATOM     23  C   UNL     1       7.844  -4.591   2.158  1.00  0.00     0.000 A 
ATOM     24  C   UNL     1       8.266  -3.283   4.139  1.00  0.00     0.000 A 
ATOM     25  C   UNL     1       8.242  -4.516   3.490  1.00  0.00     0.000 A 
ENDBRANCH  19  20
ENDBRANCH  18  19
ENDBRANCH  15  18
ENDBRANCH  13  14
ENDBRANCH  11  13
ENDBRANCH   8   9
ENDBRANCH   6   8
ENDBRANCH   5   6
ENDBRANCH   4   5
ENDBRANCH   3   4
ENDBRANCH   2   3
ENDBRANCH   1   2
BRANCH   1  26
ATOM     26  C   UNL     1       4.639   2.827  -1.500  1.00  0.00     0.188 C 
BRANCH  26  27
ATOM     27  O   UNL     1       4.304   3.406  -0.259  1.00  0.00    -0.377 OA
BRANCH  27  28
ATOM     28  C   UNL     1       5.310   4.145   0.425  1.00  0.00     0.188 C 
BRANCH  28  29
ATOM     29  C   UNL     1       6.411   4.855  -0.392  1.00  0.00     0.188 C 
BRANCH  29  30
ATOM     30  O   UNL     1       7.003   4.055  -1.408  1.00  0.00    -0.376 OA
BRANCH  30  31
ATOM     31  C   UNL     1       8.220   3.382  -1.112  1.00  0.00     0.202 C 
BRANCH  31  32
ATOM     32  C   UNL     1       8.170   2.272  -0.047  1.00  0.00     0.261 C 
BRANCH  32  33
ATOM     33  O   UNL     1       7.777   2.670   1.277  1.00  0.00    -0.460 OA
BRANCH  33  34
ATOM     34  C   UNL     1       8.515   3.632   1.874  1.00  0.00     0.338 C 
ATOM     35  O   UNL     1       9.535   4.133   1.439  1.00  0.00    -0.246 OA
BRANCH  34  36
ATOM     36  C   UNL     1       7.770   4.138   3.049  1.00  0.00     0.060 A 
ATOM     37  C   UNL     1       7.469   5.504   3.105  1.00  0.00     0.016 A 
ATOM     38  C   UNL     1       7.396   3.291   4.095  1.00  0.00     0.016 A 
ATOM     39  C   UNL     1       6.849   6.039   4.233  1.00  0.00     0.010 A 
ATOM     40  C   UNL     1       6.790   3.833   5.236  1.00  0.00     0.010 A 
ATOM     41  C   UNL     1       6.556   5.217   5.329  1.00  0.00    -0.014 A 
BRANCH  41  42
ATOM     42  C   UNL     1       6.214   5.854   6.629  1.00  0.00     0.031 A 
ATOM     43  C   UNL     1       7.303   6.007   7.660  1.00  0.00     0.074 A 
ATOM     44  C   UNL     1       4.990   6.361   6.861  1.00  0.00     0.049 A 
ATOM     45  N   UNL     1       7.256   6.552   8.848  1.00  0.00    -0.248 NA
ATOM     46  C   UNL     1       8.624   5.471   7.297  1.00  0.00     0.031 C 
ATOM     47  C   UNL     1       3.869   6.323   5.923  1.00  0.00     0.029 A 
ATOM     48  N   UNL     1       4.488   7.018   7.958  1.00  0.00    -0.354 N 
ATOM     49  C   UNL     1       8.538   6.426   9.375  1.00  0.00     0.074 A 
ATOM     50  C   UNL     1       9.325   5.708   8.394  1.00  0.00     0.031 C 
ATOM     51  C   UNL     1       2.811   6.934   6.484  1.00  0.00     0.029 A 
ATOM     52  C   UNL     1       3.165   7.375   7.832  1.00  0.00     0.049 A 
ATOM     53  H   UNL     1       5.025   7.215   8.759  1.00  0.00     0.167 HD
ATOM     54  C   UNL     1       9.020   6.878  10.559  1.00  0.00     0.034 A 
ATOM     55  C   UNL     1       2.333   7.971   8.711  1.00  0.00     0.034 A 
ATOM     56  C   UNL     1       8.221   7.580  11.534  1.00  0.00     0.049 A 
ATOM     57  C   UNL     1       2.869   8.385  10.063  1.00  0.00     0.074 A 
ATOM     58  C   UNL     1       8.608   8.082  12.765  1.00  0.00     0.029 A 
ATOM     59  N   UNL     1       6.868   7.869  11.398  1.00  0.00    -0.354 N 
ATOM     60  N   UNL     1       4.084   8.263  10.547  1.00  0.00    -0.248 NA
ATOM     61  C   UNL     1       1.921   9.033  10.979  1.00  0.00     0.031 C 
ATOM     62  C   UNL     1       7.475   8.595  13.406  1.00  0.00     0.029 A 
ATOM     63  C   UNL     1       6.400   8.509  12.536  1.00  0.00     0.049 A 
ATOM     64  H   UNL     1       6.322   7.650  10.609  1.00  0.00     0.167 HD
ATOM     65  C   UNL     1       4.053   8.857  11.809  1.00  0.00     0.074 A 
ATOM     66  C   UNL     1       2.705   9.350  11.998  1.00  0.00     0.031 C 
ATOM     67  C   UNL     1       5.050   8.990  12.723  1.00  0.00     0.034 A 
BRANCH  54  68
ATOM     68  C   UNL     1      10.464   6.571  10.884  1.00  0.00     0.023 A 
ATOM     69  C   UNL     1      11.525   7.068  10.105  1.00  0.00     0.031 A 
ATOM     70  C   UNL     1      10.784   5.740  11.973  1.00  0.00     0.131 A 
ATOM     71  C   UNL     1      12.843   6.671  10.381  1.00  0.00     0.055 A 
ATOM     72  C   UNL     1      12.104   5.421  12.296  1.00  0.00     0.041 A 
ATOM     73  F   UNL     1       9.815   5.211  12.737  1.00  0.00    -0.206 F 
ATOM     74  C   UNL     1      13.143   5.875  11.488  1.00  0.00     0.022 A 
BRANCH  71  75
ATOM     75  S   UNL     1      14.140   7.078   9.180  1.00  0.00     0.124 S 
ATOM     76  O   UNL     1      13.624   6.453   7.964  1.00  0.00    -0.237 OA
ATOM     77  O   UNL     1      14.142   8.536   9.198  1.00  0.00    -0.237 OA
ATOM     78  O   UNL     1      15.334   6.445   9.737  1.00  0.00    -0.744 OA
ENDBRANCH  71  75
ENDBRANCH  54  68
BRANCH  55  79
ATOM     79  C   UNL     1       0.896   8.190   8.368  1.00  0.00     0.023 A 
ATOM     80  C   UNL     1       0.343   9.480   8.318  1.00  0.00     0.031 A 
ATOM     81  C   UNL     1       0.035   7.098   8.153  1.00  0.00     0.131 A 
ATOM     82  C   UNL     1      -1.037   9.644   8.113  1.00  0.00     0.055 A 
ATOM     83  C   UNL     1      -1.325   7.269   7.887  1.00  0.00     0.041 A 
ATOM     84  F   UNL     1       0.507   5.842   8.198  1.00  0.00    -0.206 F 
ATOM     85  C   UNL     1      -1.871   8.548   7.881  1.00  0.00     0.022 A 
BRANCH  82  86
ATOM     86  S   UNL     1      -1.746  11.308   8.257  1.00  0.00     0.124 S 
ATOM     87  O   UNL     1      -1.365  11.675   9.616  1.00  0.00    -0.237 OA
ATOM     88  O   UNL     1      -1.064  12.022   7.183  1.00  0.00    -0.237 OA
ATOM     89  O   UNL     1      -3.176  11.087   8.046  1.00  0.00    -0.744 OA
ENDBRANCH  82  86
ENDBRANCH  55  79
BRANCH  67  90
ATOM     90  C   UNL     1       4.728   9.755  13.989  1.00  0.00     0.023 A 
ATOM     91  C   UNL     1       3.760   9.311  14.906  1.00  0.00     0.031 A 
ATOM     92  C   UNL     1       5.381  10.972  14.263  1.00  0.00     0.131 A 
ATOM     93  C   UNL     1       3.412  10.114  16.003  1.00  0.00     0.055 A 
ATOM     94  C   UNL     1       5.090  11.727  15.400  1.00  0.00     0.041 A 
ATOM     95  F   UNL     1       6.314  11.452  13.425  1.00  0.00    -0.206 F 
ATOM     96  C   UNL     1       4.085  11.309  16.267  1.00  0.00     0.022 A 
BRANCH  93  97
ATOM     97  S   UNL     1       1.970   9.647  17.001  1.00  0.00     0.124 S 
ATOM     98  O   UNL     1       0.921   9.553  15.991  1.00  0.00    -0.237 OA
ATOM     99  O   UNL     1       2.399   8.385  17.595  1.00  0.00    -0.237 OA
ATOM    100  O   UNL     1       1.829  10.758  17.941  1.00  0.00    -0.744 OA
ENDBRANCH  93  97
ENDBRANCH  67  90
ENDBRANCH  41  42
ENDBRANCH  34  36
ENDBRANCH  33  34
ENDBRANCH  32  33
ENDBRANCH  31  32
ENDBRANCH  30  31
ENDBRANCH  29  30
ENDBRANCH  28  29
ENDBRANCH  27  28
ENDBRANCH  26  27
ENDBRANCH   1  26
TORSDOF 29
