REMARK SMILES CC(=O)OCC1=C(C(=O)OCCOCCOCCOCCOC(=O)c2ccc(-c3c4nc(c(-c5cc(S(=O)(=O)[O-])ccc5F)c5ccc([nH]5)c(-c5cc(S(=O)(=O)[O-])ccc5F)c5nc(c(-c6cc(S(=O)(=O)[O-])ccc6F)c6ccc3[nH]6)C=C5)C=C4)cc2)N2C(=O)[C@H](NC(=O)C3CCCCC3)[C@@H]2SC1
REMARK SMILES IDX 16 1 15 2 14 3 13 4 12 5 11 6 10 7 8 8 9 9 7 10 6 11 103 12
REMARK SMILES IDX 88 13 102 14 89 15 101 16 90 17 91 18 5 19 4 20 2 21 1 22
REMARK SMILES IDX 3 23 92 24 93 25 94 27 95 28 96 29 100 30 97 31 99 32 98 33
REMARK SMILES IDX 17 34 18 35 19 36 20 37 21 38 22 39 23 40 24 41 25 42 26 43
REMARK SMILES IDX 87 44 27 45 86 46 28 47 29 48 30 49 80 50 31 51 85 52 79 53
REMARK SMILES IDX 81 54 32 55 84 56 78 57 77 58 33 60 65 61 45 62 64 63 46 64
REMARK SMILES IDX 49 65 63 66 82 67 47 68 48 69 62 71 83 72 50 73 34 74 35 75
REMARK SMILES IDX 43 76 36 77 42 78 44 79 41 80 37 81 38 82 39 83 40 84 66 85
REMARK SMILES IDX 67 86 75 87 68 88 74 89 76 90 73 91 69 92 70 93 71 94 72 95
REMARK SMILES IDX 51 96 52 97 60 98 53 99 59 100 61 101 58 102 54 103 55 104
REMARK SMILES IDX 56 105 57 106
REMARK H PARENT 92 26 81 59 49 70
REMARK Flexibility Score: inf
ROOT
ATOM      1  O   UNL     1       0.380  -0.618   1.623  1.00  0.00    -0.377 OA
ENDROOT
BRANCH   1   2
ATOM      2  C   UNL     1       1.302  -1.332   2.415  1.00  0.00     0.188 C 
BRANCH   2   3
ATOM      3  C   UNL     1       2.759  -0.862   2.511  1.00  0.00     0.188 C 
BRANCH   3   4
ATOM      4  O   UNL     1       3.157   0.310   1.820  1.00  0.00    -0.376 OA
BRANCH   4   5
ATOM      5  C   UNL     1       3.308   0.261   0.400  1.00  0.00     0.202 C 
BRANCH   5   6
ATOM      6  C   UNL     1       3.769  -1.048  -0.241  1.00  0.00     0.261 C 
BRANCH   6   7
ATOM      7  O   UNL     1       2.732  -2.036  -0.135  1.00  0.00    -0.459 OA
BRANCH   7   8
ATOM      8  C   UNL     1       3.137  -3.297  -0.406  1.00  0.00     0.355 C 
ATOM      9  O   UNL     1       4.250  -3.643  -0.772  1.00  0.00    -0.244 OA
BRANCH   8  10
ATOM     10  C   UNL     1       2.050  -4.274  -0.102  1.00  0.00     0.134 C 
ATOM     11  C   UNL     1       1.102  -4.592  -1.016  1.00  0.00     0.008 C 
ATOM     12  C   UNL     1       0.177  -5.787  -0.861  1.00  0.00     0.108 C 
ATOM     13  N   UNL     1       2.159  -4.966   1.065  1.00  0.00    -0.289 N 
ATOM     14  S   UNL     1       0.896  -7.114   0.169  1.00  0.00    -0.129 SA
ATOM     15  C   UNL     1       2.959  -4.990   2.145  1.00  0.00     0.253 C 
ATOM     16  C   UNL     1       1.231  -5.975   1.523  1.00  0.00     0.181 C 
ATOM     17  O   UNL     1       3.848  -4.263   2.534  1.00  0.00    -0.272 OA
ATOM     18  C   UNL     1       2.308  -6.366   2.579  1.00  0.00     0.205 C 
BRANCH  11  19
ATOM     19  C   UNL     1       0.850  -3.852  -2.315  1.00  0.00     0.267 C 
BRANCH  19  20
ATOM     20  O   UNL     1       0.958  -2.433  -2.189  1.00  0.00    -0.461 OA
BRANCH  20  21
ATOM     21  C   UNL     1      -0.153  -1.808  -1.703  1.00  0.00     0.302 C 
ATOM     22  C   UNL     1       0.038  -0.323  -1.727  1.00  0.00     0.139 C 
ATOM     23  O   UNL     1      -1.151  -2.377  -1.283  1.00  0.00    -0.253 OA
ENDBRANCH  20  21
ENDBRANCH  19  20
ENDBRANCH  11  19
BRANCH  18  24
ATOM     24  N   UNL     1       3.190  -7.530   2.301  1.00  0.00    -0.342 N 
ATOM     25  C   UNL     1       3.626  -8.516   3.139  1.00  0.00     0.223 C 
ATOM     26  H   UNL     1       3.507  -7.602   1.371  1.00  0.00     0.164 HD
ATOM     27  O   UNL     1       4.422  -9.347   2.700  1.00  0.00    -0.275 OA
BRANCH  25  28
ATOM     28  C   UNL     1       3.091  -8.572   4.567  1.00  0.00     0.078 C 
ATOM     29  C   UNL     1       3.399  -9.938   5.206  1.00  0.00     0.013 C 
ATOM     30  C   UNL     1       3.674  -7.459   5.448  1.00  0.00     0.013 C 
ATOM     31  C   UNL     1       2.866 -10.034   6.634  1.00  0.00     0.001 C 
ATOM     32  C   UNL     1       3.087  -7.527   6.857  1.00  0.00     0.001 C 
ATOM     33  C   UNL     1       3.357  -8.881   7.505  1.00  0.00     0.000 C 
ENDBRANCH  25  28
ENDBRANCH  18  24
ENDBRANCH   8  10
ENDBRANCH   7   8
ENDBRANCH   6   7
ENDBRANCH   5   6
ENDBRANCH   4   5
ENDBRANCH   3   4
ENDBRANCH   2   3
ENDBRANCH   1   2
BRANCH   1  34
ATOM     34  C   UNL     1       0.149   0.756   1.878  1.00  0.00     0.188 C 
BRANCH  34  35
ATOM     35  C   UNL     1       0.065   1.288   3.313  1.00  0.00     0.188 C 
BRANCH  35  36
ATOM     36  O   UNL     1      -0.460   0.472   4.350  1.00  0.00    -0.376 OA
BRANCH  36  37
ATOM     37  C   UNL     1      -1.599  -0.340   4.102  1.00  0.00     0.202 C 
BRANCH  37  38
ATOM     38  C   UNL     1      -2.926   0.362   3.817  1.00  0.00     0.261 C 
BRANCH  38  39
ATOM     39  O   UNL     1      -3.016   0.816   2.456  1.00  0.00    -0.460 OA
BRANCH  39  40
ATOM     40  C   UNL     1      -3.113   2.155   2.289  1.00  0.00     0.338 C 
ATOM     41  O   UNL     1      -3.085   3.009   3.157  1.00  0.00    -0.246 OA
BRANCH  40  42
ATOM     42  C   UNL     1      -3.139   2.467   0.848  1.00  0.00     0.060 A 
ATOM     43  C   UNL     1      -2.174   3.344   0.337  1.00  0.00     0.016 A 
ATOM     44  C   UNL     1      -4.151   1.966   0.027  1.00  0.00     0.016 A 
ATOM     45  C   UNL     1      -2.238   3.751  -0.997  1.00  0.00     0.010 A 
ATOM     46  C   UNL     1      -4.222   2.386  -1.304  1.00  0.00     0.010 A 
ATOM     47  C   UNL     1      -3.284   3.302  -1.814  1.00  0.00    -0.014 A 
BRANCH  47  48
ATOM     48  C   UNL     1      -3.508   3.896  -3.156  1.00  0.00     0.031 A 
ATOM     49  C   UNL     1      -4.543   4.975  -3.304  1.00  0.00     0.074 A 
ATOM     50  C   UNL     1      -2.825   3.461  -4.229  1.00  0.00     0.049 A 
ATOM     51  N   UNL     1      -5.013   5.534  -4.389  1.00  0.00    -0.248 NA
ATOM     52  C   UNL     1      -5.129   5.485  -2.056  1.00  0.00     0.031 C 
ATOM     53  C   UNL     1      -1.752   2.470  -4.200  1.00  0.00     0.029 A 
ATOM     54  N   UNL     1      -2.948   3.785  -5.557  1.00  0.00    -0.354 N 
ATOM     55  C   UNL     1      -5.955   6.462  -3.957  1.00  0.00     0.074 A 
ATOM     56  C   UNL     1      -6.013   6.358  -2.514  1.00  0.00     0.031 C 
ATOM     57  C   UNL     1      -1.329   2.249  -5.456  1.00  0.00     0.029 A 
ATOM     58  C   UNL     1      -2.135   3.044  -6.381  1.00  0.00     0.049 A 
ATOM     59  H   UNL     1      -3.560   4.482  -5.887  1.00  0.00     0.167 HD
ATOM     60  C   UNL     1      -6.697   7.323  -4.697  1.00  0.00     0.034 A 
ATOM     61  C   UNL     1      -2.078   2.987  -7.728  1.00  0.00     0.034 A 
ATOM     62  C   UNL     1      -6.646   7.390  -6.137  1.00  0.00     0.049 A 
ATOM     63  C   UNL     1      -3.015   3.850  -8.540  1.00  0.00     0.074 A 
ATOM     64  C   UNL     1      -7.350   8.224  -6.989  1.00  0.00     0.029 A 
ATOM     65  N   UNL     1      -5.860   6.576  -6.944  1.00  0.00    -0.354 N 
ATOM     66  N   UNL     1      -3.908   4.720  -8.125  1.00  0.00    -0.248 NA
ATOM     67  C   UNL     1      -2.941   3.718 -10.001  1.00  0.00     0.031 C 
ATOM     68  C   UNL     1      -7.050   7.862  -8.306  1.00  0.00     0.029 A 
ATOM     69  C   UNL     1      -6.095   6.858  -8.281  1.00  0.00     0.049 A 
ATOM     70  H   UNL     1      -5.227   5.898  -6.613  1.00  0.00     0.167 HD
ATOM     71  C   UNL     1      -4.476   5.261  -9.276  1.00  0.00     0.074 A 
ATOM     72  C   UNL     1      -3.822   4.624 -10.400  1.00  0.00     0.031 C 
ATOM     73  C   UNL     1      -5.446   6.205  -9.394  1.00  0.00     0.034 A 
BRANCH  60  74
ATOM     74  C   UNL     1      -7.665   8.212  -3.954  1.00  0.00     0.023 A 
ATOM     75  C   UNL     1      -7.222   9.166  -3.020  1.00  0.00     0.031 A 
ATOM     76  C   UNL     1      -9.051   8.073  -4.144  1.00  0.00     0.131 A 
ATOM     77  C   UNL     1      -8.155   9.880  -2.253  1.00  0.00     0.055 A 
ATOM     78  C   UNL     1      -9.973   8.849  -3.439  1.00  0.00     0.041 A 
ATOM     79  F   UNL     1      -9.535   7.163  -5.004  1.00  0.00    -0.206 F 
ATOM     80  C   UNL     1      -9.527   9.747  -2.474  1.00  0.00     0.022 A 
BRANCH  77  81
ATOM     81  S   UNL     1      -7.551  10.860  -0.851  1.00  0.00     0.124 S 
ATOM     82  O   UNL     1      -6.837   9.851  -0.072  1.00  0.00    -0.237 OA
ATOM     83  O   UNL     1      -6.723  11.867  -1.504  1.00  0.00    -0.237 OA
ATOM     84  O   UNL     1      -8.775  11.362  -0.231  1.00  0.00    -0.744 OA
ENDBRANCH  77  81
ENDBRANCH  60  74
BRANCH  61  85
ATOM     85  C   UNL     1      -1.139   2.047  -8.404  1.00  0.00     0.023 A 
ATOM     86  C   UNL     1      -0.107   2.528  -9.225  1.00  0.00     0.031 A 
ATOM     87  C   UNL     1      -1.291   0.654  -8.283  1.00  0.00     0.131 A 
ATOM     88  C   UNL     1       0.707   1.625  -9.925  1.00  0.00     0.055 A 
ATOM     89  C   UNL     1      -0.445  -0.241  -8.941  1.00  0.00     0.041 A 
ATOM     90  F   UNL     1      -2.263   0.141  -7.513  1.00  0.00    -0.206 F 
ATOM     91  C   UNL     1       0.555   0.244  -9.778  1.00  0.00     0.022 A 
BRANCH  88  92
ATOM     92  S   UNL     1       1.923   2.284 -11.098  1.00  0.00     0.124 S 
ATOM     93  O   UNL     1       1.071   3.015 -12.028  1.00  0.00    -0.237 OA
ATOM     94  O   UNL     1       2.772   3.093 -10.230  1.00  0.00    -0.237 OA
ATOM     95  O   UNL     1       2.556   1.084 -11.641  1.00  0.00    -0.744 OA
ENDBRANCH  88  92
ENDBRANCH  61  85
BRANCH  73  96
ATOM     96  C   UNL     1      -5.826   6.636 -10.790  1.00  0.00     0.023 A 
ATOM     97  C   UNL     1      -6.491   5.774 -11.679  1.00  0.00     0.031 A 
ATOM     98  C   UNL     1      -5.527   7.939 -11.232  1.00  0.00     0.131 A 
ATOM     99  C   UNL     1      -6.799   6.210 -12.977  1.00  0.00     0.055 A 
ATOM    100  C   UNL     1      -5.888   8.385 -12.504  1.00  0.00     0.041 A 
ATOM    101  F   UNL     1      -4.891   8.804 -10.426  1.00  0.00    -0.206 F 
ATOM    102  C   UNL     1      -6.519   7.516 -13.388  1.00  0.00     0.022 A 
BRANCH  99 103
ATOM    103  S   UNL     1      -7.511   5.025 -14.152  1.00  0.00     0.124 S 
ATOM    104  O   UNL     1      -6.466   4.008 -14.226  1.00  0.00    -0.237 OA
ATOM    105  O   UNL     1      -8.744   4.623 -13.483  1.00  0.00    -0.237 OA
ATOM    106  O   UNL     1      -7.695   5.814 -15.368  1.00  0.00    -0.744 OA
ENDBRANCH  99 103
ENDBRANCH  73  96
ENDBRANCH  47  48
ENDBRANCH  40  42
ENDBRANCH  39  40
ENDBRANCH  38  39
ENDBRANCH  37  38
ENDBRANCH  36  37
ENDBRANCH  35  36
ENDBRANCH  34  35
ENDBRANCH   1  34
TORSDOF 28
