REMARK SMILES CCCCCCNC(=O)Oc1cccc(-c2ccc([C@@H](C)C(=O)OCCOCCOCCOCCOC(=O)c3ccc(-c4c5nc(c(-c6cc(S(=O)(=O)[O-])ccc6F)c6ccc([nH]6)c(-c6cc(S(=O)(=O)[O-])ccc6F)c6nc(c(-c7cc(S(=O)(=O)[O-])ccc7F)c7ccc4[nH]7)C=C6)C=C5)cc3)cc2N)c1
REMARK SMILES IDX 27 1 26 2 25 3 24 4 22 5 23 6 20 7 21 8 19 9 16 10 17 11
REMARK SMILES IDX 103 12 18 13 102 14 15 15 11 16 12 17 105 18 13 19 14 20
REMARK SMILES IDX 10 21 8 22 7 23 9 25 6 26 5 27 4 28 3 29 2 30 1 31 104 32
REMARK SMILES IDX 28 35 29 36 30 37 31 38 32 39 33 40 34 41 35 42 36 43 37 44
REMARK SMILES IDX 38 45 39 46 40 47 101 48 41 49 100 50 42 51 43 52 44 53
REMARK SMILES IDX 94 54 45 55 99 56 93 57 95 58 46 59 98 60 92 61 91 62 47 64
REMARK SMILES IDX 79 65 59 66 78 67 60 68 63 69 77 70 96 71 61 72 62 73 76 75
REMARK SMILES IDX 97 76 64 77 48 78 49 79 57 80 50 81 56 82 58 83 55 84 51 85
REMARK SMILES IDX 52 86 53 87 54 88 80 89 81 90 89 91 82 92 88 93 90 94 87 95
REMARK SMILES IDX 83 96 84 97 85 98 86 99 65 100 66 101 74 102 67 103 73 104
REMARK SMILES IDX 75 105 72 106 68 107 69 108 70 109 71 110
REMARK H PARENT 7 24 104 33 104 34 95 63 63 74
REMARK Flexibility Score: inf
ROOT
ATOM      1  O   UNL     1      -0.973 -15.136  -1.264  1.00  0.00    -0.376 OA
ENDROOT
BRANCH   1   2
ATOM      2  C   UNL     1      -1.443 -15.718  -2.472  1.00  0.00     0.202 C 
BRANCH   2   3
ATOM      3  C   UNL     1      -2.938 -16.046  -2.650  1.00  0.00     0.261 C 
BRANCH   3   4
ATOM      4  O   UNL     1      -3.878 -14.987  -2.370  1.00  0.00    -0.463 OA
BRANCH   4   5
ATOM      5  C   UNL     1      -4.552 -15.074  -1.202  1.00  0.00     0.313 C 
ATOM      6  O   UNL     1      -4.412 -16.002  -0.405  1.00  0.00    -0.252 OA
BRANCH   5   7
ATOM      7  C   UNL     1      -5.556 -13.958  -0.921  1.00  0.00     0.126 C 
ATOM      8  C   UNL     1      -6.964 -14.517  -1.096  1.00  0.00     0.025 C 
BRANCH   7   9
ATOM      9  C   UNL     1      -5.423 -12.580  -1.569  1.00  0.00    -0.032 A 
ATOM     10  C   UNL     1      -5.194  -9.925  -2.644  1.00  0.00     0.005 A 
ATOM     11  C   UNL     1      -5.358 -11.059  -3.469  1.00  0.00     0.011 A 
ATOM     12  C   UNL     1      -5.135 -10.137  -1.248  1.00  0.00     0.040 A 
ATOM     13  C   UNL     1      -5.476 -12.361  -2.947  1.00  0.00     0.005 A 
ATOM     14  C   UNL     1      -5.239 -11.448  -0.742  1.00  0.00     0.030 A 
BRANCH  10  15
ATOM     15  C   UNL     1      -5.191  -8.566  -3.249  1.00  0.00    -0.013 A 
ATOM     16  C   UNL     1      -4.262  -6.331  -3.530  1.00  0.00     0.133 A 
ATOM     17  C   UNL     1      -5.371  -5.930  -4.272  1.00  0.00     0.047 A 
ATOM     18  C   UNL     1      -4.158  -7.635  -3.029  1.00  0.00     0.056 A 
ATOM     19  C   UNL     1      -6.383  -6.847  -4.532  1.00  0.00     0.004 A 
ATOM     20  C   UNL     1      -6.295  -8.146  -4.021  1.00  0.00     0.009 A 
BRANCH  16  21
ATOM     21  O   UNL     1      -3.350  -5.315  -3.184  1.00  0.00    -0.410 OA
BRANCH  21  22
ATOM     22  C   UNL     1      -1.995  -5.512  -3.400  1.00  0.00     0.412 C 
ATOM     23  N   UNL     1      -1.226  -4.446  -3.016  1.00  0.00    -0.321 N 
ATOM     24  H   UNL     1      -0.255  -4.538  -3.150  1.00  0.00     0.167 HD
ATOM     25  O   UNL     1      -1.482  -6.514  -3.884  1.00  0.00    -0.224 OA
BRANCH  23  26
ATOM     26  C   UNL     1      -1.677  -3.195  -2.435  1.00  0.00     0.119 C 
BRANCH  26  27
ATOM     27  C   UNL     1      -1.083  -2.959  -1.044  1.00  0.00     0.021 C 
BRANCH  27  28
ATOM     28  C   UNL     1       0.445  -2.829  -1.005  1.00  0.00     0.002 C 
BRANCH  28  29
ATOM     29  C   UNL     1       1.032  -1.667  -1.815  1.00  0.00    -0.000 C 
BRANCH  29  30
ATOM     30  C   UNL     1       0.566  -0.271  -1.396  1.00  0.00    -0.003 C 
ATOM     31  C   UNL     1       0.969   0.100   0.023  1.00  0.00     0.004 C 
ENDBRANCH  29  30
ENDBRANCH  28  29
ENDBRANCH  27  28
ENDBRANCH  26  27
ENDBRANCH  23  26
ENDBRANCH  21  22
ENDBRANCH  16  21
ENDBRANCH  10  15
BRANCH  12  32
ATOM     32  N   UNL     1      -4.892  -9.102  -0.344  1.00  0.00    -0.398 N 
ATOM     33  H   UNL     1      -4.815  -8.175  -0.665  1.00  0.00     0.156 HD
ATOM     34  H   UNL     1      -4.799  -9.300   0.616  1.00  0.00     0.156 HD
ENDBRANCH  12  32
ENDBRANCH   7   9
ENDBRANCH   5   7
ENDBRANCH   4   5
ENDBRANCH   3   4
ENDBRANCH   2   3
ENDBRANCH   1   2
BRANCH   1  35
ATOM     35  C   UNL     1      -1.522 -13.915  -0.784  1.00  0.00     0.188 C 
BRANCH  35  36
ATOM     36  C   UNL     1      -2.041 -12.831  -1.740  1.00  0.00     0.188 C 
BRANCH  36  37
ATOM     37  O   UNL     1      -2.028 -13.178  -3.108  1.00  0.00    -0.377 OA
BRANCH  37  38
ATOM     38  C   UNL     1      -0.999 -12.601  -3.895  1.00  0.00     0.188 C 
BRANCH  38  39
ATOM     39  C   UNL     1       0.404 -12.558  -3.265  1.00  0.00     0.188 C 
BRANCH  39  40
ATOM     40  O   UNL     1       0.450 -11.894  -2.004  1.00  0.00    -0.376 OA
BRANCH  40  41
ATOM     41  C   UNL     1       0.799 -10.515  -1.983  1.00  0.00     0.202 C 
BRANCH  41  42
ATOM     42  C   UNL     1      -0.165  -9.506  -2.635  1.00  0.00     0.261 C 
BRANCH  42  43
ATOM     43  O   UNL     1      -0.433  -9.676  -4.033  1.00  0.00    -0.460 OA
BRANCH  43  44
ATOM     44  C   UNL     1       0.611  -9.701  -4.892  1.00  0.00     0.338 C 
ATOM     45  O   UNL     1       1.782  -9.552  -4.623  1.00  0.00    -0.246 OA
BRANCH  44  46
ATOM     46  C   UNL     1       0.091 -10.185  -6.195  1.00  0.00     0.060 A 
ATOM     47  C   UNL     1       0.630 -11.356  -6.745  1.00  0.00     0.016 A 
ATOM     48  C   UNL     1      -0.927  -9.498  -6.859  1.00  0.00     0.016 A 
ATOM     49  C   UNL     1       0.176 -11.825  -7.980  1.00  0.00     0.010 A 
ATOM     50  C   UNL     1      -1.361  -9.953  -8.110  1.00  0.00     0.010 A 
ATOM     51  C   UNL     1      -0.788 -11.100  -8.691  1.00  0.00    -0.014 A 
BRANCH  51  52
ATOM     52  C   UNL     1      -1.039 -11.412 -10.123  1.00  0.00     0.031 A 
ATOM     53  C   UNL     1      -0.323 -10.590 -11.161  1.00  0.00     0.074 A 
ATOM     54  C   UNL     1      -1.862 -12.408 -10.499  1.00  0.00     0.049 A 
ATOM     55  N   UNL     1      -0.434 -10.610 -12.463  1.00  0.00    -0.248 NA
ATOM     56  C   UNL     1       0.648  -9.608 -10.653  1.00  0.00     0.031 C 
ATOM     57  C   UNL     1      -2.562 -13.315  -9.591  1.00  0.00     0.029 A 
ATOM     58  N   UNL     1      -2.256 -12.815 -11.751  1.00  0.00    -0.354 N 
ATOM     59  C   UNL     1       0.443  -9.636 -12.931  1.00  0.00     0.074 A 
ATOM     60  C   UNL     1       1.053  -9.026 -11.770  1.00  0.00     0.031 C 
ATOM     61  C   UNL     1      -3.314 -14.161 -10.317  1.00  0.00     0.029 A 
ATOM     62  C   UNL     1      -3.188 -13.828 -11.736  1.00  0.00     0.049 A 
ATOM     63  H   UNL     1      -1.905 -12.419 -12.581  1.00  0.00     0.167 HD
ATOM     64  C   UNL     1       0.715  -9.286 -14.212  1.00  0.00     0.034 A 
ATOM     65  C   UNL     1      -3.883 -14.392 -12.746  1.00  0.00     0.034 A 
ATOM     66  C   UNL     1       0.086  -9.895 -15.359  1.00  0.00     0.049 A 
ATOM     67  C   UNL     1      -3.642 -13.913 -14.162  1.00  0.00     0.074 A 
ATOM     68  C   UNL     1       0.298  -9.626 -16.700  1.00  0.00     0.029 A 
ATOM     69  N   UNL     1      -0.890 -10.881 -15.301  1.00  0.00    -0.354 N 
ATOM     70  N   UNL     1      -2.808 -12.994 -14.595  1.00  0.00    -0.248 NA
ATOM     71  C   UNL     1      -4.431 -14.551 -15.225  1.00  0.00     0.031 C 
ATOM     72  C   UNL     1      -0.610 -10.383 -17.446  1.00  0.00     0.029 A 
ATOM     73  C   UNL     1      -1.321 -11.199 -16.581  1.00  0.00     0.049 A 
ATOM     74  H   UNL     1      -1.228 -11.294 -14.474  1.00  0.00     0.167 HD
ATOM     75  C   UNL     1      -2.950 -12.973 -15.982  1.00  0.00     0.074 A 
ATOM     76  C   UNL     1      -3.939 -13.977 -16.312  1.00  0.00     0.031 C 
ATOM     77  C   UNL     1      -2.314 -12.199 -16.899  1.00  0.00     0.034 A 
BRANCH  64  78
ATOM     78  C   UNL     1       1.686  -8.150 -14.432  1.00  0.00     0.023 A 
ATOM     79  C   UNL     1       3.034  -8.236 -14.042  1.00  0.00     0.031 A 
ATOM     80  C   UNL     1       1.246  -6.950 -15.019  1.00  0.00     0.131 A 
ATOM     81  C   UNL     1       3.875  -7.121 -14.182  1.00  0.00     0.055 A 
ATOM     82  C   UNL     1       2.108  -5.874 -15.232  1.00  0.00     0.041 A 
ATOM     83  F   UNL     1      -0.037  -6.799 -15.386  1.00  0.00    -0.206 F 
ATOM     84  C   UNL     1       3.428  -5.950 -14.799  1.00  0.00     0.022 A 
BRANCH  81  85
ATOM     85  S   UNL     1       5.517  -7.169 -13.413  1.00  0.00     0.124 S 
ATOM     86  O   UNL     1       5.181  -7.420 -12.013  1.00  0.00    -0.237 OA
ATOM     87  O   UNL     1       6.165  -8.267 -14.121  1.00  0.00    -0.237 OA
ATOM     88  O   UNL     1       6.063  -5.841 -13.686  1.00  0.00    -0.744 OA
ENDBRANCH  81  85
ENDBRANCH  64  78
BRANCH  65  89
ATOM     89  C   UNL     1      -4.920 -15.432 -12.469  1.00  0.00     0.023 A 
ATOM     90  C   UNL     1      -4.815 -16.728 -12.998  1.00  0.00     0.031 A 
ATOM     91  C   UNL     1      -6.073 -15.118 -11.726  1.00  0.00     0.131 A 
ATOM     92  C   UNL     1      -5.864 -17.645 -12.821  1.00  0.00     0.055 A 
ATOM     93  C   UNL     1      -7.085 -16.053 -11.499  1.00  0.00     0.041 A 
ATOM     94  F   UNL     1      -6.233 -13.891 -11.205  1.00  0.00    -0.206 F 
ATOM     95  C   UNL     1      -6.990 -17.322 -12.061  1.00  0.00     0.022 A 
BRANCH  92  96
ATOM     96  S   UNL     1      -5.785 -19.237 -13.688  1.00  0.00     0.124 S 
ATOM     97  O   UNL     1      -5.682 -18.811 -15.079  1.00  0.00    -0.237 OA
ATOM     98  O   UNL     1      -4.588 -19.838 -13.110  1.00  0.00    -0.237 OA
ATOM     99  O   UNL     1      -7.043 -19.885 -13.325  1.00  0.00    -0.744 OA
ENDBRANCH  92  96
ENDBRANCH  65  89
BRANCH  77 100
ATOM    100  C   UNL     1      -2.625 -12.449 -18.358  1.00  0.00     0.023 A 
ATOM    101  C   UNL     1      -3.894 -12.194 -18.906  1.00  0.00     0.031 A 
ATOM    102  C   UNL     1      -1.625 -12.945 -19.215  1.00  0.00     0.131 A 
ATOM    103  C   UNL     1      -4.144 -12.485 -20.256  1.00  0.00     0.055 A 
ATOM    104  C   UNL     1      -1.860 -13.168 -20.572  1.00  0.00     0.041 A 
ATOM    105  F   UNL     1      -0.394 -13.212 -18.748  1.00  0.00    -0.206 F 
ATOM    106  C   UNL     1      -3.130 -12.950 -21.097  1.00  0.00     0.022 A 
BRANCH 103 107
ATOM    107  S   UNL     1      -5.840 -12.335 -20.883  1.00  0.00     0.124 S 
ATOM    108  O   UNL     1      -6.568 -13.249 -20.008  1.00  0.00    -0.237 OA
ATOM    109  O   UNL     1      -6.119 -10.915 -20.696  1.00  0.00    -0.237 OA
ATOM    110  O   UNL     1      -5.731 -12.766 -22.275  1.00  0.00    -0.744 OA
ENDBRANCH 103 107
ENDBRANCH  77 100
ENDBRANCH  51  52
ENDBRANCH  44  46
ENDBRANCH  43  44
ENDBRANCH  42  43
ENDBRANCH  41  42
ENDBRANCH  40  41
ENDBRANCH  39  40
ENDBRANCH  38  39
ENDBRANCH  37  38
ENDBRANCH  36  37
ENDBRANCH  35  36
ENDBRANCH   1  35
TORSDOF 33
