REMARK SMILES CC(C)[C@](C)(CC(=O)NC#N)C(=O)OCCOCCOCCOCCOC(=O)c1ccc(-c2c3nc(c(-c4cc(S(=O)(=O)[O-])ccc4F)c4ccc([nH]4)c(-c4cc(S(=O)(=O)[O-])ccc4F)c4nc(c(-c5cc(S(=O)(=O)[O-])ccc5F)c5ccc2[nH]5)C=C4)C=C3)cc1
REMARK SMILES IDX 20 1 19 2 18 3 17 4 16 5 15 6 14 7 12 8 13 9 4 10 5 11 2 12
REMARK SMILES IDX 1 13 3 14 6 15 7 16 8 17 9 18 10 20 11 21 21 22 22 23 23 24
REMARK SMILES IDX 24 25 25 26 26 27 27 28 28 29 29 30 30 31 91 32 31 33 90 34
REMARK SMILES IDX 32 35 33 36 34 37 84 38 35 39 89 40 83 41 85 42 36 43 88 44
REMARK SMILES IDX 82 45 81 46 37 48 69 49 49 50 68 51 50 52 53 53 67 54 86 55
REMARK SMILES IDX 51 56 52 57 66 59 87 60 54 61 38 62 39 63 47 64 40 65 46 66
REMARK SMILES IDX 48 67 45 68 41 69 42 70 43 71 44 72 70 73 71 74 79 75 72 76
REMARK SMILES IDX 78 77 80 78 77 79 73 80 74 81 75 82 76 83 55 84 56 85 64 86
REMARK SMILES IDX 57 87 63 88 65 89 62 90 58 91 59 92 60 93 61 94
REMARK H PARENT 9 19 85 47 53 58
REMARK Flexibility Score: inf
ROOT
ATOM      1  O   UNL     1      -2.190   4.325   0.923  1.00  0.00    -0.377 OA
ENDROOT
BRANCH   1   2
ATOM      2  C   UNL     1      -1.059   3.699   0.364  1.00  0.00     0.188 C 
BRANCH   2   3
ATOM      3  C   UNL     1      -0.679   3.645  -1.113  1.00  0.00     0.188 C 
BRANCH   3   4
ATOM      4  O   UNL     1      -1.705   3.831  -2.047  1.00  0.00    -0.376 OA
BRANCH   4   5
ATOM      5  C   UNL     1      -2.615   2.834  -2.449  1.00  0.00     0.202 C 
BRANCH   5   6
ATOM      6  C   UNL     1      -3.006   1.566  -1.661  1.00  0.00     0.261 C 
BRANCH   6   7
ATOM      7  O   UNL     1      -2.543   1.375  -0.314  1.00  0.00    -0.463 OA
BRANCH   7   8
ATOM      8  C   UNL     1      -1.425   0.611  -0.209  1.00  0.00     0.312 C 
ATOM      9  O   UNL     1      -0.790   0.233  -1.193  1.00  0.00    -0.252 OA
BRANCH   8  10
ATOM     10  C   UNL     1      -1.013   0.197   1.236  1.00  0.00     0.076 C 
ATOM     11  C   UNL     1       0.522   0.252   1.192  1.00  0.00     0.024 C 
BRANCH  10  12
ATOM     12  C   UNL     1      -1.575  -1.289   1.426  1.00  0.00     0.000 C 
ATOM     13  C   UNL     1      -2.815  -1.620   0.575  1.00  0.00     0.008 C 
ATOM     14  C   UNL     1      -0.528  -2.387   1.241  1.00  0.00     0.008 C 
ENDBRANCH  10  12
BRANCH  10  15
ATOM     15  C   UNL     1      -1.524   0.995   2.495  1.00  0.00     0.119 C 
BRANCH  15  16
ATOM     16  C   UNL     1      -1.048   2.325   3.118  1.00  0.00     0.234 C 
ATOM     17  O   UNL     1      -1.895   3.080   3.617  1.00  0.00    -0.274 OA
ATOM     18  N   UNL     1       0.229   2.718   3.328  1.00  0.00    -0.263 N 
ATOM     19  H   UNL     1       0.241   3.623   3.715  1.00  0.00     0.182 HD
BRANCH  18  20
ATOM     20  C   UNL     1       1.476   2.274   3.178  1.00  0.00     0.183 C 
ATOM     21  N   UNL     1       2.588   1.960   3.060  1.00  0.00    -0.172 NA
ENDBRANCH  18  20
ENDBRANCH  15  16
ENDBRANCH  10  15
ENDBRANCH   8  10
ENDBRANCH   7   8
ENDBRANCH   6   7
ENDBRANCH   5   6
ENDBRANCH   4   5
ENDBRANCH   3   4
ENDBRANCH   2   3
ENDBRANCH   1   2
BRANCH   1  22
ATOM     22  C   UNL     1      -3.189   4.863   0.091  1.00  0.00     0.188 C 
BRANCH  22  23
ATOM     23  C   UNL     1      -2.750   6.108  -0.687  1.00  0.00     0.188 C 
BRANCH  23  24
ATOM     24  O   UNL     1      -1.475   6.675  -0.441  1.00  0.00    -0.376 OA
BRANCH  24  25
ATOM     25  C   UNL     1      -0.976   6.882   0.868  1.00  0.00     0.202 C 
BRANCH  25  26
ATOM     26  C   UNL     1      -1.818   7.195   2.119  1.00  0.00     0.261 C 
BRANCH  26  27
ATOM     27  O   UNL     1      -3.220   6.952   2.082  1.00  0.00    -0.460 OA
BRANCH  27  28
ATOM     28  C   UNL     1      -3.965   7.963   1.584  1.00  0.00     0.338 C 
ATOM     29  O   UNL     1      -3.562   9.024   1.145  1.00  0.00    -0.246 OA
BRANCH  28  30
ATOM     30  C   UNL     1      -5.362   7.496   1.500  1.00  0.00     0.060 A 
ATOM     31  C   UNL     1      -5.958   7.374   0.238  1.00  0.00     0.016 A 
ATOM     32  C   UNL     1      -6.083   7.207   2.660  1.00  0.00     0.016 A 
ATOM     33  C   UNL     1      -7.288   6.990   0.129  1.00  0.00     0.010 A 
ATOM     34  C   UNL     1      -7.430   6.859   2.552  1.00  0.00     0.010 A 
ATOM     35  C   UNL     1      -8.043   6.787   1.288  1.00  0.00    -0.014 A 
BRANCH  35  36
ATOM     36  C   UNL     1      -9.515   6.718   1.174  1.00  0.00     0.031 A 
ATOM     37  C   UNL     1     -10.307   7.960   1.473  1.00  0.00     0.074 A 
ATOM     38  C   UNL     1     -10.123   5.594   0.759  1.00  0.00     0.049 A 
ATOM     39  N   UNL     1     -11.601   8.132   1.502  1.00  0.00    -0.248 NA
ATOM     40  C   UNL     1      -9.528   9.169   1.788  1.00  0.00     0.031 C 
ATOM     41  C   UNL     1      -9.439   4.362   0.367  1.00  0.00     0.029 A 
ATOM     42  N   UNL     1     -11.453   5.307   0.601  1.00  0.00    -0.354 N 
ATOM     43  C   UNL     1     -11.794   9.463   1.855  1.00  0.00     0.074 A 
ATOM     44  C   UNL     1     -10.485  10.041   2.063  1.00  0.00     0.031 C 
ATOM     45  C   UNL     1     -10.360   3.447   0.019  1.00  0.00     0.029 A 
ATOM     46  C   UNL     1     -11.694   4.010   0.217  1.00  0.00     0.049 A 
ATOM     47  H   UNL     1     -12.168   5.968   0.749  1.00  0.00     0.167 HD
ATOM     48  C   UNL     1     -12.962  10.136   1.989  1.00  0.00     0.034 A 
ATOM     49  C   UNL     1     -12.860   3.349   0.078  1.00  0.00     0.034 A 
ATOM     50  C   UNL     1     -14.254   9.529   1.786  1.00  0.00     0.049 A 
ATOM     51  C   UNL     1     -14.149   4.090   0.344  1.00  0.00     0.074 A 
ATOM     52  C   UNL     1     -15.503  10.114   1.883  1.00  0.00     0.029 A 
ATOM     53  N   UNL     1     -14.464   8.193   1.463  1.00  0.00    -0.354 N 
ATOM     54  N   UNL     1     -14.326   5.347   0.684  1.00  0.00    -0.248 NA
ATOM     55  C   UNL     1     -15.395   3.326   0.203  1.00  0.00     0.031 C 
ATOM     56  C   UNL     1     -16.466   9.114   1.720  1.00  0.00     0.029 A 
ATOM     57  C   UNL     1     -15.823   7.927   1.406  1.00  0.00     0.049 A 
ATOM     58  H   UNL     1     -13.752   7.534   1.299  1.00  0.00     0.167 HD
ATOM     59  C   UNL     1     -15.706   5.532   0.756  1.00  0.00     0.074 A 
ATOM     60  C   UNL     1     -16.309   4.260   0.413  1.00  0.00     0.031 C 
ATOM     61  C   UNL     1     -16.410   6.650   1.069  1.00  0.00     0.034 A 
BRANCH  48  62
ATOM     62  C   UNL     1     -12.893  11.574   2.441  1.00  0.00     0.023 A 
ATOM     63  C   UNL     1     -12.254  12.567   1.679  1.00  0.00     0.031 A 
ATOM     64  C   UNL     1     -13.456  11.952   3.674  1.00  0.00     0.131 A 
ATOM     65  C   UNL     1     -12.132  13.869   2.189  1.00  0.00     0.055 A 
ATOM     66  C   UNL     1     -13.412  13.269   4.132  1.00  0.00     0.041 A 
ATOM     67  F   UNL     1     -14.050  11.042   4.461  1.00  0.00    -0.206 F 
ATOM     68  C   UNL     1     -12.734  14.234   3.395  1.00  0.00     0.022 A 
BRANCH  65  69
ATOM     69  S   UNL     1     -11.039  15.036   1.332  1.00  0.00     0.124 S 
ATOM     70  O   UNL     1      -9.768  14.315   1.348  1.00  0.00    -0.237 OA
ATOM     71  O   UNL     1     -11.681  15.171   0.030  1.00  0.00    -0.237 OA
ATOM     72  O   UNL     1     -11.081  16.228   2.177  1.00  0.00    -0.744 OA
ENDBRANCH  65  69
ENDBRANCH  48  62
BRANCH  49  73
ATOM     73  C   UNL     1     -12.872   1.902  -0.285  1.00  0.00     0.023 A 
ATOM     74  C   UNL     1     -13.508   1.455  -1.453  1.00  0.00     0.031 A 
ATOM     75  C   UNL     1     -12.302   0.936   0.565  1.00  0.00     0.131 A 
ATOM     76  C   UNL     1     -13.608   0.079  -1.711  1.00  0.00     0.055 A 
ATOM     77  C   UNL     1     -12.343  -0.427   0.267  1.00  0.00     0.041 A 
ATOM     78  F   UNL     1     -11.689   1.305   1.701  1.00  0.00    -0.206 F 
ATOM     79  C   UNL     1     -13.013  -0.864  -0.870  1.00  0.00     0.022 A 
BRANCH  76  80
ATOM     80  S   UNL     1     -14.633  -0.467  -3.105  1.00  0.00     0.124 S 
ATOM     81  O   UNL     1     -15.925   0.118  -2.766  1.00  0.00    -0.237 OA
ATOM     82  O   UNL     1     -13.937   0.126  -4.242  1.00  0.00    -0.237 OA
ATOM     83  O   UNL     1     -14.565  -1.924  -3.025  1.00  0.00    -0.744 OA
ENDBRANCH  76  80
ENDBRANCH  49  73
BRANCH  61  84
ATOM     84  C   UNL     1     -17.917   6.564   0.994  1.00  0.00     0.023 A 
ATOM     85  C   UNL     1     -18.660   5.724   1.840  1.00  0.00     0.031 A 
ATOM     86  C   UNL     1     -18.620   7.340   0.053  1.00  0.00     0.131 A 
ATOM     87  C   UNL     1     -20.051   5.629   1.684  1.00  0.00     0.055 A 
ATOM     88  C   UNL     1     -20.011   7.303  -0.041  1.00  0.00     0.041 A 
ATOM     89  F   UNL     1     -17.964   8.155  -0.789  1.00  0.00    -0.206 F 
ATOM     90  C   UNL     1     -20.734   6.432   0.767  1.00  0.00     0.022 A 
BRANCH  87  91
ATOM     91  S   UNL     1     -20.944   4.351   2.611  1.00  0.00     0.124 S 
ATOM     92  O   UNL     1     -20.262   3.135   2.181  1.00  0.00    -0.237 OA
ATOM     93  O   UNL     1     -20.718   4.753   3.995  1.00  0.00    -0.237 OA
ATOM     94  O   UNL     1     -22.322   4.488   2.143  1.00  0.00    -0.744 OA
ENDBRANCH  87  91
ENDBRANCH  61  84
ENDBRANCH  35  36
ENDBRANCH  28  30
ENDBRANCH  27  28
ENDBRANCH  26  27
ENDBRANCH  25  26
ENDBRANCH  24  25
ENDBRANCH  23  24
ENDBRANCH  22  23
ENDBRANCH   1  22
TORSDOF 27
