REMARK SMILES O=C(OCCOCCOCCOCCOC(=O)c1ccc(N2C(=O)C[C@H](Nc3ccccc3[N+](=O)[O-])C2=O)cc1)c1ccc(-c2c3nc(c(-c4cc(S(=O)(=O)[O-])ccc4F)c4ccc([nH]4)c(-c4cc(S(=O)(=O)[O-])ccc4F)c4nc(c(-c5cc(S(=O)(=O)[O-])ccc5F)c5ccc2[nH]5)C=C4)C=C3)cc1
REMARK SMILES IDX 10 1 9 2 8 3 7 4 6 5 5 6 4 7 3 8 2 9 1 10 41 11 42 12 103 13
REMARK SMILES IDX 43 14 102 15 44 16 45 17 46 18 96 19 47 20 101 21 95 22
REMARK SMILES IDX 97 23 48 24 100 25 94 26 93 27 49 29 81 30 61 31 80 32 62 33
REMARK SMILES IDX 65 34 79 35 98 36 63 37 64 38 78 40 99 41 66 42 50 43 51 44
REMARK SMILES IDX 59 45 52 46 58 47 60 48 57 49 53 50 54 51 55 52 56 53 82 54
REMARK SMILES IDX 83 55 91 56 84 57 90 58 92 59 89 60 85 61 86 62 87 63 88 64
REMARK SMILES IDX 67 65 68 66 76 67 69 68 75 69 77 70 74 71 70 72 71 73 72 74
REMARK SMILES IDX 73 75 11 76 12 77 13 78 14 79 15 80 16 81 17 82 18 83 19 84
REMARK SMILES IDX 40 85 20 86 39 87 21 88 22 89 23 90 37 91 24 92 25 93 26 94
REMARK SMILES IDX 38 95 27 96 28 98 29 99 33 100 30 101 32 102 31 103 34 104
REMARK SMILES IDX 35 105 36 106
REMARK H PARENT 97 28 65 39 27 97
REMARK Flexibility Score: inf
ROOT
ATOM      1  C   UNL     1       4.121  -3.835  -0.929  1.00  0.00     0.188 C 
ENDROOT
BRANCH   1   2
ATOM      2  O   UNL     1       2.698  -3.905  -0.950  1.00  0.00    -0.377 OA
BRANCH   2   3
ATOM      3  C   UNL     1       2.008  -2.659  -1.002  1.00  0.00     0.188 C 
BRANCH   3   4
ATOM      4  C   UNL     1       2.525  -1.561  -0.069  1.00  0.00     0.188 C 
BRANCH   4   5
ATOM      5  O   UNL     1       3.854  -1.155  -0.384  1.00  0.00    -0.376 OA
BRANCH   5   6
ATOM      6  C   UNL     1       4.769  -0.954   0.691  1.00  0.00     0.202 C 
BRANCH   6   7
ATOM      7  C   UNL     1       4.475   0.221   1.622  1.00  0.00     0.261 C 
BRANCH   7   8
ATOM      8  O   UNL     1       3.103   0.632   1.632  1.00  0.00    -0.460 OA
BRANCH   8   9
ATOM      9  C   UNL     1       2.453   1.456   0.778  1.00  0.00     0.338 C 
ATOM     10  O   UNL     1       1.258   1.671   0.992  1.00  0.00    -0.246 OA
BRANCH   9  11
ATOM     11  C   UNL     1       3.059   2.096  -0.431  1.00  0.00     0.060 A 
ATOM     12  C   UNL     1       4.141   1.610  -1.168  1.00  0.00     0.016 A 
ATOM     13  C   UNL     1       2.407   3.242  -0.913  1.00  0.00     0.016 A 
ATOM     14  C   UNL     1       4.590   2.232  -2.321  1.00  0.00     0.010 A 
ATOM     15  C   UNL     1       2.854   3.891  -2.064  1.00  0.00     0.010 A 
ATOM     16  C   UNL     1       3.969   3.394  -2.749  1.00  0.00    -0.014 A 
BRANCH  16  17
ATOM     17  C   UNL     1       4.680   4.217  -3.732  1.00  0.00     0.031 A 
ATOM     18  C   UNL     1       5.440   5.385  -3.194  1.00  0.00     0.074 A 
ATOM     19  C   UNL     1       4.730   3.854  -5.022  1.00  0.00     0.049 A 
ATOM     20  N   UNL     1       5.980   6.389  -3.820  1.00  0.00    -0.248 NA
ATOM     21  C   UNL     1       5.603   5.422  -1.730  1.00  0.00     0.031 C 
ATOM     22  C   UNL     1       4.173   2.617  -5.572  1.00  0.00     0.029 A 
ATOM     23  N   UNL     1       5.276   4.490  -6.101  1.00  0.00    -0.354 N 
ATOM     24  C   UNL     1       6.494   7.210  -2.823  1.00  0.00     0.074 A 
ATOM     25  C   UNL     1       6.198   6.588  -1.555  1.00  0.00     0.031 C 
ATOM     26  C   UNL     1       4.382   2.599  -6.898  1.00  0.00     0.029 A 
ATOM     27  C   UNL     1       4.998   3.862  -7.291  1.00  0.00     0.049 A 
ATOM     28  H   UNL     1       5.812   5.312  -6.032  1.00  0.00     0.167 HD
ATOM     29  C   UNL     1       7.133   8.393  -2.979  1.00  0.00     0.034 A 
ATOM     30  C   UNL     1       5.152   4.315  -8.549  1.00  0.00     0.034 A 
ATOM     31  C   UNL     1       7.367   8.956  -4.284  1.00  0.00     0.049 A 
ATOM     32  C   UNL     1       5.741   5.693  -8.714  1.00  0.00     0.074 A 
ATOM     33  C   UNL     1       7.931  10.169  -4.622  1.00  0.00     0.029 A 
ATOM     34  N   UNL     1       7.023   8.324  -5.479  1.00  0.00    -0.354 N 
ATOM     35  N   UNL     1       6.133   6.537  -7.782  1.00  0.00    -0.248 NA
ATOM     36  C   UNL     1       5.903   6.190 -10.083  1.00  0.00     0.031 C 
ATOM     37  C   UNL     1       7.849  10.305  -6.013  1.00  0.00     0.029 A 
ATOM     38  C   UNL     1       7.332   9.134  -6.554  1.00  0.00     0.049 A 
ATOM     39  H   UNL     1       6.617   7.429  -5.546  1.00  0.00     0.167 HD
ATOM     40  C   UNL     1       6.620   7.653  -8.452  1.00  0.00     0.074 A 
ATOM     41  C   UNL     1       6.464   7.373  -9.869  1.00  0.00     0.031 C 
ATOM     42  C   UNL     1       7.158   8.796  -7.952  1.00  0.00     0.034 A 
BRANCH  29  43
ATOM     43  C   UNL     1       7.459   9.161  -1.720  1.00  0.00     0.023 A 
ATOM     44  C   UNL     1       8.283   8.629  -0.710  1.00  0.00     0.031 A 
ATOM     45  C   UNL     1       6.803  10.377  -1.454  1.00  0.00     0.131 A 
ATOM     46  C   UNL     1       8.322   9.239   0.555  1.00  0.00     0.055 A 
ATOM     47  C   UNL     1       6.935  11.036  -0.231  1.00  0.00     0.041 A 
ATOM     48  F   UNL     1       5.975  10.920  -2.360  1.00  0.00    -0.206 F 
ATOM     49  C   UNL     1       7.676  10.454   0.793  1.00  0.00     0.022 A 
BRANCH  46  50
ATOM     50  S   UNL     1       9.031   8.306   1.943  1.00  0.00     0.124 S 
ATOM     51  O   UNL     1       8.209   7.098   1.937  1.00  0.00    -0.237 OA
ATOM     52  O   UNL     1      10.420   8.134   1.533  1.00  0.00    -0.237 OA
ATOM     53  O   UNL     1       8.823   9.186   3.091  1.00  0.00    -0.744 OA
ENDBRANCH  46  50
ENDBRANCH  29  43
BRANCH  30  54
ATOM     54  C   UNL     1       4.655   3.507  -9.699  1.00  0.00     0.023 A 
ATOM     55  C   UNL     1       5.525   3.002 -10.676  1.00  0.00     0.031 A 
ATOM     56  C   UNL     1       3.283   3.206  -9.823  1.00  0.00     0.131 A 
ATOM     57  C   UNL     1       5.014   2.239 -11.740  1.00  0.00     0.055 A 
ATOM     58  C   UNL     1       2.788   2.405 -10.853  1.00  0.00     0.041 A 
ATOM     59  F   UNL     1       2.402   3.665  -8.919  1.00  0.00    -0.206 F 
ATOM     60  C   UNL     1       3.656   1.921 -11.825  1.00  0.00     0.022 A 
BRANCH  57  61
ATOM     61  S   UNL     1       6.147   1.706 -13.053  1.00  0.00     0.124 S 
ATOM     62  O   UNL     1       6.659   2.982 -13.539  1.00  0.00    -0.237 OA
ATOM     63  O   UNL     1       7.092   0.871 -12.320  1.00  0.00    -0.237 OA
ATOM     64  O   UNL     1       5.277   0.989 -13.984  1.00  0.00    -0.744 OA
ENDBRANCH  57  61
ENDBRANCH  30  54
BRANCH  42  65
ATOM     65  C   UNL     1       7.693   9.790  -8.948  1.00  0.00     0.023 A 
ATOM     66  C   UNL     1       6.849  10.548  -9.772  1.00  0.00     0.031 A 
ATOM     67  C   UNL     1       9.079  10.022  -9.009  1.00  0.00     0.131 A 
ATOM     68  C   UNL     1       7.406  11.491 -10.647  1.00  0.00     0.055 A 
ATOM     69  C   UNL     1       9.620  11.005  -9.833  1.00  0.00     0.041 A 
ATOM     70  F   UNL     1       9.925   9.317  -8.239  1.00  0.00    -0.206 F 
ATOM     71  C   UNL     1       8.782  11.742 -10.663  1.00  0.00     0.022 A 
BRANCH  68  72
ATOM     72  S   UNL     1       6.314  12.350 -11.811  1.00  0.00     0.124 S 
ATOM     73  O   UNL     1       5.768  11.240 -12.586  1.00  0.00    -0.237 OA
ATOM     74  O   UNL     1       5.377  13.028 -10.921  1.00  0.00    -0.237 OA
ATOM     75  O   UNL     1       7.221  13.231 -12.544  1.00  0.00    -0.744 OA
ENDBRANCH  68  72
ENDBRANCH  42  65
ENDBRANCH  16  17
ENDBRANCH   9  11
ENDBRANCH   8   9
ENDBRANCH   7   8
ENDBRANCH   6   7
ENDBRANCH   5   6
ENDBRANCH   4   5
ENDBRANCH   3   4
ENDBRANCH   2   3
ENDBRANCH   1   2
BRANCH   1  76
ATOM     76  C   UNL     1       4.853  -3.128  -2.099  1.00  0.00     0.188 C 
BRANCH  76  77
ATOM     77  O   UNL     1       3.997  -2.376  -2.939  1.00  0.00    -0.376 OA
BRANCH  77  78
ATOM     78  C   UNL     1       3.696  -2.930  -4.212  1.00  0.00     0.202 C 
BRANCH  78  79
ATOM     79  C   UNL     1       3.063  -4.335  -4.290  1.00  0.00     0.261 C 
BRANCH  79  80
ATOM     80  O   UNL     1       3.574  -5.339  -3.393  1.00  0.00    -0.460 OA
BRANCH  80  81
ATOM     81  C   UNL     1       4.757  -5.917  -3.683  1.00  0.00     0.338 C 
ATOM     82  O   UNL     1       5.451  -5.720  -4.669  1.00  0.00    -0.246 OA
BRANCH  81  83
ATOM     83  C   UNL     1       5.198  -6.685  -2.494  1.00  0.00     0.060 A 
ATOM     84  C   UNL     1       6.392  -6.318  -1.849  1.00  0.00     0.018 A 
ATOM     85  C   UNL     1       4.413  -7.716  -1.974  1.00  0.00     0.018 A 
ATOM     86  C   UNL     1       6.806  -6.986  -0.693  1.00  0.00     0.028 A 
ATOM     87  C   UNL     1       4.875  -8.443  -0.873  1.00  0.00     0.028 A 
ATOM     88  C   UNL     1       6.078  -8.090  -0.243  1.00  0.00     0.052 A 
BRANCH  88  89
ATOM     89  N   UNL     1       6.671  -8.975   0.672  1.00  0.00    -0.249 N 
ATOM     90  C   UNL     1       7.154 -10.192   0.274  1.00  0.00     0.236 C 
ATOM     91  C   UNL     1       6.829  -8.743   2.013  1.00  0.00     0.256 C 
ATOM     92  O   UNL     1       7.165 -10.663  -0.855  1.00  0.00    -0.274 OA
ATOM     93  C   UNL     1       7.695 -10.920   1.460  1.00  0.00     0.136 C 
ATOM     94  C   UNL     1       7.628  -9.909   2.595  1.00  0.00     0.179 C 
ATOM     95  O   UNL     1       6.354  -7.827   2.670  1.00  0.00    -0.272 OA
BRANCH  94  96
ATOM     96  N   UNL     1       6.950 -10.507   3.749  1.00  0.00    -0.368 N 
ATOM     97  H   UNL     1       6.011 -10.777   3.632  1.00  0.00     0.161 HD
BRANCH  96  98
ATOM     98  C   UNL     1       7.525 -10.720   4.989  1.00  0.00     0.114 A 
ATOM     99  C   UNL     1       7.401 -12.024   5.508  1.00  0.00     0.033 A 
ATOM    100  C   UNL     1       8.063  -9.758   5.862  1.00  0.00     0.292 A 
ATOM    101  C   UNL     1       7.808 -12.357   6.806  1.00  0.00     0.003 A 
ATOM    102  C   UNL     1       8.470 -10.079   7.173  1.00  0.00     0.088 A 
ATOM    103  C   UNL     1       8.340 -11.382   7.642  1.00  0.00     0.007 A 
BRANCH 100 104
ATOM    104  N   UNL     1       8.184  -8.358   5.496  1.00  0.00     0.064 N 
ATOM    105  O   UNL     1       7.581  -7.540   6.206  1.00  0.00    -0.258 OA
ATOM    106  O   UNL     1       8.968  -8.073   4.580  1.00  0.00    -0.258 OA
ENDBRANCH 100 104
ENDBRANCH  96  98
ENDBRANCH  94  96
ENDBRANCH  88  89
ENDBRANCH  81  83
ENDBRANCH  80  81
ENDBRANCH  79  80
ENDBRANCH  78  79
ENDBRANCH  77  78
ENDBRANCH  76  77
ENDBRANCH   1  76
TORSDOF 27
