REMARK SMILES COc1cccc([C@H]2CC(c3ccc(S(C)(=O)=O)cc3)=NN2c2ccc(C(=O)OCCOCCOCCOCCOC(=O)c3ccc(-c4c5nc(c(-c6cc(S(=O)(=O)[O-])ccc6F)c6ccc([nH]6)c(-c6cc(S(=O)(=O)[O-])ccc6F)c6nc(c(-c7cc(S(=O)(=O)[O-])ccc7F)c7ccc4[nH]7)C=C6)C=C5)cc3)cc2)c1
REMARK SMILES IDX 35 1 34 2 33 3 32 4 31 5 30 6 29 7 27 8 28 9 26 10 23 11
REMARK SMILES IDX 24 12 108 13 25 14 107 15 22 16 8 17 9 18 10 19 21 20 7 21
REMARK SMILES IDX 3 22 4 23 109 24 5 25 6 26 2 27 1 28 11 29 12 30 20 31 13 32
REMARK SMILES IDX 19 33 14 34 15 35 16 36 17 37 18 38 36 39 37 40 38 41 39 42
REMARK SMILES IDX 40 43 41 44 42 45 43 46 44 47 45 48 106 49 46 50 105 51
REMARK SMILES IDX 47 52 48 53 49 54 99 55 50 56 104 57 98 58 100 59 51 60
REMARK SMILES IDX 103 61 97 62 96 63 52 65 84 66 64 67 83 68 65 69 68 70 82 71
REMARK SMILES IDX 101 72 66 73 67 74 81 76 102 77 69 78 53 79 54 80 62 81
REMARK SMILES IDX 55 82 61 83 63 84 60 85 56 86 57 87 58 88 59 89 85 90 86 91
REMARK SMILES IDX 94 92 87 93 93 94 95 95 92 96 88 97 89 98 90 99 91 100
REMARK SMILES IDX 70 101 71 102 79 103 72 104 78 105 80 106 77 107 73 108
REMARK SMILES IDX 74 109 75 110 76 111
REMARK H PARENT 100 64 68 75
REMARK Flexibility Score: inf
ROOT
ATOM      1  O   UNL     1       5.900   3.576  -9.000  1.00  0.00    -0.377 OA
ENDROOT
BRANCH   1   2
ATOM      2  C   UNL     1       5.735   2.384  -8.249  1.00  0.00     0.188 C 
BRANCH   2   3
ATOM      3  C   UNL     1       4.696   1.348  -8.724  1.00  0.00     0.188 C 
BRANCH   3   4
ATOM      4  O   UNL     1       4.193   1.591 -10.026  1.00  0.00    -0.376 OA
BRANCH   4   5
ATOM      5  C   UNL     1       2.882   2.098 -10.186  1.00  0.00     0.202 C 
BRANCH   5   6
ATOM      6  C   UNL     1       2.477   3.412  -9.500  1.00  0.00     0.261 C 
BRANCH   6   7
ATOM      7  O   UNL     1       2.932   3.595  -8.156  1.00  0.00    -0.460 OA
BRANCH   7   8
ATOM      8  C   UNL     1       2.328   2.865  -7.195  1.00  0.00     0.338 C 
ATOM      9  O   UNL     1       1.423   2.063  -7.345  1.00  0.00    -0.246 OA
BRANCH   8  10
ATOM     10  C   UNL     1       3.094   3.047  -5.940  1.00  0.00     0.060 A 
ATOM     11  C   UNL     1       4.457   3.334  -3.505  1.00  0.00     0.060 A 
ATOM     12  C   UNL     1       4.120   2.061  -3.982  1.00  0.00     0.029 A 
ATOM     13  C   UNL     1       4.202   4.447  -4.320  1.00  0.00     0.029 A 
ATOM     14  C   UNL     1       3.408   1.918  -5.175  1.00  0.00     0.018 A 
ATOM     15  C   UNL     1       3.539   4.309  -5.540  1.00  0.00     0.018 A 
BRANCH  11  16
ATOM     16  N   UNL     1       4.878   3.513  -2.187  1.00  0.00    -0.257 N 
ATOM     17  C   UNL     1       4.024   4.226  -1.227  1.00  0.00     0.144 C 
ATOM     18  C   UNL     1       4.676   3.891   0.115  1.00  0.00     0.091 C 
ATOM     19  C   UNL     1       5.802   3.006  -0.347  1.00  0.00     0.071 C 
ATOM     20  N   UNL     1       5.861   2.766  -1.621  1.00  0.00    -0.176 NA
BRANCH  17  21
ATOM     21  C   UNL     1       2.559   3.805  -1.320  1.00  0.00    -0.019 A 
ATOM     22  C   UNL     1       0.813   2.101  -1.259  1.00  0.00     0.119 A 
ATOM     23  C   UNL     1      -0.107   3.031  -1.742  1.00  0.00     0.046 A 
ATOM     24  C   UNL     1       2.143   2.483  -1.061  1.00  0.00     0.052 A 
ATOM     25  C   UNL     1       0.285   4.343  -1.999  1.00  0.00     0.004 A 
ATOM     26  C   UNL     1       1.608   4.728  -1.787  1.00  0.00     0.006 A 
BRANCH  22  27
ATOM     27  O   UNL     1       0.323   0.835  -1.086  1.00  0.00    -0.497 OA
ATOM     28  C   UNL     1       0.935   0.077  -0.052  1.00  0.00     0.278 C 
ENDBRANCH  22  27
ENDBRANCH  17  21
BRANCH  19  29
ATOM     29  C   UNL     1       6.795   2.509   0.615  1.00  0.00    -0.002 A 
ATOM     30  C   UNL     1       8.146   2.795   0.388  1.00  0.00     0.011 A 
ATOM     31  C   UNL     1       6.395   1.809   1.756  1.00  0.00     0.011 A 
ATOM     32  C   UNL     1       9.107   2.390   1.317  1.00  0.00     0.021 A 
ATOM     33  C   UNL     1       7.357   1.379   2.673  1.00  0.00     0.021 A 
ATOM     34  C   UNL     1       8.707   1.672   2.448  1.00  0.00     0.067 A 
BRANCH  34  35
ATOM     35  S   UNL     1       9.935   1.155   3.627  1.00  0.00     0.175 S 
ATOM     36  C   UNL     1      11.015   0.093   2.705  1.00  0.00     0.163 C 
ATOM     37  O   UNL     1      10.674   2.341   4.013  1.00  0.00    -0.224 OA
ATOM     38  O   UNL     1       9.269   0.335   4.623  1.00  0.00    -0.224 OA
ENDBRANCH  34  35
ENDBRANCH  19  29
ENDBRANCH  11  16
ENDBRANCH   8  10
ENDBRANCH   7   8
ENDBRANCH   6   7
ENDBRANCH   5   6
ENDBRANCH   4   5
ENDBRANCH   3   4
ENDBRANCH   2   3
ENDBRANCH   1   2
BRANCH   1  39
ATOM     39  C   UNL     1       6.103   3.513 -10.410  1.00  0.00     0.188 C 
BRANCH  39  40
ATOM     40  C   UNL     1       6.624   2.235 -11.111  1.00  0.00     0.188 C 
BRANCH  40  41
ATOM     41  O   UNL     1       7.117   1.232 -10.237  1.00  0.00    -0.376 OA
BRANCH  41  42
ATOM     42  C   UNL     1       8.518   1.036 -10.195  1.00  0.00     0.202 C 
BRANCH  42  43
ATOM     43  C   UNL     1       9.358   2.202  -9.659  1.00  0.00     0.261 C 
BRANCH  43  44
ATOM     44  O   UNL     1       9.182   3.465 -10.319  1.00  0.00    -0.460 OA
BRANCH  44  45
ATOM     45  C   UNL     1       9.555   3.546 -11.615  1.00  0.00     0.338 C 
ATOM     46  O   UNL     1      10.037   2.655 -12.295  1.00  0.00    -0.246 OA
BRANCH  45  47
ATOM     47  C   UNL     1       9.102   4.858 -12.123  1.00  0.00     0.060 A 
ATOM     48  C   UNL     1       8.168   4.907 -13.167  1.00  0.00     0.016 A 
ATOM     49  C   UNL     1       9.581   6.036 -11.546  1.00  0.00     0.016 A 
ATOM     50  C   UNL     1       7.726   6.141 -13.650  1.00  0.00     0.010 A 
ATOM     51  C   UNL     1       9.156   7.268 -12.047  1.00  0.00     0.010 A 
ATOM     52  C   UNL     1       8.246   7.328 -13.118  1.00  0.00    -0.014 A 
BRANCH  52  53
ATOM     53  C   UNL     1       7.995   8.625 -13.794  1.00  0.00     0.031 A 
ATOM     54  C   UNL     1       9.054   9.158 -14.720  1.00  0.00     0.074 A 
ATOM     55  C   UNL     1       6.858   9.316 -13.595  1.00  0.00     0.049 A 
ATOM     56  N   UNL     1       9.118  10.306 -15.342  1.00  0.00    -0.248 NA
ATOM     57  C   UNL     1      10.202   8.272 -14.970  1.00  0.00     0.031 C 
ATOM     58  C   UNL     1       5.737   8.875 -12.768  1.00  0.00     0.029 A 
ATOM     59  N   UNL     1       6.467  10.545 -14.066  1.00  0.00    -0.354 N 
ATOM     60  C   UNL     1      10.314  10.286 -16.050  1.00  0.00     0.074 A 
ATOM     61  C   UNL     1      10.959   9.025 -15.751  1.00  0.00     0.031 C 
ATOM     62  C   UNL     1       4.788   9.829 -12.778  1.00  0.00     0.029 A 
ATOM     63  C   UNL     1       5.255  10.967 -13.569  1.00  0.00     0.049 A 
ATOM     64  H   UNL     1       7.003  11.075 -14.699  1.00  0.00     0.167 HD
ATOM     65  C   UNL     1      10.825  11.230 -16.878  1.00  0.00     0.034 A 
ATOM     66  C   UNL     1       4.619  12.149 -13.707  1.00  0.00     0.034 A 
ATOM     67  C   UNL     1      10.175  12.489 -17.151  1.00  0.00     0.049 A 
ATOM     68  C   UNL     1       5.261  13.233 -14.545  1.00  0.00     0.074 A 
ATOM     69  C   UNL     1      10.597  13.513 -17.981  1.00  0.00     0.029 A 
ATOM     70  N   UNL     1       8.976  12.905 -16.586  1.00  0.00    -0.354 N 
ATOM     71  N   UNL     1       6.391  13.204 -15.214  1.00  0.00    -0.248 NA
ATOM     72  C   UNL     1       4.539  14.509 -14.645  1.00  0.00     0.031 C 
ATOM     73  C   UNL     1       9.700  14.579 -17.851  1.00  0.00     0.029 A 
ATOM     74  C   UNL     1       8.667  14.187 -17.015  1.00  0.00     0.049 A 
ATOM     75  H   UNL     1       8.426  12.368 -15.971  1.00  0.00     0.167 HD
ATOM     76  C   UNL     1       6.497  14.446 -15.839  1.00  0.00     0.074 A 
ATOM     77  C   UNL     1       5.308  15.191 -15.480  1.00  0.00     0.031 C 
ATOM     78  C   UNL     1       7.484  14.926 -16.639  1.00  0.00     0.034 A 
BRANCH  65  79
ATOM     79  C   UNL     1      12.176  10.958 -17.493  1.00  0.00     0.023 A 
ATOM     80  C   UNL     1      12.387   9.887 -18.379  1.00  0.00     0.031 A 
ATOM     81  C   UNL     1      13.279  11.767 -17.166  1.00  0.00     0.131 A 
ATOM     82  C   UNL     1      13.680   9.612 -18.850  1.00  0.00     0.055 A 
ATOM     83  C   UNL     1      14.546  11.539 -17.704  1.00  0.00     0.041 A 
ATOM     84  F   UNL     1      13.146  12.787 -16.304  1.00  0.00    -0.206 F 
ATOM     85  C   UNL     1      14.756  10.447 -18.541  1.00  0.00     0.022 A 
BRANCH  82  86
ATOM     86  S   UNL     1      13.964   8.063 -19.750  1.00  0.00     0.124 S 
ATOM     87  O   UNL     1      13.521   7.069 -18.775  1.00  0.00    -0.237 OA
ATOM     88  O   UNL     1      13.120   8.223 -20.928  1.00  0.00    -0.237 OA
ATOM     89  O   UNL     1      15.403   8.074 -20.006  1.00  0.00    -0.744 OA
ENDBRANCH  82  86
ENDBRANCH  65  79
BRANCH  66  90
ATOM     90  C   UNL     1       3.329  12.406 -13.000  1.00  0.00     0.023 A 
ATOM     91  C   UNL     1       2.154  12.698 -13.711  1.00  0.00     0.031 A 
ATOM     92  C   UNL     1       3.270  12.436 -11.594  1.00  0.00     0.131 A 
ATOM     93  C   UNL     1       0.986  13.055 -13.018  1.00  0.00     0.055 A 
ATOM     94  C   UNL     1       2.089  12.730 -10.909  1.00  0.00     0.041 A 
ATOM     95  F   UNL     1       4.365  12.176 -10.861  1.00  0.00    -0.206 F 
ATOM     96  C   UNL     1       0.941  13.056 -11.622  1.00  0.00     0.022 A 
BRANCH  93  97
ATOM     97  S   UNL     1      -0.452  13.620 -13.971  1.00  0.00     0.124 S 
ATOM     98  O   UNL     1       0.102  14.760 -14.693  1.00  0.00    -0.237 OA
ATOM     99  O   UNL     1      -0.765  12.442 -14.773  1.00  0.00    -0.237 OA
ATOM    100  O   UNL     1      -1.434  13.949 -12.940  1.00  0.00    -0.744 OA
ENDBRANCH  93  97
ENDBRANCH  66  90
BRANCH  78 101
ATOM    101  C   UNL     1       7.295  16.311 -17.216  1.00  0.00     0.023 A 
ATOM    102  C   UNL     1       7.264  17.457 -16.403  1.00  0.00     0.031 A 
ATOM    103  C   UNL     1       7.140  16.484 -18.604  1.00  0.00     0.131 A 
ATOM    104  C   UNL     1       7.023  18.715 -16.976  1.00  0.00     0.055 A 
ATOM    105  C   UNL     1       6.971  17.746 -19.176  1.00  0.00     0.041 A 
ATOM    106  F   UNL     1       7.157  15.426 -19.432  1.00  0.00    -0.206 F 
ATOM    107  C   UNL     1       6.898  18.870 -18.359  1.00  0.00     0.022 A 
BRANCH 104 108
ATOM    108  S   UNL     1       6.772  20.138 -15.879  1.00  0.00     0.124 S 
ATOM    109  O   UNL     1       5.638  19.702 -15.071  1.00  0.00    -0.237 OA
ATOM    110  O   UNL     1       8.053  20.227 -15.184  1.00  0.00    -0.237 OA
ATOM    111  O   UNL     1       6.490  21.237 -16.801  1.00  0.00    -0.744 OA
ENDBRANCH 104 108
ENDBRANCH  78 101
ENDBRANCH  52  53
ENDBRANCH  45  47
ENDBRANCH  44  45
ENDBRANCH  43  44
ENDBRANCH  42  43
ENDBRANCH  41  42
ENDBRANCH  40  41
ENDBRANCH  39  40
ENDBRANCH   1  39
TORSDOF 28
