REMARK SMILES C[C@@H](Oc1ccc(-c2ccccc2)cc1)C(=O)N1CCC[C@H](C(=O)OCCOCCOCCOCCOC(=O)c2ccc(-c3c4nc(c(-c5cc(S(=O)(=O)[O-])ccc5F)c5ccc([nH]5)c(-c5cc(S(=O)(=O)[O-])ccc5F)c5nc(c(-c6cc(S(=O)(=O)[O-])ccc6F)c6ccc3[nH]6)C=C5)C=C4)cc2)C1
REMARK SMILES IDX 30 1 29 2 28 3 27 4 26 5 25 6 23 7 24 8 22 9 18 10 19 11
REMARK SMILES IDX 103 12 20 13 21 14 16 15 17 16 2 17 1 18 3 19 4 20 5 21
REMARK SMILES IDX 15 22 6 23 14 24 7 25 8 26 9 27 13 28 10 29 12 30 11 31
REMARK SMILES IDX 31 32 32 33 33 34 34 35 35 36 36 37 37 38 38 39 39 40 40 41
REMARK SMILES IDX 41 42 102 43 42 44 101 45 43 46 44 47 45 48 95 49 46 50
REMARK SMILES IDX 100 51 94 52 96 53 47 54 99 55 93 56 92 57 48 59 80 60 60 61
REMARK SMILES IDX 79 62 61 63 64 64 78 65 97 66 62 67 63 68 77 70 98 71 65 72
REMARK SMILES IDX 49 73 50 74 58 75 51 76 57 77 59 78 56 79 52 80 53 81 54 82
REMARK SMILES IDX 55 83 81 84 82 85 90 86 83 87 89 88 91 89 88 90 84 91 85 92
REMARK SMILES IDX 86 93 87 94 66 95 67 96 75 97 68 98 74 99 76 100 73 101
REMARK SMILES IDX 69 102 70 103 71 104 72 105
REMARK H PARENT 96 58 64 69
REMARK Flexibility Score: inf
ROOT
ATOM      1  C   UNL     1      -4.924   0.288   2.657  1.00  0.00     0.188 C 
ENDROOT
BRANCH   1   2
ATOM      2  C   UNL     1      -3.979   1.150   3.504  1.00  0.00     0.188 C 
BRANCH   2   3
ATOM      3  O   UNL     1      -3.687   2.490   3.152  1.00  0.00    -0.376 OA
BRANCH   3   4
ATOM      4  C   UNL     1      -3.347   2.842   1.817  1.00  0.00     0.202 C 
BRANCH   4   5
ATOM      5  C   UNL     1      -2.348   2.028   0.980  1.00  0.00     0.261 C 
BRANCH   5   6
ATOM      6  O   UNL     1      -2.598   0.616   0.855  1.00  0.00    -0.463 OA
BRANCH   6   7
ATOM      7  C   UNL     1      -1.795  -0.222   1.542  1.00  0.00     0.310 C 
ATOM      8  O   UNL     1      -0.917   0.149   2.318  1.00  0.00    -0.252 OA
BRANCH   7   9
ATOM      9  C   UNL     1      -1.976  -1.700   1.208  1.00  0.00     0.119 C 
ATOM     10  N   UNL     1      -1.321  -1.509  -1.133  1.00  0.00    -0.339 N 
ATOM     11  C   UNL     1      -2.572  -2.037  -1.659  1.00  0.00     0.119 C 
ATOM     12  C   UNL     1      -0.913  -2.043   0.169  1.00  0.00     0.134 C 
ATOM     13  C   UNL     1      -3.717  -1.825  -0.682  1.00  0.00     0.022 C 
ATOM     14  C   UNL     1      -3.321  -2.267   0.725  1.00  0.00     0.019 C 
BRANCH  10  15
ATOM     15  C   UNL     1      -0.704  -0.445  -1.786  1.00  0.00     0.263 C 
ATOM     16  O   UNL     1      -1.322   0.286  -2.562  1.00  0.00    -0.271 OA
BRANCH  15  17
ATOM     17  C   UNL     1       0.800  -0.228  -1.560  1.00  0.00     0.259 C 
ATOM     18  C   UNL     1       1.086   0.662  -0.354  1.00  0.00     0.064 C 
BRANCH  17  19
ATOM     19  O   UNL     1       1.337  -1.552  -1.436  1.00  0.00    -0.481 OA
BRANCH  19  20
ATOM     20  C   UNL     1       2.660  -1.655  -1.705  1.00  0.00     0.120 A 
ATOM     21  C   UNL     1       3.058  -2.174  -2.931  1.00  0.00     0.047 A 
ATOM     22  C   UNL     1       3.572  -1.437  -0.683  1.00  0.00     0.047 A 
ATOM     23  C   UNL     1       4.404  -2.471  -3.140  1.00  0.00     0.012 A 
ATOM     24  C   UNL     1       4.912  -1.721  -0.899  1.00  0.00     0.012 A 
ATOM     25  C   UNL     1       5.349  -2.260  -2.121  1.00  0.00    -0.018 A 
BRANCH  25  26
ATOM     26  C   UNL     1       6.759  -2.626  -2.289  1.00  0.00    -0.018 A 
ATOM     27  C   UNL     1       7.508  -2.161  -3.379  1.00  0.00     0.009 A 
ATOM     28  C   UNL     1       7.401  -3.430  -1.331  1.00  0.00     0.009 A 
ATOM     29  C   UNL     1       8.864  -2.474  -3.494  1.00  0.00     0.001 A 
ATOM     30  C   UNL     1       8.755  -3.741  -1.444  1.00  0.00     0.001 A 
ATOM     31  C   UNL     1       9.487  -3.258  -2.524  1.00  0.00     0.000 A 
ENDBRANCH  25  26
ENDBRANCH  19  20
ENDBRANCH  17  19
ENDBRANCH  15  17
ENDBRANCH  10  15
ENDBRANCH   7   9
ENDBRANCH   6   7
ENDBRANCH   5   6
ENDBRANCH   4   5
ENDBRANCH   3   4
ENDBRANCH   2   3
ENDBRANCH   1   2
BRANCH   1  32
ATOM     32  O   UNL     1      -5.130   0.725   1.332  1.00  0.00    -0.377 OA
BRANCH  32  33
ATOM     33  C   UNL     1      -6.296   1.489   1.048  1.00  0.00     0.188 C 
BRANCH  33  34
ATOM     34  C   UNL     1      -6.864   2.394   2.158  1.00  0.00     0.188 C 
BRANCH  34  35
ATOM     35  O   UNL     1      -7.044   1.740   3.408  1.00  0.00    -0.376 OA
BRANCH  35  36
ATOM     36  C   UNL     1      -8.315   1.170   3.691  1.00  0.00     0.202 C 
BRANCH  36  37
ATOM     37  C   UNL     1      -8.799   0.023   2.787  1.00  0.00     0.261 C 
BRANCH  37  38
ATOM     38  O   UNL     1      -9.054   0.351   1.410  1.00  0.00    -0.460 OA
BRANCH  38  39
ATOM     39  C   UNL     1      -9.864   1.394   1.135  1.00  0.00     0.338 C 
ATOM     40  O   UNL     1     -10.507   2.054   1.934  1.00  0.00    -0.246 OA
BRANCH  39  41
ATOM     41  C   UNL     1      -9.674   1.740  -0.288  1.00  0.00     0.060 A 
ATOM     42  C   UNL     1      -9.197   3.014  -0.622  1.00  0.00     0.016 A 
ATOM     43  C   UNL     1      -9.957   0.806  -1.287  1.00  0.00     0.016 A 
ATOM     44  C   UNL     1      -9.022   3.367  -1.960  1.00  0.00     0.010 A 
ATOM     45  C   UNL     1      -9.808   1.171  -2.628  1.00  0.00     0.010 A 
ATOM     46  C   UNL     1      -9.365   2.461  -2.971  1.00  0.00    -0.014 A 
BRANCH  46  47
ATOM     47  C   UNL     1      -9.454   2.917  -4.380  1.00  0.00     0.031 A 
ATOM     48  C   UNL     1     -10.807   3.294  -4.918  1.00  0.00     0.074 A 
ATOM     49  C   UNL     1      -8.364   2.995  -5.164  1.00  0.00     0.049 A 
ATOM     50  N   UNL     1     -11.162   3.608  -6.135  1.00  0.00    -0.248 NA
ATOM     51  C   UNL     1     -11.909   3.313  -3.943  1.00  0.00     0.031 C 
ATOM     52  C   UNL     1      -6.994   2.722  -4.735  1.00  0.00     0.029 A 
ATOM     53  N   UNL     1      -8.244   3.317  -6.493  1.00  0.00    -0.354 N 
ATOM     54  C   UNL     1     -12.530   3.851  -6.078  1.00  0.00     0.074 A 
ATOM     55  C   UNL     1     -12.943   3.616  -4.711  1.00  0.00     0.031 C 
ATOM     56  C   UNL     1      -6.171   2.870  -5.789  1.00  0.00     0.029 A 
ATOM     57  C   UNL     1      -6.961   3.197  -6.976  1.00  0.00     0.049 A 
ATOM     58  H   UNL     1      -9.004   3.606  -7.049  1.00  0.00     0.167 HD
ATOM     59  C   UNL     1     -13.362   4.237  -7.075  1.00  0.00     0.034 A 
ATOM     60  C   UNL     1      -6.490   3.298  -8.237  1.00  0.00     0.034 A 
ATOM     61  C   UNL     1     -12.933   4.449  -8.436  1.00  0.00     0.049 A 
ATOM     62  C   UNL     1      -7.458   3.611  -9.357  1.00  0.00     0.074 A 
ATOM     63  C   UNL     1     -13.689   4.848  -9.524  1.00  0.00     0.029 A 
ATOM     64  N   UNL     1     -11.637   4.261  -8.900  1.00  0.00    -0.354 N 
ATOM     65  N   UNL     1      -8.751   3.836  -9.296  1.00  0.00    -0.248 NA
ATOM     66  C   UNL     1      -6.903   3.681 -10.716  1.00  0.00     0.031 C 
ATOM     67  C   UNL     1     -12.872   4.817 -10.658  1.00  0.00     0.029 A 
ATOM     68  C   UNL     1     -11.583   4.492 -10.265  1.00  0.00     0.049 A 
ATOM     69  H   UNL     1     -10.870   4.001  -8.340  1.00  0.00     0.167 HD
ATOM     70  C   UNL     1      -9.154   4.108 -10.602  1.00  0.00     0.074 A 
ATOM     71  C   UNL     1      -7.966   4.029 -11.426  1.00  0.00     0.031 C 
ATOM     72  C   UNL     1     -10.391   4.403 -11.078  1.00  0.00     0.034 A 
BRANCH  59  73
ATOM     73  C   UNL     1     -14.826   4.389  -6.739  1.00  0.00     0.023 A 
ATOM     74  C   UNL     1     -15.282   5.347  -5.817  1.00  0.00     0.031 A 
ATOM     75  C   UNL     1     -15.778   3.538  -7.329  1.00  0.00     0.131 A 
ATOM     76  C   UNL     1     -16.638   5.384  -5.459  1.00  0.00     0.055 A 
ATOM     77  C   UNL     1     -17.139   3.638  -7.033  1.00  0.00     0.041 A 
ATOM     78  F   UNL     1     -15.400   2.585  -8.195  1.00  0.00    -0.206 F 
ATOM     79  C   UNL     1     -17.574   4.555  -6.082  1.00  0.00     0.022 A 
BRANCH  76  80
ATOM     80  S   UNL     1     -17.137   6.424  -4.060  1.00  0.00     0.124 S 
ATOM     81  O   UNL     1     -16.305   5.891  -2.984  1.00  0.00    -0.237 OA
ATOM     82  O   UNL     1     -16.798   7.764  -4.525  1.00  0.00    -0.237 OA
ATOM     83  O   UNL     1     -18.567   6.153  -3.923  1.00  0.00    -0.744 OA
ENDBRANCH  76  80
ENDBRANCH  59  73
BRANCH  60  84
ATOM     84  C   UNL     1      -5.049   3.044  -8.532  1.00  0.00     0.023 A 
ATOM     85  C   UNL     1      -4.235   4.041  -9.094  1.00  0.00     0.031 A 
ATOM     86  C   UNL     1      -4.479   1.775  -8.318  1.00  0.00     0.131 A 
ATOM     87  C   UNL     1      -2.914   3.740  -9.467  1.00  0.00     0.055 A 
ATOM     88  C   UNL     1      -3.147   1.499  -8.631  1.00  0.00     0.041 A 
ATOM     89  F   UNL     1      -5.215   0.779  -7.798  1.00  0.00    -0.206 F 
ATOM     90  C   UNL     1      -2.360   2.481  -9.223  1.00  0.00     0.022 A 
BRANCH  87  91
ATOM     91  S   UNL     1      -1.962   4.988 -10.376  1.00  0.00     0.124 S 
ATOM     92  O   UNL     1      -2.807   5.211 -11.545  1.00  0.00    -0.237 OA
ATOM     93  O   UNL     1      -1.898   6.083  -9.414  1.00  0.00    -0.237 OA
ATOM     94  O   UNL     1      -0.691   4.320 -10.644  1.00  0.00    -0.744 OA
ENDBRANCH  87  91
ENDBRANCH  60  84
BRANCH  72  95
ATOM     95  C   UNL     1     -10.516   4.714 -12.551  1.00  0.00     0.023 A 
ATOM     96  C   UNL     1     -10.295   3.741 -13.540  1.00  0.00     0.031 A 
ATOM     97  C   UNL     1     -10.881   6.008 -12.968  1.00  0.00     0.131 A 
ATOM     98  C   UNL     1     -10.397   4.087 -14.897  1.00  0.00     0.055 A 
ATOM     99  C   UNL     1     -11.043   6.329 -14.316  1.00  0.00     0.041 A 
ATOM    100  F   UNL     1     -11.101   6.980 -12.068  1.00  0.00    -0.206 F 
ATOM    101  C   UNL     1     -10.790   5.369 -15.290  1.00  0.00     0.022 A 
BRANCH  98 102
ATOM    102  S   UNL     1      -9.928   2.861 -16.149  1.00  0.00     0.124 S 
ATOM    103  O   UNL     1      -8.537   2.590 -15.802  1.00  0.00    -0.237 OA
ATOM    104  O   UNL     1     -10.872   1.777 -15.895  1.00  0.00    -0.237 OA
ATOM    105  O   UNL     1     -10.125   3.568 -17.413  1.00  0.00    -0.744 OA
ENDBRANCH  98 102
ENDBRANCH  72  95
ENDBRANCH  46  47
ENDBRANCH  39  41
ENDBRANCH  38  39
ENDBRANCH  37  38
ENDBRANCH  36  37
ENDBRANCH  35  36
ENDBRANCH  34  35
ENDBRANCH  33  34
ENDBRANCH  32  33
ENDBRANCH   1  32
TORSDOF 28
