REMARK SMILES Cc1ccccc1S(=O)(=O)Nc1ccc(N2CCOCC2)cc1C(=O)OCCOCCOCCOCCOC(=O)c1ccc(-c2c3nc(c(-c4cc(S(=O)(=O)[O-])ccc4F)c4ccc([nH]4)c(-c4cc(S(=O)(=O)[O-])ccc4F)c4nc(c(-c5cc(S(=O)(=O)[O-])ccc5F)c5ccc2[nH]5)C=C4)C=C3)cc1
REMARK SMILES IDX 32 1 31 2 30 3 29 4 28 5 27 6 26 7 24 8 25 9 23 10 12 11
REMARK SMILES IDX 13 12 14 13 22 14 15 15 11 16 8 18 9 19 10 20 7 21 1 22 2 23
REMARK SMILES IDX 3 24 4 25 6 26 5 27 16 28 17 29 21 30 18 31 20 32 19 33
REMARK SMILES IDX 33 34 34 35 35 36 36 37 37 38 38 39 39 40 40 41 41 42 42 43
REMARK SMILES IDX 103 44 43 45 102 46 44 47 45 48 46 49 96 50 47 51 101 52
REMARK SMILES IDX 95 53 97 54 48 55 100 56 94 57 93 58 49 60 81 61 61 62 80 63
REMARK SMILES IDX 62 64 65 65 79 66 98 67 63 68 64 69 78 71 99 72 66 73 50 74
REMARK SMILES IDX 51 75 59 76 52 77 58 78 60 79 57 80 53 81 54 82 55 83 56 84
REMARK SMILES IDX 82 85 83 86 91 87 84 88 90 89 92 90 89 91 85 92 86 93 87 94
REMARK SMILES IDX 88 95 67 96 68 97 76 98 69 99 75 100 77 101 74 102 70 103
REMARK SMILES IDX 71 104 72 105 73 106
REMARK H PARENT 11 17 97 59 65 70
REMARK Flexibility Score: inf
ROOT
ATOM      1  O   UNL     1      -0.480  -1.525  -0.683  1.00  0.00    -0.377 OA
ENDROOT
BRANCH   1   2
ATOM      2  C   UNL     1       0.308  -0.656   0.100  1.00  0.00     0.188 C 
BRANCH   2   3
ATOM      3  C   UNL     1       1.075   0.462  -0.597  1.00  0.00     0.188 C 
BRANCH   3   4
ATOM      4  O   UNL     1       0.264   1.418  -1.268  1.00  0.00    -0.376 OA
BRANCH   4   5
ATOM      5  C   UNL     1       0.944   2.641  -1.585  1.00  0.00     0.202 C 
BRANCH   5   6
ATOM      6  C   UNL     1       2.218   2.593  -2.428  1.00  0.00     0.261 C 
BRANCH   6   7
ATOM      7  O   UNL     1       3.160   1.606  -2.025  1.00  0.00    -0.460 OA
BRANCH   7   8
ATOM      8  C   UNL     1       4.236   2.119  -1.445  1.00  0.00     0.340 C 
ATOM      9  O   UNL     1       4.520   3.318  -1.335  1.00  0.00    -0.246 OA
BRANCH   8  10
ATOM     10  C   UNL     1       4.811   1.123  -0.552  1.00  0.00     0.086 A 
ATOM     11  C   UNL     1       4.876   1.515   0.794  1.00  0.00     0.064 A 
ATOM     12  C   UNL     1       5.720   0.811   1.621  1.00  0.00     0.030 A 
ATOM     13  C   UNL     1       6.161  -0.460   1.198  1.00  0.00     0.028 A 
ATOM     14  C   UNL     1       5.159  -0.180  -0.951  1.00  0.00     0.043 A 
ATOM     15  C   UNL     1       5.710  -1.056  -0.007  1.00  0.00     0.038 A 
BRANCH  11  16
ATOM     16  N   UNL     1       3.962   2.518   1.243  1.00  0.00    -0.279 N 
ATOM     17  H   UNL     1       4.036   3.373   0.761  1.00  0.00     0.180 HD
BRANCH  16  18
ATOM     18  S   UNL     1       2.790   2.508   2.436  1.00  0.00     0.262 S 
ATOM     19  O   UNL     1       1.863   3.507   1.919  1.00  0.00    -0.201 OA
ATOM     20  O   UNL     1       3.446   2.757   3.703  1.00  0.00    -0.201 OA
BRANCH  18  21
ATOM     21  C   UNL     1       1.732   1.057   2.726  1.00  0.00     0.090 A 
ATOM     22  C   UNL     1       3.270  -0.865   2.048  1.00  0.00     0.046 C 
ATOM     23  C   UNL     1       2.083  -0.302   2.714  1.00  0.00    -0.031 A 
ATOM     24  C   UNL     1       1.195  -1.299   3.185  1.00  0.00     0.005 A 
ATOM     25  C   UNL     1      -0.087  -0.982   3.578  1.00  0.00     0.000 A 
ATOM     26  C   UNL     1       0.409   1.351   3.118  1.00  0.00     0.022 A 
ATOM     27  C   UNL     1      -0.480   0.346   3.537  1.00  0.00     0.001 A 
ENDBRANCH  18  21
ENDBRANCH  16  18
ENDBRANCH  11  16
BRANCH  15  28
ATOM     28  N   UNL     1       5.642  -2.441  -0.143  1.00  0.00    -0.367 N 
ATOM     29  C   UNL     1       5.836  -3.126  -1.438  1.00  0.00     0.145 C 
ATOM     30  C   UNL     1       5.681  -3.311   1.054  1.00  0.00     0.145 C 
ATOM     31  C   UNL     1       5.174  -4.521  -1.478  1.00  0.00     0.181 C 
ATOM     32  C   UNL     1       4.992  -4.666   0.832  1.00  0.00     0.181 C 
ATOM     33  O   UNL     1       5.518  -5.314  -0.331  1.00  0.00    -0.378 OA
ENDBRANCH  15  28
ENDBRANCH   8  10
ENDBRANCH   7   8
ENDBRANCH   6   7
ENDBRANCH   5   6
ENDBRANCH   4   5
ENDBRANCH   3   4
ENDBRANCH   2   3
ENDBRANCH   1   2
BRANCH   1  34
ATOM     34  C   UNL     1      -1.849  -1.178  -0.732  1.00  0.00     0.188 C 
BRANCH  34  35
ATOM     35  C   UNL     1      -2.600  -0.977   0.582  1.00  0.00     0.188 C 
BRANCH  35  36
ATOM     36  O   UNL     1      -2.735   0.438   0.778  1.00  0.00    -0.376 OA
BRANCH  36  37
ATOM     37  C   UNL     1      -3.665   0.892   1.749  1.00  0.00     0.202 C 
BRANCH  37  38
ATOM     38  C   UNL     1      -5.077   0.301   1.665  1.00  0.00     0.261 C 
BRANCH  38  39
ATOM     39  O   UNL     1      -5.737   0.809   0.488  1.00  0.00    -0.460 OA
BRANCH  39  40
ATOM     40  C   UNL     1      -5.874  -0.082  -0.530  1.00  0.00     0.338 C 
ATOM     41  O   UNL     1      -6.541  -1.101  -0.474  1.00  0.00    -0.246 OA
BRANCH  40  42
ATOM     42  C   UNL     1      -5.019   0.315  -1.689  1.00  0.00     0.060 A 
ATOM     43  C   UNL     1      -4.840  -0.564  -2.771  1.00  0.00     0.016 A 
ATOM     44  C   UNL     1      -4.215   1.447  -1.591  1.00  0.00     0.016 A 
ATOM     45  C   UNL     1      -3.791  -0.365  -3.691  1.00  0.00     0.010 A 
ATOM     46  C   UNL     1      -3.129   1.581  -2.439  1.00  0.00     0.010 A 
ATOM     47  C   UNL     1      -2.887   0.685  -3.500  1.00  0.00    -0.014 A 
BRANCH  47  48
ATOM     48  C   UNL     1      -1.555   0.815  -4.147  1.00  0.00     0.031 A 
ATOM     49  C   UNL     1      -1.043   2.195  -4.552  1.00  0.00     0.074 A 
ATOM     50  C   UNL     1      -0.683  -0.214  -3.983  1.00  0.00     0.049 A 
ATOM     51  N   UNL     1       0.131   2.503  -5.016  1.00  0.00    -0.248 NA
ATOM     52  C   UNL     1      -1.897   3.381  -4.490  1.00  0.00     0.031 C 
ATOM     53  C   UNL     1       0.724  -0.025  -3.741  1.00  0.00     0.029 A 
ATOM     54  N   UNL     1      -0.820  -1.582  -3.773  1.00  0.00    -0.354 N 
ATOM     55  C   UNL     1       0.293   3.892  -5.001  1.00  0.00     0.074 A 
ATOM     56  C   UNL     1      -1.044   4.374  -4.764  1.00  0.00     0.031 C 
ATOM     57  C   UNL     1       1.352  -1.147  -3.399  1.00  0.00     0.029 A 
ATOM     58  C   UNL     1       0.464  -2.189  -3.757  1.00  0.00     0.049 A 
ATOM     59  H   UNL     1      -1.674  -2.056  -3.653  1.00  0.00     0.167 HD
ATOM     60  C   UNL     1       1.544   4.476  -5.068  1.00  0.00     0.034 A 
ATOM     61  C   UNL     1       0.824  -3.102  -4.696  1.00  0.00     0.034 A 
ATOM     62  C   UNL     1       2.631   3.487  -5.371  1.00  0.00     0.049 A 
ATOM     63  C   UNL     1       1.661  -2.434  -5.829  1.00  0.00     0.074 A 
ATOM     64  C   UNL     1       3.949   3.282  -4.968  1.00  0.00     0.029 A 
ATOM     65  N   UNL     1       2.333   2.347  -6.123  1.00  0.00    -0.354 N 
ATOM     66  N   UNL     1       2.265  -1.257  -5.731  1.00  0.00    -0.248 NA
ATOM     67  C   UNL     1       1.872  -2.997  -7.159  1.00  0.00     0.031 C 
ATOM     68  C   UNL     1       4.389   2.003  -5.439  1.00  0.00     0.029 A 
ATOM     69  C   UNL     1       3.370   1.443  -6.185  1.00  0.00     0.049 A 
ATOM     70  H   UNL     1       1.465   2.204  -6.565  1.00  0.00     0.167 HD
ATOM     71  C   UNL     1       2.768  -0.840  -6.941  1.00  0.00     0.074 A 
ATOM     72  C   UNL     1       2.523  -1.999  -7.794  1.00  0.00     0.031 C 
ATOM     73  C   UNL     1       3.309   0.404  -7.203  1.00  0.00     0.034 A 
BRANCH  60  74
ATOM     74  C   UNL     1       1.888   5.953  -4.658  1.00  0.00     0.023 A 
ATOM     75  C   UNL     1       3.233   6.406  -4.718  1.00  0.00     0.031 A 
ATOM     76  C   UNL     1       1.012   6.918  -4.103  1.00  0.00     0.131 A 
ATOM     77  C   UNL     1       3.659   7.649  -4.182  1.00  0.00     0.055 A 
ATOM     78  C   UNL     1       1.419   8.191  -3.646  1.00  0.00     0.041 A 
ATOM     79  F   UNL     1      -0.292   6.701  -3.928  1.00  0.00    -0.206 F 
ATOM     80  C   UNL     1       2.751   8.556  -3.659  1.00  0.00     0.022 A 
BRANCH  77  81
ATOM     81  S   UNL     1       5.431   8.068  -4.144  1.00  0.00     0.124 S 
ATOM     82  O   UNL     1       5.921   7.223  -3.060  1.00  0.00    -0.237 OA
ATOM     83  O   UNL     1       5.871   7.714  -5.488  1.00  0.00    -0.237 OA
ATOM     84  O   UNL     1       5.434   9.502  -3.856  1.00  0.00    -0.744 OA
ENDBRANCH  77  81
ENDBRANCH  60  74
BRANCH  61  85
ATOM     85  C   UNL     1      -0.153  -4.245  -4.511  1.00  0.00     0.023 A 
ATOM     86  C   UNL     1      -0.034  -4.851  -3.211  1.00  0.00     0.031 A 
ATOM     87  C   UNL     1      -1.461  -4.119  -5.021  1.00  0.00     0.131 A 
ATOM     88  C   UNL     1      -1.161  -4.984  -2.371  1.00  0.00     0.055 A 
ATOM     89  C   UNL     1      -2.587  -4.314  -4.192  1.00  0.00     0.041 A 
ATOM     90  F   UNL     1      -1.665  -3.563  -6.225  1.00  0.00    -0.206 F 
ATOM     91  C   UNL     1      -2.437  -4.684  -2.852  1.00  0.00     0.022 A 
BRANCH  88  92
ATOM     92  S   UNL     1      -0.953  -5.217  -0.558  1.00  0.00     0.124 S 
ATOM     93  O   UNL     1      -1.188  -6.650  -0.411  1.00  0.00    -0.237 OA
ATOM     94  O   UNL     1       0.417  -4.783  -0.302  1.00  0.00    -0.237 OA
ATOM     95  O   UNL     1      -1.995  -4.362   0.014  1.00  0.00    -0.744 OA
ENDBRANCH  88  92
ENDBRANCH  61  85
BRANCH  73  96
ATOM     96  C   UNL     1       3.828   0.848  -8.559  1.00  0.00     0.023 A 
ATOM     97  C   UNL     1       4.472  -0.044  -9.409  1.00  0.00     0.031 A 
ATOM     98  C   UNL     1       3.751   2.195  -9.018  1.00  0.00     0.131 A 
ATOM     99  C   UNL     1       4.822   0.345 -10.709  1.00  0.00     0.055 A 
ATOM    100  C   UNL     1       4.218   2.607 -10.266  1.00  0.00     0.041 A 
ATOM    101  F   UNL     1       3.187   3.175  -8.299  1.00  0.00    -0.206 F 
ATOM    102  C   UNL     1       4.718   1.665 -11.144  1.00  0.00     0.022 A 
BRANCH  99 103
ATOM    103  S   UNL     1       5.240  -0.972 -11.866  1.00  0.00     0.124 S 
ATOM    104  O   UNL     1       6.400  -1.590 -11.232  1.00  0.00    -0.237 OA
ATOM    105  O   UNL     1       4.014  -1.767 -11.855  1.00  0.00    -0.237 OA
ATOM    106  O   UNL     1       5.509  -0.263 -13.114  1.00  0.00    -0.744 OA
ENDBRANCH  99 103
ENDBRANCH  73  96
ENDBRANCH  47  48
ENDBRANCH  40  42
ENDBRANCH  39  40
ENDBRANCH  38  39
ENDBRANCH  37  38
ENDBRANCH  36  37
ENDBRANCH  35  36
ENDBRANCH  34  35
ENDBRANCH   1  34
TORSDOF 27
