REMARK SMILES O=C(CCCN1C(=O)/C(=C\c2ccc(O)c(O)c2)SC1=S)OCCOCCOCCOCCOC(=O)c1ccc(-c2c3nc(c(-c4cc(S(=O)(=O)[O-])ccc4F)c4ccc([nH]4)c(-c4cc(S(=O)(=O)[O-])ccc4F)c4nc(c(-c5cc(S(=O)(=O)[O-])ccc5F)c5ccc2[nH]5)C=C4)C=C3)cc1
REMARK SMILES IDX 27 1 26 2 25 3 24 4 23 5 22 6 2 7 1 8 3 9 4 10 5 11 6 12
REMARK SMILES IDX 7 13 20 14 8 15 9 16 19 17 21 18 10 19 11 20 12 21 18 22
REMARK SMILES IDX 13 23 16 24 14 25 17 26 15 28 28 30 29 31 30 32 31 33 32 34
REMARK SMILES IDX 33 35 34 36 35 37 36 38 37 39 38 40 99 41 39 42 98 43 40 44
REMARK SMILES IDX 41 45 42 46 92 47 43 48 97 49 91 50 93 51 44 52 96 53 90 54
REMARK SMILES IDX 89 55 45 57 77 58 57 59 76 60 58 61 61 62 75 63 94 64 59 65
REMARK SMILES IDX 60 66 74 68 95 69 62 70 46 71 47 72 55 73 48 74 54 75 56 76
REMARK SMILES IDX 53 77 49 78 50 79 51 80 52 81 78 82 79 83 87 84 80 85 86 86
REMARK SMILES IDX 88 87 85 88 81 89 82 90 83 91 84 92 63 93 64 94 72 95 65 96
REMARK SMILES IDX 71 97 73 98 70 99 66 100 67 101 68 102 69 103
REMARK H PARENT 17 27 15 29 93 56 61 67
REMARK Flexibility Score: inf
ROOT
ATOM      1  C   UNL     1       1.735   0.685  -2.442  1.00  0.00     0.188 C 
ENDROOT
BRANCH   1   2
ATOM      2  C   UNL     1       2.532   0.971  -1.170  1.00  0.00     0.188 C 
BRANCH   2   3
ATOM      3  O   UNL     1       3.709   0.181  -0.937  1.00  0.00    -0.376 OA
BRANCH   3   4
ATOM      4  C   UNL     1       3.611  -1.228  -1.121  1.00  0.00     0.202 C 
BRANCH   4   5
ATOM      5  C   UNL     1       3.731  -2.022   0.168  1.00  0.00     0.261 C 
BRANCH   5   6
ATOM      6  O   UNL     1       2.609  -1.876   1.048  1.00  0.00    -0.463 OA
BRANCH   6   7
ATOM      7  C   UNL     1       2.274  -0.753   1.705  1.00  0.00     0.305 C 
ATOM      8  O   UNL     1       1.086  -0.547   1.959  1.00  0.00    -0.252 OA
BRANCH   7   9
ATOM      9  C   UNL     1       3.320   0.266   2.103  1.00  0.00     0.124 C 
BRANCH   9  10
ATOM     10  C   UNL     1       4.454  -0.154   3.031  1.00  0.00     0.034 C 
BRANCH  10  11
ATOM     11  C   UNL     1       5.844  -0.465   2.437  1.00  0.00     0.128 C 
BRANCH  11  12
ATOM     12  N   UNL     1       6.352   0.315   1.295  1.00  0.00    -0.293 N 
ATOM     13  C   UNL     1       6.168   1.688   1.239  1.00  0.00     0.266 C 
ATOM     14  C   UNL     1       7.231  -0.204   0.359  1.00  0.00     0.148 C 
ATOM     15  O   UNL     1       5.594   2.341   2.100  1.00  0.00    -0.268 OA
ATOM     16  C   UNL     1       6.839   2.276   0.037  1.00  0.00     0.081 C 
ATOM     17  S   UNL     1       7.753   1.047  -0.757  1.00  0.00    -0.054 SA
ATOM     18  S   UNL     1       7.815  -1.763   0.236  1.00  0.00    -0.052 S 
ATOM     19  C   UNL     1       6.782   3.528  -0.448  1.00  0.00     0.029 C 
BRANCH  19  20
ATOM     20  C   UNL     1       5.972   4.634   0.073  1.00  0.00    -0.020 A 
ATOM     21  C   UNL     1       6.057   5.053   1.407  1.00  0.00     0.012 A 
ATOM     22  C   UNL     1       5.085   5.287  -0.793  1.00  0.00     0.058 A 
ATOM     23  C   UNL     1       5.186   6.023   1.910  1.00  0.00     0.051 A 
ATOM     24  C   UNL     1       4.232   6.261  -0.292  1.00  0.00     0.157 A 
ATOM     25  C   UNL     1       4.261   6.606   1.055  1.00  0.00     0.157 A 
BRANCH  24  26
ATOM     26  O   UNL     1       3.335   6.862  -1.129  1.00  0.00    -0.504 OA
ATOM     27  H   UNL     1       2.756   7.521  -0.800  1.00  0.00     0.293 HD
ENDBRANCH  24  26
BRANCH  25  28
ATOM     28  O   UNL     1       3.346   7.519   1.503  1.00  0.00    -0.504 OA
ATOM     29  H   UNL     1       3.340   7.772   2.405  1.00  0.00     0.293 HD
ENDBRANCH  25  28
ENDBRANCH  19  20
ENDBRANCH  11  12
ENDBRANCH  10  11
ENDBRANCH   9  10
ENDBRANCH   7   9
ENDBRANCH   6   7
ENDBRANCH   5   6
ENDBRANCH   4   5
ENDBRANCH   3   4
ENDBRANCH   2   3
ENDBRANCH   1   2
BRANCH   1  30
ATOM     30  O   UNL     1       2.346   1.030  -3.671  1.00  0.00    -0.377 OA
BRANCH  30  31
ATOM     31  C   UNL     1       3.706   0.697  -3.862  1.00  0.00     0.188 C 
BRANCH  31  32
ATOM     32  C   UNL     1       4.728   1.770  -3.438  1.00  0.00     0.188 C 
BRANCH  32  33
ATOM     33  O   UNL     1       4.453   3.167  -3.487  1.00  0.00    -0.376 OA
BRANCH  33  34
ATOM     34  C   UNL     1       3.263   3.657  -4.079  1.00  0.00     0.202 C 
BRANCH  34  35
ATOM     35  C   UNL     1       3.234   3.690  -5.612  1.00  0.00     0.261 C 
BRANCH  35  36
ATOM     36  O   UNL     1       3.631   2.464  -6.242  1.00  0.00    -0.460 OA
BRANCH  36  37
ATOM     37  C   UNL     1       4.924   2.396  -6.654  1.00  0.00     0.338 C 
ATOM     38  O   UNL     1       5.749   3.295  -6.623  1.00  0.00    -0.246 OA
BRANCH  37  39
ATOM     39  C   UNL     1       5.258   0.986  -6.978  1.00  0.00     0.060 A 
ATOM     40  C   UNL     1       6.455   0.457  -6.474  1.00  0.00     0.016 A 
ATOM     41  C   UNL     1       4.381   0.164  -7.694  1.00  0.00     0.016 A 
ATOM     42  C   UNL     1       6.780  -0.886  -6.686  1.00  0.00     0.010 A 
ATOM     43  C   UNL     1       4.718  -1.175  -7.926  1.00  0.00     0.010 A 
ATOM     44  C   UNL     1       5.926  -1.704  -7.437  1.00  0.00    -0.014 A 
BRANCH  44  45
ATOM     45  C   UNL     1       6.373  -3.050  -7.882  1.00  0.00     0.031 A 
ATOM     46  C   UNL     1       7.045  -3.159  -9.225  1.00  0.00     0.074 A 
ATOM     47  C   UNL     1       6.173  -4.151  -7.133  1.00  0.00     0.049 A 
ATOM     48  N   UNL     1       7.425  -4.223  -9.880  1.00  0.00    -0.248 NA
ATOM     49  C   UNL     1       7.318  -1.890  -9.921  1.00  0.00     0.031 C 
ATOM     50  C   UNL     1       5.581  -4.170  -5.797  1.00  0.00     0.029 A 
ATOM     51  N   UNL     1       6.430  -5.474  -7.404  1.00  0.00    -0.354 N 
ATOM     52  C   UNL     1       7.974  -3.757 -11.070  1.00  0.00     0.074 A 
ATOM     53  C   UNL     1       7.862  -2.314 -11.052  1.00  0.00     0.031 C 
ATOM     54  C   UNL     1       5.494  -5.446  -5.376  1.00  0.00     0.029 A 
ATOM     55  C   UNL     1       5.981  -6.338  -6.428  1.00  0.00     0.049 A 
ATOM     56  H   UNL     1       6.891  -5.777  -8.219  1.00  0.00     0.167 HD
ATOM     57  C   UNL     1       8.518  -4.467 -12.086  1.00  0.00     0.034 A 
ATOM     58  C   UNL     1       5.932  -7.688  -6.410  1.00  0.00     0.034 A 
ATOM     59  C   UNL     1       8.612  -5.904 -12.102  1.00  0.00     0.049 A 
ATOM     60  C   UNL     1       6.450  -8.458  -7.607  1.00  0.00     0.074 A 
ATOM     61  C   UNL     1       9.181  -6.716 -13.066  1.00  0.00     0.029 A 
ATOM     62  N   UNL     1       8.105  -6.744 -11.121  1.00  0.00    -0.354 N 
ATOM     63  N   UNL     1       7.001  -8.003  -8.710  1.00  0.00    -0.248 NA
ATOM     64  C   UNL     1       6.336  -9.924  -7.560  1.00  0.00     0.031 C 
ATOM     65  C   UNL     1       8.947  -8.048 -12.709  1.00  0.00     0.029 A 
ATOM     66  C   UNL     1       8.302  -8.067 -11.482  1.00  0.00     0.049 A 
ATOM     67  H   UNL     1       7.669  -6.444 -10.291  1.00  0.00     0.167 HD
ATOM     68  C   UNL     1       7.318  -9.129  -9.470  1.00  0.00     0.074 A 
ATOM     69  C   UNL     1       6.920 -10.282  -8.693  1.00  0.00     0.031 C 
ATOM     70  C   UNL     1       7.888  -9.206 -10.700  1.00  0.00     0.034 A 
BRANCH  57  71
ATOM     71  C   UNL     1       8.997  -3.703 -13.292  1.00  0.00     0.023 A 
ATOM     72  C   UNL     1      10.109  -2.846 -13.235  1.00  0.00     0.031 A 
ATOM     73  C   UNL     1       8.326  -3.840 -14.520  1.00  0.00     0.131 A 
ATOM     74  C   UNL     1      10.492  -2.126 -14.376  1.00  0.00     0.055 A 
ATOM     75  C   UNL     1       8.752  -3.170 -15.668  1.00  0.00     0.041 A 
ATOM     76  F   UNL     1       7.243  -4.626 -14.622  1.00  0.00    -0.206 F 
ATOM     77  C   UNL     1       9.836  -2.301 -15.598  1.00  0.00     0.022 A 
BRANCH  74  78
ATOM     78  S   UNL     1      11.802  -0.881 -14.220  1.00  0.00     0.124 S 
ATOM     79  O   UNL     1      11.217   0.043 -13.251  1.00  0.00    -0.237 OA
ATOM     80  O   UNL     1      12.933  -1.671 -13.748  1.00  0.00    -0.237 OA
ATOM     81  O   UNL     1      11.934  -0.351 -15.576  1.00  0.00    -0.744 OA
ENDBRANCH  74  78
ENDBRANCH  57  71
BRANCH  58  82
ATOM     82  C   UNL     1       5.299  -8.423  -5.271  1.00  0.00     0.023 A 
ATOM     83  C   UNL     1       6.022  -9.361  -4.516  1.00  0.00     0.031 A 
ATOM     84  C   UNL     1       3.926  -8.282  -4.997  1.00  0.00     0.131 A 
ATOM     85  C   UNL     1       5.359 -10.166  -3.575  1.00  0.00     0.055 A 
ATOM     86  C   UNL     1       3.284  -9.040  -4.016  1.00  0.00     0.041 A 
ATOM     87  F   UNL     1       3.180  -7.408  -5.692  1.00  0.00    -0.206 F 
ATOM     88  C   UNL     1       3.998 -10.003  -3.311  1.00  0.00     0.022 A 
BRANCH  85  89
ATOM     89  S   UNL     1       6.276 -11.523  -2.790  1.00  0.00     0.124 S 
ATOM     90  O   UNL     1       6.752 -12.268  -3.950  1.00  0.00    -0.237 OA
ATOM     91  O   UNL     1       7.290 -10.801  -2.030  1.00  0.00    -0.237 OA
ATOM     92  O   UNL     1       5.260 -12.200  -1.987  1.00  0.00    -0.744 OA
ENDBRANCH  85  89
ENDBRANCH  58  82
BRANCH  70  93
ATOM     93  C   UNL     1       8.142 -10.584 -11.262  1.00  0.00     0.023 A 
ATOM     94  C   UNL     1       7.087 -11.435 -11.634  1.00  0.00     0.031 A 
ATOM     95  C   UNL     1       9.459 -11.047 -11.436  1.00  0.00     0.131 A 
ATOM     96  C   UNL     1       7.365 -12.722 -12.119  1.00  0.00     0.055 A 
ATOM     97  C   UNL     1       9.730 -12.305 -11.974  1.00  0.00     0.041 A 
ATOM     98  F   UNL     1      10.505 -10.276 -11.097  1.00  0.00    -0.206 F 
ATOM     99  C   UNL     1       8.680 -13.155 -12.309  1.00  0.00     0.022 A 
BRANCH  96 100
ATOM    100  S   UNL     1       5.983 -13.854 -12.433  1.00  0.00     0.124 S 
ATOM    101  O   UNL     1       5.371 -13.959 -11.113  1.00  0.00    -0.237 OA
ATOM    102  O   UNL     1       5.210 -13.133 -13.439  1.00  0.00    -0.237 OA
ATOM    103  O   UNL     1       6.638 -15.071 -12.912  1.00  0.00    -0.744 OA
ENDBRANCH  96 100
ENDBRANCH  70  93
ENDBRANCH  44  45
ENDBRANCH  37  39
ENDBRANCH  36  37
ENDBRANCH  35  36
ENDBRANCH  34  35
ENDBRANCH  33  34
ENDBRANCH  32  33
ENDBRANCH  31  32
ENDBRANCH  30  31
ENDBRANCH   1  30
TORSDOF 29
