REMARK SMILES O=C(OCCOCCOCCOCCOC(=O)c1cccnc1Nc1cccc(C(F)(F)F)c1)c1ccc(-c2c3nc(c(-c4cc(S(=O)(=O)[O-])ccc4F)c4ccc([nH]4)c(-c4cc(S(=O)(=O)[O-])ccc4F)c4nc(c(-c5cc(S(=O)(=O)[O-])ccc5F)c5ccc2[nH]5)C=C4)C=C3)cc1
REMARK SMILES IDX 9 1 8 2 7 3 6 4 5 5 4 6 3 7 2 8 1 9 35 10 36 11 97 12 37 13
REMARK SMILES IDX 96 14 38 15 39 16 40 17 90 18 41 19 95 20 89 21 91 22 42 23
REMARK SMILES IDX 94 24 88 25 87 26 43 28 75 29 55 30 74 31 56 32 59 33 73 34
REMARK SMILES IDX 92 35 57 36 58 37 72 39 93 40 60 41 44 42 45 43 53 44 46 45
REMARK SMILES IDX 52 46 54 47 51 48 47 49 48 50 49 51 50 52 76 53 77 54 85 55
REMARK SMILES IDX 78 56 84 57 86 58 83 59 79 60 80 61 81 62 82 63 61 64 62 65
REMARK SMILES IDX 70 66 63 67 69 68 71 69 68 70 64 71 65 72 66 73 67 74 10 75
REMARK SMILES IDX 11 76 12 77 13 78 14 79 15 80 16 81 17 82 18 83 19 84 23 85
REMARK SMILES IDX 20 86 22 87 21 88 24 89 25 91 26 92 34 93 27 94 29 95 28 96
REMARK SMILES IDX 30 97 31 98 32 99 33 100
REMARK H PARENT 91 27 59 38 24 90
REMARK Flexibility Score: inf
ROOT
ATOM      1  O   UNL     1       2.233  -2.491  -2.768  1.00  0.00    -0.377 OA
ENDROOT
BRANCH   1   2
ATOM      2  C   UNL     1       1.552  -1.384  -2.189  1.00  0.00     0.188 C 
BRANCH   2   3
ATOM      3  C   UNL     1       2.000  -1.022  -0.775  1.00  0.00     0.188 C 
BRANCH   3   4
ATOM      4  O   UNL     1       3.342  -0.547  -0.765  1.00  0.00    -0.376 OA
BRANCH   4   5
ATOM      5  C   UNL     1       4.206  -1.074   0.241  1.00  0.00     0.202 C 
BRANCH   5   6
ATOM      6  C   UNL     1       4.043  -0.443   1.620  1.00  0.00     0.261 C 
BRANCH   6   7
ATOM      7  O   UNL     1       2.707   0.009   1.862  1.00  0.00    -0.460 OA
BRANCH   7   8
ATOM      8  C   UNL     1       2.151   1.186   1.482  1.00  0.00     0.338 C 
ATOM      9  O   UNL     1       0.958   1.363   1.732  1.00  0.00    -0.246 OA
BRANCH   8  10
ATOM     10  C   UNL     1       2.881   2.288   0.773  1.00  0.00     0.060 A 
ATOM     11  C   UNL     1       4.006   2.143  -0.042  1.00  0.00     0.016 A 
ATOM     12  C   UNL     1       2.327   3.573   0.892  1.00  0.00     0.016 A 
ATOM     13  C   UNL     1       4.591   3.217  -0.688  1.00  0.00     0.010 A 
ATOM     14  C   UNL     1       2.909   4.670   0.252  1.00  0.00     0.010 A 
ATOM     15  C   UNL     1       4.063   4.487  -0.517  1.00  0.00    -0.014 A 
BRANCH  15  16
ATOM     16  C   UNL     1       4.908   5.615  -0.930  1.00  0.00     0.031 A 
ATOM     17  C   UNL     1       5.680   6.306   0.150  1.00  0.00     0.074 A 
ATOM     18  C   UNL     1       5.106   5.870  -2.234  1.00  0.00     0.049 A 
ATOM     19  N   UNL     1       6.401   7.388   0.098  1.00  0.00    -0.248 NA
ATOM     20  C   UNL     1       5.635   5.673   1.482  1.00  0.00     0.031 C 
ATOM     21  C   UNL     1       4.543   5.091  -3.341  1.00  0.00     0.029 A 
ATOM     22  N   UNL     1       5.857   6.832  -2.849  1.00  0.00    -0.354 N 
ATOM     23  C   UNL     1       6.854   7.594   1.396  1.00  0.00     0.074 A 
ATOM     24  C   UNL     1       6.326   6.529   2.214  1.00  0.00     0.031 C 
ATOM     25  C   UNL     1       4.974   5.610  -4.502  1.00  0.00     0.029 A 
ATOM     26  C   UNL     1       5.759   6.806  -4.220  1.00  0.00     0.049 A 
ATOM     27  H   UNL     1       6.413   7.479  -2.358  1.00  0.00     0.167 HD
ATOM     28  C   UNL     1       7.633   8.605   1.848  1.00  0.00     0.034 A 
ATOM     29  C   UNL     1       6.205   7.698  -5.124  1.00  0.00     0.034 A 
ATOM     30  C   UNL     1       8.115   9.641   0.972  1.00  0.00     0.049 A 
ATOM     31  C   UNL     1       6.945   8.899  -4.585  1.00  0.00     0.074 A 
ATOM     32  C   UNL     1       8.825  10.783   1.281  1.00  0.00     0.029 A 
ATOM     33  N   UNL     1       7.919   9.648  -0.408  1.00  0.00    -0.354 N 
ATOM     34  N   UNL     1       7.268   9.178  -3.340  1.00  0.00    -0.248 NA
ATOM     35  C   UNL     1       7.367   9.908  -5.559  1.00  0.00     0.031 C 
ATOM     36  C   UNL     1       8.992  11.515   0.099  1.00  0.00     0.029 A 
ATOM     37  C   UNL     1       8.470  10.787  -0.963  1.00  0.00     0.049 A 
ATOM     38  H   UNL     1       7.455   8.943  -0.915  1.00  0.00     0.167 HD
ATOM     39  C   UNL     1       7.956  10.384  -3.383  1.00  0.00     0.074 A 
ATOM     40  C   UNL     1       8.011  10.768  -4.783  1.00  0.00     0.031 C 
ATOM     41  C   UNL     1       8.494  11.116  -2.372  1.00  0.00     0.034 A 
BRANCH  28  42
ATOM     42  C   UNL     1       7.861   8.673   3.338  1.00  0.00     0.023 A 
ATOM     43  C   UNL     1       8.531   7.654   4.042  1.00  0.00     0.031 A 
ATOM     44  C   UNL     1       7.277   9.711   4.086  1.00  0.00     0.131 A 
ATOM     45  C   UNL     1       8.509   7.644   5.447  1.00  0.00     0.055 A 
ATOM     46  C   UNL     1       7.341   9.743   5.481  1.00  0.00     0.041 A 
ATOM     47  F   UNL     1       6.591  10.690   3.476  1.00  0.00    -0.206 F 
ATOM     48  C   UNL     1       7.942   8.695   6.171  1.00  0.00     0.022 A 
BRANCH  45  49
ATOM     49  S   UNL     1       9.059   6.145   6.313  1.00  0.00     0.124 S 
ATOM     50  O   UNL     1       8.134   5.144   5.785  1.00  0.00    -0.237 OA
ATOM     51  O   UNL     1      10.446   6.020   5.882  1.00  0.00    -0.237 OA
ATOM     52  O   UNL     1       8.870   6.474   7.724  1.00  0.00    -0.744 OA
ENDBRANCH  45  49
ENDBRANCH  28  42
BRANCH  29  53
ATOM     53  C   UNL     1       5.887   7.547  -6.574  1.00  0.00     0.023 A 
ATOM     54  C   UNL     1       6.899   7.462  -7.543  1.00  0.00     0.031 A 
ATOM     55  C   UNL     1       4.551   7.527  -7.023  1.00  0.00     0.131 A 
ATOM     56  C   UNL     1       6.562   7.400  -8.906  1.00  0.00     0.055 A 
ATOM     57  C   UNL     1       4.221   7.406  -8.374  1.00  0.00     0.041 A 
ATOM     58  F   UNL     1       3.537   7.616  -6.148  1.00  0.00    -0.206 F 
ATOM     59  C   UNL     1       5.231   7.356  -9.327  1.00  0.00     0.022 A 
BRANCH  56  60
ATOM     60  S   UNL     1       7.894   7.473 -10.136  1.00  0.00     0.124 S 
ATOM     61  O   UNL     1       8.553   8.727  -9.786  1.00  0.00    -0.237 OA
ATOM     62  O   UNL     1       8.640   6.253  -9.847  1.00  0.00    -0.237 OA
ATOM     63  O   UNL     1       7.181   7.478 -11.411  1.00  0.00    -0.744 OA
ENDBRANCH  56  60
ENDBRANCH  29  53
BRANCH  41  64
ATOM     64  C   UNL     1       9.235  12.364  -2.768  1.00  0.00     0.023 A 
ATOM     65  C   UNL     1       8.573  13.474  -3.315  1.00  0.00     0.031 A 
ATOM     66  C   UNL     1      10.627  12.439  -2.579  1.00  0.00     0.131 A 
ATOM     67  C   UNL     1       9.314  14.595  -3.709  1.00  0.00     0.055 A 
ATOM     68  C   UNL     1      11.347  13.586  -2.905  1.00  0.00     0.041 A 
ATOM     69  F   UNL     1      11.304  11.401  -2.061  1.00  0.00    -0.206 F 
ATOM     70  C   UNL     1      10.692  14.668  -3.486  1.00  0.00     0.022 A 
BRANCH  67  71
ATOM     71  S   UNL     1       8.465  15.918  -4.610  1.00  0.00     0.124 S 
ATOM     72  O   UNL     1       7.940  15.204  -5.770  1.00  0.00    -0.237 OA
ATOM     73  O   UNL     1       7.475  16.373  -3.640  1.00  0.00    -0.237 OA
ATOM     74  O   UNL     1       9.533  16.873  -4.901  1.00  0.00    -0.744 OA
ENDBRANCH  67  71
ENDBRANCH  41  64
ENDBRANCH  15  16
ENDBRANCH   8  10
ENDBRANCH   7   8
ENDBRANCH   6   7
ENDBRANCH   5   6
ENDBRANCH   4   5
ENDBRANCH   3   4
ENDBRANCH   2   3
ENDBRANCH   1   2
BRANCH   1  75
ATOM     75  C   UNL     1       3.656  -2.447  -2.736  1.00  0.00     0.188 C 
BRANCH  75  76
ATOM     76  C   UNL     1       4.380  -1.204  -3.305  1.00  0.00     0.188 C 
BRANCH  76  77
ATOM     77  O   UNL     1       3.536  -0.327  -4.030  1.00  0.00    -0.376 OA
BRANCH  77  78
ATOM     78  C   UNL     1       3.636  -0.427  -5.444  1.00  0.00     0.202 C 
BRANCH  78  79
ATOM     79  C   UNL     1       3.101  -1.735  -6.040  1.00  0.00     0.261 C 
BRANCH  79  80
ATOM     80  O   UNL     1       3.725  -2.976  -5.632  1.00  0.00    -0.460 OA
BRANCH  80  81
ATOM     81  C   UNL     1       5.064  -3.162  -5.697  1.00  0.00     0.341 C 
ATOM     82  O   UNL     1       5.899  -2.389  -6.134  1.00  0.00    -0.246 OA
BRANCH  81  83
ATOM     83  C   UNL     1       5.386  -4.431  -4.999  1.00  0.00     0.102 A 
ATOM     84  C   UNL     1       4.646  -5.574  -5.337  1.00  0.00     0.021 A 
ATOM     85  C   UNL     1       6.330  -4.507  -3.955  1.00  0.00     0.144 A 
ATOM     86  C   UNL     1       4.874  -6.765  -4.661  1.00  0.00     0.021 A 
ATOM     87  N   UNL     1       6.554  -5.686  -3.316  1.00  0.00    -0.238 NA
ATOM     88  C   UNL     1       5.841  -6.773  -3.677  1.00  0.00     0.113 A 
BRANCH  85  89
ATOM     89  N   UNL     1       6.931  -3.355  -3.400  1.00  0.00    -0.340 N 
ATOM     90  H   UNL     1       6.668  -2.485  -3.780  1.00  0.00     0.168 HD
BRANCH  89  91
ATOM     91  C   UNL     1       7.874  -3.338  -2.350  1.00  0.00     0.040 A 
ATOM     92  C   UNL     1       7.540  -2.866  -1.075  1.00  0.00     0.026 A 
ATOM     93  C   UNL     1       9.204  -3.683  -2.604  1.00  0.00     0.039 A 
ATOM     94  C   UNL     1       8.514  -2.738  -0.077  1.00  0.00     0.003 A 
ATOM     95  C   UNL     1      10.194  -3.563  -1.614  1.00  0.00     0.058 A 
ATOM     96  C   UNL     1       9.838  -3.077  -0.348  1.00  0.00     0.013 A 
BRANCH  95  97
ATOM     97  C   UNL     1      11.622  -3.938  -1.913  1.00  0.00     0.416 C 
ATOM     98  F   UNL     1      12.478  -2.885  -1.798  1.00  0.00    -0.166 F 
ATOM     99  F   UNL     1      12.097  -4.898  -1.070  1.00  0.00    -0.166 F 
ATOM    100  F   UNL     1      11.806  -4.431  -3.170  1.00  0.00    -0.166 F 
ENDBRANCH  95  97
ENDBRANCH  89  91
ENDBRANCH  85  89
ENDBRANCH  81  83
ENDBRANCH  80  81
ENDBRANCH  79  80
ENDBRANCH  78  79
ENDBRANCH  77  78
ENDBRANCH  76  77
ENDBRANCH  75  76
ENDBRANCH   1  75
TORSDOF 26
