REMARK SMILES CC1=C(C)C[C@@H](C(=O)N[C@H](C)C(C)(C)C)[C@@H](C(=O)OCCOCCOCCOCCOC(=O)c2ccc(-c3c4nc(c(-c5cc(S(=O)(=O)[O-])ccc5F)c5ccc([nH]5)c(-c5cc(S(=O)(=O)[O-])ccc5F)c5nc(c(-c6cc(S(=O)(=O)[O-])ccc6F)c6ccc3[nH]6)C=C5)C=C4)cc2)C1
REMARK SMILES IDX 25 1 24 2 23 3 22 4 21 5 20 6 19 7 17 8 18 9 16 10 1 11 2 12
REMARK SMILES IDX 3 13 97 14 4 15 5 16 6 17 7 18 8 19 9 20 10 22 11 23 12 24
REMARK SMILES IDX 13 25 14 26 15 27 26 28 27 29 28 30 29 31 30 32 31 33 32 34
REMARK SMILES IDX 33 35 34 36 35 37 96 38 36 39 95 40 37 41 38 42 39 43 89 44
REMARK SMILES IDX 40 45 94 46 88 47 90 48 41 49 93 50 87 51 86 52 42 54 74 55
REMARK SMILES IDX 54 56 73 57 55 58 58 59 72 60 91 61 56 62 57 63 71 65 92 66
REMARK SMILES IDX 59 67 43 68 44 69 52 70 45 71 51 72 53 73 50 74 46 75 47 76
REMARK SMILES IDX 48 77 49 78 75 79 76 80 84 81 77 82 83 83 85 84 82 85 78 86
REMARK SMILES IDX 79 87 80 88 81 89 60 90 61 91 69 92 62 93 68 94 70 95 67 96
REMARK SMILES IDX 63 97 64 98 65 99 66 100
REMARK H PARENT 9 21 90 53 58 64
REMARK Flexibility Score: inf
ROOT
ATOM      1  O   UNL     1       0.079  -0.633  -0.356  1.00  0.00    -0.377 OA
ENDROOT
BRANCH   1   2
ATOM      2  C   UNL     1       0.721  -0.485  -1.622  1.00  0.00     0.188 C 
BRANCH   2   3
ATOM      3  C   UNL     1      -0.265  -0.250  -2.768  1.00  0.00     0.188 C 
BRANCH   3   4
ATOM      4  O   UNL     1      -0.880   1.038  -2.789  1.00  0.00    -0.376 OA
BRANCH   4   5
ATOM      5  C   UNL     1      -1.712   1.372  -1.681  1.00  0.00     0.202 C 
BRANCH   5   6
ATOM      6  C   UNL     1      -3.027   0.600  -1.552  1.00  0.00     0.261 C 
BRANCH   6   7
ATOM      7  O   UNL     1      -2.874  -0.819  -1.346  1.00  0.00    -0.463 OA
BRANCH   7   8
ATOM      8  C   UNL     1      -3.453  -1.608  -2.287  1.00  0.00     0.310 C 
ATOM      9  O   UNL     1      -3.783  -1.231  -3.407  1.00  0.00    -0.252 OA
BRANCH   8  10
ATOM     10  C   UNL     1      -3.633  -3.050  -1.850  1.00  0.00     0.116 C 
ATOM     11  C   UNL     1      -1.047  -5.995  -1.543  1.00  0.00     0.039 C 
ATOM     12  C   UNL     1      -2.303  -5.197  -1.301  1.00  0.00    -0.073 C 
ATOM     13  C   UNL     1      -3.236  -5.564  -0.392  1.00  0.00    -0.074 C 
ATOM     14  C   UNL     1      -2.375  -3.891  -2.078  1.00  0.00     0.046 C 
ATOM     15  C   UNL     1      -3.162  -6.809   0.461  1.00  0.00     0.039 C 
ATOM     16  C   UNL     1      -4.419  -4.691  -0.043  1.00  0.00     0.045 C 
ATOM     17  C   UNL     1      -4.352  -3.238  -0.512  1.00  0.00     0.097 C 
BRANCH  17  18
ATOM     18  C   UNL     1      -4.260  -2.183   0.598  1.00  0.00     0.224 C 
ATOM     19  O   UNL     1      -5.053  -1.230   0.559  1.00  0.00    -0.275 OA
ATOM     20  N   UNL     1      -3.501  -2.249   1.717  1.00  0.00    -0.353 N 
ATOM     21  H   UNL     1      -4.033  -2.127   2.537  1.00  0.00     0.163 HD
BRANCH  20  22
ATOM     22  C   UNL     1      -2.068  -2.459   2.006  1.00  0.00     0.084 C 
ATOM     23  C   UNL     1      -1.378  -3.515   1.185  1.00  0.00     0.031 C 
BRANCH  22  24
ATOM     24  C   UNL     1      -1.819  -2.647   3.549  1.00  0.00    -0.018 C 
ATOM     25  C   UNL     1      -0.498  -3.382   3.868  1.00  0.00     0.013 C 
ATOM     26  C   UNL     1      -1.748  -1.250   4.186  1.00  0.00     0.013 C 
ATOM     27  C   UNL     1      -2.948  -3.443   4.232  1.00  0.00     0.013 C 
ENDBRANCH  22  24
ENDBRANCH  20  22
ENDBRANCH  17  18
ENDBRANCH   8  10
ENDBRANCH   7   8
ENDBRANCH   6   7
ENDBRANCH   5   6
ENDBRANCH   4   5
ENDBRANCH   3   4
ENDBRANCH   2   3
ENDBRANCH   1   2
BRANCH   1  28
ATOM     28  C   UNL     1       0.671   0.077   0.740  1.00  0.00     0.188 C 
BRANCH  28  29
ATOM     29  C   UNL     1       2.194   0.241   0.738  1.00  0.00     0.188 C 
BRANCH  29  30
ATOM     30  O   UNL     1       2.935  -0.892   0.290  1.00  0.00    -0.376 OA
BRANCH  30  31
ATOM     31  C   UNL     1       2.643  -2.142   0.910  1.00  0.00     0.202 C 
BRANCH  31  32
ATOM     32  C   UNL     1       3.422  -2.380   2.200  1.00  0.00     0.261 C 
BRANCH  32  33
ATOM     33  O   UNL     1       2.677  -1.881   3.324  1.00  0.00    -0.460 OA
BRANCH  33  34
ATOM     34  C   UNL     1       3.093  -0.711   3.858  1.00  0.00     0.338 C 
ATOM     35  O   UNL     1       4.060  -0.050   3.522  1.00  0.00    -0.246 OA
BRANCH  34  36
ATOM     36  C   UNL     1       2.064  -0.255   4.813  1.00  0.00     0.060 A 
ATOM     37  C   UNL     1       1.637   1.077   4.757  1.00  0.00     0.016 A 
ATOM     38  C   UNL     1       1.536  -1.130   5.765  1.00  0.00     0.016 A 
ATOM     39  C   UNL     1       0.701   1.548   5.679  1.00  0.00     0.010 A 
ATOM     40  C   UNL     1       0.596  -0.660   6.683  1.00  0.00     0.010 A 
ATOM     41  C   UNL     1       0.198   0.691   6.667  1.00  0.00    -0.014 A 
BRANCH  41  42
ATOM     42  C   UNL     1      -0.541   1.242   7.831  1.00  0.00     0.031 A 
ATOM     43  C   UNL     1       0.220   1.391   9.122  1.00  0.00     0.074 A 
ATOM     44  C   UNL     1      -1.835   1.604   7.757  1.00  0.00     0.049 A 
ATOM     45  N   UNL     1      -0.200   1.767  10.301  1.00  0.00    -0.248 NA
ATOM     46  C   UNL     1       1.650   1.044   9.072  1.00  0.00     0.031 C 
ATOM     47  C   UNL     1      -2.668   1.542   6.558  1.00  0.00     0.029 A 
ATOM     48  N   UNL     1      -2.679   2.092   8.724  1.00  0.00    -0.354 N 
ATOM     49  C   UNL     1       0.913   1.697  11.132  1.00  0.00     0.074 A 
ATOM     50  C   UNL     1       2.003   1.175  10.339  1.00  0.00     0.031 C 
ATOM     51  C   UNL     1      -3.909   1.962   6.864  1.00  0.00     0.029 A 
ATOM     52  C   UNL     1      -3.966   2.304   8.284  1.00  0.00     0.049 A 
ATOM     53  H   UNL     1      -2.391   2.273   9.648  1.00  0.00     0.167 HD
ATOM     54  C   UNL     1       1.027   2.061  12.432  1.00  0.00     0.034 A 
ATOM     55  C   UNL     1      -5.060   2.716   8.957  1.00  0.00     0.034 A 
ATOM     56  C   UNL     1      -0.066   2.578  13.212  1.00  0.00     0.049 A 
ATOM     57  C   UNL     1      -4.931   3.044  10.428  1.00  0.00     0.074 A 
ATOM     58  C   UNL     1      -0.069   2.979  14.535  1.00  0.00     0.029 A 
ATOM     59  N   UNL     1      -1.358   2.761  12.736  1.00  0.00    -0.354 N 
ATOM     60  N   UNL     1      -3.869   2.987  11.200  1.00  0.00    -0.248 NA
ATOM     61  C   UNL     1      -6.146   3.505  11.115  1.00  0.00     0.031 C 
ATOM     62  C   UNL     1      -1.375   3.350  14.875  1.00  0.00     0.029 A 
ATOM     63  C   UNL     1      -2.171   3.248  13.745  1.00  0.00     0.049 A 
ATOM     64  H   UNL     1      -1.652   2.573  11.815  1.00  0.00     0.167 HD
ATOM     65  C   UNL     1      -4.282   3.443  12.450  1.00  0.00     0.074 A 
ATOM     66  C   UNL     1      -5.686   3.778  12.327  1.00  0.00     0.031 C 
ATOM     67  C   UNL     1      -3.569   3.579  13.598  1.00  0.00     0.034 A 
BRANCH  54  68
ATOM     68  C   UNL     1       2.377   1.865  13.077  1.00  0.00     0.023 A 
ATOM     69  C   UNL     1       3.514   2.556  12.621  1.00  0.00     0.031 A 
ATOM     70  C   UNL     1       2.546   0.921  14.103  1.00  0.00     0.131 A 
ATOM     71  C   UNL     1       4.781   2.224  13.121  1.00  0.00     0.055 A 
ATOM     72  C   UNL     1       3.799   0.660  14.661  1.00  0.00     0.041 A 
ATOM     73  F   UNL     1       1.502   0.212  14.560  1.00  0.00    -0.206 F 
ATOM     74  C   UNL     1       4.929   1.299  14.156  1.00  0.00     0.022 A 
BRANCH  71  75
ATOM     75  S   UNL     1       6.243   2.889  12.278  1.00  0.00     0.124 S 
ATOM     76  O   UNL     1       6.073   2.352  10.930  1.00  0.00    -0.237 OA
ATOM     77  O   UNL     1       6.061   4.329  12.420  1.00  0.00    -0.237 OA
ATOM     78  O   UNL     1       7.359   2.322  13.031  1.00  0.00    -0.744 OA
ENDBRANCH  71  75
ENDBRANCH  54  68
BRANCH  55  79
ATOM     79  C   UNL     1      -6.385   2.825   8.276  1.00  0.00     0.023 A 
ATOM     80  C   UNL     1      -7.040   4.062   8.158  1.00  0.00     0.031 A 
ATOM     81  C   UNL     1      -7.053   1.680   7.809  1.00  0.00     0.131 A 
ATOM     82  C   UNL     1      -8.345   4.118   7.642  1.00  0.00     0.055 A 
ATOM     83  C   UNL     1      -8.330   1.748   7.247  1.00  0.00     0.041 A 
ATOM     84  F   UNL     1      -6.475   0.472   7.897  1.00  0.00    -0.206 F 
ATOM     85  C   UNL     1      -8.990   2.971   7.176  1.00  0.00     0.022 A 
BRANCH  82  86
ATOM     86  S   UNL     1      -9.228   5.703   7.683  1.00  0.00     0.124 S 
ATOM     87  O   UNL     1      -9.198   6.022   9.106  1.00  0.00    -0.237 OA
ATOM     88  O   UNL     1      -8.396   6.536   6.822  1.00  0.00    -0.237 OA
ATOM     89  O   UNL     1     -10.546   5.373   7.144  1.00  0.00    -0.744 OA
ENDBRANCH  82  86
ENDBRANCH  55  79
BRANCH  67  90
ATOM     90  C   UNL     1      -4.282   4.168  14.789  1.00  0.00     0.023 A 
ATOM     91  C   UNL     1      -5.311   3.480  15.454  1.00  0.00     0.031 A 
ATOM     92  C   UNL     1      -3.913   5.437  15.272  1.00  0.00     0.131 A 
ATOM     93  C   UNL     1      -5.970   4.085  16.535  1.00  0.00     0.055 A 
ATOM     94  C   UNL     1      -4.533   6.010  16.383  1.00  0.00     0.041 A 
ATOM     95  F   UNL     1      -2.935   6.137  14.675  1.00  0.00    -0.206 F 
ATOM     96  C   UNL     1      -5.576   5.338  17.014  1.00  0.00     0.022 A 
BRANCH  93  97
ATOM     97  S   UNL     1      -7.402   3.245  17.264  1.00  0.00     0.124 S 
ATOM     98  O   UNL     1      -8.300   3.127  16.120  1.00  0.00    -0.237 OA
ATOM     99  O   UNL     1      -6.820   1.997  17.748  1.00  0.00    -0.237 OA
ATOM    100  O   UNL     1      -7.846   4.166  18.309  1.00  0.00    -0.744 OA
ENDBRANCH  93  97
ENDBRANCH  67  90
ENDBRANCH  41  42
ENDBRANCH  34  36
ENDBRANCH  33  34
ENDBRANCH  32  33
ENDBRANCH  31  32
ENDBRANCH  30  31
ENDBRANCH  29  30
ENDBRANCH  28  29
ENDBRANCH   1  28
TORSDOF 26
