REMARK SMILES O=C(OCCOCCOCCOCCOC(=O)[C@@H]1CC[C@@]2(CCN(C(=O)OCc3ccccc3)C2)C1)c1ccc(-c2c3nc(c(-c4cc(S(=O)(=O)[O-])ccc4F)c4ccc([nH]4)c(-c4cc(S(=O)(=O)[O-])ccc4F)c4nc(c(-c5cc(S(=O)(=O)[O-])ccc5F)c5ccc2[nH]5)C=C4)C=C3)cc1
REMARK SMILES IDX 10 1 9 2 8 3 7 4 6 5 5 6 4 7 3 8 2 9 1 10 37 11 38 12 99 13
REMARK SMILES IDX 39 14 98 15 40 16 41 17 42 18 92 19 43 20 97 21 91 22 93 23
REMARK SMILES IDX 44 24 96 25 90 26 89 27 45 29 77 30 57 31 76 32 58 33 61 34
REMARK SMILES IDX 75 35 94 36 59 37 60 38 74 40 95 41 62 42 46 43 47 44 55 45
REMARK SMILES IDX 48 46 54 47 56 48 53 49 49 50 50 51 51 52 52 53 78 54 79 55
REMARK SMILES IDX 87 56 80 57 86 58 88 59 85 60 81 61 82 62 83 63 84 64 63 65
REMARK SMILES IDX 64 66 72 67 65 68 71 69 73 70 70 71 66 72 67 73 68 74 69 75
REMARK SMILES IDX 11 76 12 77 13 78 14 79 15 80 16 81 17 82 18 83 19 84 36 85
REMARK SMILES IDX 20 86 21 87 22 88 35 89 23 90 24 91 25 92 26 93 27 94 28 95
REMARK SMILES IDX 29 96 30 97 34 98 31 99 33 100 32 101
REMARK H PARENT 93 28 61 39
REMARK Flexibility Score: inf
ROOT
ATOM      1  C   UNL     1       4.539  -3.409  -0.642  1.00  0.00     0.188 C 
ENDROOT
BRANCH   1   2
ATOM      2  O   UNL     1       3.141  -3.668  -0.544  1.00  0.00    -0.377 OA
BRANCH   2   3
ATOM      3  C   UNL     1       2.275  -2.546  -0.730  1.00  0.00     0.188 C 
BRANCH   3   4
ATOM      4  C   UNL     1       2.552  -1.384   0.221  1.00  0.00     0.188 C 
BRANCH   4   5
ATOM      5  O   UNL     1       3.830  -0.811  -0.054  1.00  0.00    -0.376 OA
BRANCH   5   6
ATOM      6  C   UNL     1       4.650  -0.547   1.087  1.00  0.00     0.202 C 
BRANCH   6   7
ATOM      7  C   UNL     1       4.371   0.796   1.754  1.00  0.00     0.261 C 
BRANCH   7   8
ATOM      8  O   UNL     1       2.976   1.119   1.737  1.00  0.00    -0.460 OA
BRANCH   8   9
ATOM      9  C   UNL     1       2.309   1.813   0.781  1.00  0.00     0.338 C 
ATOM     10  O   UNL     1       1.111   2.033   0.969  1.00  0.00    -0.246 OA
BRANCH   9  11
ATOM     11  C   UNL     1       2.916   2.315  -0.498  1.00  0.00     0.060 A 
ATOM     12  C   UNL     1       4.058   1.810  -1.128  1.00  0.00     0.016 A 
ATOM     13  C   UNL     1       2.221   3.347  -1.152  1.00  0.00     0.016 A 
ATOM     14  C   UNL     1       4.508   2.292  -2.346  1.00  0.00     0.010 A 
ATOM     15  C   UNL     1       2.682   3.870  -2.362  1.00  0.00     0.010 A 
ATOM     16  C   UNL     1       3.844   3.352  -2.943  1.00  0.00    -0.014 A 
BRANCH  16  17
ATOM     17  C   UNL     1       4.558   4.079  -4.000  1.00  0.00     0.031 A 
ATOM     18  C   UNL     1       5.334   5.284  -3.571  1.00  0.00     0.074 A 
ATOM     19  C   UNL     1       4.609   3.599  -5.251  1.00  0.00     0.049 A 
ATOM     20  N   UNL     1       5.905   6.208  -4.287  1.00  0.00    -0.248 NA
ATOM     21  C   UNL     1       5.484   5.462  -2.116  1.00  0.00     0.031 C 
ATOM     22  C   UNL     1       4.038   2.324  -5.687  1.00  0.00     0.029 A 
ATOM     23  N   UNL     1       5.168   4.126  -6.381  1.00  0.00    -0.354 N 
ATOM     24  C   UNL     1       6.438   7.108  -3.371  1.00  0.00     0.074 A 
ATOM     25  C   UNL     1       6.129   6.612  -2.050  1.00  0.00     0.031 C 
ATOM     26  C   UNL     1       4.252   2.183  -7.006  1.00  0.00     0.029 A 
ATOM     27  C   UNL     1       4.895   3.393  -7.510  1.00  0.00     0.049 A 
ATOM     28  H   UNL     1       5.712   4.947  -6.385  1.00  0.00     0.167 HD
ATOM     29  C   UNL     1       7.100   8.260  -3.632  1.00  0.00     0.034 A 
ATOM     30  C   UNL     1       5.079   3.719  -8.804  1.00  0.00     0.034 A 
ATOM     31  C   UNL     1       7.339   8.706  -4.980  1.00  0.00     0.049 A 
ATOM     32  C   UNL     1       5.699   5.064  -9.094  1.00  0.00     0.074 A 
ATOM     33  C   UNL     1       7.900   9.886  -5.425  1.00  0.00     0.029 A 
ATOM     34  N   UNL     1       7.003   7.967  -6.115  1.00  0.00    -0.354 N 
ATOM     35  N   UNL     1       6.103   5.983  -8.242  1.00  0.00    -0.248 NA
ATOM     36  C   UNL     1       5.877   5.427 -10.502  1.00  0.00     0.031 C 
ATOM     37  C   UNL     1       7.840   9.888  -6.825  1.00  0.00     0.029 A 
ATOM     38  C   UNL     1       7.320   8.675  -7.258  1.00  0.00     0.049 A 
ATOM     39  H   UNL     1       6.598   7.070  -6.102  1.00  0.00     0.167 HD
ATOM     40  C   UNL     1       6.605   7.027  -9.010  1.00  0.00     0.074 A 
ATOM     41  C   UNL     1       6.452   6.619 -10.396  1.00  0.00     0.031 C 
ATOM     42  C   UNL     1       7.146   8.210  -8.618  1.00  0.00     0.034 A 
BRANCH  29  43
ATOM     43  C   UNL     1       7.441   9.125  -2.441  1.00  0.00     0.023 A 
ATOM     44  C   UNL     1       8.278   8.671  -1.403  1.00  0.00     0.031 A 
ATOM     45  C   UNL     1       6.782  10.354  -2.258  1.00  0.00     0.131 A 
ATOM     46  C   UNL     1       8.328   9.373  -0.187  1.00  0.00     0.055 A 
ATOM     47  C   UNL     1       6.918  11.098  -1.085  1.00  0.00     0.041 A 
ATOM     48  F   UNL     1       5.943  10.825  -3.194  1.00  0.00    -0.206 F 
ATOM     49  C   UNL     1       7.673  10.596  -0.029  1.00  0.00     0.022 A 
BRANCH  46  50
ATOM     50  S   UNL     1       9.069   8.553   1.256  1.00  0.00     0.124 S 
ATOM     51  O   UNL     1       8.267   7.334   1.348  1.00  0.00    -0.237 OA
ATOM     52  O   UNL     1      10.455   8.375   0.842  1.00  0.00    -0.237 OA
ATOM     53  O   UNL     1       8.858   9.509   2.341  1.00  0.00    -0.744 OA
ENDBRANCH  46  50
ENDBRANCH  29  43
BRANCH  30  54
ATOM     54  C   UNL     1       4.573   2.818  -9.880  1.00  0.00     0.023 A 
ATOM     55  C   UNL     1       5.437   2.194 -10.793  1.00  0.00     0.031 A 
ATOM     56  C   UNL     1       3.194   2.549  -9.994  1.00  0.00     0.131 A 
ATOM     57  C   UNL     1       4.912   1.341 -11.781  1.00  0.00     0.055 A 
ATOM     58  C   UNL     1       2.684   1.667 -10.947  1.00  0.00     0.041 A 
ATOM     59  F   UNL     1       2.319   3.121  -9.151  1.00  0.00    -0.206 F 
ATOM     60  C   UNL     1       3.545   1.060 -11.853  1.00  0.00     0.022 A 
BRANCH  57  61
ATOM     61  S   UNL     1       6.041   0.626 -13.010  1.00  0.00     0.124 S 
ATOM     62  O   UNL     1       6.602   1.822 -13.629  1.00  0.00    -0.237 OA
ATOM     63  O   UNL     1       6.949  -0.150 -12.172  1.00  0.00    -0.237 OA
ATOM     64  O   UNL     1       5.158  -0.163 -13.866  1.00  0.00    -0.744 OA
ENDBRANCH  57  61
ENDBRANCH  30  54
BRANCH  42  65
ATOM     65  C   UNL     1       7.669   9.109  -9.704  1.00  0.00     0.023 A 
ATOM     66  C   UNL     1       6.809   9.814 -10.560  1.00  0.00     0.031 A 
ATOM     67  C   UNL     1       9.056   9.303  -9.835  1.00  0.00     0.131 A 
ATOM     68  C   UNL     1       7.349  10.666 -11.532  1.00  0.00     0.055 A 
ATOM     69  C   UNL     1       9.584  10.191 -10.769  1.00  0.00     0.041 A 
ATOM     70  F   UNL     1       9.914   8.650  -9.034  1.00  0.00    -0.206 F 
ATOM     71  C   UNL     1       8.728  10.874 -11.628  1.00  0.00     0.022 A 
BRANCH  68  72
ATOM     72  S   UNL     1       6.225  11.469 -12.706  1.00  0.00     0.124 S 
ATOM     73  O   UNL     1       5.640  10.324 -13.395  1.00  0.00    -0.237 OA
ATOM     74  O   UNL     1       5.329  12.211 -11.825  1.00  0.00    -0.237 OA
ATOM     75  O   UNL     1       7.115  12.295 -13.520  1.00  0.00    -0.744 OA
ENDBRANCH  68  72
ENDBRANCH  42  65
ENDBRANCH  16  17
ENDBRANCH   9  11
ENDBRANCH   8   9
ENDBRANCH   7   8
ENDBRANCH   6   7
ENDBRANCH   5   6
ENDBRANCH   4   5
ENDBRANCH   3   4
ENDBRANCH   2   3
ENDBRANCH   1   2
BRANCH   1  76
ATOM     76  C   UNL     1       5.114  -3.001  -2.010  1.00  0.00     0.188 C 
BRANCH  76  77
ATOM     77  O   UNL     1       4.150  -2.383  -2.842  1.00  0.00    -0.376 OA
BRANCH  77  78
ATOM     78  C   UNL     1       3.868  -3.017  -4.084  1.00  0.00     0.202 C 
BRANCH  78  79
ATOM     79  C   UNL     1       3.378  -4.485  -4.101  1.00  0.00     0.261 C 
BRANCH  79  80
ATOM     80  O   UNL     1       3.675  -5.219  -2.907  1.00  0.00    -0.463 OA
BRANCH  80  81
ATOM     81  C   UNL     1       4.511  -6.291  -2.949  1.00  0.00     0.309 C 
ATOM     82  O   UNL     1       5.005  -6.773  -3.956  1.00  0.00    -0.252 OA
BRANCH  81  83
ATOM     83  C   UNL     1       4.888  -6.672  -1.525  1.00  0.00     0.100 C 
ATOM     84  C   UNL     1       5.691  -7.950  -1.327  1.00  0.00     0.016 C 
ATOM     85  C   UNL     1       3.681  -6.787  -0.574  1.00  0.00     0.024 C 
ATOM     86  C   UNL     1       5.395  -8.306   0.128  1.00  0.00     0.010 C 
ATOM     87  C   UNL     1       3.892  -8.077   0.240  1.00  0.00    -0.009 C 
ATOM     88  C   UNL     1       3.359  -7.956   1.685  1.00  0.00     0.030 C 
ATOM     89  C   UNL     1       3.049  -9.211  -0.352  1.00  0.00     0.130 C 
ATOM     90  C   UNL     1       1.968  -8.599   1.662  1.00  0.00     0.124 C 
ATOM     91  N   UNL     1       1.769  -8.980   0.278  1.00  0.00    -0.308 N 
BRANCH  91  92
ATOM     92  C   UNL     1       0.642  -8.714  -0.457  1.00  0.00     0.410 C 
ATOM     93  O   UNL     1       0.577  -8.866  -1.685  1.00  0.00    -0.224 OA
BRANCH  92  94
ATOM     94  O   UNL     1      -0.363  -8.225   0.301  1.00  0.00    -0.445 OA
BRANCH  94  95
ATOM     95  C   UNL     1      -1.462  -7.622  -0.395  1.00  0.00     0.270 C 
BRANCH  95  96
ATOM     96  C   UNL     1      -1.433  -6.113  -0.262  1.00  0.00    -0.011 A 
ATOM     97  C   UNL     1      -0.751  -5.471   0.783  1.00  0.00     0.007 A 
ATOM     98  C   UNL     1      -2.154  -5.325  -1.172  1.00  0.00     0.007 A 
ATOM     99  C   UNL     1      -0.780  -4.081   0.908  1.00  0.00     0.000 A 
ATOM    100  C   UNL     1      -2.179  -3.933  -1.048  1.00  0.00     0.000 A 
ATOM    101  C   UNL     1      -1.495  -3.312  -0.007  1.00  0.00     0.000 A 
ENDBRANCH  95  96
ENDBRANCH  94  95
ENDBRANCH  92  94
ENDBRANCH  91  92
ENDBRANCH  81  83
ENDBRANCH  80  81
ENDBRANCH  79  80
ENDBRANCH  78  79
ENDBRANCH  77  78
ENDBRANCH  76  77
ENDBRANCH   1  76
TORSDOF 27
