REMARK SMILES CC1(C)CCN(S(=O)(=O)c2ccc(O)c(C(=O)OCCOCCOCCOCCOC(=O)c3ccc(-c4c5nc(c(-c6cc(S(=O)(=O)[O-])ccc6F)c6ccc([nH]6)c(-c6cc(S(=O)(=O)[O-])ccc6F)c6nc(c(-c7cc(S(=O)(=O)[O-])ccc7F)c7ccc4[nH]7)C=C6)C=C5)cc3)c2)C1
REMARK SMILES IDX 25 1 24 2 23 3 22 4 21 5 20 6 19 7 18 8 16 9 17 10 15 11
REMARK SMILES IDX 10 12 11 13 96 14 12 15 13 16 7 17 8 18 9 19 6 20 1 21 2 22
REMARK SMILES IDX 3 23 4 24 97 25 5 26 14 27 26 29 27 30 28 31 29 32 30 33
REMARK SMILES IDX 31 34 32 35 33 36 34 37 95 38 35 39 94 40 36 41 37 42 38 43
REMARK SMILES IDX 88 44 39 45 93 46 87 47 89 48 40 49 92 50 86 51 85 52 41 54
REMARK SMILES IDX 73 55 53 56 72 57 54 58 57 59 71 60 90 61 55 62 56 63 70 65
REMARK SMILES IDX 91 66 58 67 42 68 43 69 51 70 44 71 50 72 52 73 49 74 45 75
REMARK SMILES IDX 46 76 47 77 48 78 74 79 75 80 83 81 76 82 82 83 84 84 81 85
REMARK SMILES IDX 77 86 78 87 79 88 80 89 59 90 60 91 68 92 61 93 67 94 69 95
REMARK SMILES IDX 66 96 62 97 63 98 64 99 65 100
REMARK H PARENT 14 28 89 53 57 64
REMARK Flexibility Score: inf
ROOT
ATOM      1  C   UNL     1       6.609   8.300   2.485  1.00  0.00     0.188 C 
ENDROOT
BRANCH   1   2
ATOM      2  O   UNL     1       5.466   7.450   2.432  1.00  0.00    -0.377 OA
BRANCH   2   3
ATOM      3  C   UNL     1       5.619   6.081   2.088  1.00  0.00     0.188 C 
BRANCH   3   4
ATOM      4  C   UNL     1       6.527   5.680   0.905  1.00  0.00     0.188 C 
BRANCH   4   5
ATOM      5  O   UNL     1       7.292   6.749   0.372  1.00  0.00    -0.376 OA
BRANCH   5   6
ATOM      6  C   UNL     1       6.994   7.189  -0.942  1.00  0.00     0.202 C 
BRANCH   6   7
ATOM      7  C   UNL     1       5.612   7.811  -1.177  1.00  0.00     0.261 C 
BRANCH   7   8
ATOM      8  O   UNL     1       4.521   7.078  -0.610  1.00  0.00    -0.460 OA
BRANCH   8   9
ATOM      9  C   UNL     1       4.034   6.016  -1.288  1.00  0.00     0.342 C 
ATOM     10  O   UNL     1       4.457   5.559  -2.336  1.00  0.00    -0.246 OA
BRANCH   9  11
ATOM     11  C   UNL     1       3.059   5.330  -0.403  1.00  0.00     0.103 A 
ATOM     12  C   UNL     1       2.432   3.302   0.756  1.00  0.00     0.083 A 
ATOM     13  C   UNL     1       1.502   4.018   1.521  1.00  0.00     0.025 A 
ATOM     14  C   UNL     1       3.216   3.950  -0.204  1.00  0.00     0.041 A 
ATOM     15  C   UNL     1       1.321   5.382   1.296  1.00  0.00     0.048 A 
ATOM     16  C   UNL     1       2.099   6.034   0.339  1.00  0.00     0.130 A 
BRANCH  12  17
ATOM     17  S   UNL     1       2.682   1.575   1.093  1.00  0.00     0.243 S 
ATOM     18  O   UNL     1       2.318   1.328   2.472  1.00  0.00    -0.207 OA
ATOM     19  O   UNL     1       3.991   1.203   0.595  1.00  0.00    -0.207 OA
BRANCH  17  20
ATOM     20  N   UNL     1       1.517   0.826   0.109  1.00  0.00    -0.197 NA
ATOM     21  C   UNL     1      -0.980  -0.093  -1.548  1.00  0.00     0.012 C 
ATOM     22  C   UNL     1      -0.717  -0.047  -0.035  1.00  0.00    -0.020 C 
ATOM     23  C   UNL     1      -2.050  -0.091   0.715  1.00  0.00     0.012 C 
ATOM     24  C   UNL     1       0.221  -1.170   0.410  1.00  0.00     0.024 C 
ATOM     25  C   UNL     1       0.096   1.194   0.352  1.00  0.00     0.109 C 
ATOM     26  C   UNL     1       1.612  -0.660   0.050  1.00  0.00     0.103 C 
ENDBRANCH  17  20
ENDBRANCH  12  17
BRANCH  16  27
ATOM     27  O   UNL     1       1.904   7.370   0.136  1.00  0.00    -0.507 OA
ATOM     28  H   UNL     1       1.259   7.830   0.636  1.00  0.00     0.293 HD
ENDBRANCH  16  27
ENDBRANCH   9  11
ENDBRANCH   8   9
ENDBRANCH   7   8
ENDBRANCH   6   7
ENDBRANCH   5   6
ENDBRANCH   4   5
ENDBRANCH   3   4
ENDBRANCH   2   3
ENDBRANCH   1   2
BRANCH   1  29
ATOM     29  C   UNL     1       8.003   7.745   2.861  1.00  0.00     0.188 C 
BRANCH  29  30
ATOM     30  O   UNL     1       8.007   6.395   3.301  1.00  0.00    -0.376 OA
BRANCH  30  31
ATOM     31  C   UNL     1       8.264   6.178   4.678  1.00  0.00     0.202 C 
BRANCH  31  32
ATOM     32  C   UNL     1       7.162   6.650   5.635  1.00  0.00     0.261 C 
BRANCH  32  33
ATOM     33  O   UNL     1       6.844   8.049   5.579  1.00  0.00    -0.460 OA
BRANCH  33  34
ATOM     34  C   UNL     1       7.826   8.919   5.908  1.00  0.00     0.338 C 
ATOM     35  O   UNL     1       8.959   8.648   6.261  1.00  0.00    -0.246 OA
BRANCH  34  36
ATOM     36  C   UNL     1       7.338  10.276   5.589  1.00  0.00     0.060 A 
ATOM     37  C   UNL     1       8.036  11.057   4.658  1.00  0.00     0.016 A 
ATOM     38  C   UNL     1       6.181  10.764   6.200  1.00  0.00     0.016 A 
ATOM     39  C   UNL     1       7.588  12.345   4.357  1.00  0.00     0.010 A 
ATOM     40  C   UNL     1       5.746  12.058   5.912  1.00  0.00     0.010 A 
ATOM     41  C   UNL     1       6.464  12.866   5.012  1.00  0.00    -0.014 A 
BRANCH  41  42
ATOM     42  C   UNL     1       6.150  14.313   4.917  1.00  0.00     0.031 A 
ATOM     43  C   UNL     1       6.620  15.213   6.027  1.00  0.00     0.074 A 
ATOM     44  C   UNL     1       5.468  14.819   3.874  1.00  0.00     0.049 A 
ATOM     45  N   UNL     1       6.407  16.489   6.213  1.00  0.00    -0.248 NA
ATOM     46  C   UNL     1       7.436  14.578   7.074  1.00  0.00     0.031 C 
ATOM     47  C   UNL     1       5.002  14.056   2.719  1.00  0.00     0.029 A 
ATOM     48  N   UNL     1       5.039  16.100   3.627  1.00  0.00    -0.354 N 
ATOM     49  C   UNL     1       7.058  16.811   7.399  1.00  0.00     0.074 A 
ATOM     50  C   UNL     1       7.636  15.586   7.908  1.00  0.00     0.031 C 
ATOM     51  C   UNL     1       4.341  14.883   1.889  1.00  0.00     0.029 A 
ATOM     52  C   UNL     1       4.299  16.223   2.474  1.00  0.00     0.049 A 
ATOM     53  H   UNL     1       5.242  16.860   4.219  1.00  0.00     0.167 HD
ATOM     54  C   UNL     1       7.170  18.019   8.004  1.00  0.00     0.034 A 
ATOM     55  C   UNL     1       3.641  17.287   1.967  1.00  0.00     0.034 A 
ATOM     56  C   UNL     1       6.571  19.227   7.492  1.00  0.00     0.049 A 
ATOM     57  C   UNL     1       3.695  18.604   2.709  1.00  0.00     0.074 A 
ATOM     58  C   UNL     1       6.627  20.506   8.017  1.00  0.00     0.029 A 
ATOM     59  N   UNL     1       5.791  19.304   6.345  1.00  0.00    -0.354 N 
ATOM     60  N   UNL     1       4.319  18.899   3.828  1.00  0.00    -0.248 NA
ATOM     61  C   UNL     1       2.962  19.731   2.118  1.00  0.00     0.031 C 
ATOM     62  C   UNL     1       5.817  21.336   7.236  1.00  0.00     0.029 A 
ATOM     63  C   UNL     1       5.330  20.599   6.168  1.00  0.00     0.049 A 
ATOM     64  H   UNL     1       5.594  18.548   5.745  1.00  0.00     0.167 HD
ATOM     65  C   UNL     1       4.084  20.256   4.048  1.00  0.00     0.074 A 
ATOM     66  C   UNL     1       3.269  20.719   2.945  1.00  0.00     0.031 C 
ATOM     67  C   UNL     1       4.511  21.049   5.065  1.00  0.00     0.034 A 
BRANCH  54  68
ATOM     68  C   UNL     1       7.920  18.071   9.314  1.00  0.00     0.023 A 
ATOM     69  C   UNL     1       9.286  17.749   9.400  1.00  0.00     0.031 A 
ATOM     70  C   UNL     1       7.248  18.410  10.501  1.00  0.00     0.131 A 
ATOM     71  C   UNL     1       9.916  17.700  10.653  1.00  0.00     0.055 A 
ATOM     72  C   UNL     1       7.902  18.442  11.734  1.00  0.00     0.041 A 
ATOM     73  F   UNL     1       5.937  18.700  10.487  1.00  0.00    -0.206 F 
ATOM     74  C   UNL     1       9.240  18.070  11.818  1.00  0.00     0.022 A 
BRANCH  71  75
ATOM     75  S   UNL     1      11.584  16.996  10.757  1.00  0.00     0.124 S 
ATOM     76  O   UNL     1      11.376  15.660  10.202  1.00  0.00    -0.237 OA
ATOM     77  O   UNL     1      12.366  17.914   9.938  1.00  0.00    -0.237 OA
ATOM     78  O   UNL     1      11.881  17.027  12.188  1.00  0.00    -0.744 OA
ENDBRANCH  71  75
ENDBRANCH  54  68
BRANCH  55  79
ATOM     79  C   UNL     1       2.835  17.156   0.717  1.00  0.00     0.023 A 
ATOM     80  C   UNL     1       3.151  17.895  -0.434  1.00  0.00     0.031 A 
ATOM     81  C   UNL     1       1.696  16.331   0.677  1.00  0.00     0.131 A 
ATOM     82  C   UNL     1       2.312  17.833  -1.558  1.00  0.00     0.055 A 
ATOM     83  C   UNL     1       0.898  16.229  -0.464  1.00  0.00     0.041 A 
ATOM     84  F   UNL     1       1.343  15.607   1.751  1.00  0.00    -0.206 F 
ATOM     85  C   UNL     1       1.197  16.993  -1.587  1.00  0.00     0.022 A 
BRANCH  82  86
ATOM     86  S   UNL     1       2.647  18.941  -2.956  1.00  0.00     0.124 S 
ATOM     87  O   UNL     1       2.571  20.251  -2.320  1.00  0.00    -0.237 OA
ATOM     88  O   UNL     1       3.976  18.506  -3.375  1.00  0.00    -0.237 OA
ATOM     89  O   UNL     1       1.570  18.638  -3.896  1.00  0.00    -0.744 OA
ENDBRANCH  82  86
ENDBRANCH  55  79
BRANCH  67  90
ATOM     90  C   UNL     1       4.155  22.516   5.000  1.00  0.00     0.023 A 
ATOM     91  C   UNL     1       2.828  22.968   5.107  1.00  0.00     0.031 A 
ATOM     92  C   UNL     1       5.168  23.478   4.833  1.00  0.00     0.131 A 
ATOM     93  C   UNL     1       2.546  24.339   4.995  1.00  0.00     0.055 A 
ATOM     94  C   UNL     1       4.888  24.844   4.787  1.00  0.00     0.041 A 
ATOM     95  F   UNL     1       6.453  23.105   4.722  1.00  0.00    -0.206 F 
ATOM     96  C   UNL     1       3.569  25.280   4.855  1.00  0.00     0.022 A 
BRANCH  93  97
ATOM     97  S   UNL     1       0.812  24.872   4.941  1.00  0.00     0.124 S 
ATOM     98  O   UNL     1       0.304  24.136   3.788  1.00  0.00    -0.237 OA
ATOM     99  O   UNL     1       0.313  24.441   6.243  1.00  0.00    -0.237 OA
ATOM    100  O   UNL     1       0.903  26.320   4.762  1.00  0.00    -0.744 OA
ENDBRANCH  93  97
ENDBRANCH  67  90
ENDBRANCH  41  42
ENDBRANCH  34  36
ENDBRANCH  33  34
ENDBRANCH  32  33
ENDBRANCH  31  32
ENDBRANCH  30  31
ENDBRANCH  29  30
ENDBRANCH   1  29
TORSDOF 26
