REMARK SMILES Cc1ccc(N2C(=O)S/C(=C/c3cccc(O[C@H](C)C(=O)OCCOCCOCCOCCOC(=O)c4ccc(-c5c6nc(c(-c7cc(S(=O)(=O)[O-])ccc7F)c7ccc([nH]7)c(-c7cc(S(=O)(=O)[O-])ccc7F)c7nc(c(-c8cc(S(=O)(=O)[O-])ccc8F)c8ccc5[nH]8)C=C7)C=C6)cc4)c3)C2=O)c(C)c1
REMARK SMILES IDX 27 1 26 2 25 3 24 4 23 5 22 6 20 7 21 8 18 9 19 10 17 11
REMARK SMILES IDX 16 12 12 13 13 14 100 15 14 16 15 17 11 18 6 19 7 20 101 21
REMARK SMILES IDX 8 22 9 23 10 24 102 25 5 26 1 27 2 28 3 29 105 30 4 31
REMARK SMILES IDX 103 32 104 33 28 34 29 35 30 36 31 37 32 38 33 39 34 40
REMARK SMILES IDX 35 41 36 42 37 43 38 44 99 45 39 46 98 47 40 48 41 49 42 50
REMARK SMILES IDX 92 51 43 52 97 53 91 54 93 55 44 56 96 57 90 58 89 59 45 61
REMARK SMILES IDX 77 62 57 63 76 64 58 65 61 66 75 67 94 68 59 69 60 70 74 72
REMARK SMILES IDX 95 73 62 74 46 75 47 76 55 77 48 78 54 79 56 80 53 81 49 82
REMARK SMILES IDX 50 83 51 84 52 85 78 86 79 87 87 88 80 89 86 90 88 91 85 92
REMARK SMILES IDX 81 93 82 94 83 95 84 96 63 97 64 98 72 99 65 100 71 101
REMARK SMILES IDX 73 102 70 103 66 104 67 105 68 106 69 107
REMARK H PARENT 93 60 61 71
REMARK Flexibility Score: inf
ROOT
ATOM      1  C   UNL     1      -5.324  -3.435  -7.023  1.00  0.00     0.188 C 
ENDROOT
BRANCH   1   2
ATOM      2  C   UNL     1      -4.742  -4.780  -7.507  1.00  0.00     0.188 C 
BRANCH   2   3
ATOM      3  O   UNL     1      -4.811  -5.981  -6.746  1.00  0.00    -0.376 OA
BRANCH   3   4
ATOM      4  C   UNL     1      -5.141  -6.015  -5.371  1.00  0.00     0.202 C 
BRANCH   4   5
ATOM      5  C   UNL     1      -4.277  -5.299  -4.331  1.00  0.00     0.261 C 
BRANCH   5   6
ATOM      6  O   UNL     1      -3.819  -3.969  -4.587  1.00  0.00    -0.461 OA
BRANCH   6   7
ATOM      7  C   UNL     1      -2.711  -3.827  -5.354  1.00  0.00     0.347 C 
ATOM      8  O   UNL     1      -2.213  -4.707  -6.052  1.00  0.00    -0.248 OA
BRANCH   7   9
ATOM      9  C   UNL     1      -2.014  -2.490  -5.125  1.00  0.00     0.279 C 
ATOM     10  C   UNL     1      -2.983  -1.307  -4.953  1.00  0.00     0.066 C 
BRANCH   9  11
ATOM     11  O   UNL     1      -0.954  -2.420  -4.168  1.00  0.00    -0.479 OA
BRANCH  11  12
ATOM     12  C   UNL     1      -0.802  -3.345  -3.178  1.00  0.00     0.121 A 
ATOM     13  C   UNL     1      -0.060  -3.661  -0.886  1.00  0.00    -0.021 A 
ATOM     14  C   UNL     1      -0.491  -4.985  -0.898  1.00  0.00     0.008 A 
ATOM     15  C   UNL     1      -0.218  -2.851  -2.022  1.00  0.00     0.054 A 
ATOM     16  C   UNL     1      -0.993  -5.514  -2.073  1.00  0.00     0.004 A 
ATOM     17  C   UNL     1      -1.077  -4.710  -3.212  1.00  0.00     0.046 A 
BRANCH  13  18
ATOM     18  C   UNL     1       0.556  -3.108   0.313  1.00  0.00     0.029 C 
ATOM     19  N   UNL     1      -1.458  -0.418   1.714  1.00  0.00    -0.236 N 
ATOM     20  C   UNL     1      -0.379  -0.124   2.521  1.00  0.00     0.298 C 
ATOM     21  C   UNL     1      -1.278  -1.425   0.789  1.00  0.00     0.272 C 
ATOM     22  O   UNL     1      -0.211   0.813   3.276  1.00  0.00    -0.260 OA
ATOM     23  S   UNL     1       0.862  -1.357   2.328  1.00  0.00    -0.022 SA
ATOM     24  C   UNL     1       0.033  -2.100   1.020  1.00  0.00     0.083 C 
ATOM     25  O   UNL     1      -2.032  -1.698  -0.137  1.00  0.00    -0.268 OA
BRANCH  19  26
ATOM     26  C   UNL     1      -2.643   0.363   1.711  1.00  0.00     0.056 A 
ATOM     27  C   UNL     1      -6.164   2.864   1.635  1.00  0.00     0.044 C 
ATOM     28  C   UNL     1      -4.933   2.010   1.634  1.00  0.00    -0.051 A 
ATOM     29  C   UNL     1      -3.659   2.577   1.633  1.00  0.00     0.005 A 
ATOM     30  C   UNL     1      -5.057   0.617   1.674  1.00  0.00     0.009 A 
ATOM     31  C   UNL     1      -2.528   1.763   1.678  1.00  0.00     0.027 A 
ATOM     32  C   UNL     1      -3.929  -0.222   1.720  1.00  0.00    -0.026 A 
ATOM     33  C   UNL     1      -4.200  -1.702   1.826  1.00  0.00     0.046 C 
ENDBRANCH  19  26
ENDBRANCH  13  18
ENDBRANCH  11  12
ENDBRANCH   9  11
ENDBRANCH   7   9
ENDBRANCH   6   7
ENDBRANCH   5   6
ENDBRANCH   4   5
ENDBRANCH   3   4
ENDBRANCH   2   3
ENDBRANCH   1   2
BRANCH   1  34
ATOM     34  O   UNL     1      -6.123  -3.509  -5.860  1.00  0.00    -0.377 OA
BRANCH  34  35
ATOM     35  C   UNL     1      -7.513  -3.758  -6.033  1.00  0.00     0.188 C 
BRANCH  35  36
ATOM     36  C   UNL     1      -7.937  -4.698  -7.178  1.00  0.00     0.188 C 
BRANCH  36  37
ATOM     37  O   UNL     1      -7.350  -4.376  -8.428  1.00  0.00    -0.376 OA
BRANCH  37  38
ATOM     38  C   UNL     1      -8.012  -3.536  -9.354  1.00  0.00     0.202 C 
BRANCH  38  39
ATOM     39  C   UNL     1      -8.409  -2.111  -8.939  1.00  0.00     0.261 C 
BRANCH  39  40
ATOM     40  O   UNL     1      -9.191  -1.962  -7.748  1.00  0.00    -0.460 OA
BRANCH  40  41
ATOM     41  C   UNL     1     -10.354  -2.644  -7.661  1.00  0.00     0.338 C 
ATOM     42  O   UNL     1     -10.856  -3.338  -8.523  1.00  0.00    -0.246 OA
BRANCH  41  43
ATOM     43  C   UNL     1     -10.800  -2.574  -6.250  1.00  0.00     0.060 A 
ATOM     44  C   UNL     1     -11.002  -3.765  -5.538  1.00  0.00     0.016 A 
ATOM     45  C   UNL     1     -11.001  -1.339  -5.630  1.00  0.00     0.016 A 
ATOM     46  C   UNL     1     -11.450  -3.724  -4.218  1.00  0.00     0.010 A 
ATOM     47  C   UNL     1     -11.480  -1.299  -4.319  1.00  0.00     0.010 A 
ATOM     48  C   UNL     1     -11.745  -2.492  -3.623  1.00  0.00    -0.014 A 
BRANCH  48  49
ATOM     49  C   UNL     1     -12.557  -2.458  -2.382  1.00  0.00     0.031 A 
ATOM     50  C   UNL     1     -14.040  -2.243  -2.520  1.00  0.00     0.074 A 
ATOM     51  C   UNL     1     -12.004  -2.643  -1.170  1.00  0.00     0.049 A 
ATOM     52  N   UNL     1     -14.953  -2.102  -1.596  1.00  0.00    -0.248 NA
ATOM     53  C   UNL     1     -14.559  -2.171  -3.896  1.00  0.00     0.031 C 
ATOM     54  C   UNL     1     -10.592  -2.924  -0.920  1.00  0.00     0.029 A 
ATOM     55  N   UNL     1     -12.570  -2.614   0.080  1.00  0.00    -0.354 N 
ATOM     56  C   UNL     1     -16.152  -1.916  -2.276  1.00  0.00     0.074 A 
ATOM     57  C   UNL     1     -15.842  -1.923  -3.689  1.00  0.00     0.031 C 
ATOM     58  C   UNL     1     -10.399  -3.029   0.407  1.00  0.00     0.029 A 
ATOM     59  C   UNL     1     -11.662  -2.777   1.100  1.00  0.00     0.049 A 
ATOM     60  H   UNL     1     -13.534  -2.487   0.232  1.00  0.00     0.167 HD
ATOM     61  C   UNL     1     -17.398  -1.762  -1.767  1.00  0.00     0.034 A 
ATOM     62  C   UNL     1     -11.831  -2.699   2.437  1.00  0.00     0.034 A 
ATOM     63  C   UNL     1     -17.684  -1.743  -0.354  1.00  0.00     0.049 A 
ATOM     64  C   UNL     1     -13.214  -2.419   2.983  1.00  0.00     0.074 A 
ATOM     65  C   UNL     1     -18.908  -1.598   0.275  1.00  0.00     0.029 A 
ATOM     66  N   UNL     1     -16.733  -1.858   0.652  1.00  0.00    -0.354 N 
ATOM     67  N   UNL     1     -14.342  -2.243   2.333  1.00  0.00    -0.248 NA
ATOM     68  C   UNL     1     -13.346  -2.336   4.444  1.00  0.00     0.031 C 
ATOM     69  C   UNL     1     -18.686  -1.538   1.654  1.00  0.00     0.029 A 
ATOM     70  C   UNL     1     -17.337  -1.747   1.894  1.00  0.00     0.049 A 
ATOM     71  H   UNL     1     -15.769  -1.999   0.504  1.00  0.00     0.167 HD
ATOM     72  C   UNL     1     -15.322  -2.067   3.309  1.00  0.00     0.074 A 
ATOM     73  C   UNL     1     -14.652  -2.172   4.589  1.00  0.00     0.031 C 
ATOM     74  C   UNL     1     -16.655  -1.847   3.164  1.00  0.00     0.034 A 
BRANCH  61  75
ATOM     75  C   UNL     1     -18.526  -1.538  -2.745  1.00  0.00     0.023 A 
ATOM     76  C   UNL     1     -18.892  -2.510  -3.693  1.00  0.00     0.031 A 
ATOM     77  C   UNL     1     -19.227  -0.319  -2.750  1.00  0.00     0.131 A 
ATOM     78  C   UNL     1     -19.878  -2.219  -4.649  1.00  0.00     0.055 A 
ATOM     79  C   UNL     1     -20.267  -0.069  -3.647  1.00  0.00     0.041 A 
ATOM     80  F   UNL     1     -18.903   0.659  -1.889  1.00  0.00    -0.206 F 
ATOM     81  C   UNL     1     -20.588  -1.017  -4.614  1.00  0.00     0.022 A 
BRANCH  78  82
ATOM     82  S   UNL     1     -20.112  -3.371  -6.030  1.00  0.00     0.124 S 
ATOM     83  O   UNL     1     -18.777  -3.397  -6.622  1.00  0.00    -0.237 OA
ATOM     84  O   UNL     1     -20.535  -4.592  -5.355  1.00  0.00    -0.237 OA
ATOM     85  O   UNL     1     -21.136  -2.722  -6.848  1.00  0.00    -0.744 OA
ENDBRANCH  78  82
ENDBRANCH  61  75
BRANCH  62  86
ATOM     86  C   UNL     1     -10.665  -2.840   3.359  1.00  0.00     0.023 A 
ATOM     87  C   UNL     1     -10.616  -3.866   4.316  1.00  0.00     0.031 A 
ATOM     88  C   UNL     1      -9.612  -1.906   3.344  1.00  0.00     0.131 A 
ATOM     89  C   UNL     1      -9.568  -3.904   5.250  1.00  0.00     0.055 A 
ATOM     90  C   UNL     1      -8.540  -1.985   4.235  1.00  0.00     0.041 A 
ATOM     91  F   UNL     1      -9.608  -0.899   2.456  1.00  0.00    -0.206 F 
ATOM     92  C   UNL     1      -8.522  -2.980   5.206  1.00  0.00     0.022 A 
BRANCH  89  93
ATOM     93  S   UNL     1      -9.648  -5.120   6.594  1.00  0.00     0.124 S 
ATOM     94  O   UNL     1     -10.917  -4.778   7.227  1.00  0.00    -0.237 OA
ATOM     95  O   UNL     1      -9.615  -6.382   5.862  1.00  0.00    -0.237 OA
ATOM     96  O   UNL     1      -8.455  -4.829   7.386  1.00  0.00    -0.744 OA
ENDBRANCH  89  93
ENDBRANCH  62  86
BRANCH  74  97
ATOM     97  C   UNL     1     -17.486  -1.761   4.424  1.00  0.00     0.023 A 
ATOM     98  C   UNL     1     -17.317  -0.727   5.360  1.00  0.00     0.031 A 
ATOM     99  C   UNL     1     -18.466  -2.736   4.689  1.00  0.00     0.131 A 
ATOM    100  C   UNL     1     -18.070  -0.726   6.545  1.00  0.00     0.055 A 
ATOM    101  C   UNL     1     -19.262  -2.689   5.834  1.00  0.00     0.041 A 
ATOM    102  F   UNL     1     -18.671  -3.750   3.833  1.00  0.00    -0.206 F 
ATOM    103  C   UNL     1     -19.056  -1.688   6.778  1.00  0.00     0.022 A 
BRANCH 100 104
ATOM    104  S   UNL     1     -17.667   0.488   7.832  1.00  0.00     0.124 S 
ATOM    105  O   UNL     1     -16.259   0.203   8.086  1.00  0.00    -0.237 OA
ATOM    106  O   UNL     1     -17.951   1.755   7.166  1.00  0.00    -0.237 OA
ATOM    107  O   UNL     1     -18.576   0.144   8.924  1.00  0.00    -0.744 OA
ENDBRANCH 100 104
ENDBRANCH  74  97
ENDBRANCH  48  49
ENDBRANCH  41  43
ENDBRANCH  40  41
ENDBRANCH  39  40
ENDBRANCH  38  39
ENDBRANCH  37  38
ENDBRANCH  36  37
ENDBRANCH  35  36
ENDBRANCH  34  35
ENDBRANCH   1  34
TORSDOF 27
