REMARK SMILES C/C(=N\[NH+]=C1/NC(=O)[C@@H](CC(=O)OCCOCCOCCOCCOC(=O)c2ccc(-c3c4nc(c(-c5cc(S(=O)(=O)[O-])ccc5F)c5ccc([nH]5)c(-c5cc(S(=O)(=O)[O-])ccc5F)c5nc(c(-c6cc(S(=O)(=O)[O-])ccc6F)c6ccc3[nH]6)C=C5)C=C4)cc2)S1)c1ccc(Br)cc1
REMARK SMILES IDX 19 1 18 2 17 3 16 4 15 5 14 6 13 7 11 8 12 9 10 10 9 11 4 12
REMARK SMILES IDX 5 13 6 15 91 16 7 17 8 19 3 20 1 21 2 22 92 23 93 24 98 25
REMARK SMILES IDX 94 26 97 27 95 28 96 29 20 30 21 31 22 32 23 33 24 34 25 35
REMARK SMILES IDX 26 36 27 37 28 38 29 39 90 40 30 41 89 42 31 43 32 44 33 45
REMARK SMILES IDX 83 46 34 47 88 48 82 49 84 50 35 51 87 52 81 53 80 54 36 56
REMARK SMILES IDX 68 57 48 58 67 59 49 60 52 61 66 62 85 63 50 64 51 65 65 67
REMARK SMILES IDX 86 68 53 69 37 70 38 71 46 72 39 73 45 74 47 75 44 76 40 77
REMARK SMILES IDX 41 78 42 79 43 80 69 81 70 82 78 83 71 84 77 85 79 86 76 87
REMARK SMILES IDX 72 88 73 89 74 90 75 91 54 92 55 93 63 94 56 95 62 96 64 97
REMARK SMILES IDX 61 98 57 99 58 100 59 101 60 102
REMARK H PARENT 4 14 6 18 84 55 52 66
REMARK Flexibility Score: inf
ROOT
ATOM      1  O   UNL     1      -3.389   0.149  -0.876  1.00  0.00    -0.377 OA
ENDROOT
BRANCH   1   2
ATOM      2  C   UNL     1      -4.463   0.426  -1.764  1.00  0.00     0.188 C 
BRANCH   2   3
ATOM      3  C   UNL     1      -5.808  -0.248  -1.474  1.00  0.00     0.188 C 
BRANCH   3   4
ATOM      4  O   UNL     1      -6.387   0.039  -0.211  1.00  0.00    -0.376 OA
BRANCH   4   5
ATOM      5  C   UNL     1      -6.136  -0.833   0.896  1.00  0.00     0.202 C 
BRANCH   5   6
ATOM      6  C   UNL     1      -5.568  -2.244   0.664  1.00  0.00     0.261 C 
BRANCH   6   7
ATOM      7  O   UNL     1      -4.293  -2.203  -0.003  1.00  0.00    -0.463 OA
BRANCH   7   8
ATOM      8  C   UNL     1      -3.993  -3.260  -0.797  1.00  0.00     0.307 C 
ATOM      9  O   UNL     1      -4.664  -4.284  -0.870  1.00  0.00    -0.252 OA
BRANCH   8  10
ATOM     10  C   UNL     1      -2.886  -2.950  -1.783  1.00  0.00     0.150 C 
BRANCH  10  11
ATOM     11  C   UNL     1      -1.483  -2.663  -1.268  1.00  0.00     0.184 C 
ATOM     12  N   UNL     1       0.890   0.372  -1.676  1.00  0.00    -0.142 N 
ATOM     13  C   UNL     1       0.043  -0.553  -1.365  1.00  0.00     0.337 C 
ATOM     14  H   UNL     1       1.295   0.410  -2.572  1.00  0.00     0.343 HD
ATOM     15  N   UNL     1      -0.492  -0.789  -0.148  1.00  0.00    -0.202 N 
ATOM     16  S   UNL     1      -0.509  -1.729  -2.524  1.00  0.00    -0.020 SA
ATOM     17  C   UNL     1      -1.302  -1.880   0.018  1.00  0.00     0.322 C 
ATOM     18  H   UNL     1      -0.303  -0.186   0.608  1.00  0.00     0.316 HD
ATOM     19  O   UNL     1      -1.724  -2.236   1.111  1.00  0.00    -0.246 OA
BRANCH  12  20
ATOM     20  N   UNL     1       1.213   1.323  -0.693  1.00  0.00    -0.090 NA
ATOM     21  C   UNL     1       2.978  -0.241   0.050  1.00  0.00     0.071 C 
ATOM     22  C   UNL     1       2.287   1.106   0.019  1.00  0.00     0.088 C 
BRANCH  22  23
ATOM     23  C   UNL     1       2.778   2.188   0.961  1.00  0.00    -0.000 A 
ATOM     24  C   UNL     1       2.224   3.474   0.877  1.00  0.00     0.011 A 
ATOM     25  C   UNL     1       3.683   1.931   1.998  1.00  0.00     0.011 A 
ATOM     26  C   UNL     1       2.457   4.439   1.863  1.00  0.00     0.016 A 
ATOM     27  C   UNL     1       3.958   2.910   2.965  1.00  0.00     0.016 A 
ATOM     28  C   UNL     1       3.317   4.146   2.913  1.00  0.00     0.018 A 
ATOM     29  Br  UNL     1       3.604   5.418   4.277  1.00  0.00    -0.051 Br
ENDBRANCH  22  23
ENDBRANCH  12  20
ENDBRANCH  10  11
ENDBRANCH   8  10
ENDBRANCH   7   8
ENDBRANCH   6   7
ENDBRANCH   5   6
ENDBRANCH   4   5
ENDBRANCH   3   4
ENDBRANCH   2   3
ENDBRANCH   1   2
BRANCH   1  30
ATOM     30  C   UNL     1      -3.327   0.866   0.359  1.00  0.00     0.188 C 
BRANCH  30  31
ATOM     31  C   UNL     1      -3.911   2.279   0.406  1.00  0.00     0.188 C 
BRANCH  31  32
ATOM     32  O   UNL     1      -3.538   3.143  -0.668  1.00  0.00    -0.376 OA
BRANCH  32  33
ATOM     33  C   UNL     1      -2.192   3.059  -1.128  1.00  0.00     0.202 C 
BRANCH  33  34
ATOM     34  C   UNL     1      -1.184   3.692  -0.183  1.00  0.00     0.261 C 
BRANCH  34  35
ATOM     35  O   UNL     1      -0.909   2.861   0.968  1.00  0.00    -0.460 OA
BRANCH  35  36
ATOM     36  C   UNL     1      -1.241   3.398   2.167  1.00  0.00     0.338 C 
ATOM     37  O   UNL     1      -1.781   4.479   2.337  1.00  0.00    -0.246 OA
BRANCH  36  38
ATOM     38  C   UNL     1      -0.920   2.496   3.304  1.00  0.00     0.060 A 
ATOM     39  C   UNL     1      -1.675   2.649   4.471  1.00  0.00     0.016 A 
ATOM     40  C   UNL     1       0.167   1.618   3.303  1.00  0.00     0.016 A 
ATOM     41  C   UNL     1      -1.281   2.022   5.652  1.00  0.00     0.010 A 
ATOM     42  C   UNL     1       0.584   1.009   4.493  1.00  0.00     0.010 A 
ATOM     43  C   UNL     1      -0.113   1.251   5.683  1.00  0.00    -0.014 A 
BRANCH  43  44
ATOM     44  C   UNL     1       0.402   0.774   6.988  1.00  0.00     0.031 A 
ATOM     45  C   UNL     1       1.376   1.622   7.758  1.00  0.00     0.074 A 
ATOM     46  C   UNL     1      -0.040  -0.392   7.488  1.00  0.00     0.049 A 
ATOM     47  N   UNL     1       1.864   1.443   8.959  1.00  0.00    -0.248 NA
ATOM     48  C   UNL     1       1.871   2.831   7.082  1.00  0.00     0.031 C 
ATOM     49  C   UNL     1      -0.979  -1.288   6.814  1.00  0.00     0.029 A 
ATOM     50  N   UNL     1       0.238  -1.020   8.673  1.00  0.00    -0.354 N 
ATOM     51  C   UNL     1       2.705   2.526   9.196  1.00  0.00     0.074 A 
ATOM     52  C   UNL     1       2.699   3.329   7.990  1.00  0.00     0.031 C 
ATOM     53  C   UNL     1      -1.198  -2.356   7.598  1.00  0.00     0.029 A 
ATOM     54  C   UNL     1      -0.407  -2.224   8.820  1.00  0.00     0.049 A 
ATOM     55  H   UNL     1       0.842  -0.645   9.354  1.00  0.00     0.167 HD
ATOM     56  C   UNL     1       3.402   2.824  10.321  1.00  0.00     0.034 A 
ATOM     57  C   UNL     1      -0.364  -3.117   9.828  1.00  0.00     0.034 A 
ATOM     58  C   UNL     1       3.409   1.986  11.499  1.00  0.00     0.049 A 
ATOM     59  C   UNL     1       0.448  -2.787  11.053  1.00  0.00     0.074 A 
ATOM     60  C   UNL     1       4.044   2.200  12.711  1.00  0.00     0.029 A 
ATOM     61  N   UNL     1       2.763   0.759  11.606  1.00  0.00    -0.354 N 
ATOM     62  N   UNL     1       1.185  -1.725  11.294  1.00  0.00    -0.248 NA
ATOM     63  C   UNL     1       0.413  -3.758  12.152  1.00  0.00     0.031 C 
ATOM     64  C   UNL     1       3.845   1.074  13.518  1.00  0.00     0.029 A 
ATOM     65  C   UNL     1       3.017   0.189  12.845  1.00  0.00     0.049 A 
ATOM     66  H   UNL     1       2.206   0.352  10.903  1.00  0.00     0.167 HD
ATOM     67  C   UNL     1       1.675  -1.889  12.586  1.00  0.00     0.074 A 
ATOM     68  C   UNL     1       1.138  -3.144  13.075  1.00  0.00     0.031 C 
ATOM     69  C   UNL     1       2.489  -1.074  13.307  1.00  0.00     0.034 A 
BRANCH  56  70
ATOM     70  C   UNL     1       4.243   4.082  10.318  1.00  0.00     0.023 A 
ATOM     71  C   UNL     1       3.668   5.359  10.187  1.00  0.00     0.031 A 
ATOM     72  C   UNL     1       5.641   4.005  10.447  1.00  0.00     0.131 A 
ATOM     73  C   UNL     1       4.488   6.498  10.130  1.00  0.00     0.055 A 
ATOM     74  C   UNL     1       6.447   5.147  10.462  1.00  0.00     0.041 A 
ATOM     75  F   UNL     1       6.254   2.816  10.555  1.00  0.00    -0.206 F 
ATOM     76  C   UNL     1       5.872   6.402  10.290  1.00  0.00     0.022 A 
BRANCH  73  77
ATOM     77  S   UNL     1       3.733   8.097   9.722  1.00  0.00     0.124 S 
ATOM     78  O   UNL     1       3.115   7.812   8.430  1.00  0.00    -0.237 OA
ATOM     79  O   UNL     1       2.816   8.306  10.837  1.00  0.00    -0.237 OA
ATOM     80  O   UNL     1       4.872   9.012   9.671  1.00  0.00    -0.744 OA
ENDBRANCH  73  77
ENDBRANCH  56  70
BRANCH  57  81
ATOM     81  C   UNL     1      -1.115  -4.398   9.717  1.00  0.00     0.023 A 
ATOM     82  C   UNL     1      -2.195  -4.687  10.565  1.00  0.00     0.031 A 
ATOM     83  C   UNL     1      -0.753  -5.360   8.756  1.00  0.00     0.131 A 
ATOM     84  C   UNL     1      -2.855  -5.921  10.459  1.00  0.00     0.055 A 
ATOM     85  C   UNL     1      -1.443  -6.566   8.623  1.00  0.00     0.041 A 
ATOM     86  F   UNL     1       0.269  -5.130   7.916  1.00  0.00    -0.206 F 
ATOM     87  C   UNL     1      -2.495  -6.856   9.485  1.00  0.00     0.022 A 
BRANCH  84  88
ATOM     88  S   UNL     1      -4.154  -6.316  11.661  1.00  0.00     0.124 S 
ATOM     89  O   UNL     1      -3.441  -6.180  12.926  1.00  0.00    -0.237 OA
ATOM     90  O   UNL     1      -5.152  -5.292  11.373  1.00  0.00    -0.237 OA
ATOM     91  O   UNL     1      -4.542  -7.679  11.306  1.00  0.00    -0.744 OA
ENDBRANCH  84  88
ENDBRANCH  57  81
BRANCH  69  92
ATOM     92  C   UNL     1       2.813  -1.511  14.715  1.00  0.00     0.023 A 
ATOM     93  C   UNL     1       3.587  -2.655  14.974  1.00  0.00     0.031 A 
ATOM     94  C   UNL     1       2.321  -0.783  15.813  1.00  0.00     0.131 A 
ATOM     95  C   UNL     1       3.796  -3.074  16.296  1.00  0.00     0.055 A 
ATOM     96  C   UNL     1       2.583  -1.170  17.128  1.00  0.00     0.041 A 
ATOM     97  F   UNL     1       1.574   0.316  15.625  1.00  0.00    -0.206 F 
ATOM     98  C   UNL     1       3.312  -2.330  17.376  1.00  0.00     0.022 A 
BRANCH  95  99
ATOM     99  S   UNL     1       4.623  -4.662  16.586  1.00  0.00     0.124 S 
ATOM    100  O   UNL     1       3.748  -5.593  15.881  1.00  0.00    -0.237 OA
ATOM    101  O   UNL     1       5.936  -4.444  15.986  1.00  0.00    -0.237 OA
ATOM    102  O   UNL     1       4.621  -4.790  18.042  1.00  0.00    -0.744 OA
ENDBRANCH  95  99
ENDBRANCH  69  92
ENDBRANCH  43  44
ENDBRANCH  36  38
ENDBRANCH  35  36
ENDBRANCH  34  35
ENDBRANCH  33  34
ENDBRANCH  32  33
ENDBRANCH  31  32
ENDBRANCH  30  31
ENDBRANCH   1  30
TORSDOF 26
