REMARK SMILES CCOc1ccc(-n2nnc(-c3nc(C)c(C(=O)OCCOCCOCCOCCOC(=O)c4ccc(-c5c6nc(c(-c7cc(S(=O)(=O)[O-])ccc7F)c7ccc([nH]7)c(-c7cc(S(=O)(=O)[O-])ccc7F)c7nc(c(-c8cc(S(=O)(=O)[O-])ccc8F)c8ccc5[nH]8)C=C7)C=C6)cc4)s3)c2C)cc1
REMARK SMILES IDX 24 1 23 2 22 3 21 4 20 5 19 6 17 7 18 8 16 9 12 10 13 11
REMARK SMILES IDX 97 12 14 13 15 14 11 15 8 16 9 17 98 18 10 19 99 20 7 21
REMARK SMILES IDX 4 22 5 23 101 24 6 25 100 26 3 27 2 28 1 29 25 30 26 31
REMARK SMILES IDX 27 32 28 33 29 34 30 35 31 36 32 37 33 38 34 39 35 40 96 41
REMARK SMILES IDX 36 42 95 43 37 44 38 45 39 46 89 47 40 48 94 49 88 50 90 51
REMARK SMILES IDX 41 52 93 53 87 54 86 55 42 57 74 58 54 59 73 60 55 61 58 62
REMARK SMILES IDX 72 63 91 64 56 65 57 66 71 68 92 69 59 70 43 71 44 72 52 73
REMARK SMILES IDX 45 74 51 75 53 76 50 77 46 78 47 79 48 80 49 81 75 82 76 83
REMARK SMILES IDX 84 84 77 85 83 86 85 87 82 88 78 89 79 90 80 91 81 92 60 93
REMARK SMILES IDX 61 94 69 95 62 96 68 97 70 98 67 99 63 100 64 101 65 102
REMARK SMILES IDX 66 103
REMARK H PARENT 90 56 58 67
REMARK Flexibility Score: inf
ROOT
ATOM      1  C   UNL     1      11.666   6.701  -4.971  1.00  0.00     0.188 C 
ENDROOT
BRANCH   1   2
ATOM      2  C   UNL     1      12.299   5.811  -6.068  1.00  0.00     0.188 C 
BRANCH   2   3
ATOM      3  O   UNL     1      12.083   6.009  -7.465  1.00  0.00    -0.376 OA
BRANCH   3   4
ATOM      4  C   UNL     1      10.866   6.529  -7.976  1.00  0.00     0.202 C 
BRANCH   4   5
ATOM      5  C   UNL     1       9.578   5.726  -7.797  1.00  0.00     0.261 C 
BRANCH   5   6
ATOM      6  O   UNL     1       9.376   5.254  -6.469  1.00  0.00    -0.459 OA
BRANCH   6   7
ATOM      7  C   UNL     1       9.810   3.994  -6.189  1.00  0.00     0.350 C 
ATOM      8  O   UNL     1      10.205   3.184  -7.018  1.00  0.00    -0.245 OA
BRANCH   7   9
ATOM      9  C   UNL     1       9.836   3.805  -4.758  1.00  0.00     0.135 A 
ATOM     10  C   UNL     1       9.241   3.715  -2.428  1.00  0.00     0.146 A 
ATOM     11  N   UNL     1      10.375   3.070  -2.596  1.00  0.00    -0.239 NA
ATOM     12  S   UNL     1       8.715   4.630  -3.777  1.00  0.00    -0.105 S 
ATOM     13  C   UNL     1      10.717   3.095  -3.951  1.00  0.00     0.064 A 
ATOM     14  C   UNL     1      11.965   2.397  -4.367  1.00  0.00     0.068 C 
BRANCH  10  15
ATOM     15  C   UNL     1       8.315   3.545  -1.277  1.00  0.00     0.145 A 
ATOM     16  N   UNL     1       6.471   3.245  -0.186  1.00  0.00    -0.217 N 
ATOM     17  N   UNL     1       7.395   3.712   0.683  1.00  0.00    -0.061 NA
ATOM     18  C   UNL     1       6.996   3.172  -1.458  1.00  0.00     0.072 A 
ATOM     19  N   UNL     1       8.561   3.787   0.040  1.00  0.00    -0.127 NA
ATOM     20  C   UNL     1       6.252   2.847  -2.708  1.00  0.00     0.069 C 
BRANCH  16  21
ATOM     21  C   UNL     1       5.151   2.932   0.180  1.00  0.00     0.067 A 
ATOM     22  C   UNL     1       2.418   2.513   0.344  1.00  0.00     0.119 A 
ATOM     23  C   UNL     1       2.982   3.659   0.915  1.00  0.00     0.048 A 
ATOM     24  C   UNL     1       3.224   1.571  -0.287  1.00  0.00     0.048 A 
ATOM     25  C   UNL     1       4.365   3.869   0.853  1.00  0.00     0.032 A 
ATOM     26  C   UNL     1       4.594   1.757  -0.333  1.00  0.00     0.032 A 
BRANCH  22  27
ATOM     27  O   UNL     1       1.056   2.405   0.296  1.00  0.00    -0.494 OA
BRANCH  27  28
ATOM     28  C   UNL     1       0.551   1.287   1.036  1.00  0.00     0.226 C 
ATOM     29  C   UNL     1       0.497   0.005   0.215  1.00  0.00     0.049 C 
ENDBRANCH  27  28
ENDBRANCH  22  27
ENDBRANCH  16  21
ENDBRANCH  10  15
ENDBRANCH   7   9
ENDBRANCH   6   7
ENDBRANCH   5   6
ENDBRANCH   4   5
ENDBRANCH   3   4
ENDBRANCH   2   3
ENDBRANCH   1   2
BRANCH   1  30
ATOM     30  O   UNL     1      10.743   7.662  -5.449  1.00  0.00    -0.377 OA
BRANCH  30  31
ATOM     31  C   UNL     1      11.295   8.975  -5.571  1.00  0.00     0.188 C 
BRANCH  31  32
ATOM     32  C   UNL     1      12.621   9.103  -6.367  1.00  0.00     0.188 C 
BRANCH  32  33
ATOM     33  O   UNL     1      13.619   8.147  -6.010  1.00  0.00    -0.376 OA
BRANCH  33  34
ATOM     34  C   UNL     1      14.783   8.527  -5.289  1.00  0.00     0.202 C 
BRANCH  34  35
ATOM     35  C   UNL     1      14.576   8.803  -3.802  1.00  0.00     0.261 C 
BRANCH  35  36
ATOM     36  O   UNL     1      13.492   9.676  -3.556  1.00  0.00    -0.460 OA
BRANCH  36  37
ATOM     37  C   UNL     1      13.609  10.896  -4.117  1.00  0.00     0.338 C 
ATOM     38  O   UNL     1      14.491  11.288  -4.859  1.00  0.00    -0.246 OA
BRANCH  37  39
ATOM     39  C   UNL     1      12.515  11.730  -3.623  1.00  0.00     0.060 A 
ATOM     40  C   UNL     1      12.533  13.045  -4.084  1.00  0.00     0.016 A 
ATOM     41  C   UNL     1      11.912  11.342  -2.420  1.00  0.00     0.016 A 
ATOM     42  C   UNL     1      12.288  14.024  -3.161  1.00  0.00     0.010 A 
ATOM     43  C   UNL     1      11.726  12.315  -1.487  1.00  0.00     0.010 A 
ATOM     44  C   UNL     1      12.021  13.627  -1.849  1.00  0.00    -0.014 A 
BRANCH  44  45
ATOM     45  C   UNL     1      11.976  14.644  -0.832  1.00  0.00     0.031 A 
ATOM     46  C   UNL     1      10.645  15.264  -0.784  1.00  0.00     0.074 A 
ATOM     47  C   UNL     1      12.999  14.842   0.015  1.00  0.00     0.049 A 
ATOM     48  N   UNL     1      10.279  16.384  -1.314  1.00  0.00    -0.248 NA
ATOM     49  C   UNL     1       9.522  14.394  -0.383  1.00  0.00     0.031 C 
ATOM     50  C   UNL     1      14.190  13.999   0.180  1.00  0.00     0.029 A 
ATOM     51  N   UNL     1      13.136  15.768   0.997  1.00  0.00    -0.354 N 
ATOM     52  C   UNL     1       8.929  16.470  -1.002  1.00  0.00     0.074 A 
ATOM     53  C   UNL     1       8.490  15.122  -0.805  1.00  0.00     0.031 C 
ATOM     54  C   UNL     1      14.800  14.320   1.343  1.00  0.00     0.029 A 
ATOM     55  C   UNL     1      14.121  15.465   1.930  1.00  0.00     0.049 A 
ATOM     56  H   UNL     1      12.586  16.584   1.045  1.00  0.00     0.167 HD
ATOM     57  C   UNL     1       8.425  17.619  -0.478  1.00  0.00     0.034 A 
ATOM     58  C   UNL     1      14.296  16.063   3.137  1.00  0.00     0.034 A 
ATOM     59  C   UNL     1       9.350  18.712  -0.697  1.00  0.00     0.049 A 
ATOM     60  C   UNL     1      13.607  17.378   3.077  1.00  0.00     0.074 A 
ATOM     61  C   UNL     1       9.802  19.423  -1.788  1.00  0.00     0.029 A 
ATOM     62  N   UNL     1      10.248  18.921   0.326  1.00  0.00    -0.354 N 
ATOM     63  N   UNL     1      13.968  18.338   2.268  1.00  0.00    -0.248 NA
ATOM     64  C   UNL     1      12.251  17.504   3.605  1.00  0.00     0.031 C 
ATOM     65  C   UNL     1      11.104  19.892  -1.442  1.00  0.00     0.029 A 
ATOM     66  C   UNL     1      11.402  19.498  -0.137  1.00  0.00     0.049 A 
ATOM     67  H   UNL     1      10.082  18.686   1.267  1.00  0.00     0.167 HD
ATOM     68  C   UNL     1      12.785  18.930   1.863  1.00  0.00     0.074 A 
ATOM     69  C   UNL     1      11.791  18.496   2.835  1.00  0.00     0.031 C 
ATOM     70  C   UNL     1      12.654  19.447   0.606  1.00  0.00     0.034 A 
BRANCH  57  71
ATOM     71  C   UNL     1       7.400  17.674   0.648  1.00  0.00     0.023 A 
ATOM     72  C   UNL     1       7.065  18.958   1.119  1.00  0.00     0.031 A 
ATOM     73  C   UNL     1       6.950  16.600   1.456  1.00  0.00     0.131 A 
ATOM     74  C   UNL     1       6.434  19.135   2.362  1.00  0.00     0.055 A 
ATOM     75  C   UNL     1       6.291  16.780   2.674  1.00  0.00     0.041 A 
ATOM     76  F   UNL     1       7.169  15.313   1.174  1.00  0.00    -0.206 F 
ATOM     77  C   UNL     1       6.056  18.053   3.151  1.00  0.00     0.022 A 
BRANCH  74  78
ATOM     78  S   UNL     1       6.237  20.816   2.996  1.00  0.00     0.124 S 
ATOM     79  O   UNL     1       7.608  21.311   2.956  1.00  0.00    -0.237 OA
ATOM     80  O   UNL     1       5.311  21.391   2.027  1.00  0.00    -0.237 OA
ATOM     81  O   UNL     1       5.688  20.607   4.334  1.00  0.00    -0.744 OA
ENDBRANCH  74  78
ENDBRANCH  57  71
BRANCH  58  82
ATOM     82  C   UNL     1      14.718  15.399   4.400  1.00  0.00     0.023 A 
ATOM     83  C   UNL     1      15.300  16.096   5.478  1.00  0.00     0.031 A 
ATOM     84  C   UNL     1      14.336  14.059   4.641  1.00  0.00     0.131 A 
ATOM     85  C   UNL     1      15.477  15.452   6.726  1.00  0.00     0.055 A 
ATOM     86  C   UNL     1      14.522  13.426   5.872  1.00  0.00     0.041 A 
ATOM     87  F   UNL     1      13.693  13.341   3.707  1.00  0.00    -0.206 F 
ATOM     88  C   UNL     1      15.087  14.125   6.925  1.00  0.00     0.022 A 
BRANCH  85  89
ATOM     89  S   UNL     1      16.161  16.366   8.147  1.00  0.00     0.124 S 
ATOM     90  O   UNL     1      17.496  16.719   7.679  1.00  0.00    -0.237 OA
ATOM     91  O   UNL     1      15.212  17.463   8.294  1.00  0.00    -0.237 OA
ATOM     92  O   UNL     1      16.133  15.383   9.232  1.00  0.00    -0.744 OA
ENDBRANCH  85  89
ENDBRANCH  58  82
BRANCH  70  93
ATOM     93  C   UNL     1      13.912  19.891  -0.102  1.00  0.00     0.023 A 
ATOM     94  C   UNL     1      14.977  19.051  -0.493  1.00  0.00     0.031 A 
ATOM     95  C   UNL     1      13.987  21.252  -0.452  1.00  0.00     0.131 A 
ATOM     96  C   UNL     1      16.064  19.591  -1.211  1.00  0.00     0.055 A 
ATOM     97  C   UNL     1      15.052  21.776  -1.179  1.00  0.00     0.041 A 
ATOM     98  F   UNL     1      12.997  22.095  -0.116  1.00  0.00    -0.206 F 
ATOM     99  C   UNL     1      16.099  20.946  -1.558  1.00  0.00     0.022 A 
BRANCH  96 100
ATOM    100  S   UNL     1      17.473  18.542  -1.695  1.00  0.00     0.124 S 
ATOM    101  O   UNL     1      17.801  17.824  -0.469  1.00  0.00    -0.237 OA
ATOM    102  O   UNL     1      16.909  17.738  -2.776  1.00  0.00    -0.237 OA
ATOM    103  O   UNL     1      18.486  19.509  -2.124  1.00  0.00    -0.744 OA
ENDBRANCH  96 100
ENDBRANCH  70  93
ENDBRANCH  44  45
ENDBRANCH  37  39
ENDBRANCH  36  37
ENDBRANCH  35  36
ENDBRANCH  34  35
ENDBRANCH  33  34
ENDBRANCH  32  33
ENDBRANCH  31  32
ENDBRANCH  30  31
ENDBRANCH   1  30
TORSDOF 27
