REMARK SMILES C[C@@H]1[C@@H](C(=O)OCCOCCOCCOCCOC(=O)c2ccc(-c3c4nc(c(-c5cc(S(=O)(=O)[O-])ccc5F)c5ccc([nH]5)c(-c5cc(S(=O)(=O)[O-])ccc5F)c5nc(c(-c6cc(S(=O)(=O)[O-])ccc6F)c6ccc3[nH]6)C=C5)C=C4)cc2)CCN1C(=O)[C@@H](C)OCc1ccccc1
REMARK SMILES IDX 11 1 10 2 9 3 8 4 7 5 6 6 4 7 5 8 3 9 1 10 2 11 86 12 84 13
REMARK SMILES IDX 85 14 87 15 88 16 89 17 90 18 91 19 92 20 93 21 94 22 98 23
REMARK SMILES IDX 95 24 97 25 96 26 12 27 13 28 14 29 15 30 16 31 17 32 18 33
REMARK SMILES IDX 19 34 20 35 21 36 22 37 83 38 23 39 82 40 24 41 25 42 26 43
REMARK SMILES IDX 76 44 27 45 81 46 75 47 77 48 28 49 80 50 74 51 73 52 29 54
REMARK SMILES IDX 61 55 41 56 60 57 42 58 45 59 59 60 78 61 43 62 44 63 58 65
REMARK SMILES IDX 79 66 46 67 30 68 31 69 39 70 32 71 38 72 40 73 37 74 33 75
REMARK SMILES IDX 34 76 35 77 36 78 62 79 63 80 71 81 64 82 70 83 72 84 69 85
REMARK SMILES IDX 65 86 66 87 67 88 68 89 47 90 48 91 56 92 49 93 55 94 57 95
REMARK SMILES IDX 54 96 50 97 51 98 52 99 53 100
REMARK H PARENT 77 53 45 64
REMARK Flexibility Score: inf
ROOT
ATOM      1  C   UNL     1       0.258   3.196  -2.265  1.00  0.00     0.188 C 
ENDROOT
BRANCH   1   2
ATOM      2  C   UNL     1       0.389   2.071  -3.308  1.00  0.00     0.188 C 
BRANCH   2   3
ATOM      3  O   UNL     1      -0.374   2.171  -4.487  1.00  0.00    -0.376 OA
BRANCH   3   4
ATOM      4  C   UNL     1      -1.722   1.759  -4.609  1.00  0.00     0.202 C 
BRANCH   4   5
ATOM      5  C   UNL     1      -2.652   1.275  -3.486  1.00  0.00     0.261 C 
BRANCH   5   6
ATOM      6  O   UNL     1      -2.198   1.431  -2.148  1.00  0.00    -0.463 OA
BRANCH   6   7
ATOM      7  C   UNL     1      -1.608   0.332  -1.620  1.00  0.00     0.311 C 
ATOM      8  O   UNL     1      -1.460  -0.728  -2.212  1.00  0.00    -0.252 OA
BRANCH   7   9
ATOM      9  C   UNL     1      -1.116   0.622  -0.218  1.00  0.00     0.123 C 
ATOM     10  C   UNL     1       0.909   0.423   1.276  1.00  0.00     0.032 C 
ATOM     11  C   UNL     1       0.163  -0.174   0.070  1.00  0.00     0.096 C 
ATOM     12  N   UNL     1      -0.351  -1.501   0.393  1.00  0.00    -0.337 N 
ATOM     13  C   UNL     1      -2.105   0.076   0.801  1.00  0.00     0.039 C 
ATOM     14  C   UNL     1      -1.730  -1.402   0.880  1.00  0.00     0.121 C 
BRANCH  12  15
ATOM     15  C   UNL     1       0.135  -2.751   0.065  1.00  0.00     0.251 C 
ATOM     16  O   UNL     1      -0.464  -3.751   0.494  1.00  0.00    -0.272 OA
BRANCH  15  17
ATOM     17  C   UNL     1       1.356  -2.984  -0.909  1.00  0.00     0.204 C 
ATOM     18  C   UNL     1       1.068  -2.554  -2.349  1.00  0.00     0.049 C 
BRANCH  17  19
ATOM     19  O   UNL     1       2.730  -2.911  -0.558  1.00  0.00    -0.364 OA
BRANCH  19  20
ATOM     20  C   UNL     1       3.354  -1.662  -0.322  1.00  0.00     0.196 C 
BRANCH  20  21
ATOM     21  C   UNL     1       3.673  -0.843  -1.549  1.00  0.00    -0.022 A 
ATOM     22  C   UNL     1       4.104  -1.450  -2.736  1.00  0.00     0.006 A 
ATOM     23  C   UNL     1       3.571   0.556  -1.511  1.00  0.00     0.006 A 
ATOM     24  C   UNL     1       4.306  -0.692  -3.890  1.00  0.00     0.000 A 
ATOM     25  C   UNL     1       3.799   1.317  -2.658  1.00  0.00     0.000 A 
ATOM     26  C   UNL     1       4.134   0.690  -3.855  1.00  0.00     0.000 A 
ENDBRANCH  20  21
ENDBRANCH  19  20
ENDBRANCH  17  19
ENDBRANCH  15  17
ENDBRANCH  12  15
ENDBRANCH   7   9
ENDBRANCH   6   7
ENDBRANCH   5   6
ENDBRANCH   4   5
ENDBRANCH   3   4
ENDBRANCH   2   3
ENDBRANCH   1   2
BRANCH   1  27
ATOM     27  O   UNL     1      -0.971   3.890  -2.253  1.00  0.00    -0.377 OA
BRANCH  27  28
ATOM     28  C   UNL     1      -1.257   4.804  -3.311  1.00  0.00     0.188 C 
BRANCH  28  29
ATOM     29  C   UNL     1      -0.293   5.028  -4.504  1.00  0.00     0.188 C 
BRANCH  29  30
ATOM     30  O   UNL     1       1.082   4.801  -4.226  1.00  0.00    -0.376 OA
BRANCH  30  31
ATOM     31  C   UNL     1       1.924   5.935  -4.101  1.00  0.00     0.202 C 
BRANCH  31  32
ATOM     32  C   UNL     1       1.682   6.818  -2.869  1.00  0.00     0.261 C 
BRANCH  32  33
ATOM     33  O   UNL     1       0.361   7.365  -2.746  1.00  0.00    -0.460 OA
BRANCH  33  34
ATOM     34  C   UNL     1      -0.048   8.201  -3.727  1.00  0.00     0.338 C 
ATOM     35  O   UNL     1       0.605   8.569  -4.690  1.00  0.00    -0.246 OA
BRANCH  34  36
ATOM     36  C   UNL     1      -1.497   8.427  -3.550  1.00  0.00     0.060 A 
ATOM     37  C   UNL     1      -2.373   8.058  -4.579  1.00  0.00     0.016 A 
ATOM     38  C   UNL     1      -1.988   8.977  -2.364  1.00  0.00     0.016 A 
ATOM     39  C   UNL     1      -3.744   8.270  -4.438  1.00  0.00     0.010 A 
ATOM     40  C   UNL     1      -3.360   9.211  -2.234  1.00  0.00     0.010 A 
ATOM     41  C   UNL     1      -4.239   8.890  -3.284  1.00  0.00    -0.014 A 
BRANCH  41  42
ATOM     42  C   UNL     1      -5.631   9.406  -3.268  1.00  0.00     0.031 A 
ATOM     43  C   UNL     1      -5.845  10.863  -3.583  1.00  0.00     0.074 A 
ATOM     44  C   UNL     1      -6.679   8.605  -3.010  1.00  0.00     0.049 A 
ATOM     45  N   UNL     1      -6.948  11.564  -3.573  1.00  0.00    -0.248 NA
ATOM     46  C   UNL     1      -4.645  11.630  -3.954  1.00  0.00     0.031 C 
ATOM     47  C   UNL     1      -6.602   7.169  -2.749  1.00  0.00     0.029 A 
ATOM     48  N   UNL     1      -8.019   8.892  -2.919  1.00  0.00    -0.354 N 
ATOM     49  C   UNL     1      -6.575  12.856  -3.930  1.00  0.00     0.074 A 
ATOM     50  C   UNL     1      -5.139  12.847  -4.109  1.00  0.00     0.031 C 
ATOM     51  C   UNL     1      -7.842   6.702  -2.518  1.00  0.00     0.029 A 
ATOM     52  C   UNL     1      -8.794   7.811  -2.569  1.00  0.00     0.049 A 
ATOM     53  H   UNL     1      -8.390   9.788  -3.089  1.00  0.00     0.167 HD
ATOM     54  C   UNL     1      -7.361  13.947  -4.102  1.00  0.00     0.034 A 
ATOM     55  C   UNL     1     -10.113   7.736  -2.293  1.00  0.00     0.034 A 
ATOM     56  C   UNL     1      -8.789  13.942  -3.904  1.00  0.00     0.049 A 
ATOM     57  C   UNL     1     -10.954   8.990  -2.386  1.00  0.00     0.074 A 
ATOM     58  C   UNL     1      -9.682  14.988  -4.055  1.00  0.00     0.029 A 
ATOM     59  N   UNL     1      -9.532  12.842  -3.495  1.00  0.00    -0.354 N 
ATOM     60  N   UNL     1     -10.593  10.207  -2.727  1.00  0.00    -0.248 NA
ATOM     61  C   UNL     1     -12.381   8.859  -2.064  1.00  0.00     0.031 C 
ATOM     62  C   UNL     1     -10.947  14.544  -3.656  1.00  0.00     0.029 A 
ATOM     63  C   UNL     1     -10.865  13.195  -3.351  1.00  0.00     0.049 A 
ATOM     64  H   UNL     1      -9.165  11.943  -3.332  1.00  0.00     0.167 HD
ATOM     65  C   UNL     1     -11.757  10.973  -2.697  1.00  0.00     0.074 A 
ATOM     66  C   UNL     1     -12.831  10.079  -2.318  1.00  0.00     0.031 C 
ATOM     67  C   UNL     1     -11.927  12.294  -2.966  1.00  0.00     0.034 A 
BRANCH  54  68
ATOM     68  C   UNL     1      -6.677  15.244  -4.465  1.00  0.00     0.023 A 
ATOM     69  C   UNL     1      -5.970  15.399  -5.670  1.00  0.00     0.031 A 
ATOM     70  C   UNL     1      -6.708  16.333  -3.575  1.00  0.00     0.131 A 
ATOM     71  C   UNL     1      -5.265  16.586  -5.919  1.00  0.00     0.055 A 
ATOM     72  C   UNL     1      -6.077  17.543  -3.869  1.00  0.00     0.041 A 
ATOM     73  F   UNL     1      -7.342  16.235  -2.396  1.00  0.00    -0.206 F 
ATOM     74  C   UNL     1      -5.337  17.670  -5.041  1.00  0.00     0.022 A 
BRANCH  71  75
ATOM     75  S   UNL     1      -4.128  16.638  -7.331  1.00  0.00     0.124 S 
ATOM     76  O   UNL     1      -3.228  15.527  -7.026  1.00  0.00    -0.237 OA
ATOM     77  O   UNL     1      -5.023  16.441  -8.465  1.00  0.00    -0.237 OA
ATOM     78  O   UNL     1      -3.522  17.964  -7.236  1.00  0.00    -0.744 OA
ENDBRANCH  71  75
ENDBRANCH  54  68
BRANCH  55  79
ATOM     79  C   UNL     1     -10.727   6.447  -1.856  1.00  0.00     0.023 A 
ATOM     80  C   UNL     1     -11.751   5.838  -2.600  1.00  0.00     0.031 A 
ATOM     81  C   UNL     1     -10.346   5.839  -0.645  1.00  0.00     0.131 A 
ATOM     82  C   UNL     1     -12.395   4.694  -2.101  1.00  0.00     0.055 A 
ATOM     83  C   UNL     1     -10.946   4.666  -0.185  1.00  0.00     0.041 A 
ATOM     84  F   UNL     1      -9.378   6.381   0.112  1.00  0.00    -0.206 F 
ATOM     85  C   UNL     1     -11.988   4.095  -0.908  1.00  0.00     0.022 A 
BRANCH  82  86
ATOM     86  S   UNL     1     -13.846   4.060  -2.986  1.00  0.00     0.124 S 
ATOM     87  O   UNL     1     -14.732   5.218  -2.969  1.00  0.00    -0.237 OA
ATOM     88  O   UNL     1     -13.278   3.703  -4.281  1.00  0.00    -0.237 OA
ATOM     89  O   UNL     1     -14.278   2.931  -2.164  1.00  0.00    -0.744 OA
ENDBRANCH  82  86
ENDBRANCH  55  79
BRANCH  67  90
ATOM     90  C   UNL     1     -13.336  12.839  -2.915  1.00  0.00     0.023 A 
ATOM     91  C   UNL     1     -14.075  12.888  -1.720  1.00  0.00     0.031 A 
ATOM     92  C   UNL     1     -13.950  13.315  -4.089  1.00  0.00     0.131 A 
ATOM     93  C   UNL     1     -15.402  13.345  -1.737  1.00  0.00     0.055 A 
ATOM     94  C   UNL     1     -15.244  13.835  -4.086  1.00  0.00     0.041 A 
ATOM     95  F   UNL     1     -13.295  13.290  -5.261  1.00  0.00    -0.206 F 
ATOM     96  C   UNL     1     -15.984  13.839  -2.908  1.00  0.00     0.022 A 
BRANCH  93  97
ATOM     97  S   UNL     1     -16.397  13.187  -0.228  1.00  0.00     0.124 S 
ATOM     98  O   UNL     1     -16.325  11.754   0.033  1.00  0.00    -0.237 OA
ATOM     99  O   UNL     1     -15.679  14.043   0.710  1.00  0.00    -0.237 OA
ATOM    100  O   UNL     1     -17.714  13.679  -0.632  1.00  0.00    -0.744 OA
ENDBRANCH  93  97
ENDBRANCH  67  90
ENDBRANCH  41  42
ENDBRANCH  34  36
ENDBRANCH  33  34
ENDBRANCH  32  33
ENDBRANCH  31  32
ENDBRANCH  30  31
ENDBRANCH  29  30
ENDBRANCH  28  29
ENDBRANCH  27  28
ENDBRANCH   1  27
TORSDOF 28
