REMARK SMILES COC(=O)c1ccc(C)c2c1[C@H]1C=CC[C@H]1[C@@H](c1ccc(C(=O)OCCOCCOCCOCCOC(=O)c3ccc(-c4c5nc(c(-c6cc(S(=O)(=O)[O-])ccc6F)c6ccc([nH]6)c(-c6cc(S(=O)(=O)[O-])ccc6F)c6nc(c(-c7cc(S(=O)(=O)[O-])ccc7F)c7ccc4[nH]7)C=C6)C=C5)cc3)cc1)N2
REMARK SMILES IDX 30 1 29 2 28 3 27 4 26 5 25 6 24 7 22 8 23 9 21 10 18 11
REMARK SMILES IDX 19 12 103 13 20 14 102 15 17 16 5 17 6 18 11 19 7 20 10 21
REMARK SMILES IDX 12 22 8 23 104 24 13 25 16 26 9 27 14 29 15 30 3 31 4 32
REMARK SMILES IDX 2 33 1 34 31 35 32 36 33 37 34 38 35 39 36 40 37 41 38 42
REMARK SMILES IDX 39 43 40 44 101 45 41 46 100 47 42 48 43 49 44 50 94 51
REMARK SMILES IDX 45 52 99 53 93 54 95 55 46 56 98 57 92 58 91 59 47 61 79 62
REMARK SMILES IDX 59 63 78 64 60 65 63 66 77 67 96 68 61 69 62 70 76 72 97 73
REMARK SMILES IDX 64 74 48 75 49 76 57 77 50 78 56 79 58 80 55 81 51 82 52 83
REMARK SMILES IDX 53 84 54 85 80 86 81 87 89 88 82 89 88 90 90 91 87 92 83 93
REMARK SMILES IDX 84 94 85 95 86 96 65 97 66 98 74 99 67 100 73 101 75 102
REMARK SMILES IDX 72 103 68 104 69 105 70 106 71 107
REMARK H PARENT 104 28 95 60 63 71
REMARK Flexibility Score: inf
ROOT
ATOM      1  O   UNL     1       6.845  -0.317  -7.048  1.00  0.00    -0.377 OA
ENDROOT
BRANCH   1   2
ATOM      2  C   UNL     1       5.554  -0.487  -6.485  1.00  0.00     0.188 C 
BRANCH   2   3
ATOM      3  C   UNL     1       4.572  -1.486  -7.133  1.00  0.00     0.188 C 
BRANCH   3   4
ATOM      4  O   UNL     1       5.160  -2.359  -8.083  1.00  0.00    -0.376 OA
BRANCH   4   5
ATOM      5  C   UNL     1       4.802  -2.209  -9.446  1.00  0.00     0.202 C 
BRANCH   5   6
ATOM      6  C   UNL     1       5.192  -0.905 -10.160  1.00  0.00     0.261 C 
BRANCH   6   7
ATOM      7  O   UNL     1       4.911   0.300  -9.438  1.00  0.00    -0.460 OA
BRANCH   7   8
ATOM      8  C   UNL     1       3.621   0.691  -9.395  1.00  0.00     0.338 C 
ATOM      9  O   UNL     1       2.673   0.141  -9.931  1.00  0.00    -0.246 OA
BRANCH   8  10
ATOM     10  C   UNL     1       3.499   1.746  -8.364  1.00  0.00     0.060 A 
ATOM     11  C   UNL     1       3.212   3.626  -6.267  1.00  0.00    -0.025 A 
ATOM     12  C   UNL     1       2.393   2.486  -6.353  1.00  0.00     0.007 A 
ATOM     13  C   UNL     1       4.226   3.765  -7.235  1.00  0.00     0.007 A 
ATOM     14  C   UNL     1       2.507   1.576  -7.401  1.00  0.00     0.016 A 
ATOM     15  C   UNL     1       4.381   2.825  -8.267  1.00  0.00     0.016 A 
BRANCH  11  16
ATOM     16  C   UNL     1       2.975   4.736  -5.233  1.00  0.00     0.114 C 
ATOM     17  C   UNL     1       0.349   2.703  -2.553  1.00  0.00     0.065 A 
ATOM     18  C   UNL     1      -0.977   2.515  -2.955  1.00  0.00     0.016 A 
ATOM     19  C   UNL     1       1.214   3.547  -3.287  1.00  0.00    -0.003 A 
ATOM     20  C   UNL     1      -1.466   3.190  -4.066  1.00  0.00     0.006 A 
ATOM     21  C   UNL     1       0.699   4.261  -4.402  1.00  0.00     0.042 A 
ATOM     22  C   UNL     1       2.680   3.672  -2.915  1.00  0.00     0.050 C 
ATOM     23  C   UNL     1      -0.649   4.075  -4.790  1.00  0.00    -0.028 A 
ATOM     24  N   UNL     1       1.551   5.051  -5.168  1.00  0.00    -0.377 N 
ATOM     25  C   UNL     1       3.508   2.412  -3.019  1.00  0.00    -0.023 C 
ATOM     26  C   UNL     1       3.507   4.631  -3.793  1.00  0.00     0.031 C 
ATOM     27  C   UNL     1      -1.274   4.718  -6.002  1.00  0.00     0.046 C 
ATOM     28  H   UNL     1       1.193   5.821  -5.666  1.00  0.00     0.161 HD
ATOM     29  C   UNL     1       4.758   2.673  -3.426  1.00  0.00    -0.030 C 
ATOM     30  C   UNL     1       4.951   4.129  -3.690  1.00  0.00     0.034 C 
BRANCH  17  31
ATOM     31  C   UNL     1       0.795   2.024  -1.313  1.00  0.00     0.338 C 
ATOM     32  O   UNL     1       1.372   2.577  -0.393  1.00  0.00    -0.246 OA
BRANCH  31  33
ATOM     33  O   UNL     1       0.473   0.707  -1.385  1.00  0.00    -0.465 OA
ATOM     34  C   UNL     1       0.904  -0.047  -0.251  1.00  0.00     0.282 C 
ENDBRANCH  31  33
ENDBRANCH  17  31
ENDBRANCH  11  16
ENDBRANCH   8  10
ENDBRANCH   7   8
ENDBRANCH   6   7
ENDBRANCH   5   6
ENDBRANCH   4   5
ENDBRANCH   3   4
ENDBRANCH   2   3
ENDBRANCH   1   2
BRANCH   1  35
ATOM     35  C   UNL     1       7.619  -1.457  -7.406  1.00  0.00     0.188 C 
BRANCH  35  36
ATOM     36  C   UNL     1       7.460  -2.804  -6.662  1.00  0.00     0.188 C 
BRANCH  36  37
ATOM     37  O   UNL     1       6.632  -2.750  -5.512  1.00  0.00    -0.376 OA
BRANCH  37  38
ATOM     38  C   UNL     1       7.274  -2.845  -4.253  1.00  0.00     0.202 C 
BRANCH  38  39
ATOM     39  C   UNL     1       8.250  -1.720  -3.879  1.00  0.00     0.261 C 
BRANCH  39  40
ATOM     40  O   UNL     1       9.282  -1.426  -4.832  1.00  0.00    -0.460 OA
BRANCH  40  41
ATOM     41  C   UNL     1      10.234  -2.361  -5.041  1.00  0.00     0.338 C 
ATOM     42  O   UNL     1      10.318  -3.458  -4.516  1.00  0.00    -0.246 OA
BRANCH  41  43
ATOM     43  C   UNL     1      11.067  -1.881  -6.161  1.00  0.00     0.060 A 
ATOM     44  C   UNL     1      11.030  -2.552  -7.392  1.00  0.00     0.016 A 
ATOM     45  C   UNL     1      11.858  -0.743  -5.997  1.00  0.00     0.016 A 
ATOM     46  C   UNL     1      11.795  -2.087  -8.462  1.00  0.00     0.010 A 
ATOM     47  C   UNL     1      12.653  -0.302  -7.055  1.00  0.00     0.010 A 
ATOM     48  C   UNL     1      12.646  -0.990  -8.281  1.00  0.00    -0.014 A 
BRANCH  48  49
ATOM     49  C   UNL     1      13.703  -0.710  -9.279  1.00  0.00     0.031 A 
ATOM     50  C   UNL     1      15.032  -1.386  -9.094  1.00  0.00     0.074 A 
ATOM     51  C   UNL     1      13.500   0.123 -10.314  1.00  0.00     0.049 A 
ATOM     52  N   UNL     1      16.124  -1.270  -9.799  1.00  0.00    -0.248 NA
ATOM     53  C   UNL     1      15.142  -2.320  -7.959  1.00  0.00     0.031 C 
ATOM     54  C   UNL     1      12.245   0.806 -10.613  1.00  0.00     0.029 A 
ATOM     55  N   UNL     1      14.360   0.546 -11.298  1.00  0.00    -0.354 N 
ATOM     56  C   UNL     1      17.049  -2.112  -9.196  1.00  0.00     0.074 A 
ATOM     57  C   UNL     1      16.403  -2.713  -8.052  1.00  0.00     0.031 C 
ATOM     58  C   UNL     1      12.421   1.581 -11.697  1.00  0.00     0.029 A 
ATOM     59  C   UNL     1      13.810   1.474 -12.150  1.00  0.00     0.049 A 
ATOM     60  H   UNL     1      15.284   0.216 -11.384  1.00  0.00     0.167 HD
ATOM     61  C   UNL     1      18.323  -2.366  -9.569  1.00  0.00     0.034 A 
ATOM     62  C   UNL     1      14.369   2.170 -13.163  1.00  0.00     0.034 A 
ATOM     63  C   UNL     1      18.961  -1.755 -10.701  1.00  0.00     0.049 A 
ATOM     64  C   UNL     1      15.815   1.919 -13.523  1.00  0.00     0.074 A 
ATOM     65  C   UNL     1      20.245  -1.966 -11.170  1.00  0.00     0.029 A 
ATOM     66  N   UNL     1      18.378  -0.813 -11.534  1.00  0.00    -0.354 N 
ATOM     67  N   UNL     1      16.664   1.077 -12.984  1.00  0.00    -0.248 NA
ATOM     68  C   UNL     1      16.380   2.704 -14.632  1.00  0.00     0.031 C 
ATOM     69  C   UNL     1      20.459  -1.107 -12.246  1.00  0.00     0.029 A 
ATOM     70  C   UNL     1      19.286  -0.412 -12.497  1.00  0.00     0.049 A 
ATOM     71  H   UNL     1      17.455  -0.479 -11.451  1.00  0.00     0.167 HD
ATOM     72  C   UNL     1      17.849   1.206 -13.705  1.00  0.00     0.074 A 
ATOM     73  C   UNL     1      17.605   2.201 -14.728  1.00  0.00     0.031 C 
ATOM     74  C   UNL     1      19.028   0.558 -13.534  1.00  0.00     0.034 A 
BRANCH  61  75
ATOM     75  C   UNL     1      19.126  -3.343  -8.757  1.00  0.00     0.023 A 
ATOM     76  C   UNL     1      20.259  -2.899  -8.054  1.00  0.00     0.031 A 
ATOM     77  C   UNL     1      18.851  -4.721  -8.787  1.00  0.00     0.131 A 
ATOM     78  C   UNL     1      21.107  -3.831  -7.447  1.00  0.00     0.055 A 
ATOM     79  C   UNL     1      19.678  -5.643  -8.146  1.00  0.00     0.041 A 
ATOM     80  F   UNL     1      17.773  -5.187  -9.438  1.00  0.00    -0.206 F 
ATOM     81  C   UNL     1      20.820  -5.200  -7.485  1.00  0.00     0.022 A 
BRANCH  78  82
ATOM     82  S   UNL     1      22.638  -3.306  -6.632  1.00  0.00     0.124 S 
ATOM     83  O   UNL     1      22.502  -3.916  -5.311  1.00  0.00    -0.237 OA
ATOM     84  O   UNL     1      23.657  -3.900  -7.492  1.00  0.00    -0.237 OA
ATOM     85  O   UNL     1      22.562  -1.849  -6.650  1.00  0.00    -0.744 OA
ENDBRANCH  78  82
ENDBRANCH  61  75
BRANCH  62  86
ATOM     86  C   UNL     1      13.534   3.145 -13.921  1.00  0.00     0.023 A 
ATOM     87  C   UNL     1      12.998   4.282 -13.289  1.00  0.00     0.031 A 
ATOM     88  C   UNL     1      13.191   2.910 -15.263  1.00  0.00     0.131 A 
ATOM     89  C   UNL     1      12.100   5.105 -13.980  1.00  0.00     0.055 A 
ATOM     90  C   UNL     1      12.344   3.768 -15.967  1.00  0.00     0.041 A 
ATOM     91  F   UNL     1      13.676   1.837 -15.906  1.00  0.00    -0.206 F 
ATOM     92  C   UNL     1      11.782   4.865 -15.320  1.00  0.00     0.022 A 
BRANCH  89  93
ATOM     93  S   UNL     1      11.243   6.462 -13.134  1.00  0.00     0.124 S 
ATOM     94  O   UNL     1      11.524   7.597 -14.007  1.00  0.00    -0.237 OA
ATOM     95  O   UNL     1       9.862   5.987 -13.140  1.00  0.00    -0.237 OA
ATOM     96  O   UNL     1      11.880   6.507 -11.822  1.00  0.00    -0.744 OA
ENDBRANCH  89  93
ENDBRANCH  62  86
BRANCH  74  97
ATOM     97  C   UNL     1      20.173   0.854 -14.471  1.00  0.00     0.023 A 
ATOM     98  C   UNL     1      20.681  -0.171 -15.294  1.00  0.00     0.031 A 
ATOM     99  C   UNL     1      20.872   2.070 -14.414  1.00  0.00     0.131 A 
ATOM    100  C   UNL     1      21.883   0.021 -15.985  1.00  0.00     0.055 A 
ATOM    101  C   UNL     1      22.046   2.273 -15.142  1.00  0.00     0.041 A 
ATOM    102  F   UNL     1      20.434   3.072 -13.635  1.00  0.00    -0.206 F 
ATOM    103  C   UNL     1      22.564   1.240 -15.920  1.00  0.00     0.022 A 
BRANCH 100 104
ATOM    104  S   UNL     1      22.647  -1.329 -16.926  1.00  0.00     0.124 S 
ATOM    105  O   UNL     1      22.799  -0.729 -18.250  1.00  0.00    -0.237 OA
ATOM    106  O   UNL     1      23.891  -1.548 -16.194  1.00  0.00    -0.237 OA
ATOM    107  O   UNL     1      21.671  -2.411 -16.846  1.00  0.00    -0.744 OA
ENDBRANCH 100 104
ENDBRANCH  74  97
ENDBRANCH  48  49
ENDBRANCH  41  43
ENDBRANCH  40  41
ENDBRANCH  39  40
ENDBRANCH  38  39
ENDBRANCH  37  38
ENDBRANCH  36  37
ENDBRANCH  35  36
ENDBRANCH   1  35
TORSDOF 26
