REMARK SMILES CC[N@@H+]1CCO[C@H](c2nc(C)c(C(=O)OCCOCCOCCOCCOC(=O)c3ccc(-c4c5nc(c(-c6cc(S(=O)(=O)[O-])ccc6F)c6ccc([nH]6)c(-c6cc(S(=O)(=O)[O-])ccc6F)c6nc(c(-c7cc(S(=O)(=O)[O-])ccc7F)c7ccc4[nH]7)C=C6)C=C5)cc3)s2)C1
REMARK SMILES IDX 22 1 21 2 20 3 19 4 18 5 17 6 16 7 15 8 13 9 14 10 12 11
REMARK SMILES IDX 8 12 9 13 93 14 10 15 11 16 7 17 3 18 4 19 94 20 5 22 6 23
REMARK SMILES IDX 2 24 1 25 23 26 24 27 25 28 26 29 27 30 28 31 29 32 30 33
REMARK SMILES IDX 31 34 92 35 32 36 91 37 33 38 34 39 35 40 85 41 36 42 90 43
REMARK SMILES IDX 84 44 86 45 37 46 89 47 83 48 82 49 38 51 70 52 50 53 69 54
REMARK SMILES IDX 51 55 54 56 68 57 87 58 52 59 53 60 67 62 88 63 55 64 39 65
REMARK SMILES IDX 40 66 48 67 41 68 47 69 49 70 46 71 42 72 43 73 44 74 45 75
REMARK SMILES IDX 71 76 72 77 80 78 73 79 79 80 81 81 78 82 74 83 75 84 76 85
REMARK SMILES IDX 77 86 56 87 57 88 65 89 58 90 64 91 66 92 63 93 59 94 60 95
REMARK SMILES IDX 61 96 62 97
REMARK H PARENT 3 21 86 50 54 61
REMARK Flexibility Score: inf
ROOT
ATOM      1  C   UNL     1      -6.974   5.345  -0.980  1.00  0.00     0.188 C 
ENDROOT
BRANCH   1   2
ATOM      2  O   UNL     1      -6.055   4.872   0.001  1.00  0.00    -0.377 OA
BRANCH   2   3
ATOM      3  C   UNL     1      -4.860   4.289  -0.496  1.00  0.00     0.188 C 
BRANCH   3   4
ATOM      4  C   UNL     1      -4.960   2.756  -0.552  1.00  0.00     0.188 C 
BRANCH   4   5
ATOM      5  O   UNL     1      -6.299   2.287  -0.429  1.00  0.00    -0.376 OA
BRANCH   5   6
ATOM      6  C   UNL     1      -6.710   1.802   0.847  1.00  0.00     0.202 C 
BRANCH   6   7
ATOM      7  C   UNL     1      -6.717   2.764   2.052  1.00  0.00     0.261 C 
BRANCH   7   8
ATOM      8  O   UNL     1      -5.483   3.449   2.309  1.00  0.00    -0.459 OA
BRANCH   8   9
ATOM      9  C   UNL     1      -4.435   2.731   2.781  1.00  0.00     0.350 C 
ATOM     10  O   UNL     1      -4.501   1.566   3.127  1.00  0.00    -0.245 OA
BRANCH   9  11
ATOM     11  C   UNL     1      -3.228   3.516   2.618  1.00  0.00     0.135 A 
ATOM     12  C   UNL     1      -0.938   4.166   2.060  1.00  0.00     0.128 A 
ATOM     13  N   UNL     1      -1.667   5.231   2.332  1.00  0.00    -0.243 NA
ATOM     14  S   UNL     1      -1.806   2.692   2.148  1.00  0.00    -0.108 S 
ATOM     15  C   UNL     1      -2.971   4.877   2.670  1.00  0.00     0.063 A 
ATOM     16  C   UNL     1      -3.898   5.984   3.037  1.00  0.00     0.068 C 
BRANCH  12  17
ATOM     17  C   UNL     1       0.547   4.228   1.756  1.00  0.00     0.232 C 
ATOM     18  N   UNL     1       1.680   1.887   1.556  1.00  0.00    -0.331 N 
ATOM     19  C   UNL     1       2.102   2.106   2.944  1.00  0.00     0.291 C 
ATOM     20  C   UNL     1       1.162   3.096   0.890  1.00  0.00     0.302 C 
ATOM     21  H   UNL     1       2.547   1.710   1.048  1.00  0.00     0.348 HD
ATOM     22  C   UNL     1       1.356   3.192   3.729  1.00  0.00     0.222 C 
ATOM     23  O   UNL     1       1.268   4.409   2.990  1.00  0.00    -0.359 OA
BRANCH  18  24
ATOM     24  C   UNL     1       0.978   0.635   1.302  1.00  0.00     0.258 C 
ATOM     25  C   UNL     1       1.148   0.163  -0.140  1.00  0.00     0.071 C 
ENDBRANCH  18  24
ENDBRANCH  12  17
ENDBRANCH   9  11
ENDBRANCH   8   9
ENDBRANCH   7   8
ENDBRANCH   6   7
ENDBRANCH   5   6
ENDBRANCH   4   5
ENDBRANCH   3   4
ENDBRANCH   2   3
ENDBRANCH   1   2
BRANCH   1  26
ATOM     26  C   UNL     1      -7.234   4.486  -2.235  1.00  0.00     0.188 C 
BRANCH  26  27
ATOM     27  O   UNL     1      -6.066   4.299  -3.042  1.00  0.00    -0.376 OA
BRANCH  27  28
ATOM     28  C   UNL     1      -6.015   5.065  -4.244  1.00  0.00     0.202 C 
BRANCH  28  29
ATOM     29  C   UNL     1      -5.574   6.522  -4.034  1.00  0.00     0.261 C 
BRANCH  29  30
ATOM     30  O   UNL     1      -6.495   7.334  -3.288  1.00  0.00    -0.460 OA
BRANCH  30  31
ATOM     31  C   UNL     1      -7.746   7.454  -3.785  1.00  0.00     0.338 C 
ATOM     32  O   UNL     1      -8.151   7.024  -4.850  1.00  0.00    -0.246 OA
BRANCH  31  33
ATOM     33  C   UNL     1      -8.609   8.028  -2.732  1.00  0.00     0.060 A 
ATOM     34  C   UNL     1      -9.807   7.374  -2.420  1.00  0.00     0.016 A 
ATOM     35  C   UNL     1      -8.255   9.212  -2.079  1.00  0.00     0.016 A 
ATOM     36  C   UNL     1     -10.685   7.935  -1.493  1.00  0.00     0.010 A 
ATOM     37  C   UNL     1      -9.143   9.782  -1.163  1.00  0.00     0.010 A 
ATOM     38  C   UNL     1     -10.380   9.168  -0.900  1.00  0.00    -0.014 A 
BRANCH  38  39
ATOM     39  C   UNL     1     -11.445   9.933  -0.208  1.00  0.00     0.031 A 
ATOM     40  C   UNL     1     -12.243  10.917  -1.020  1.00  0.00     0.074 A 
ATOM     41  C   UNL     1     -11.707   9.755   1.099  1.00  0.00     0.049 A 
ATOM     42  N   UNL     1     -13.192  11.734  -0.644  1.00  0.00    -0.248 NA
ATOM     43  C   UNL     1     -11.919  10.989  -2.455  1.00  0.00     0.031 C 
ATOM     44  C   UNL     1     -11.030   8.802   1.976  1.00  0.00     0.029 A 
ATOM     45  N   UNL     1     -12.617  10.379   1.916  1.00  0.00    -0.354 N 
ATOM     46  C   UNL     1     -13.586  12.408  -1.795  1.00  0.00     0.074 A 
ATOM     47  C   UNL     1     -12.743  11.936  -2.872  1.00  0.00     0.031 C 
ATOM     48  C   UNL     1     -11.540   8.916   3.216  1.00  0.00     0.029 A 
ATOM     49  C   UNL     1     -12.557   9.966   3.226  1.00  0.00     0.049 A 
ATOM     50  H   UNL     1     -13.252  11.058   1.593  1.00  0.00     0.167 HD
ATOM     51  C   UNL     1     -14.568  13.330  -1.946  1.00  0.00     0.034 A 
ATOM     52  C   UNL     1     -13.233  10.406   4.307  1.00  0.00     0.034 A 
ATOM     53  C   UNL     1     -15.378  13.819  -0.860  1.00  0.00     0.049 A 
ATOM     54  C   UNL     1     -14.256  11.506   4.135  1.00  0.00     0.074 A 
ATOM     55  C   UNL     1     -16.384  14.770  -0.891  1.00  0.00     0.029 A 
ATOM     56  N   UNL     1     -15.265  13.404   0.460  1.00  0.00    -0.354 N 
ATOM     57  N   UNL     1     -14.621  12.135   3.041  1.00  0.00    -0.248 NA
ATOM     58  C   UNL     1     -14.963  11.950   5.345  1.00  0.00     0.031 C 
ATOM     59  C   UNL     1     -16.839  14.969   0.417  1.00  0.00     0.029 A 
ATOM     60  C   UNL     1     -16.166  14.094   1.255  1.00  0.00     0.049 A 
ATOM     61  H   UNL     1     -14.637  12.719   0.784  1.00  0.00     0.167 HD
ATOM     62  C   UNL     1     -15.627  13.018   3.427  1.00  0.00     0.074 A 
ATOM     63  C   UNL     1     -15.814  12.837   4.851  1.00  0.00     0.031 C 
ATOM     64  C   UNL     1     -16.339  13.896   2.674  1.00  0.00     0.034 A 
BRANCH  51  65
ATOM     65  C   UNL     1     -14.770  13.895  -3.329  1.00  0.00     0.023 A 
ATOM     66  C   UNL     1     -15.218  13.090  -4.391  1.00  0.00     0.031 A 
ATOM     67  C   UNL     1     -14.463  15.238  -3.601  1.00  0.00     0.131 A 
ATOM     68  C   UNL     1     -15.280  13.617  -5.690  1.00  0.00     0.055 A 
ATOM     69  C   UNL     1     -14.598  15.777  -4.882  1.00  0.00     0.041 A 
ATOM     70  F   UNL     1     -14.005  16.045  -2.631  1.00  0.00    -0.206 F 
ATOM     71  C   UNL     1     -14.995  14.962  -5.938  1.00  0.00     0.022 A 
BRANCH  68  72
ATOM     72  S   UNL     1     -15.607  12.488  -7.070  1.00  0.00     0.124 S 
ATOM     73  O   UNL     1     -14.480  11.564  -6.968  1.00  0.00    -0.237 OA
ATOM     74  O   UNL     1     -16.915  11.941  -6.729  1.00  0.00    -0.237 OA
ATOM     75  O   UNL     1     -15.583  13.362  -8.241  1.00  0.00    -0.744 OA
ENDBRANCH  68  72
ENDBRANCH  51  65
BRANCH  52  76
ATOM     76  C   UNL     1     -12.952   9.848   5.662  1.00  0.00     0.023 A 
ATOM     77  C   UNL     1     -13.940   9.157   6.381  1.00  0.00     0.031 A 
ATOM     78  C   UNL     1     -11.713  10.069   6.289  1.00  0.00     0.131 A 
ATOM     79  C   UNL     1     -13.693   8.759   7.704  1.00  0.00     0.055 A 
ATOM     80  C   UNL     1     -11.455   9.627   7.588  1.00  0.00     0.041 A 
ATOM     81  F   UNL     1     -10.734  10.727   5.647  1.00  0.00    -0.206 F 
ATOM     82  C   UNL     1     -12.454   8.980   8.309  1.00  0.00     0.022 A 
BRANCH  79  83
ATOM     83  S   UNL     1     -15.052   8.031   8.661  1.00  0.00     0.124 S 
ATOM     84  O   UNL     1     -16.063   9.080   8.586  1.00  0.00    -0.237 OA
ATOM     85  O   UNL     1     -15.333   6.814   7.907  1.00  0.00    -0.237 OA
ATOM     86  O   UNL     1     -14.464   7.823   9.982  1.00  0.00    -0.744 OA
ENDBRANCH  79  83
ENDBRANCH  52  76
BRANCH  64  87
ATOM     87  C   UNL     1     -17.426  14.676   3.370  1.00  0.00     0.023 A 
ATOM     88  C   UNL     1     -17.135  15.670   4.320  1.00  0.00     0.031 A 
ATOM     89  C   UNL     1     -18.776  14.414   3.075  1.00  0.00     0.131 A 
ATOM     90  C   UNL     1     -18.183  16.333   4.978  1.00  0.00     0.055 A 
ATOM     91  C   UNL     1     -19.812  15.113   3.694  1.00  0.00     0.041 A 
ATOM     92  F   UNL     1     -19.108  13.475   2.174  1.00  0.00    -0.206 F 
ATOM     93  C   UNL     1     -19.518  16.071   4.661  1.00  0.00     0.022 A 
BRANCH  90  94
ATOM     94  S   UNL     1     -17.779  17.492   6.314  1.00  0.00     0.124 S 
ATOM     95  O   UNL     1     -17.044  16.641   7.244  1.00  0.00    -0.237 OA
ATOM     96  O   UNL     1     -16.993  18.506   5.620  1.00  0.00    -0.237 OA
ATOM     97  O   UNL     1     -19.088  17.941   6.786  1.00  0.00    -0.744 OA
ENDBRANCH  90  94
ENDBRANCH  64  87
ENDBRANCH  38  39
ENDBRANCH  31  33
ENDBRANCH  30  31
ENDBRANCH  29  30
ENDBRANCH  28  29
ENDBRANCH  27  28
ENDBRANCH  26  27
ENDBRANCH   1  26
TORSDOF 25
