REMARK SMILES Cc1cc(C(=O)N[C@H]2C=C[C@H](C(=O)OCCOCCOCCOCCOC(=O)c3ccc(-c4c5nc(c(-c6cc(S(=O)(=O)[O-])ccc6F)c6ccc([nH]6)c(-c6cc(S(=O)(=O)[O-])ccc6F)c6nc(c(-c7cc(S(=O)(=O)[O-])ccc7F)c7ccc4[nH]7)C=C6)C=C5)cc3)C2)ccc1F
REMARK SMILES IDX 21 1 20 2 19 3 18 4 17 5 16 6 15 7 14 8 12 9 13 10 11 11
REMARK SMILES IDX 8 12 9 13 92 14 10 15 7 16 5 17 6 18 4 20 1 21 2 22 3 23
REMARK SMILES IDX 95 24 94 25 96 26 93 27 22 28 23 29 24 30 25 31 26 32 27 33
REMARK SMILES IDX 28 34 29 35 30 36 91 37 31 38 90 39 32 40 33 41 34 42 84 43
REMARK SMILES IDX 35 44 89 45 83 46 85 47 36 48 88 49 82 50 81 51 37 53 69 54
REMARK SMILES IDX 49 55 68 56 50 57 53 58 67 59 86 60 51 61 52 62 66 64 87 65
REMARK SMILES IDX 54 66 38 67 39 68 47 69 40 70 46 71 48 72 45 73 41 74 42 75
REMARK SMILES IDX 43 76 44 77 70 78 71 79 79 80 72 81 78 82 80 83 77 84 73 85
REMARK SMILES IDX 74 86 75 87 76 88 55 89 56 90 64 91 57 92 63 93 65 94 62 95
REMARK SMILES IDX 58 96 59 97 60 98 61 99
REMARK H PARENT 7 19 85 52 53 63
REMARK Flexibility Score: inf
ROOT
ATOM      1  C   UNL     1       2.883   6.231   3.312  1.00  0.00     0.188 C 
ENDROOT
BRANCH   1   2
ATOM      2  O   UNL     1       1.463   6.105   3.204  1.00  0.00    -0.377 OA
BRANCH   2   3
ATOM      3  C   UNL     1       0.894   4.814   3.372  1.00  0.00     0.188 C 
BRANCH   3   4
ATOM      4  C   UNL     1       1.456   3.646   2.537  1.00  0.00     0.188 C 
BRANCH   4   5
ATOM      5  O   UNL     1       2.780   3.826   2.068  1.00  0.00    -0.376 OA
BRANCH   5   6
ATOM      6  C   UNL     1       2.973   4.189   0.706  1.00  0.00     0.202 C 
BRANCH   6   7
ATOM      7  C   UNL     1       2.155   5.319   0.041  1.00  0.00     0.261 C 
BRANCH   7   8
ATOM      8  O   UNL     1       0.826   5.490   0.551  1.00  0.00    -0.463 OA
BRANCH   8   9
ATOM      9  C   UNL     1      -0.222   5.052  -0.180  1.00  0.00     0.312 C 
ATOM     10  O   UNL     1      -0.130   4.541  -1.289  1.00  0.00    -0.252 OA
BRANCH   9  11
ATOM     11  C   UNL     1      -1.512   5.119   0.656  1.00  0.00     0.124 C 
ATOM     12  C   UNL     1      -2.793   3.380  -0.367  1.00  0.00     0.106 C 
ATOM     13  C   UNL     1      -3.473   4.696  -0.575  1.00  0.00    -0.006 C 
ATOM     14  C   UNL     1      -2.000   3.686   0.906  1.00  0.00     0.048 C 
ATOM     15  C   UNL     1      -2.708   5.677  -0.067  1.00  0.00    -0.014 C 
BRANCH  12  16
ATOM     16  N   UNL     1      -3.689   2.270  -0.260  1.00  0.00    -0.346 N 
ATOM     17  C   UNL     1      -3.428   0.919  -0.318  1.00  0.00     0.251 C 
ATOM     18  O   UNL     1      -4.407   0.168  -0.339  1.00  0.00    -0.269 OA
ATOM     19  H   UNL     1      -4.634   2.508  -0.125  1.00  0.00     0.164 HD
BRANCH  17  20
ATOM     20  C   UNL     1      -2.054   0.299  -0.297  1.00  0.00     0.040 A 
ATOM     21  C   UNL     1       1.685   1.021  -0.613  1.00  0.00     0.047 C 
ATOM     22  C   UNL     1       0.396   0.276  -0.445  1.00  0.00    -0.015 A 
ATOM     23  C   UNL     1      -0.840   0.932  -0.599  1.00  0.00     0.020 A 
ATOM     24  C   UNL     1       0.410  -1.054  -0.041  1.00  0.00     0.126 A 
ATOM     25  C   UNL     1      -0.775  -1.732   0.199  1.00  0.00     0.040 A 
ATOM     26  F   UNL     1       1.575  -1.695   0.122  1.00  0.00    -0.207 F 
ATOM     27  C   UNL     1      -1.995  -1.057   0.079  1.00  0.00     0.017 A 
ENDBRANCH  17  20
ENDBRANCH  12  16
ENDBRANCH   9  11
ENDBRANCH   8   9
ENDBRANCH   7   8
ENDBRANCH   6   7
ENDBRANCH   5   6
ENDBRANCH   4   5
ENDBRANCH   3   4
ENDBRANCH   2   3
ENDBRANCH   1   2
BRANCH   1  28
ATOM     28  C   UNL     1       3.660   5.527   4.443  1.00  0.00     0.188 C 
BRANCH  28  29
ATOM     29  O   UNL     1       2.966   4.423   5.021  1.00  0.00    -0.376 OA
BRANCH  29  30
ATOM     30  C   UNL     1       2.710   4.524   6.415  1.00  0.00     0.202 C 
BRANCH  30  31
ATOM     31  C   UNL     1       1.655   5.540   6.893  1.00  0.00     0.261 C 
BRANCH  31  32
ATOM     32  O   UNL     1       1.394   6.621   6.002  1.00  0.00    -0.460 OA
BRANCH  32  33
ATOM     33  C   UNL     1       2.240   7.655   6.186  1.00  0.00     0.338 C 
ATOM     34  O   UNL     1       3.118   7.713   7.031  1.00  0.00    -0.246 OA
BRANCH  33  35
ATOM     35  C   UNL     1       1.873   8.790   5.293  1.00  0.00     0.060 A 
ATOM     36  C   UNL     1       3.024   9.449   4.822  1.00  0.00     0.016 A 
ATOM     37  C   UNL     1       0.858   9.508   5.921  1.00  0.00     0.016 A 
ATOM     38  C   UNL     1       3.435  10.580   5.484  1.00  0.00     0.010 A 
ATOM     39  C   UNL     1       1.257  10.634   6.596  1.00  0.00     0.010 A 
ATOM     40  C   UNL     1       2.587  11.065   6.465  1.00  0.00    -0.014 A 
BRANCH  40  41
ATOM     41  C   UNL     1       3.035  12.029   7.431  1.00  0.00     0.031 A 
ATOM     42  C   UNL     1       3.144  13.422   6.999  1.00  0.00     0.074 A 
ATOM     43  C   UNL     1       3.229  11.615   8.700  1.00  0.00     0.049 A 
ATOM     44  N   UNL     1       3.835  14.316   7.608  1.00  0.00    -0.248 NA
ATOM     45  C   UNL     1       2.527  13.892   5.761  1.00  0.00     0.031 C 
ATOM     46  C   UNL     1       3.195  12.445   9.890  1.00  0.00     0.029 A 
ATOM     47  N   UNL     1       3.642  10.356   9.158  1.00  0.00    -0.354 N 
ATOM     48  C   UNL     1       3.484  15.524   7.049  1.00  0.00     0.074 A 
ATOM     49  C   UNL     1       2.789  15.198   5.825  1.00  0.00     0.031 C 
ATOM     50  C   UNL     1       3.771  11.775  10.900  1.00  0.00     0.029 A 
ATOM     51  C   UNL     1       4.377  10.578  10.334  1.00  0.00     0.049 A 
ATOM     52  H   UNL     1       3.455   9.486   8.737  1.00  0.00     0.167 HD
ATOM     53  C   UNL     1       3.634  16.656   7.790  1.00  0.00     0.034 A 
ATOM     54  C   UNL     1       5.674  10.203  10.528  1.00  0.00     0.034 A 
ATOM     55  C   UNL     1       4.274  16.348   9.070  1.00  0.00     0.049 A 
ATOM     56  C   UNL     1       6.573  11.385  10.829  1.00  0.00     0.074 A 
ATOM     57  C   UNL     1       3.747  16.042  10.315  1.00  0.00     0.029 A 
ATOM     58  N   UNL     1       5.603  15.939   9.099  1.00  0.00    -0.354 N 
ATOM     59  N   UNL     1       6.239  12.622  10.589  1.00  0.00    -0.248 NA
ATOM     60  C   UNL     1       7.921  11.275  11.379  1.00  0.00     0.031 C 
ATOM     61  C   UNL     1       4.751  15.390  11.074  1.00  0.00     0.029 A 
ATOM     62  C   UNL     1       5.898  15.317  10.303  1.00  0.00     0.049 A 
ATOM     63  H   UNL     1       6.246  16.073   8.366  1.00  0.00     0.167 HD
ATOM     64  C   UNL     1       7.293  13.453  10.858  1.00  0.00     0.074 A 
ATOM     65  C   UNL     1       8.306  12.564  11.397  1.00  0.00     0.031 C 
ATOM     66  C   UNL     1       7.238  14.789  10.571  1.00  0.00     0.034 A 
BRANCH  53  67
ATOM     67  C   UNL     1       2.857  17.919   7.487  1.00  0.00     0.023 A 
ATOM     68  C   UNL     1       2.434  18.296   6.193  1.00  0.00     0.031 A 
ATOM     69  C   UNL     1       2.426  18.762   8.533  1.00  0.00     0.131 A 
ATOM     70  C   UNL     1       1.532  19.359   5.994  1.00  0.00     0.055 A 
ATOM     71  C   UNL     1       1.582  19.860   8.327  1.00  0.00     0.041 A 
ATOM     72  F   UNL     1       2.765  18.533   9.809  1.00  0.00    -0.206 F 
ATOM     73  C   UNL     1       1.105  20.147   7.058  1.00  0.00     0.022 A 
BRANCH  70  74
ATOM     74  S   UNL     1       0.797  19.677   4.361  1.00  0.00     0.124 S 
ATOM     75  O   UNL     1      -0.634  19.712   4.662  1.00  0.00    -0.237 OA
ATOM     76  O   UNL     1       1.387  20.960   3.996  1.00  0.00    -0.237 OA
ATOM     77  O   UNL     1       1.223  18.533   3.558  1.00  0.00    -0.744 OA
ENDBRANCH  70  74
ENDBRANCH  53  67
BRANCH  54  78
ATOM     78  C   UNL     1       6.097   9.001   9.765  1.00  0.00     0.023 A 
ATOM     79  C   UNL     1       6.710   9.125   8.508  1.00  0.00     0.031 A 
ATOM     80  C   UNL     1       5.537   7.755  10.121  1.00  0.00     0.131 A 
ATOM     81  C   UNL     1       6.628   8.058   7.599  1.00  0.00     0.055 A 
ATOM     82  C   UNL     1       5.474   6.694   9.218  1.00  0.00     0.041 A 
ATOM     83  F   UNL     1       4.955   7.592  11.321  1.00  0.00    -0.206 F 
ATOM     84  C   UNL     1       5.998   6.855   7.941  1.00  0.00     0.022 A 
BRANCH  81  85
ATOM     85  S   UNL     1       7.233   8.224   5.897  1.00  0.00     0.124 S 
ATOM     86  O   UNL     1       8.141   7.086   5.787  1.00  0.00    -0.237 OA
ATOM     87  O   UNL     1       6.009   8.114   5.107  1.00  0.00    -0.237 OA
ATOM     88  O   UNL     1       7.871   9.536   5.886  1.00  0.00    -0.744 OA
ENDBRANCH  81  85
ENDBRANCH  54  78
BRANCH  66  89
ATOM     89  C   UNL     1       8.400  15.760  10.569  1.00  0.00     0.023 A 
ATOM     90  C   UNL     1       8.112  17.148  10.526  1.00  0.00     0.031 A 
ATOM     91  C   UNL     1       9.756  15.415  10.452  1.00  0.00     0.131 A 
ATOM     92  C   UNL     1       9.119  18.104  10.348  1.00  0.00     0.055 A 
ATOM     93  C   UNL     1      10.771  16.376  10.367  1.00  0.00     0.041 A 
ATOM     94  F   UNL     1      10.158  14.142  10.343  1.00  0.00    -0.206 F 
ATOM     95  C   UNL     1      10.456  17.726  10.297  1.00  0.00     0.022 A 
BRANCH  92  96
ATOM     96  S   UNL     1       8.695  19.834  10.001  1.00  0.00     0.124 S 
ATOM     97  O   UNL     1       8.951  20.468  11.291  1.00  0.00    -0.237 OA
ATOM     98  O   UNL     1       9.638  20.178   8.938  1.00  0.00    -0.237 OA
ATOM     99  O   UNL     1       7.298  19.771   9.589  1.00  0.00    -0.744 OA
ENDBRANCH  92  96
ENDBRANCH  66  89
ENDBRANCH  40  41
ENDBRANCH  33  35
ENDBRANCH  32  33
ENDBRANCH  31  32
ENDBRANCH  30  31
ENDBRANCH  29  30
ENDBRANCH  28  29
ENDBRANCH   1  28
TORSDOF 25
