REMARK SMILES Cc1cc2c(c(C)c1Cl)C=C(C(=O)OCCOCCOCCOCCOC(=O)c1ccc(-c3c4nc(c(-c5cc(S(=O)(=O)[O-])ccc5F)c5ccc([nH]5)c(-c5cc(S(=O)(=O)[O-])ccc5F)c5nc(c(-c6cc(S(=O)(=O)[O-])ccc6F)c6ccc3[nH]6)C=C5)C=C4)cc1)[C@H](C(F)(F)F)O2
REMARK SMILES IDX 21 1 20 2 19 3 18 4 17 5 16 6 15 7 14 8 12 9 13 10 11 11
REMARK SMILES IDX 1 12 2 13 3 14 8 15 4 16 6 17 9 18 5 19 97 20 7 21 10 22
REMARK SMILES IDX 92 23 93 24 94 25 95 26 96 27 22 28 23 29 24 30 25 31 26 32
REMARK SMILES IDX 27 33 28 34 29 35 30 36 91 37 31 38 90 39 32 40 33 41 34 42
REMARK SMILES IDX 84 43 35 44 89 45 83 46 85 47 36 48 88 49 82 50 81 51 37 53
REMARK SMILES IDX 69 54 49 55 68 56 50 57 53 58 67 59 86 60 51 61 52 62 66 64
REMARK SMILES IDX 87 65 54 66 38 67 39 68 47 69 40 70 46 71 48 72 45 73 41 74
REMARK SMILES IDX 42 75 43 76 44 77 70 78 71 79 79 80 72 81 78 82 80 83 77 84
REMARK SMILES IDX 73 85 74 86 75 87 76 88 55 89 56 90 64 91 57 92 63 93 65 94
REMARK SMILES IDX 62 95 58 96 59 97 60 98 61 99
REMARK H PARENT 85 52 53 63
REMARK Flexibility Score: inf
ROOT
ATOM      1  C   UNL     1       0.721   0.896  10.226  1.00  0.00     0.188 C 
ENDROOT
BRANCH   1   2
ATOM      2  O   UNL     1      -0.069   1.176   9.080  1.00  0.00    -0.377 OA
BRANCH   2   3
ATOM      3  C   UNL     1       0.355   2.225   8.247  1.00  0.00     0.188 C 
BRANCH   3   4
ATOM      4  C   UNL     1      -0.525   3.477   8.340  1.00  0.00     0.188 C 
BRANCH   4   5
ATOM      5  O   UNL     1      -1.293   3.726   9.507  1.00  0.00    -0.376 OA
BRANCH   5   6
ATOM      6  C   UNL     1      -2.172   2.728  10.026  1.00  0.00     0.202 C 
BRANCH   6   7
ATOM      7  C   UNL     1      -3.135   1.957   9.103  1.00  0.00     0.261 C 
BRANCH   7   8
ATOM      8  O   UNL     1      -2.500   1.236   8.030  1.00  0.00    -0.460 OA
BRANCH   8   9
ATOM      9  C   UNL     1      -2.806   1.643   6.784  1.00  0.00     0.338 C 
ATOM     10  O   UNL     1      -3.634   2.489   6.480  1.00  0.00    -0.246 OA
BRANCH   9  11
ATOM     11  C   UNL     1      -1.877   1.066   5.796  1.00  0.00     0.087 C 
ATOM     12  C   UNL     1       1.024  -0.127   0.124  1.00  0.00     0.046 C 
ATOM     13  C   UNL     1       0.526   0.450   1.422  1.00  0.00    -0.028 A 
ATOM     14  C   UNL     1      -0.133  -0.394   2.326  1.00  0.00     0.052 A 
ATOM     15  C   UNL     1       0.684   1.813   1.747  1.00  0.00     0.047 A 
ATOM     16  C   UNL     1      -0.677   0.110   3.503  1.00  0.00     0.128 A 
ATOM     17  C   UNL     1       0.145   2.344   2.942  1.00  0.00    -0.021 A 
ATOM     18  Cl  UNL     1       1.528   2.838   0.622  1.00  0.00    -0.084 Cl
ATOM     19  C   UNL     1      -0.568   1.473   3.806  1.00  0.00     0.022 A 
ATOM     20  O   UNL     1      -1.383  -0.787   4.262  1.00  0.00    -0.475 OA
ATOM     21  C   UNL     1       0.306   3.801   3.310  1.00  0.00     0.047 C 
ATOM     22  C   UNL     1      -1.328   1.956   4.955  1.00  0.00     0.027 C 
ATOM     23  C   UNL     1      -1.713  -0.416   5.635  1.00  0.00     0.316 C 
BRANCH  23  24
ATOM     24  C   UNL     1      -0.713  -1.096   6.591  1.00  0.00     0.430 C 
ATOM     25  F   UNL     1       0.497  -0.490   6.592  1.00  0.00    -0.167 F 
ATOM     26  F   UNL     1      -1.169  -1.146   7.859  1.00  0.00    -0.167 F 
ATOM     27  F   UNL     1      -0.500  -2.386   6.214  1.00  0.00    -0.167 F 
ENDBRANCH  23  24
ENDBRANCH   9  11
ENDBRANCH   8   9
ENDBRANCH   7   8
ENDBRANCH   6   7
ENDBRANCH   5   6
ENDBRANCH   4   5
ENDBRANCH   3   4
ENDBRANCH   2   3
ENDBRANCH   1   2
BRANCH   1  28
ATOM     28  C   UNL     1       1.361   2.073  10.985  1.00  0.00     0.188 C 
BRANCH  28  29
ATOM     29  O   UNL     1       2.409   2.816  10.386  1.00  0.00    -0.376 OA
BRANCH  29  30
ATOM     30  C   UNL     1       3.562   2.239   9.803  1.00  0.00     0.202 C 
BRANCH  30  31
ATOM     31  C   UNL     1       4.210   0.893  10.168  1.00  0.00     0.261 C 
BRANCH  31  32
ATOM     32  O   UNL     1       3.414  -0.088  10.820  1.00  0.00    -0.460 OA
BRANCH  32  33
ATOM     33  C   UNL     1       3.449  -0.071  12.170  1.00  0.00     0.338 C 
ATOM     34  O   UNL     1       4.061   0.711  12.878  1.00  0.00    -0.246 OA
BRANCH  33  35
ATOM     35  C   UNL     1       2.467  -1.060  12.648  1.00  0.00     0.060 A 
ATOM     36  C   UNL     1       1.400  -0.623  13.441  1.00  0.00     0.016 A 
ATOM     37  C   UNL     1       2.602  -2.412  12.316  1.00  0.00     0.016 A 
ATOM     38  C   UNL     1       0.478  -1.543  13.931  1.00  0.00     0.010 A 
ATOM     39  C   UNL     1       1.692  -3.337  12.830  1.00  0.00     0.010 A 
ATOM     40  C   UNL     1       0.648  -2.909  13.669  1.00  0.00    -0.014 A 
BRANCH  40  41
ATOM     41  C   UNL     1      -0.118  -3.892  14.469  1.00  0.00     0.031 A 
ATOM     42  C   UNL     1       0.538  -4.455  15.701  1.00  0.00     0.074 A 
ATOM     43  C   UNL     1      -1.382  -4.224  14.152  1.00  0.00     0.049 A 
ATOM     44  N   UNL     1       0.075  -5.319  16.564  1.00  0.00    -0.248 NA
ATOM     45  C   UNL     1       1.899  -3.976  15.998  1.00  0.00     0.031 C 
ATOM     46  C   UNL     1      -2.135  -3.695  13.017  1.00  0.00     0.029 A 
ATOM     47  N   UNL     1      -2.259  -5.080  14.769  1.00  0.00    -0.354 N 
ATOM     48  C   UNL     1       1.081  -5.477  17.511  1.00  0.00     0.074 A 
ATOM     49  C   UNL     1       2.197  -4.661  17.090  1.00  0.00     0.031 C 
ATOM     50  C   UNL     1      -3.369  -4.233  13.026  1.00  0.00     0.029 A 
ATOM     51  C   UNL     1      -3.481  -5.167  14.146  1.00  0.00     0.049 A 
ATOM     52  H   UNL     1      -2.033  -5.586  15.583  1.00  0.00     0.167 HD
ATOM     53  C   UNL     1       1.065  -6.218  18.642  1.00  0.00     0.034 A 
ATOM     54  C   UNL     1      -4.559  -5.923  14.442  1.00  0.00     0.034 A 
ATOM     55  C   UNL     1      -0.051  -7.026  19.053  1.00  0.00     0.049 A 
ATOM     56  C   UNL     1      -4.505  -6.838  15.642  1.00  0.00     0.074 A 
ATOM     57  C   UNL     1      -0.171  -7.809  20.186  1.00  0.00     0.029 A 
ATOM     58  N   UNL     1      -1.234  -7.161  18.342  1.00  0.00    -0.354 N 
ATOM     59  N   UNL     1      -3.548  -6.978  16.530  1.00  0.00    -0.248 NA
ATOM     60  C   UNL     1      -5.670  -7.705  15.875  1.00  0.00     0.031 C 
ATOM     61  C   UNL     1      -1.399  -8.472  20.126  1.00  0.00     0.029 A 
ATOM     62  C   UNL     1      -2.073  -8.050  18.989  1.00  0.00     0.049 A 
ATOM     63  H   UNL     1      -1.446  -6.693  17.502  1.00  0.00     0.167 HD
ATOM     64  C   UNL     1      -4.001  -7.937  17.431  1.00  0.00     0.074 A 
ATOM     65  C   UNL     1      -5.322  -8.334  16.990  1.00  0.00     0.031 C 
ATOM     66  C   UNL     1      -3.380  -8.444  18.526  1.00  0.00     0.034 A 
BRANCH  53  67
ATOM     67  C   UNL     1       2.300  -6.206  19.501  1.00  0.00     0.023 A 
ATOM     68  C   UNL     1       2.688  -5.055  20.206  1.00  0.00     0.031 A 
ATOM     69  C   UNL     1       3.087  -7.363  19.630  1.00  0.00     0.131 A 
ATOM     70  C   UNL     1       3.856  -5.073  20.979  1.00  0.00     0.055 A 
ATOM     71  C   UNL     1       4.214  -7.394  20.451  1.00  0.00     0.041 A 
ATOM     72  F   UNL     1       2.771  -8.482  18.960  1.00  0.00    -0.206 F 
ATOM     73  C   UNL     1       4.608  -6.242  21.127  1.00  0.00     0.022 A 
BRANCH  70  74
ATOM     74  S   UNL     1       4.425  -3.524  21.728  1.00  0.00     0.124 S 
ATOM     75  O   UNL     1       4.706  -2.712  20.546  1.00  0.00    -0.237 OA
ATOM     76  O   UNL     1       3.273  -3.115  22.524  1.00  0.00    -0.237 OA
ATOM     77  O   UNL     1       5.601  -3.926  22.495  1.00  0.00    -0.744 OA
ENDBRANCH  70  74
ENDBRANCH  53  67
BRANCH  54  78
ATOM     78  C   UNL     1      -5.770  -5.874  13.576  1.00  0.00     0.023 A 
ATOM     79  C   UNL     1      -6.987  -5.370  14.061  1.00  0.00     0.031 A 
ATOM     80  C   UNL     1      -5.734  -6.351  12.253  1.00  0.00     0.131 A 
ATOM     81  C   UNL     1      -8.123  -5.372  13.236  1.00  0.00     0.055 A 
ATOM     82  C   UNL     1      -6.856  -6.314  11.424  1.00  0.00     0.041 A 
ATOM     83  F   UNL     1      -4.595  -6.846  11.741  1.00  0.00    -0.206 F 
ATOM     84  C   UNL     1      -8.062  -5.828  11.917  1.00  0.00     0.022 A 
BRANCH  81  85
ATOM     85  S   UNL     1      -9.701  -4.799  13.924  1.00  0.00     0.124 S 
ATOM     86  O   UNL     1      -9.945  -5.788  14.968  1.00  0.00    -0.237 OA
ATOM     87  O   UNL     1      -9.365  -3.454  14.378  1.00  0.00    -0.237 OA
ATOM     88  O   UNL     1     -10.611  -4.858  12.781  1.00  0.00    -0.744 OA
ENDBRANCH  81  85
ENDBRANCH  54  78
BRANCH  66  89
ATOM     89  C   UNL     1      -4.105  -9.490  19.329  1.00  0.00     0.023 A 
ATOM     90  C   UNL     1      -4.245 -10.801  18.847  1.00  0.00     0.031 A 
ATOM     91  C   UNL     1      -4.560  -9.203  20.628  1.00  0.00     0.131 A 
ATOM     92  C   UNL     1      -4.834 -11.781  19.659  1.00  0.00     0.055 A 
ATOM     93  C   UNL     1      -5.106 -10.192  21.447  1.00  0.00     0.041 A 
ATOM     94  F   UNL     1      -4.438  -7.966  21.136  1.00  0.00    -0.206 F 
ATOM     95  C   UNL     1      -5.246 -11.490  20.963  1.00  0.00     0.022 A 
BRANCH  92  96
ATOM     96  S   UNL     1      -5.057 -13.450  18.986  1.00  0.00     0.124 S 
ATOM     97  O   UNL     1      -6.022 -13.217  17.916  1.00  0.00    -0.237 OA
ATOM     98  O   UNL     1      -3.707 -13.804  18.561  1.00  0.00    -0.237 OA
ATOM     99  O   UNL     1      -5.565 -14.213  20.125  1.00  0.00    -0.744 OA
ENDBRANCH  92  96
ENDBRANCH  66  89
ENDBRANCH  40  41
ENDBRANCH  33  35
ENDBRANCH  32  33
ENDBRANCH  31  32
ENDBRANCH  30  31
ENDBRANCH  29  30
ENDBRANCH  28  29
ENDBRANCH   1  28
TORSDOF 24
