REMARK SMILES O=C(OCCOCCOCCOCCOC(=O)c1ccc(-c2ccn(C(F)F)c(=O)c2)cc1O)c1ccc(-c2c3nc(c(-c4cc(S(=O)(=O)[O-])ccc4F)c4ccc([nH]4)c(-c4cc(S(=O)(=O)[O-])ccc4F)c4nc(c(-c5cc(S(=O)(=O)[O-])ccc5F)c5ccc2[nH]5)C=C4)C=C3)cc1
REMARK SMILES IDX 8 1 7 2 6 3 5 4 4 5 3 6 2 7 1 8 35 9 36 10 97 11 37 12 96 13
REMARK SMILES IDX 38 14 39 15 40 16 90 17 41 18 95 19 89 20 91 21 42 22 94 23
REMARK SMILES IDX 88 24 87 25 43 27 75 28 55 29 74 30 56 31 59 32 73 33 92 34
REMARK SMILES IDX 57 35 58 36 72 38 93 39 60 40 44 41 45 42 53 43 46 44 52 45
REMARK SMILES IDX 54 46 51 47 47 48 48 49 49 50 50 51 76 52 77 53 85 54 78 55
REMARK SMILES IDX 84 56 86 57 83 58 79 59 80 60 81 61 82 62 61 63 62 64 70 65
REMARK SMILES IDX 63 66 69 67 71 68 68 69 64 70 65 71 66 72 67 73 9 74 10 75
REMARK SMILES IDX 11 76 12 77 13 78 14 79 15 80 16 81 17 82 18 83 19 84 33 85
REMARK SMILES IDX 20 86 32 87 21 88 34 89 22 91 23 92 31 93 24 94 29 95 25 96
REMARK SMILES IDX 30 97 26 98 27 99 28 100
REMARK H PARENT 91 26 59 37 34 90
REMARK Flexibility Score: inf
ROOT
ATOM      1  C   UNL     1       2.228   2.105   0.903  1.00  0.00     0.188 C 
ENDROOT
BRANCH   1   2
ATOM      2  C   UNL     1       2.752   0.747   1.345  1.00  0.00     0.188 C 
BRANCH   2   3
ATOM      3  O   UNL     1       4.120   0.432   1.136  1.00  0.00    -0.376 OA
BRANCH   3   4
ATOM      4  C   UNL     1       4.750   0.619  -0.121  1.00  0.00     0.202 C 
BRANCH   4   5
ATOM      5  C   UNL     1       4.103   0.109  -1.414  1.00  0.00     0.261 C 
BRANCH   5   6
ATOM      6  O   UNL     1       2.786  -0.458  -1.342  1.00  0.00    -0.460 OA
BRANCH   6   7
ATOM      7  C   UNL     1       2.538  -1.767  -1.064  1.00  0.00     0.338 C 
ATOM      8  O   UNL     1       1.610  -2.365  -1.595  1.00  0.00    -0.246 OA
BRANCH   7   9
ATOM      9  C   UNL     1       3.165  -2.295   0.172  1.00  0.00     0.060 A 
ATOM     10  C   UNL     1       2.310  -2.653   1.228  1.00  0.00     0.016 A 
ATOM     11  C   UNL     1       4.545  -2.325   0.352  1.00  0.00     0.016 A 
ATOM     12  C   UNL     1       2.837  -2.949   2.487  1.00  0.00     0.010 A 
ATOM     13  C   UNL     1       5.068  -2.521   1.627  1.00  0.00     0.010 A 
ATOM     14  C   UNL     1       4.221  -2.866   2.696  1.00  0.00    -0.014 A 
BRANCH  14  15
ATOM     15  C   UNL     1       4.843  -3.529   3.862  1.00  0.00     0.031 A 
ATOM     16  C   UNL     1       5.141  -2.851   5.159  1.00  0.00     0.074 A 
ATOM     17  C   UNL     1       5.229  -4.798   3.631  1.00  0.00     0.049 A 
ATOM     18  N   UNL     1       5.622  -3.386   6.253  1.00  0.00    -0.248 NA
ATOM     19  C   UNL     1       4.885  -1.408   5.254  1.00  0.00     0.031 C 
ATOM     20  C   UNL     1       5.031  -5.499   2.357  1.00  0.00     0.029 A 
ATOM     21  N   UNL     1       5.905  -5.695   4.405  1.00  0.00    -0.354 N 
ATOM     22  C   UNL     1       5.683  -2.362   7.191  1.00  0.00     0.074 A 
ATOM     23  C   UNL     1       5.249  -1.157   6.510  1.00  0.00     0.031 C 
ATOM     24  C   UNL     1       5.639  -6.685   2.410  1.00  0.00     0.029 A 
ATOM     25  C   UNL     1       6.223  -6.849   3.734  1.00  0.00     0.049 A 
ATOM     26  H   UNL     1       6.140  -5.532   5.347  1.00  0.00     0.167 HD
ATOM     27  C   UNL     1       6.048  -2.452   8.496  1.00  0.00     0.034 A 
ATOM     28  C   UNL     1       6.893  -7.942   4.137  1.00  0.00     0.034 A 
ATOM     29  C   UNL     1       6.535  -3.678   9.100  1.00  0.00     0.049 A 
ATOM     30  C   UNL     1       7.260  -8.031   5.584  1.00  0.00     0.074 A 
ATOM     31  C   UNL     1       6.861  -3.914  10.425  1.00  0.00     0.029 A 
ATOM     32  N   UNL     1       6.793  -4.864   8.419  1.00  0.00    -0.354 N 
ATOM     33  N   UNL     1       7.142  -7.114   6.516  1.00  0.00    -0.248 NA
ATOM     34  C   UNL     1       7.784  -9.314   6.055  1.00  0.00     0.031 C 
ATOM     35  C   UNL     1       7.387  -5.205  10.528  1.00  0.00     0.029 A 
ATOM     36  C   UNL     1       7.311  -5.817   9.287  1.00  0.00     0.049 A 
ATOM     37  H   UNL     1       6.631  -5.008   7.458  1.00  0.00     0.167 HD
ATOM     38  C   UNL     1       7.571  -7.710   7.693  1.00  0.00     0.074 A 
ATOM     39  C   UNL     1       7.902  -9.084   7.356  1.00  0.00     0.031 C 
ATOM     40  C   UNL     1       7.687  -7.170   8.933  1.00  0.00     0.034 A 
BRANCH  27  41
ATOM     41  C   UNL     1       5.898  -1.238   9.393  1.00  0.00     0.023 A 
ATOM     42  C   UNL     1       6.996  -0.734  10.121  1.00  0.00     0.031 A 
ATOM     43  C   UNL     1       4.627  -0.697   9.669  1.00  0.00     0.131 A 
ATOM     44  C   UNL     1       6.795   0.241  11.111  1.00  0.00     0.055 A 
ATOM     45  C   UNL     1       4.440   0.306  10.624  1.00  0.00     0.041 A 
ATOM     46  F   UNL     1       3.538  -1.149   9.026  1.00  0.00    -0.206 F 
ATOM     47  C   UNL     1       5.524   0.768  11.361  1.00  0.00     0.022 A 
BRANCH  44  48
ATOM     48  S   UNL     1       8.152   0.803  12.181  1.00  0.00     0.124 S 
ATOM     49  O   UNL     1       8.179   2.238  11.902  1.00  0.00    -0.237 OA
ATOM     50  O   UNL     1       7.666   0.437  13.508  1.00  0.00    -0.237 OA
ATOM     51  O   UNL     1       9.309   0.055  11.703  1.00  0.00    -0.744 OA
ENDBRANCH  44  48
ENDBRANCH  27  41
BRANCH  28  52
ATOM     52  C   UNL     1       7.065  -9.045   3.155  1.00  0.00     0.023 A 
ATOM     53  C   UNL     1       7.833  -8.844   1.991  1.00  0.00     0.031 A 
ATOM     54  C   UNL     1       6.270 -10.198   3.241  1.00  0.00     0.131 A 
ATOM     55  C   UNL     1       7.716  -9.742   0.923  1.00  0.00     0.055 A 
ATOM     56  C   UNL     1       6.216 -11.128   2.203  1.00  0.00     0.041 A 
ATOM     57  F   UNL     1       5.489 -10.402   4.313  1.00  0.00    -0.206 F 
ATOM     58  C   UNL     1       6.924 -10.890   1.028  1.00  0.00     0.022 A 
BRANCH  55  59
ATOM     59  S   UNL     1       8.428  -9.351  -0.701  1.00  0.00     0.124 S 
ATOM     60  O   UNL     1       9.349 -10.465  -0.905  1.00  0.00    -0.237 OA
ATOM     61  O   UNL     1       7.243  -9.348  -1.555  1.00  0.00    -0.237 OA
ATOM     62  O   UNL     1       9.050  -8.046  -0.502  1.00  0.00    -0.744 OA
ENDBRANCH  55  59
ENDBRANCH  28  52
BRANCH  40  63
ATOM     63  C   UNL     1       8.262  -8.050  10.019  1.00  0.00     0.023 A 
ATOM     64  C   UNL     1       7.510  -8.354  11.169  1.00  0.00     0.031 A 
ATOM     65  C   UNL     1       9.588  -8.518   9.951  1.00  0.00     0.131 A 
ATOM     66  C   UNL     1       8.096  -9.086  12.210  1.00  0.00     0.055 A 
ATOM     67  C   UNL     1      10.146  -9.297  10.964  1.00  0.00     0.041 A 
ATOM     68  F   UNL     1      10.354  -8.246   8.882  1.00  0.00    -0.206 F 
ATOM     69  C   UNL     1       9.403  -9.574  12.106  1.00  0.00     0.022 A 
BRANCH  66  70
ATOM     70  S   UNL     1       7.216  -9.367  13.772  1.00  0.00     0.124 S 
ATOM     71  O   UNL     1       7.108 -10.824  13.799  1.00  0.00    -0.237 OA
ATOM     72  O   UNL     1       8.137  -8.793  14.749  1.00  0.00    -0.237 OA
ATOM     73  O   UNL     1       5.956  -8.652  13.601  1.00  0.00    -0.744 OA
ENDBRANCH  66  70
ENDBRANCH  40  63
ENDBRANCH  14  15
ENDBRANCH   7   9
ENDBRANCH   6   7
ENDBRANCH   5   6
ENDBRANCH   4   5
ENDBRANCH   3   4
ENDBRANCH   2   3
ENDBRANCH   1   2
BRANCH   1  74
ATOM     74  O   UNL     1       3.165   2.840   0.141  1.00  0.00    -0.377 OA
BRANCH  74  75
ATOM     75  C   UNL     1       3.916   3.770   0.916  1.00  0.00     0.188 C 
BRANCH  75  76
ATOM     76  C   UNL     1       4.795   3.241   2.076  1.00  0.00     0.188 C 
BRANCH  76  77
ATOM     77  O   UNL     1       4.165   2.592   3.159  1.00  0.00    -0.376 OA
BRANCH  77  78
ATOM     78  C   UNL     1       3.321   3.234   4.092  1.00  0.00     0.202 C 
BRANCH  78  79
ATOM     79  C   UNL     1       3.167   4.753   4.275  1.00  0.00     0.261 C 
BRANCH  79  80
ATOM     80  O   UNL     1       3.479   5.574   3.155  1.00  0.00    -0.460 OA
BRANCH  80  81
ATOM     81  C   UNL     1       4.669   6.232   3.201  1.00  0.00     0.341 C 
ATOM     82  O   UNL     1       5.508   6.183   4.068  1.00  0.00    -0.246 OA
BRANCH  81  83
ATOM     83  C   UNL     1       4.890   6.847   1.873  1.00  0.00     0.101 A 
ATOM     84  C   UNL     1       5.990   6.420   1.110  1.00  0.00     0.020 A 
ATOM     85  C   UNL     1       4.013   7.801   1.364  1.00  0.00     0.130 A 
ATOM     86  C   UNL     1       6.202   6.938  -0.170  1.00  0.00     0.010 A 
ATOM     87  C   UNL     1       4.239   8.341   0.102  1.00  0.00     0.055 A 
ATOM     88  C   UNL     1       5.342   7.921  -0.662  1.00  0.00    -0.014 A 
BRANCH  85  89
ATOM     89  O   UNL     1       2.963   8.244   2.116  1.00  0.00    -0.507 OA
ATOM     90  H   UNL     1       2.809   7.881   2.966  1.00  0.00     0.293 HD
ENDBRANCH  85  89
BRANCH  88  91
ATOM     91  C   UNL     1       5.667   8.690  -1.871  1.00  0.00    -0.011 A 
ATOM     92  C   UNL     1       6.420   9.922  -1.750  1.00  0.00     0.027 A 
ATOM     93  C   UNL     1       5.162   8.334  -3.064  1.00  0.00     0.080 A 
ATOM     94  C   UNL     1       6.494  10.774  -2.775  1.00  0.00     0.095 A 
ATOM     95  C   UNL     1       5.287   9.254  -4.235  1.00  0.00     0.255 A 
ATOM     96  N   UNL     1       5.907  10.470  -3.988  1.00  0.00    -0.258 N 
ATOM     97  O   UNL     1       4.799   8.912  -5.308  1.00  0.00    -0.269 OA
BRANCH  96  98
ATOM     98  C   UNL     1       5.884  11.452  -5.040  1.00  0.00     0.451 C 
ATOM     99  F   UNL     1       6.485  10.998  -6.164  1.00  0.00    -0.185 F 
ATOM    100  F   UNL     1       4.608  11.792  -5.350  1.00  0.00    -0.185 F 
ENDBRANCH  96  98
ENDBRANCH  88  91
ENDBRANCH  81  83
ENDBRANCH  80  81
ENDBRANCH  79  80
ENDBRANCH  78  79
ENDBRANCH  77  78
ENDBRANCH  76  77
ENDBRANCH  75  76
ENDBRANCH  74  75
ENDBRANCH   1  74
TORSDOF 26
