REMARK SMILES CC(C)(O)C#Cc1ccc(C(=O)N[C@@H](CC2=c3ccccc3=NC2)C(=O)OCCOCCOCCOCCOC(=O)c2ccc(-c3c4nc(c(-c5cc(S(=O)(=O)[O-])ccc5F)c5ccc([nH]5)c(-c5cc(S(=O)(=O)[O-])ccc5F)c5nc(c(-c6cc(S(=O)(=O)[O-])ccc6F)c6ccc3[nH]6)C=C5)C=C4)cc2)s1
REMARK SMILES IDX 32 1 31 2 30 3 29 4 28 5 27 6 25 7 26 8 14 9 13 10 11 11
REMARK SMILES IDX 12 12 10 14 7 15 8 16 105 17 9 18 6 19 5 20 2 21 1 22 3 23
REMARK SMILES IDX 4 24 15 26 16 27 17 28 24 29 18 30 22 31 23 32 19 33 21 34
REMARK SMILES IDX 20 35 33 36 34 37 35 38 36 39 37 40 38 41 39 42 40 43 41 44
REMARK SMILES IDX 42 45 43 46 104 47 44 48 103 49 45 50 46 51 47 52 97 53
REMARK SMILES IDX 48 54 102 55 96 56 98 57 49 58 101 59 95 60 94 61 50 63
REMARK SMILES IDX 82 64 62 65 81 66 63 67 66 68 80 69 99 70 64 71 65 72 79 74
REMARK SMILES IDX 100 75 67 76 51 77 52 78 60 79 53 80 59 81 61 82 58 83 54 84
REMARK SMILES IDX 55 85 56 86 57 87 83 88 84 89 92 90 85 91 91 92 93 93 90 94
REMARK SMILES IDX 86 95 87 96 88 97 89 98 68 99 69 100 77 101 70 102 76 103
REMARK SMILES IDX 78 104 75 105 71 106 72 107 73 108 74 109
REMARK H PARENT 13 13 4 25 98 62 66 73
REMARK Flexibility Score: inf
ROOT
ATOM      1  C   UNL     1       2.025  -8.278   3.134  1.00  0.00     0.188 C 
ENDROOT
BRANCH   1   2
ATOM      2  C   UNL     1       1.568  -7.095   3.995  1.00  0.00     0.188 C 
BRANCH   2   3
ATOM      3  O   UNL     1       1.164  -7.327   5.332  1.00  0.00    -0.376 OA
BRANCH   3   4
ATOM      4  C   UNL     1       0.106  -8.255   5.576  1.00  0.00     0.202 C 
BRANCH   4   5
ATOM      5  C   UNL     1      -1.137  -8.306   4.666  1.00  0.00     0.261 C 
BRANCH   5   6
ATOM      6  O   UNL     1      -0.878  -8.461   3.252  1.00  0.00    -0.462 OA
BRANCH   6   7
ATOM      7  C   UNL     1      -1.474  -7.583   2.405  1.00  0.00     0.329 C 
ATOM      8  O   UNL     1      -2.197  -6.657   2.758  1.00  0.00    -0.250 OA
BRANCH   7   9
ATOM      9  C   UNL     1      -1.240  -7.917   0.911  1.00  0.00     0.196 C 
BRANCH   9  10
ATOM     10  N   UNL     1      -0.091  -8.802   0.571  1.00  0.00    -0.338 N 
ATOM     11  C   UNL     1       1.005  -8.605  -0.251  1.00  0.00     0.262 C 
ATOM     12  O   UNL     1       1.581  -9.586  -0.720  1.00  0.00    -0.268 OA
ATOM     13  H   UNL     1      -0.115  -9.683   1.009  1.00  0.00     0.164 HD
BRANCH  11  14
ATOM     14  C   UNL     1       1.474  -7.258  -0.490  1.00  0.00     0.093 A 
ATOM     15  C   UNL     1       1.724  -4.864  -0.255  1.00  0.00     0.078 A 
ATOM     16  C   UNL     1       2.350  -5.290  -1.398  1.00  0.00     0.030 A 
ATOM     17  S   UNL     1       1.320  -6.112   0.751  1.00  0.00    -0.121 S 
ATOM     18  C   UNL     1       2.229  -6.720  -1.522  1.00  0.00     0.027 A 
BRANCH  15  19
ATOM     19  C   UNL     1       1.355  -3.597   0.194  1.00  0.00    -0.053 C 
ATOM     20  C   UNL     1       0.920  -2.429   0.575  1.00  0.00    -0.063 C 
BRANCH  20  21
ATOM     21  C   UNL     1       0.414  -1.066   1.019  1.00  0.00     0.120 C 
ATOM     22  C   UNL     1       0.924   0.011   0.065  1.00  0.00     0.056 C 
ATOM     23  C   UNL     1       0.860  -0.793   2.454  1.00  0.00     0.056 C 
BRANCH  21  24
ATOM     24  O   UNL     1      -1.008  -1.082   0.950  1.00  0.00    -0.378 OA
ATOM     25  H   UNL     1      -1.355  -0.220   1.229  1.00  0.00     0.212 HD
ENDBRANCH  21  24
ENDBRANCH  20  21
ENDBRANCH  15  19
ENDBRANCH  11  14
ENDBRANCH   9  10
BRANCH   9  26
ATOM     26  C   UNL     1      -2.553  -8.473   0.314  1.00  0.00     0.070 C 
BRANCH  26  27
ATOM     27  C   UNL     1      -2.861  -9.857   0.785  1.00  0.00    -0.037 C 
ATOM     28  C   UNL     1      -2.291 -10.993   0.389  1.00  0.00     0.001 A 
ATOM     29  C   UNL     1      -3.791 -10.103   1.940  1.00  0.00     0.174 C 
ATOM     30  C   UNL     1      -1.309 -11.340  -0.589  1.00  0.00     0.010 A 
ATOM     31  C   UNL     1      -2.725 -11.940   1.423  1.00  0.00     0.065 A 
ATOM     32  N   UNL     1      -3.568 -11.517   2.308  1.00  0.00    -0.280 NA
ATOM     33  C   UNL     1      -0.729 -12.548  -0.519  1.00  0.00     0.001 A 
ATOM     34  C   UNL     1      -2.086 -13.271   1.398  1.00  0.00     0.028 A 
ATOM     35  C   UNL     1      -1.130 -13.518   0.485  1.00  0.00     0.002 A 
ENDBRANCH  26  27
ENDBRANCH   9  26
ENDBRANCH   7   9
ENDBRANCH   6   7
ENDBRANCH   5   6
ENDBRANCH   4   5
ENDBRANCH   3   4
ENDBRANCH   2   3
ENDBRANCH   1   2
BRANCH   1  36
ATOM     36  O   UNL     1       1.494  -9.524   3.483  1.00  0.00    -0.377 OA
BRANCH  36  37
ATOM     37  C   UNL     1       2.333 -10.374   4.230  1.00  0.00     0.188 C 
BRANCH  37  38
ATOM     38  C   UNL     1       3.479  -9.750   5.039  1.00  0.00     0.188 C 
BRANCH  38  39
ATOM     39  O   UNL     1       4.471  -9.133   4.221  1.00  0.00    -0.376 OA
BRANCH  39  40
ATOM     40  C   UNL     1       5.597  -9.916   3.840  1.00  0.00     0.202 C 
BRANCH  40  41
ATOM     41  C   UNL     1       5.340 -11.111   2.906  1.00  0.00     0.261 C 
BRANCH  41  42
ATOM     42  O   UNL     1       4.562 -12.167   3.496  1.00  0.00    -0.460 OA
BRANCH  42  43
ATOM     43  C   UNL     1       5.088 -12.849   4.551  1.00  0.00     0.338 C 
ATOM     44  O   UNL     1       6.247 -12.922   4.846  1.00  0.00    -0.246 OA
BRANCH  43  45
ATOM     45  C   UNL     1       3.924 -13.140   5.446  1.00  0.00     0.060 A 
ATOM     46  C   UNL     1       2.670 -13.488   4.933  1.00  0.00     0.016 A 
ATOM     47  C   UNL     1       4.051 -12.730   6.782  1.00  0.00     0.016 A 
ATOM     48  C   UNL     1       1.537 -13.289   5.723  1.00  0.00     0.010 A 
ATOM     49  C   UNL     1       2.912 -12.509   7.560  1.00  0.00     0.010 A 
ATOM     50  C   UNL     1       1.647 -12.736   7.017  1.00  0.00    -0.014 A 
BRANCH  50  51
ATOM     51  C   UNL     1       0.415 -12.639   7.819  1.00  0.00     0.031 A 
ATOM     52  C   UNL     1      -0.208 -13.972   8.028  1.00  0.00     0.074 A 
ATOM     53  C   UNL     1      -0.081 -11.583   8.503  1.00  0.00     0.049 A 
ATOM     54  N   UNL     1      -1.359 -14.404   7.632  1.00  0.00    -0.248 NA
ATOM     55  C   UNL     1       0.659 -15.000   8.626  1.00  0.00     0.031 C 
ATOM     56  C   UNL     1       0.575 -10.300   8.762  1.00  0.00     0.029 A 
ATOM     57  N   UNL     1      -1.251 -11.483   9.220  1.00  0.00    -0.354 N 
ATOM     58  C   UNL     1      -1.437 -15.713   8.105  1.00  0.00     0.074 A 
ATOM     59  C   UNL     1      -0.108 -16.080   8.517  1.00  0.00     0.031 C 
ATOM     60  C   UNL     1      -0.089  -9.653   9.749  1.00  0.00     0.029 A 
ATOM     61  C   UNL     1      -1.291 -10.400  10.089  1.00  0.00     0.049 A 
ATOM     62  H   UNL     1      -1.994 -12.122   9.126  1.00  0.00     0.167 HD
ATOM     63  C   UNL     1      -2.627 -16.314   8.375  1.00  0.00     0.034 A 
ATOM     64  C   UNL     1      -2.201 -10.151  11.065  1.00  0.00     0.034 A 
ATOM     65  C   UNL     1      -3.735 -15.597   7.812  1.00  0.00     0.049 A 
ATOM     66  C   UNL     1      -3.440 -10.919  10.818  1.00  0.00     0.074 A 
ATOM     67  C   UNL     1      -4.362 -15.507   6.592  1.00  0.00     0.029 A 
ATOM     68  N   UNL     1      -4.184 -14.562   8.585  1.00  0.00    -0.354 N 
ATOM     69  N   UNL     1      -4.264 -10.689   9.836  1.00  0.00    -0.248 NA
ATOM     70  C   UNL     1      -3.682 -12.153  11.562  1.00  0.00     0.031 C 
ATOM     71  C   UNL     1      -5.110 -14.294   6.612  1.00  0.00     0.029 A 
ATOM     72  C   UNL     1      -4.920 -13.674   7.845  1.00  0.00     0.049 A 
ATOM     73  H   UNL     1      -4.004 -14.468   9.548  1.00  0.00     0.167 HD
ATOM     74  C   UNL     1      -4.822 -11.921   9.573  1.00  0.00     0.074 A 
ATOM     75  C   UNL     1      -4.589 -12.721  10.766  1.00  0.00     0.031 C 
ATOM     76  C   UNL     1      -5.099 -12.310   8.298  1.00  0.00     0.034 A 
BRANCH  63  77
ATOM     77  C   UNL     1      -2.825 -17.294   9.512  1.00  0.00     0.023 A 
ATOM     78  C   UNL     1      -1.881 -17.466  10.542  1.00  0.00     0.031 A 
ATOM     79  C   UNL     1      -4.080 -17.896   9.728  1.00  0.00     0.131 A 
ATOM     80  C   UNL     1      -2.161 -18.216  11.689  1.00  0.00     0.055 A 
ATOM     81  C   UNL     1      -4.388 -18.586  10.909  1.00  0.00     0.041 A 
ATOM     82  F   UNL     1      -5.064 -17.788   8.822  1.00  0.00    -0.206 F 
ATOM     83  C   UNL     1      -3.425 -18.752  11.897  1.00  0.00     0.022 A 
BRANCH  80  84
ATOM     84  S   UNL     1      -0.868 -18.490  12.931  1.00  0.00     0.124 S 
ATOM     85  O   UNL     1      -1.428 -17.821  14.099  1.00  0.00    -0.237 OA
ATOM     86  O   UNL     1      -0.822 -19.948  12.994  1.00  0.00    -0.237 OA
ATOM     87  O   UNL     1       0.311 -17.863  12.338  1.00  0.00    -0.744 OA
ENDBRANCH  80  84
ENDBRANCH  63  77
BRANCH  64  88
ATOM     88  C   UNL     1      -1.968  -9.514  12.383  1.00  0.00     0.023 A 
ATOM     89  C   UNL     1      -0.745  -9.729  13.042  1.00  0.00     0.031 A 
ATOM     90  C   UNL     1      -3.025  -8.975  13.140  1.00  0.00     0.131 A 
ATOM     91  C   UNL     1      -0.620  -9.465  14.412  1.00  0.00     0.055 A 
ATOM     92  C   UNL     1      -2.893  -8.696  14.506  1.00  0.00     0.041 A 
ATOM     93  F   UNL     1      -4.230  -8.774  12.584  1.00  0.00    -0.206 F 
ATOM     94  C   UNL     1      -1.689  -8.956  15.152  1.00  0.00     0.022 A 
BRANCH  91  95
ATOM     95  S   UNL     1       0.922  -9.859  15.281  1.00  0.00     0.124 S 
ATOM     96  O   UNL     1       1.156  -8.646  16.061  1.00  0.00    -0.237 OA
ATOM     97  O   UNL     1       0.535 -11.037  16.050  1.00  0.00    -0.237 OA
ATOM     98  O   UNL     1       1.873 -10.088  14.197  1.00  0.00    -0.744 OA
ENDBRANCH  91  95
ENDBRANCH  64  88
BRANCH  76  99
ATOM     99  C   UNL     1      -5.385 -11.258   7.267  1.00  0.00     0.023 A 
ATOM    100  C   UNL     1      -6.613 -11.351   6.589  1.00  0.00     0.031 A 
ATOM    101  C   UNL     1      -4.472 -10.277   6.844  1.00  0.00     0.131 A 
ATOM    102  C   UNL     1      -6.886 -10.517   5.501  1.00  0.00     0.055 A 
ATOM    103  C   UNL     1      -4.781  -9.396   5.804  1.00  0.00     0.041 A 
ATOM    104  F   UNL     1      -3.245 -10.183   7.378  1.00  0.00    -0.206 F 
ATOM    105  C   UNL     1      -5.983  -9.525   5.115  1.00  0.00     0.022 A 
BRANCH 102 106
ATOM    106  S   UNL     1      -8.375 -10.770   4.503  1.00  0.00     0.124 S 
ATOM    107  O   UNL     1      -9.083  -9.505   4.676  1.00  0.00    -0.237 OA
ATOM    108  O   UNL     1      -7.826 -10.998   3.168  1.00  0.00    -0.237 OA
ATOM    109  O   UNL     1      -9.018 -11.931   5.114  1.00  0.00    -0.744 OA
ENDBRANCH 102 106
ENDBRANCH  76  99
ENDBRANCH  50  51
ENDBRANCH  43  45
ENDBRANCH  42  43
ENDBRANCH  41  42
ENDBRANCH  40  41
ENDBRANCH  39  40
ENDBRANCH  38  39
ENDBRANCH  37  38
ENDBRANCH  36  37
ENDBRANCH   1  36
TORSDOF 30
