REMARK SMILES CC(C)C[C@H](NC(=O)CNC(=O)[C@@H](NC(=O)OCc1ccccc1)C(C)C)C(=O)OCCOCCOCCOCCOC(=O)c1ccc(-c2c3nc(c(-c4cc(S(=O)(=O)[O-])ccc4F)c4ccc([nH]4)c(-c4cc(S(=O)(=O)[O-])ccc4F)c4nc(c(-c5cc(S(=O)(=O)[O-])ccc5F)c5ccc2[nH]5)C=C4)C=C3)cc1
REMARK SMILES IDX 34 1 33 2 32 3 31 4 30 5 28 6 29 7 5 8 4 9 2 10 1 11 3 12
REMARK SMILES IDX 6 13 7 14 8 16 9 17 10 18 11 19 12 21 13 22 14 23 15 24
REMARK SMILES IDX 16 26 17 27 18 28 19 29 20 30 24 31 21 32 23 33 22 34 25 35
REMARK SMILES IDX 26 36 27 37 35 38 36 39 37 40 38 41 39 42 40 43 41 44 42 45
REMARK SMILES IDX 43 46 44 47 45 48 46 49 107 50 47 51 106 52 48 53 49 54
REMARK SMILES IDX 50 55 100 56 51 57 105 58 99 59 101 60 52 61 104 62 98 63
REMARK SMILES IDX 97 64 53 66 85 67 65 68 84 69 66 70 69 71 83 72 102 73 67 74
REMARK SMILES IDX 68 75 82 77 103 78 70 79 54 80 55 81 63 82 56 83 62 84 64 85
REMARK SMILES IDX 61 86 57 87 58 88 59 89 60 90 86 91 87 92 95 93 88 94 94 95
REMARK SMILES IDX 96 96 93 97 89 98 90 99 91 100 92 101 71 102 72 103 80 104
REMARK SMILES IDX 73 105 79 106 81 107 78 108 74 109 75 110 76 111 77 112
REMARK H PARENT 6 15 10 20 14 25 101 65 69 76
REMARK Flexibility Score: inf
ROOT
ATOM      1  C   UNL     1      -4.323  -0.085  -0.523  1.00  0.00     0.188 C 
ENDROOT
BRANCH   1   2
ATOM      2  O   UNL     1      -5.506  -0.764  -0.103  1.00  0.00    -0.376 OA
BRANCH   2   3
ATOM      3  C   UNL     1      -6.107  -0.598   1.169  1.00  0.00     0.202 C 
BRANCH   3   4
ATOM      4  C   UNL     1      -5.458  -1.230   2.409  1.00  0.00     0.261 C 
BRANCH   4   5
ATOM      5  O   UNL     1      -4.066  -0.968   2.627  1.00  0.00    -0.462 OA
BRANCH   5   6
ATOM      6  C   UNL     1      -3.261  -1.772   1.901  1.00  0.00     0.328 C 
ATOM      7  O   UNL     1      -3.651  -2.583   1.065  1.00  0.00    -0.250 OA
BRANCH   6   8
ATOM      8  C   UNL     1      -1.792  -1.718   2.318  1.00  0.00     0.192 C 
BRANCH   8   9
ATOM      9  C   UNL     1      -1.538  -2.603   3.537  1.00  0.00     0.040 C 
BRANCH   9  10
ATOM     10  C   UNL     1      -2.271  -3.964   3.551  1.00  0.00    -0.015 C 
ATOM     11  C   UNL     1      -2.125  -4.829   2.296  1.00  0.00     0.007 C 
ATOM     12  C   UNL     1      -1.784  -4.780   4.746  1.00  0.00     0.007 C 
ENDBRANCH   9  10
ENDBRANCH   8   9
BRANCH   8  13
ATOM     13  N   UNL     1      -1.197  -0.395   2.479  1.00  0.00    -0.341 N 
ATOM     14  C   UNL     1      -0.040   0.100   1.944  1.00  0.00     0.240 C 
ATOM     15  H   UNL     1      -1.699   0.228   3.053  1.00  0.00     0.164 HD
ATOM     16  O   UNL     1       0.160   1.316   2.039  1.00  0.00    -0.273 OA
BRANCH  14  17
ATOM     17  C   UNL     1       0.946  -0.758   1.110  1.00  0.00     0.216 C 
BRANCH  17  18
ATOM     18  N   UNL     1       1.117  -2.162   1.446  1.00  0.00    -0.345 N 
ATOM     19  C   UNL     1       0.767  -3.341   0.877  1.00  0.00     0.243 C 
ATOM     20  H   UNL     1       1.606  -2.286   2.291  1.00  0.00     0.164 HD
ATOM     21  O   UNL     1       1.127  -4.334   1.526  1.00  0.00    -0.273 OA
BRANCH  19  22
ATOM     22  C   UNL     1       0.015  -3.538  -0.485  1.00  0.00     0.177 C 
BRANCH  22  23
ATOM     23  N   UNL     1      -0.846  -2.421  -0.886  1.00  0.00    -0.309 N 
ATOM     24  C   UNL     1      -0.633  -1.366  -1.709  1.00  0.00     0.408 C 
ATOM     25  H   UNL     1      -1.744  -2.441  -0.483  1.00  0.00     0.167 HD
ATOM     26  O   UNL     1      -1.323  -0.357  -1.619  1.00  0.00    -0.225 OA
BRANCH  24  27
ATOM     27  O   UNL     1       0.309  -1.583  -2.644  1.00  0.00    -0.445 OA
BRANCH  27  28
ATOM     28  C   UNL     1       0.322  -0.640  -3.723  1.00  0.00     0.270 C 
BRANCH  28  29
ATOM     29  C   UNL     1      -0.760  -0.845  -4.774  1.00  0.00    -0.011 A 
ATOM     30  C   UNL     1      -0.523  -0.384  -6.078  1.00  0.00     0.007 A 
ATOM     31  C   UNL     1      -2.031  -1.371  -4.487  1.00  0.00     0.007 A 
ATOM     32  C   UNL     1      -1.524  -0.439  -7.052  1.00  0.00     0.000 A 
ATOM     33  C   UNL     1      -3.034  -1.417  -5.457  1.00  0.00     0.000 A 
ATOM     34  C   UNL     1      -2.782  -0.947  -6.739  1.00  0.00     0.000 A 
ENDBRANCH  28  29
ENDBRANCH  27  28
ENDBRANCH  24  27
ENDBRANCH  22  23
BRANCH  22  35
ATOM     35  C   UNL     1       0.903  -4.172  -1.587  1.00  0.00     0.015 C 
ATOM     36  C   UNL     1       1.645  -5.424  -1.092  1.00  0.00     0.010 C 
ATOM     37  C   UNL     1       0.072  -4.603  -2.807  1.00  0.00     0.010 C 
ENDBRANCH  22  35
ENDBRANCH  19  22
ENDBRANCH  17  18
ENDBRANCH  14  17
ENDBRANCH   8  13
ENDBRANCH   6   8
ENDBRANCH   5   6
ENDBRANCH   4   5
ENDBRANCH   3   4
ENDBRANCH   2   3
ENDBRANCH   1   2
BRANCH   1  38
ATOM     38  C   UNL     1      -3.581   0.974   0.315  1.00  0.00     0.188 C 
BRANCH  38  39
ATOM     39  O   UNL     1      -4.279   1.419   1.460  1.00  0.00    -0.377 OA
BRANCH  39  40
ATOM     40  C   UNL     1      -5.073   2.590   1.305  1.00  0.00     0.188 C 
BRANCH  40  41
ATOM     41  C   UNL     1      -5.867   2.740  -0.008  1.00  0.00     0.188 C 
BRANCH  41  42
ATOM     42  O   UNL     1      -5.037   2.738  -1.164  1.00  0.00    -0.376 OA
BRANCH  42  43
ATOM     43  C   UNL     1      -4.721   3.998  -1.739  1.00  0.00     0.202 C 
BRANCH  43  44
ATOM     44  C   UNL     1      -3.752   4.875  -0.931  1.00  0.00     0.261 C 
BRANCH  44  45
ATOM     45  O   UNL     1      -4.213   5.318   0.359  1.00  0.00    -0.460 OA
BRANCH  45  46
ATOM     46  C   UNL     1      -5.402   5.957   0.424  1.00  0.00     0.338 C 
ATOM     47  O   UNL     1      -6.094   6.302  -0.515  1.00  0.00    -0.246 OA
BRANCH  46  48
ATOM     48  C   UNL     1      -5.844   5.965   1.838  1.00  0.00     0.060 A 
ATOM     49  C   UNL     1      -7.117   5.465   2.143  1.00  0.00     0.016 A 
ATOM     50  C   UNL     1      -5.023   6.463   2.853  1.00  0.00     0.016 A 
ATOM     51  C   UNL     1      -7.594   5.515   3.453  1.00  0.00     0.010 A 
ATOM     52  C   UNL     1      -5.510   6.533   4.163  1.00  0.00     0.010 A 
ATOM     53  C   UNL     1      -6.815   6.100   4.460  1.00  0.00    -0.014 A 
BRANCH  53  54
ATOM     54  C   UNL     1      -7.463   6.468   5.746  1.00  0.00     0.031 A 
ATOM     55  C   UNL     1      -7.972   7.878   5.903  1.00  0.00     0.074 A 
ATOM     56  C   UNL     1      -7.665   5.563   6.721  1.00  0.00     0.049 A 
ATOM     57  N   UNL     1      -8.585   8.436   6.914  1.00  0.00    -0.248 NA
ATOM     58  C   UNL     1      -7.758   8.777   4.758  1.00  0.00     0.031 C 
ATOM     59  C   UNL     1      -7.260   4.160   6.669  1.00  0.00     0.029 A 
ATOM     60  N   UNL     1      -8.267   5.694   7.948  1.00  0.00    -0.354 N 
ATOM     61  C   UNL     1      -8.846   9.745   6.521  1.00  0.00     0.074 A 
ATOM     62  C   UNL     1      -8.271   9.912   5.204  1.00  0.00     0.031 C 
ATOM     63  C   UNL     1      -7.617   3.561   7.819  1.00  0.00     0.029 A 
ATOM     64  C   UNL     1      -8.249   4.542   8.700  1.00  0.00     0.049 A 
ATOM     65  H   UNL     1      -8.673   6.534   8.261  1.00  0.00     0.167 HD
ATOM     66  C   UNL     1      -9.521  10.714   7.187  1.00  0.00     0.034 A 
ATOM     67  C   UNL     1      -8.675   4.315   9.961  1.00  0.00     0.034 A 
ATOM     68  C   UNL     1     -10.065  10.547   8.511  1.00  0.00     0.049 A 
ATOM     69  C   UNL     1      -9.337   5.441  10.724  1.00  0.00     0.074 A 
ATOM     70  C   UNL     1     -10.743  11.470   9.289  1.00  0.00     0.029 A 
ATOM     71  N   UNL     1      -9.985   9.380   9.261  1.00  0.00    -0.354 N 
ATOM     72  N   UNL     1      -9.580   6.675  10.339  1.00  0.00    -0.248 NA
ATOM     73  C   UNL     1      -9.797   5.138  12.086  1.00  0.00     0.031 C 
ATOM     74  C   UNL     1     -11.012  10.884  10.531  1.00  0.00     0.029 A 
ATOM     75  C   UNL     1     -10.579   9.568  10.500  1.00  0.00     0.049 A 
ATOM     76  H   UNL     1      -9.568   8.542   8.957  1.00  0.00     0.167 HD
ATOM     77  C   UNL     1     -10.251   7.280  11.402  1.00  0.00     0.074 A 
ATOM     78  C   UNL     1     -10.395   6.270  12.428  1.00  0.00     0.031 C 
ATOM     79  C   UNL     1     -10.708   8.554  11.520  1.00  0.00     0.034 A 
BRANCH  66  80
ATOM     80  C   UNL     1      -9.664  12.051   6.498  1.00  0.00     0.023 A 
ATOM     81  C   UNL     1     -10.390  12.188   5.302  1.00  0.00     0.031 A 
ATOM     82  C   UNL     1      -9.041  13.195   7.025  1.00  0.00     0.131 A 
ATOM     83  C   UNL     1     -10.419  13.423   4.637  1.00  0.00     0.055 A 
ATOM     84  C   UNL     1      -9.142  14.441   6.401  1.00  0.00     0.041 A 
ATOM     85  F   UNL     1      -8.312  13.121   8.149  1.00  0.00    -0.206 F 
ATOM     86  C   UNL     1      -9.822  14.557   5.192  1.00  0.00     0.022 A 
BRANCH  83  87
ATOM     87  S   UNL     1     -11.129  13.494   2.969  1.00  0.00     0.124 S 
ATOM     88  O   UNL     1     -10.284  12.545   2.249  1.00  0.00    -0.237 OA
ATOM     89  O   UNL     1     -12.508  13.079   3.194  1.00  0.00    -0.237 OA
ATOM     90  O   UNL     1     -10.952  14.892   2.582  1.00  0.00    -0.744 OA
ENDBRANCH  83  87
ENDBRANCH  66  80
BRANCH  67  91
ATOM     91  C   UNL     1      -8.456   2.989  10.613  1.00  0.00     0.023 A 
ATOM     92  C   UNL     1      -9.530   2.205  11.066  1.00  0.00     0.031 A 
ATOM     93  C   UNL     1      -7.152   2.527  10.872  1.00  0.00     0.131 A 
ATOM     94  C   UNL     1      -9.282   1.037  11.805  1.00  0.00     0.055 A 
ATOM     95  C   UNL     1      -6.912   1.332  11.553  1.00  0.00     0.041 A 
ATOM     96  F   UNL     1      -6.087   3.237  10.469  1.00  0.00    -0.206 F 
ATOM     97  C   UNL     1      -7.981   0.588  12.040  1.00  0.00     0.022 A 
BRANCH  94  98
ATOM     98  S   UNL     1     -10.688   0.169  12.558  1.00  0.00     0.124 S 
ATOM     99  O   UNL     1     -11.291   1.224  13.363  1.00  0.00    -0.237 OA
ATOM    100  O   UNL     1     -11.444  -0.255  11.384  1.00  0.00    -0.237 OA
ATOM    101  O   UNL     1     -10.055  -0.910  13.313  1.00  0.00    -0.744 OA
ENDBRANCH  94  98
ENDBRANCH  67  91
BRANCH  79 102
ATOM    102  C   UNL     1     -11.451   8.904  12.789  1.00  0.00     0.023 A 
ATOM    103  C   UNL     1     -10.821   8.890  14.046  1.00  0.00     0.031 A 
ATOM    104  C   UNL     1     -12.819   9.232  12.742  1.00  0.00     0.131 A 
ATOM    105  C   UNL     1     -11.572   9.124  15.209  1.00  0.00     0.055 A 
ATOM    106  C   UNL     1     -13.544   9.534  13.896  1.00  0.00     0.041 A 
ATOM    107  F   UNL     1     -13.475   9.261  11.571  1.00  0.00    -0.206 F 
ATOM    108  C   UNL     1     -12.925   9.463  15.140  1.00  0.00     0.022 A 
BRANCH 105 109
ATOM    109  S   UNL     1     -10.784   8.859  16.821  1.00  0.00     0.124 S 
ATOM    110  O   UNL     1     -10.330   7.476  16.713  1.00  0.00    -0.237 OA
ATOM    111  O   UNL     1      -9.737   9.875  16.827  1.00  0.00    -0.237 OA
ATOM    112  O   UNL     1     -11.870   9.083  17.774  1.00  0.00    -0.744 OA
ENDBRANCH 105 109
ENDBRANCH  79 102
ENDBRANCH  53  54
ENDBRANCH  46  48
ENDBRANCH  45  46
ENDBRANCH  44  45
ENDBRANCH  43  44
ENDBRANCH  42  43
ENDBRANCH  41  42
ENDBRANCH  40  41
ENDBRANCH  39  40
ENDBRANCH  38  39
ENDBRANCH   1  38
TORSDOF 34
