REMARK SMILES Cc1cccc(OCC(=O)Nc2cc(C(=O)OCCOCCOCCOCCOC(=O)c3ccc(-c4c5nc(c(-c6cc(S(=O)(=O)[O-])ccc6F)c6ccc([nH]6)c(-c6cc(S(=O)(=O)[O-])ccc6F)c6nc(c(-c7cc(S(=O)(=O)[O-])ccc7F)c7ccc4[nH]7)C=C6)C=C5)cc3)c(Cl)cc2Cl)c1
REMARK SMILES IDX 22 1 21 2 20 3 19 4 18 5 17 6 15 7 16 8 14 9 12 10 13 11
REMARK SMILES IDX 98 12 97 13 99 14 95 15 96 16 11 17 9 18 10 19 8 21 7 22
REMARK SMILES IDX 6 23 1 24 2 25 3 26 100 27 4 28 5 29 23 30 24 31 25 32 26 33
REMARK SMILES IDX 27 34 28 35 29 36 30 37 31 38 32 39 33 40 94 41 34 42 93 43
REMARK SMILES IDX 35 44 36 45 37 46 87 47 38 48 92 49 86 50 88 51 39 52 91 53
REMARK SMILES IDX 85 54 84 55 40 57 72 58 52 59 71 60 53 61 56 62 70 63 89 64
REMARK SMILES IDX 54 65 55 66 69 68 90 69 57 70 41 71 42 72 50 73 43 74 49 75
REMARK SMILES IDX 51 76 48 77 44 78 45 79 46 80 47 81 73 82 74 83 82 84 75 85
REMARK SMILES IDX 81 86 83 87 80 88 76 89 77 90 78 91 79 92 58 93 59 94 67 95
REMARK SMILES IDX 60 96 66 97 68 98 65 99 61 100 62 101 63 102 64 103
REMARK H PARENT 11 20 88 56 56 67
REMARK Flexibility Score: inf
ROOT
ATOM      1  C   UNL     1      -3.675  -0.489   3.703  1.00  0.00     0.188 C 
ENDROOT
BRANCH   1   2
ATOM      2  C   UNL     1      -4.854  -0.870   2.768  1.00  0.00     0.188 C 
BRANCH   2   3
ATOM      3  O   UNL     1      -4.669  -1.484   1.235  1.00  0.00    -0.376 OA
BRANCH   3   4
ATOM      4  C   UNL     1      -5.252  -0.935  -0.313  1.00  0.00     0.202 C 
BRANCH   4   5
ATOM      5  C   UNL     1      -6.341   0.453  -0.921  1.00  0.00     0.261 C 
BRANCH   5   6
ATOM      6  O   UNL     1      -6.897   1.992  -0.037  1.00  0.00    -0.460 OA
BRANCH   6   7
ATOM      7  C   UNL     1      -6.974   2.725   1.395  1.00  0.00     0.339 C 
ATOM      8  O   UNL     1      -8.060   2.634   1.979  1.00  0.00    -0.246 OA
BRANCH   7   9
ATOM      9  C   UNL     1      -5.773   3.643   2.284  1.00  0.00     0.080 A 
ATOM     10  C   UNL     1      -3.313   4.396   2.829  1.00  0.00     0.061 A 
ATOM     11  C   UNL     1      -4.297   3.535   2.305  1.00  0.00     0.045 A 
ATOM     12  C   UNL     1      -3.837   5.261   3.776  1.00  0.00     0.066 A 
ATOM     13  C   UNL     1      -5.227   5.316   4.010  1.00  0.00     0.044 A 
ATOM     14  Cl  UNL     1      -2.793   6.212   4.779  1.00  0.00    -0.082 Cl
ATOM     15  C   UNL     1      -6.181   4.562   3.257  1.00  0.00     0.057 A 
ATOM     16  Cl  UNL     1      -7.816   4.807   3.757  1.00  0.00    -0.083 Cl
BRANCH  10  17
ATOM     17  N   UNL     1      -1.884   4.236   2.721  1.00  0.00    -0.322 N 
ATOM     18  C   UNL     1      -0.859   3.813   1.896  1.00  0.00     0.262 C 
ATOM     19  O   UNL     1       0.205   3.591   2.507  1.00  0.00    -0.271 OA
ATOM     20  H   UNL     1      -1.482   4.551   3.563  1.00  0.00     0.170 HD
BRANCH  18  21
ATOM     21  C   UNL     1      -0.749   3.935   0.330  1.00  0.00     0.329 C 
BRANCH  21  22
ATOM     22  O   UNL     1      -0.523   2.945  -0.668  1.00  0.00    -0.484 OA
BRANCH  22  23
ATOM     23  C   UNL     1       0.500   2.042  -0.729  1.00  0.00     0.120 A 
ATOM     24  C   UNL     1       3.448   0.387   1.026  1.00  0.00     0.044 C 
ATOM     25  C   UNL     1       2.343   0.667   0.054  1.00  0.00    -0.047 A 
ATOM     26  C   UNL     1       2.096  -0.289  -0.941  1.00  0.00     0.003 A 
ATOM     27  C   UNL     1       1.521   1.819   0.176  1.00  0.00     0.049 A 
ATOM     28  C   UNL     1       1.168  -0.015  -1.920  1.00  0.00     0.004 A 
ATOM     29  C   UNL     1       0.437   1.172  -1.832  1.00  0.00     0.046 A 
ENDBRANCH  22  23
ENDBRANCH  21  22
ENDBRANCH  18  21
ENDBRANCH  10  17
ENDBRANCH   7   9
ENDBRANCH   6   7
ENDBRANCH   5   6
ENDBRANCH   4   5
ENDBRANCH   3   4
ENDBRANCH   2   3
ENDBRANCH   1   2
BRANCH   1  30
ATOM     30  O   UNL     1      -3.340  -1.480   4.665  1.00  0.00    -0.377 OA
BRANCH  30  31
ATOM     31  C   UNL     1      -3.114  -2.742   4.060  1.00  0.00     0.188 C 
BRANCH  31  32
ATOM     32  C   UNL     1      -4.398  -3.524   3.883  1.00  0.00     0.188 C 
BRANCH  32  33
ATOM     33  O   UNL     1      -5.433  -3.097   4.774  1.00  0.00    -0.376 OA
BRANCH  33  34
ATOM     34  C   UNL     1      -5.637  -3.862   5.940  1.00  0.00     0.202 C 
BRANCH  34  35
ATOM     35  C   UNL     1      -5.953  -5.319   5.595  1.00  0.00     0.261 C 
BRANCH  35  36
ATOM     36  O   UNL     1      -7.106  -5.348   4.712  1.00  0.00    -0.460 OA
BRANCH  36  37
ATOM     37  C   UNL     1      -6.851  -5.427   3.382  1.00  0.00     0.338 C 
ATOM     38  O   UNL     1      -6.132  -6.295   2.859  1.00  0.00    -0.246 OA
BRANCH  37  39
ATOM     39  C   UNL     1      -7.369  -4.218   2.660  1.00  0.00     0.060 A 
ATOM     40  C   UNL     1      -7.034  -3.986   1.333  1.00  0.00     0.016 A 
ATOM     41  C   UNL     1      -7.946  -3.157   3.367  1.00  0.00     0.016 A 
ATOM     42  C   UNL     1      -7.100  -2.667   0.832  1.00  0.00     0.010 A 
ATOM     43  C   UNL     1      -7.795  -1.825   2.918  1.00  0.00     0.010 A 
ATOM     44  C   UNL     1      -7.191  -1.529   1.688  1.00  0.00    -0.014 A 
BRANCH  44  45
ATOM     45  C   UNL     1      -6.781   0.088   1.292  1.00  0.00     0.031 A 
ATOM     46  C   UNL     1      -8.428   0.406   0.695  1.00  0.00     0.074 A 
ATOM     47  C   UNL     1      -5.310   0.918   1.042  1.00  0.00     0.049 A 
ATOM     48  N   UNL     1      -8.724   0.914  -0.478  1.00  0.00    -0.248 NA
ATOM     49  C   UNL     1      -9.698  -0.128   1.241  1.00  0.00     0.031 C 
ATOM     50  C   UNL     1      -4.843   2.316   0.190  1.00  0.00     0.029 A 
ATOM     51  N   UNL     1      -3.814   0.557   1.034  1.00  0.00    -0.354 N 
ATOM     52  C   UNL     1      -9.986   1.368  -0.463  1.00  0.00     0.074 A 
ATOM     53  C   UNL     1     -10.616   0.433   0.431  1.00  0.00     0.031 C 
ATOM     54  C   UNL     1      -3.564   2.455  -0.135  1.00  0.00     0.029 A 
ATOM     55  C   UNL     1      -3.048   1.167  -0.007  1.00  0.00     0.049 A 
ATOM     56  H   UNL     1      -3.413  -0.050   1.697  1.00  0.00     0.167 HD
ATOM     57  C   UNL     1     -10.253   2.603  -0.989  1.00  0.00     0.034 A 
ATOM     58  C   UNL     1      -2.529   0.589  -1.135  1.00  0.00     0.034 A 
ATOM     59  C   UNL     1      -9.026   3.343  -1.466  1.00  0.00     0.049 A 
ATOM     60  C   UNL     1      -3.230   1.276  -2.420  1.00  0.00     0.074 A 
ATOM     61  C   UNL     1      -8.368   4.466  -0.970  1.00  0.00     0.029 A 
ATOM     62  N   UNL     1      -8.128   2.815  -2.429  1.00  0.00    -0.354 N 
ATOM     63  N   UNL     1      -4.453   1.785  -2.395  1.00  0.00    -0.248 NA
ATOM     64  C   UNL     1      -2.580   1.690  -3.652  1.00  0.00     0.031 C 
ATOM     65  C   UNL     1      -7.093   4.594  -1.613  1.00  0.00     0.029 A 
ATOM     66  C   UNL     1      -6.920   3.544  -2.516  1.00  0.00     0.049 A 
ATOM     67  H   UNL     1      -8.325   2.023  -2.979  1.00  0.00     0.167 HD
ATOM     68  C   UNL     1      -4.735   2.639  -3.441  1.00  0.00     0.074 A 
ATOM     69  C   UNL     1      -3.475   2.551  -4.177  1.00  0.00     0.031 C 
ATOM     70  C   UNL     1      -5.921   3.361  -3.620  1.00  0.00     0.034 A 
BRANCH  57  71
ATOM     71  C   UNL     1     -11.581   3.255  -0.622  1.00  0.00     0.023 A 
ATOM     72  C   UNL     1     -11.688   4.643  -0.419  1.00  0.00     0.031 A 
ATOM     73  C   UNL     1     -12.773   2.526  -0.404  1.00  0.00     0.131 A 
ATOM     74  C   UNL     1     -12.865   5.220   0.104  1.00  0.00     0.055 A 
ATOM     75  C   UNL     1     -13.919   3.083   0.179  1.00  0.00     0.041 A 
ATOM     76  F   UNL     1     -12.888   1.247  -0.792  1.00  0.00    -0.206 F 
ATOM     77  C   UNL     1     -13.964   4.439   0.451  1.00  0.00     0.022 A 
BRANCH  74  78
ATOM     78  S   UNL     1     -12.967   7.023   0.285  1.00  0.00     0.124 S 
ATOM     79  O   UNL     1     -11.977   7.290   1.323  1.00  0.00    -0.237 OA
ATOM     80  O   UNL     1     -12.636   7.491  -1.057  1.00  0.00    -0.237 OA
ATOM     81  O   UNL     1     -14.356   7.247   0.685  1.00  0.00    -0.744 OA
ENDBRANCH  74  78
ENDBRANCH  57  71
BRANCH  58  82
ATOM     82  C   UNL     1      -1.978  -0.800  -0.897  1.00  0.00     0.023 A 
ATOM     83  C   UNL     1      -1.191  -1.033   0.275  1.00  0.00     0.031 A 
ATOM     84  C   UNL     1      -2.396  -1.935  -1.596  1.00  0.00     0.131 A 
ATOM     85  C   UNL     1      -0.938  -2.330   0.756  1.00  0.00     0.055 A 
ATOM     86  C   UNL     1      -2.204  -3.228  -1.076  1.00  0.00     0.041 A 
ATOM     87  F   UNL     1      -3.139  -1.808  -2.705  1.00  0.00    -0.206 F 
ATOM     88  C   UNL     1      -1.503  -3.428   0.115  1.00  0.00     0.022 A 
BRANCH  85  89
ATOM     89  S   UNL     1       0.009  -2.589   2.297  1.00  0.00     0.124 S 
ATOM     90  O   UNL     1       1.373  -2.737   1.804  1.00  0.00    -0.237 OA
ATOM     91  O   UNL     1      -0.268  -1.379   3.063  1.00  0.00    -0.237 OA
ATOM     92  O   UNL     1      -0.580  -3.812   2.846  1.00  0.00    -0.744 OA
ENDBRANCH  85  89
ENDBRANCH  58  82
BRANCH  70  93
ATOM     93  C   UNL     1      -6.291   4.121  -4.912  1.00  0.00     0.023 A 
ATOM     94  C   UNL     1      -5.449   4.224  -6.018  1.00  0.00     0.031 A 
ATOM     95  C   UNL     1      -7.564   4.729  -5.103  1.00  0.00     0.131 A 
ATOM     96  C   UNL     1      -5.832   4.865  -7.208  1.00  0.00     0.055 A 
ATOM     97  C   UNL     1      -7.968   5.335  -6.300  1.00  0.00     0.041 A 
ATOM     98  F   UNL     1      -8.507   4.752  -4.152  1.00  0.00    -0.206 F 
ATOM     99  C   UNL     1      -7.098   5.402  -7.372  1.00  0.00     0.022 A 
BRANCH  96 100
ATOM    100  S   UNL     1      -4.594   4.957  -8.522  1.00  0.00     0.124 S 
ATOM    101  O   UNL     1      -3.563   5.785  -7.903  1.00  0.00    -0.237 OA
ATOM    102  O   UNL     1      -4.241   3.551  -8.708  1.00  0.00    -0.237 OA
ATOM    103  O   UNL     1      -5.314   5.573  -9.632  1.00  0.00    -0.744 OA
ENDBRANCH  96 100
ENDBRANCH  70  93
ENDBRANCH  44  45
ENDBRANCH  37  39
ENDBRANCH  36  37
ENDBRANCH  35  36
ENDBRANCH  34  35
ENDBRANCH  33  34
ENDBRANCH  32  33
ENDBRANCH  31  32
ENDBRANCH  30  31
ENDBRANCH   1  30
TORSDOF 27
