REMARK SMILES NC(=O)C1CC[NH+](Cc2ccc(C(=O)OCCOCCOCCOCCOC(=O)c3ccc(-c4c5nc(c(-c6cc(S(=O)(=O)[O-])ccc6F)c6ccc([nH]6)c(-c6cc(S(=O)(=O)[O-])ccc6F)c6nc(c(-c7cc(S(=O)(=O)[O-])ccc7F)c7ccc4[nH]7)C=C6)C=C5)cc3)cc2)CC1
REMARK SMILES IDX 21 1 20 2 19 3 18 4 17 5 16 6 15 7 13 8 14 9 12 10 9 11
REMARK SMILES IDX 10 12 94 13 11 14 93 15 8 16 7 17 4 18 5 19 96 20 6 21 95 22
REMARK SMILES IDX 2 24 1 25 3 28 22 29 23 30 24 31 25 32 26 33 27 34 28 35
REMARK SMILES IDX 29 36 30 37 31 38 92 39 32 40 91 41 33 42 34 43 35 44 85 45
REMARK SMILES IDX 36 46 90 47 84 48 86 49 37 50 89 51 83 52 82 53 38 55 70 56
REMARK SMILES IDX 50 57 69 58 51 59 54 60 68 61 87 62 52 63 53 64 67 66 88 67
REMARK SMILES IDX 55 68 39 69 40 70 48 71 41 72 47 73 49 74 46 75 42 76 43 77
REMARK SMILES IDX 44 78 45 79 71 80 72 81 80 82 73 83 79 84 81 85 78 86 74 87
REMARK SMILES IDX 75 88 76 89 77 90 56 91 57 92 65 93 58 94 64 95 66 96 63 97
REMARK SMILES IDX 59 98 60 99 61 100 62 101
REMARK H PARENT 7 23 1 26 1 27 86 54 54 65
REMARK Flexibility Score: inf
ROOT
ATOM      1  O   UNL     1      -2.231   2.012  -6.530  1.00  0.00    -0.377 OA
ENDROOT
BRANCH   1   2
ATOM      2  C   UNL     1      -0.883   1.655  -6.771  1.00  0.00     0.188 C 
BRANCH   2   3
ATOM      3  C   UNL     1      -0.624   0.148  -6.961  1.00  0.00     0.188 C 
BRANCH   3   4
ATOM      4  O   UNL     1      -1.759  -0.591  -7.369  1.00  0.00    -0.376 OA
BRANCH   4   5
ATOM      5  C   UNL     1      -2.600  -1.259  -6.444  1.00  0.00     0.202 C 
BRANCH   5   6
ATOM      6  C   UNL     1      -2.933  -0.754  -5.029  1.00  0.00     0.261 C 
BRANCH   6   7
ATOM      7  O   UNL     1      -2.009   0.149  -4.438  1.00  0.00    -0.460 OA
BRANCH   7   8
ATOM      8  C   UNL     1      -0.930  -0.370  -3.824  1.00  0.00     0.338 C 
ATOM      9  O   UNL     1      -0.664  -1.548  -3.663  1.00  0.00    -0.246 OA
BRANCH   8  10
ATOM     10  C   UNL     1       0.006   0.746  -3.550  1.00  0.00     0.060 A 
ATOM     11  C   UNL     1       1.824   2.745  -2.870  1.00  0.00     0.006 A 
ATOM     12  C   UNL     1       2.289   1.498  -3.316  1.00  0.00     0.010 A 
ATOM     13  C   UNL     1       0.459   3.047  -2.986  1.00  0.00     0.010 A 
ATOM     14  C   UNL     1       1.379   0.496  -3.644  1.00  0.00     0.016 A 
ATOM     15  C   UNL     1      -0.453   2.038  -3.275  1.00  0.00     0.016 A 
BRANCH  11  16
ATOM     16  C   UNL     1       2.723   3.641  -2.028  1.00  0.00     0.299 C 
BRANCH  16  17
ATOM     17  N   UNL     1       2.600   3.407  -0.558  1.00  0.00    -0.331 N 
ATOM     18  C   UNL     1       1.281   1.970   1.667  1.00  0.00     0.089 C 
ATOM     19  C   UNL     1       1.035   3.465   1.423  1.00  0.00     0.075 C 
ATOM     20  C   UNL     1       2.731   1.690   1.274  1.00  0.00     0.075 C 
ATOM     21  C   UNL     1       1.275   3.806  -0.048  1.00  0.00     0.263 C 
ATOM     22  C   UNL     1       2.986   2.038  -0.192  1.00  0.00     0.263 C 
ATOM     23  H   UNL     1       3.268   4.017  -0.087  1.00  0.00     0.348 HD
BRANCH  18  24
ATOM     24  C   UNL     1       0.212   1.132   0.949  1.00  0.00     0.220 C 
ATOM     25  N   UNL     1       0.553  -0.108   0.506  1.00  0.00    -0.369 N 
ATOM     26  H   UNL     1      -0.114  -0.665   0.043  1.00  0.00     0.159 HD
ATOM     27  H   UNL     1       1.466  -0.448   0.647  1.00  0.00     0.159 HD
ATOM     28  O   UNL     1      -0.950   1.509   0.819  1.00  0.00    -0.275 OA
ENDBRANCH  18  24
ENDBRANCH  16  17
ENDBRANCH  11  16
ENDBRANCH   8  10
ENDBRANCH   7   8
ENDBRANCH   6   7
ENDBRANCH   5   6
ENDBRANCH   4   5
ENDBRANCH   3   4
ENDBRANCH   2   3
ENDBRANCH   1   2
BRANCH   1  29
ATOM     29  C   UNL     1      -3.167   1.949  -7.607  1.00  0.00     0.188 C 
BRANCH  29  30
ATOM     30  C   UNL     1      -2.802   1.396  -9.008  1.00  0.00     0.188 C 
BRANCH  30  31
ATOM     31  O   UNL     1      -1.434   1.515  -9.370  1.00  0.00    -0.376 OA
BRANCH  31  32
ATOM     32  C   UNL     1      -1.073   2.510 -10.311  1.00  0.00     0.202 C 
BRANCH  32  33
ATOM     33  C   UNL     1      -1.255   3.970  -9.874  1.00  0.00     0.261 C 
BRANCH  33  34
ATOM     34  O   UNL     1      -2.576   4.340  -9.457  1.00  0.00    -0.460 OA
BRANCH  34  35
ATOM     35  C   UNL     1      -3.556   4.266 -10.390  1.00  0.00     0.338 C 
ATOM     36  O   UNL     1      -3.433   3.934 -11.549  1.00  0.00    -0.246 OA
BRANCH  35  37
ATOM     37  C   UNL     1      -4.845   4.479  -9.695  1.00  0.00     0.060 A 
ATOM     38  C   UNL     1      -5.807   3.461  -9.718  1.00  0.00     0.016 A 
ATOM     39  C   UNL     1      -5.091   5.673  -9.015  1.00  0.00     0.016 A 
ATOM     40  C   UNL     1      -7.037   3.651  -9.086  1.00  0.00     0.010 A 
ATOM     41  C   UNL     1      -6.331   5.869  -8.400  1.00  0.00     0.010 A 
ATOM     42  C   UNL     1      -7.321   4.872  -8.459  1.00  0.00    -0.014 A 
BRANCH  42  43
ATOM     43  C   UNL     1      -8.713   5.183  -8.044  1.00  0.00     0.031 A 
ATOM     44  C   UNL     1      -9.553   6.030  -8.962  1.00  0.00     0.074 A 
ATOM     45  C   UNL     1      -9.229   4.708  -6.896  1.00  0.00     0.049 A 
ATOM     46  N   UNL     1     -10.761   6.499  -8.789  1.00  0.00    -0.248 NA
ATOM     47  C   UNL     1      -8.941   6.400 -10.249  1.00  0.00     0.031 C 
ATOM     48  C   UNL     1      -8.531   3.837  -5.953  1.00  0.00     0.029 A 
ATOM     49  N   UNL     1     -10.463   4.903  -6.324  1.00  0.00    -0.354 N 
ATOM     50  C   UNL     1     -11.056   7.216  -9.944  1.00  0.00     0.074 A 
ATOM     51  C   UNL     1      -9.882   7.158 -10.788  1.00  0.00     0.031 C 
ATOM     52  C   UNL     1      -9.343   3.586  -4.910  1.00  0.00     0.029 A 
ATOM     53  C   UNL     1     -10.599   4.314  -5.088  1.00  0.00     0.049 A 
ATOM     54  H   UNL     1     -11.182   5.417  -6.758  1.00  0.00     0.167 HD
ATOM     55  C   UNL     1     -12.206   7.853 -10.275  1.00  0.00     0.034 A 
ATOM     56  C   UNL     1     -11.606   4.385  -4.192  1.00  0.00     0.034 A 
ATOM     57  C   UNL     1     -13.361   7.919  -9.415  1.00  0.00     0.049 A 
ATOM     58  C   UNL     1     -12.838   5.193  -4.538  1.00  0.00     0.074 A 
ATOM     59  C   UNL     1     -14.572   8.547  -9.647  1.00  0.00     0.029 A 
ATOM     60  N   UNL     1     -13.447   7.346  -8.153  1.00  0.00    -0.354 N 
ATOM     61  N   UNL     1     -13.105   5.871  -5.632  1.00  0.00    -0.248 NA
ATOM     62  C   UNL     1     -13.909   5.237  -3.533  1.00  0.00     0.031 C 
ATOM     63  C   UNL     1     -15.359   8.419  -8.499  1.00  0.00     0.029 A 
ATOM     64  C   UNL     1     -14.678   7.632  -7.584  1.00  0.00     0.049 A 
ATOM     65  H   UNL     1     -12.737   6.815  -7.725  1.00  0.00     0.167 HD
ATOM     66  C   UNL     1     -14.388   6.388  -5.457  1.00  0.00     0.074 A 
ATOM     67  C   UNL     1     -14.846   5.930  -4.163  1.00  0.00     0.031 C 
ATOM     68  C   UNL     1     -15.123   7.169  -6.291  1.00  0.00     0.034 A 
BRANCH  55  69
ATOM     69  C   UNL     1     -12.247   8.565 -11.605  1.00  0.00     0.023 A 
ATOM     70  C   UNL     1     -12.147   7.865 -12.821  1.00  0.00     0.031 A 
ATOM     71  C   UNL     1     -12.376   9.964 -11.660  1.00  0.00     0.131 A 
ATOM     72  C   UNL     1     -12.116   8.569 -14.034  1.00  0.00     0.055 A 
ATOM     73  C   UNL     1     -12.426  10.652 -12.874  1.00  0.00     0.041 A 
ATOM     74  F   UNL     1     -12.448  10.688 -10.532  1.00  0.00    -0.206 F 
ATOM     75  C   UNL     1     -12.284   9.956 -14.070  1.00  0.00     0.022 A 
BRANCH  72  76
ATOM     76  S   UNL     1     -11.719   7.662 -15.553  1.00  0.00     0.124 S 
ATOM     77  O   UNL     1     -10.399   7.122 -15.238  1.00  0.00    -0.237 OA
ATOM     78  O   UNL     1     -12.804   6.692 -15.635  1.00  0.00    -0.237 OA
ATOM     79  O   UNL     1     -11.730   8.699 -16.584  1.00  0.00    -0.744 OA
ENDBRANCH  72  76
ENDBRANCH  55  69
BRANCH  56  80
ATOM     80  C   UNL     1     -11.485   3.730  -2.855  1.00  0.00     0.023 A 
ATOM     81  C   UNL     1     -12.396   2.747  -2.436  1.00  0.00     0.031 A 
ATOM     82  C   UNL     1     -10.502   4.145  -1.937  1.00  0.00     0.131 A 
ATOM     83  C   UNL     1     -12.347   2.260  -1.119  1.00  0.00     0.055 A 
ATOM     84  C   UNL     1     -10.414   3.607  -0.652  1.00  0.00     0.041 A 
ATOM     85  F   UNL     1      -9.610   5.089  -2.277  1.00  0.00    -0.206 F 
ATOM     86  C   UNL     1     -11.352   2.671  -0.230  1.00  0.00     0.022 A 
BRANCH  83  87
ATOM     87  S   UNL     1     -13.683   1.174  -0.544  1.00  0.00     0.124 S 
ATOM     88  O   UNL     1     -14.861   1.995  -0.797  1.00  0.00    -0.237 OA
ATOM     89  O   UNL     1     -13.516   0.008  -1.406  1.00  0.00    -0.237 OA
ATOM     90  O   UNL     1     -13.363   0.957   0.865  1.00  0.00    -0.744 OA
ENDBRANCH  83  87
ENDBRANCH  56  80
BRANCH  68  91
ATOM     91  C   UNL     1     -16.525   7.525  -5.852  1.00  0.00     0.023 A 
ATOM     92  C   UNL     1     -16.774   8.329  -4.727  1.00  0.00     0.031 A 
ATOM     93  C   UNL     1     -17.633   7.045  -6.576  1.00  0.00     0.131 A 
ATOM     94  C   UNL     1     -18.094   8.579  -4.323  1.00  0.00     0.055 A 
ATOM     95  C   UNL     1     -18.943   7.356  -6.211  1.00  0.00     0.041 A 
ATOM     96  F   UNL     1     -17.459   6.270  -7.659  1.00  0.00    -0.206 F 
ATOM     97  C   UNL     1     -19.180   8.115  -5.069  1.00  0.00     0.022 A 
BRANCH  94  98
ATOM     98  S   UNL     1     -18.378   9.433  -2.748  1.00  0.00     0.124 S 
ATOM     99  O   UNL     1     -17.684   8.564  -1.803  1.00  0.00    -0.237 OA
ATOM    100  O   UNL     1     -17.764  10.736  -2.984  1.00  0.00    -0.237 OA
ATOM    101  O   UNL     1     -19.834   9.448  -2.623  1.00  0.00    -0.744 OA
ENDBRANCH  94  98
ENDBRANCH  68  91
ENDBRANCH  42  43
ENDBRANCH  35  37
ENDBRANCH  34  35
ENDBRANCH  33  34
ENDBRANCH  32  33
ENDBRANCH  31  32
ENDBRANCH  30  31
ENDBRANCH  29  30
ENDBRANCH   1  29
TORSDOF 26
