REMARK SMILES C[C@H]1[C@H](C(=O)OCCOCCOCCOCCOC(=O)c2ccc(-c3c4nc(c(-c5cc(S(=O)(=O)[O-])ccc5F)c5ccc([nH]5)c(-c5cc(S(=O)(=O)[O-])ccc5F)c5nc(c(-c6cc(S(=O)(=O)[O-])ccc6F)c6ccc3[nH]6)C=C5)C=C4)cc2)CC[N@@H+]1Cc1ccc(Br)cc1F
REMARK SMILES IDX 13 1 12 2 11 3 10 4 9 5 8 6 7 7 6 8 4 9 5 10 3 11 1 12 2 13
REMARK SMILES IDX 86 14 84 15 85 16 87 18 88 19 89 20 94 21 90 22 93 23 95 24
REMARK SMILES IDX 91 25 92 26 14 27 15 28 16 29 17 30 18 31 19 32 20 33 21 34
REMARK SMILES IDX 22 35 83 36 23 37 82 38 24 39 25 40 26 41 76 42 27 43 81 44
REMARK SMILES IDX 75 45 77 46 28 47 80 48 74 49 73 50 29 52 61 53 41 54 60 55
REMARK SMILES IDX 42 56 45 57 59 58 78 59 43 60 44 61 58 63 79 64 46 65 30 66
REMARK SMILES IDX 31 67 39 68 32 69 38 70 40 71 37 72 33 73 34 74 35 75 36 76
REMARK SMILES IDX 62 77 63 78 71 79 64 80 70 81 72 82 69 83 65 84 66 85 67 86
REMARK SMILES IDX 68 87 47 88 48 89 56 90 49 91 55 92 57 93 54 94 50 95 51 96
REMARK SMILES IDX 52 97 53 98
REMARK H PARENT 86 17 77 51 45 62
REMARK Flexibility Score: inf
ROOT
ATOM      1  C   UNL     1       2.590   2.280   4.290  1.00  0.00     0.188 C 
ENDROOT
BRANCH   1   2
ATOM      2  O   UNL     1       2.799   1.673   3.034  1.00  0.00    -0.377 OA
BRANCH   2   3
ATOM      3  C   UNL     1       1.911   2.087   2.030  1.00  0.00     0.188 C 
BRANCH   3   4
ATOM      4  C   UNL     1       1.772   3.541   1.561  1.00  0.00     0.188 C 
BRANCH   4   5
ATOM      5  O   UNL     1       1.112   4.515   2.352  1.00  0.00    -0.376 OA
BRANCH   5   6
ATOM      6  C   UNL     1      -0.036   4.244   3.131  1.00  0.00     0.202 C 
BRANCH   6   7
ATOM      7  C   UNL     1      -1.232   3.412   2.633  1.00  0.00     0.261 C 
BRANCH   7   8
ATOM      8  O   UNL     1      -0.937   2.248   1.840  1.00  0.00    -0.463 OA
BRANCH   8   9
ATOM      9  C   UNL     1      -1.130   2.361   0.508  1.00  0.00     0.315 C 
ATOM     10  O   UNL     1      -1.600   3.363  -0.025  1.00  0.00    -0.252 OA
BRANCH   9  11
ATOM     11  C   UNL     1      -0.741   1.143  -0.325  1.00  0.00     0.162 C 
ATOM     12  C   UNL     1       1.396  -0.159  -0.719  1.00  0.00     0.076 C 
ATOM     13  C   UNL     1       0.172   0.020   0.204  1.00  0.00     0.195 C 
ATOM     14  N   UNL     1      -0.579  -1.236   0.130  1.00  0.00    -0.328 N 
ATOM     15  C   UNL     1      -2.012   0.440  -0.778  1.00  0.00     0.083 C 
ATOM     16  C   UNL     1      -1.678  -1.039  -0.801  1.00  0.00     0.263 C 
ATOM     17  H   UNL     1       0.026  -1.966  -0.245  1.00  0.00     0.348 HD
BRANCH  14  18
ATOM     18  C   UNL     1      -0.891  -1.885   1.410  1.00  0.00     0.302 C 
BRANCH  18  19
ATOM     19  C   UNL     1      -1.521  -1.058   2.507  1.00  0.00     0.042 A 
ATOM     20  C   UNL     1      -0.780  -0.698   3.649  1.00  0.00     0.014 A 
ATOM     21  C   UNL     1      -2.861  -0.669   2.449  1.00  0.00     0.133 A 
ATOM     22  C   UNL     1      -1.365   0.053   4.675  1.00  0.00     0.016 A 
ATOM     23  C   UNL     1      -3.445   0.105   3.448  1.00  0.00     0.055 A 
ATOM     24  F   UNL     1      -3.626  -1.047   1.416  1.00  0.00    -0.206 F 
ATOM     25  C   UNL     1      -2.692   0.461   4.561  1.00  0.00     0.020 A 
ATOM     26  Br  UNL     1      -3.473   1.516   5.919  1.00  0.00    -0.051 Br
ENDBRANCH  18  19
ENDBRANCH  14  18
ENDBRANCH   9  11
ENDBRANCH   8   9
ENDBRANCH   7   8
ENDBRANCH   6   7
ENDBRANCH   5   6
ENDBRANCH   4   5
ENDBRANCH   3   4
ENDBRANCH   2   3
ENDBRANCH   1   2
BRANCH   1  27
ATOM     27  C   UNL     1       3.540   3.460   4.454  1.00  0.00     0.188 C 
BRANCH  27  28
ATOM     28  O   UNL     1       4.257   3.765   3.270  1.00  0.00    -0.376 OA
BRANCH  28  29
ATOM     29  C   UNL     1       5.330   2.946   2.818  1.00  0.00     0.202 C 
BRANCH  29  30
ATOM     30  C   UNL     1       5.569   1.440   3.112  1.00  0.00     0.261 C 
BRANCH  30  31
ATOM     31  O   UNL     1       5.064   0.846   4.311  1.00  0.00    -0.460 OA
BRANCH  31  32
ATOM     32  C   UNL     1       5.619   1.221   5.476  1.00  0.00     0.338 C 
ATOM     33  O   UNL     1       6.526   2.023   5.626  1.00  0.00    -0.246 OA
BRANCH  32  34
ATOM     34  C   UNL     1       4.785   0.654   6.561  1.00  0.00     0.060 A 
ATOM     35  C   UNL     1       4.211   1.537   7.483  1.00  0.00     0.016 A 
ATOM     36  C   UNL     1       4.546  -0.722   6.659  1.00  0.00     0.016 A 
ATOM     37  C   UNL     1       3.449   1.047   8.540  1.00  0.00     0.010 A 
ATOM     38  C   UNL     1       3.807  -1.218   7.739  1.00  0.00     0.010 A 
ATOM     39  C   UNL     1       3.301  -0.335   8.711  1.00  0.00    -0.014 A 
BRANCH  39  40
ATOM     40  C   UNL     1       2.876  -0.827  10.044  1.00  0.00     0.031 A 
ATOM     41  C   UNL     1       3.957  -1.201  11.026  1.00  0.00     0.074 A 
ATOM     42  C   UNL     1       1.584  -0.839  10.414  1.00  0.00     0.049 A 
ATOM     43  N   UNL     1       3.857  -1.603  12.265  1.00  0.00    -0.248 NA
ATOM     44  C   UNL     1       5.342  -1.102  10.536  1.00  0.00     0.031 C 
ATOM     45  C   UNL     1       0.459  -0.439   9.570  1.00  0.00     0.029 A 
ATOM     46  N   UNL     1       1.002  -1.190  11.606  1.00  0.00    -0.354 N 
ATOM     47  C   UNL     1       5.163  -1.801  12.704  1.00  0.00     0.074 A 
ATOM     48  C   UNL     1       6.032  -1.524  11.582  1.00  0.00     0.031 C 
ATOM     49  C   UNL     1      -0.679  -0.566  10.274  1.00  0.00     0.029 A 
ATOM     50  C   UNL     1      -0.369  -1.085  11.605  1.00  0.00     0.049 A 
ATOM     51  H   UNL     1       1.519  -1.489  12.389  1.00  0.00     0.167 HD
ATOM     52  C   UNL     1       5.599  -2.165  13.934  1.00  0.00     0.034 A 
ATOM     53  C   UNL     1      -1.265  -1.388  12.567  1.00  0.00     0.034 A 
ATOM     54  C   UNL     1       4.717  -2.452  15.038  1.00  0.00     0.049 A 
ATOM     55  C   UNL     1      -0.760  -1.885  13.903  1.00  0.00     0.074 A 
ATOM     56  C   UNL     1       5.045  -2.834  16.326  1.00  0.00     0.029 A 
ATOM     57  N   UNL     1       3.329  -2.401  14.980  1.00  0.00    -0.354 N 
ATOM     58  N   UNL     1       0.477  -2.066  14.308  1.00  0.00    -0.248 NA
ATOM     59  C   UNL     1      -1.775  -2.203  14.916  1.00  0.00     0.031 C 
ATOM     60  C   UNL     1       3.859  -3.095  17.020  1.00  0.00     0.029 A 
ATOM     61  C   UNL     1       2.788  -2.780  16.199  1.00  0.00     0.049 A 
ATOM     62  H   UNL     1       2.807  -2.135  14.189  1.00  0.00     0.167 HD
ATOM     63  C   UNL     1       0.387  -2.481  15.636  1.00  0.00     0.074 A 
ATOM     64  C   UNL     1      -1.024  -2.504  15.964  1.00  0.00     0.031 C 
ATOM     65  C   UNL     1       1.376  -2.809  16.509  1.00  0.00     0.034 A 
BRANCH  52  66
ATOM     66  C   UNL     1       7.089  -2.330  14.120  1.00  0.00     0.023 A 
ATOM     67  C   UNL     1       7.982  -1.253  13.973  1.00  0.00     0.031 A 
ATOM     68  C   UNL     1       7.629  -3.596  14.406  1.00  0.00     0.131 A 
ATOM     69  C   UNL     1       9.366  -1.476  14.038  1.00  0.00     0.055 A 
ATOM     70  C   UNL     1       9.003  -3.795  14.557  1.00  0.00     0.041 A 
ATOM     71  F   UNL     1       6.831  -4.668  14.528  1.00  0.00    -0.206 F 
ATOM     72  C   UNL     1       9.881  -2.734  14.358  1.00  0.00     0.022 A 
BRANCH  69  73
ATOM     73  S   UNL     1      10.486  -0.137  13.544  1.00  0.00     0.124 S 
ATOM     74  O   UNL     1      10.048   0.122  12.175  1.00  0.00    -0.237 OA
ATOM     75  O   UNL     1      10.184   0.903  14.521  1.00  0.00    -0.237 OA
ATOM     76  O   UNL     1      11.813  -0.739  13.663  1.00  0.00    -0.744 OA
ENDBRANCH  69  73
ENDBRANCH  52  66
BRANCH  53  77
ATOM     77  C   UNL     1      -2.730  -1.268  12.306  1.00  0.00     0.023 A 
ATOM     78  C   UNL     1      -3.541  -0.405  13.061  1.00  0.00     0.031 A 
ATOM     79  C   UNL     1      -3.355  -2.075  11.338  1.00  0.00     0.131 A 
ATOM     80  C   UNL     1      -4.932  -0.408  12.874  1.00  0.00     0.055 A 
ATOM     81  C   UNL     1      -4.732  -2.030  11.113  1.00  0.00     0.041 A 
ATOM     82  F   UNL     1      -2.630  -2.924  10.591  1.00  0.00    -0.206 F 
ATOM     83  C   UNL     1      -5.531  -1.204  11.895  1.00  0.00     0.022 A 
BRANCH  80  84
ATOM     84  S   UNL     1      -5.964   0.571  14.001  1.00  0.00     0.124 S 
ATOM     85  O   UNL     1      -5.600   0.011  15.297  1.00  0.00    -0.237 OA
ATOM     86  O   UNL     1      -5.499   1.928  13.734  1.00  0.00    -0.237 OA
ATOM     87  O   UNL     1      -7.325   0.281  13.554  1.00  0.00    -0.744 OA
ENDBRANCH  80  84
ENDBRANCH  53  77
BRANCH  65  88
ATOM     88  C   UNL     1       0.963  -3.166  17.919  1.00  0.00     0.023 A 
ATOM     89  C   UNL     1       0.165  -4.289  18.199  1.00  0.00     0.031 A 
ATOM     90  C   UNL     1       1.352  -2.350  18.998  1.00  0.00     0.131 A 
ATOM     91  C   UNL     1      -0.285  -4.519  19.508  1.00  0.00     0.055 A 
ATOM     92  C   UNL     1       0.968  -2.631  20.310  1.00  0.00     0.041 A 
ATOM     93  F   UNL     1       2.112  -1.262  18.794  1.00  0.00    -0.206 F 
ATOM     94  C   UNL     1       0.128  -3.709  20.569  1.00  0.00     0.022 A 
BRANCH  91  95
ATOM     95  S   UNL     1      -1.527  -5.812  19.785  1.00  0.00     0.124 S 
ATOM     96  O   UNL     1      -2.592  -5.408  18.872  1.00  0.00    -0.237 OA
ATOM     97  O   UNL     1      -0.801  -7.024  19.421  1.00  0.00    -0.237 OA
ATOM     98  O   UNL     1      -1.846  -5.683  21.206  1.00  0.00    -0.744 OA
ENDBRANCH  91  95
ENDBRANCH  65  88
ENDBRANCH  39  40
ENDBRANCH  32  34
ENDBRANCH  31  32
ENDBRANCH  30  31
ENDBRANCH  29  30
ENDBRANCH  28  29
ENDBRANCH  27  28
ENDBRANCH   1  27
TORSDOF 25
