REMARK SMILES COc1ccc2c(c1)c(Cc1nc(-c3ccc(C(=O)OCCOCCOCCOCCOC(=O)c4ccc(-c5c6nc(c(-c7cc(S(=O)(=O)[O-])ccc7F)c7ccc([nH]7)c(-c7cc(S(=O)(=O)[O-])ccc7F)c7nc(c(-c8cc(S(=O)(=O)[O-])ccc8F)c8ccc5[nH]8)C=C7)C=C6)cc4)cc3)cs1)c(C)n2C(=O)c1ccc(Cl)cc1
REMARK SMILES IDX 25 1 24 2 23 3 22 4 21 5 20 6 18 7 19 8 17 9 14 10 15 11
REMARK SMILES IDX 99 12 16 13 98 14 13 15 11 16 12 17 101 18 100 19 10 20 9 21
REMARK SMILES IDX 3 22 4 23 8 24 5 25 7 26 6 27 104 28 102 29 103 30 2 31 1 32
REMARK SMILES IDX 105 33 106 34 107 35 108 36 113 37 109 38 112 39 110 40
REMARK SMILES IDX 111 41 26 42 27 43 28 44 29 45 30 46 31 47 32 48 33 49 34 50
REMARK SMILES IDX 35 51 36 52 97 53 37 54 96 55 38 56 39 57 40 58 90 59 41 60
REMARK SMILES IDX 95 61 89 62 91 63 42 64 94 65 88 66 87 67 43 69 75 70 55 71
REMARK SMILES IDX 74 72 56 73 59 74 73 75 92 76 57 77 58 78 72 80 93 81 60 82
REMARK SMILES IDX 44 83 45 84 53 85 46 86 52 87 54 88 51 89 47 90 48 91 49 92
REMARK SMILES IDX 50 93 76 94 77 95 85 96 78 97 84 98 86 99 83 100 79 101
REMARK SMILES IDX 80 102 81 103 82 104 61 105 62 106 70 107 63 108 69 109
REMARK SMILES IDX 71 110 68 111 64 112 65 113 66 114 67 115
REMARK H PARENT 91 68 59 79
REMARK Flexibility Score: inf
ROOT
ATOM      1  C   UNL     1      -3.958  -4.155   7.153  1.00  0.00     0.188 C 
ENDROOT
BRANCH   1   2
ATOM      2  C   UNL     1      -2.787  -4.249   8.143  1.00  0.00     0.188 C 
BRANCH   2   3
ATOM      3  O   UNL     1      -2.894  -3.355   9.235  1.00  0.00    -0.376 OA
BRANCH   3   4
ATOM      4  C   UNL     1      -2.014  -2.241   9.315  1.00  0.00     0.202 C 
BRANCH   4   5
ATOM      5  C   UNL     1      -1.986  -1.170   8.206  1.00  0.00     0.261 C 
BRANCH   5   6
ATOM      6  O   UNL     1      -2.093  -1.653   6.863  1.00  0.00    -0.460 OA
BRANCH   6   7
ATOM      7  C   UNL     1      -0.999  -2.226   6.322  1.00  0.00     0.338 C 
ATOM      8  O   UNL     1       0.095  -2.362   6.841  1.00  0.00    -0.246 OA
BRANCH   7   9
ATOM      9  C   UNL     1      -1.439  -2.942   5.101  1.00  0.00     0.060 A 
ATOM     10  C   UNL     1      -2.416  -4.485   2.977  1.00  0.00     0.001 A 
ATOM     11  C   UNL     1      -1.549  -5.054   3.919  1.00  0.00     0.011 A 
ATOM     12  C   UNL     1      -2.788  -3.139   3.102  1.00  0.00     0.011 A 
ATOM     13  C   UNL     1      -1.044  -4.279   4.963  1.00  0.00     0.016 A 
ATOM     14  C   UNL     1      -2.319  -2.371   4.175  1.00  0.00     0.016 A 
BRANCH  10  15
ATOM     15  C   UNL     1      -2.799  -5.248   1.804  1.00  0.00     0.081 A 
ATOM     16  C   UNL     1      -2.684  -5.657  -0.361  1.00  0.00     0.098 A 
ATOM     17  N   UNL     1      -2.597  -4.718   0.553  1.00  0.00    -0.241 NA
ATOM     18  S   UNL     1      -3.288  -7.163   0.209  1.00  0.00    -0.126 S 
ATOM     19  C   UNL     1      -3.270  -6.546   1.816  1.00  0.00     0.095 A 
BRANCH  16  20
ATOM     20  C   UNL     1      -2.297  -5.450  -1.797  1.00  0.00     0.105 C 
BRANCH  20  21
ATOM     21  C   UNL     1      -0.800  -5.327  -2.000  1.00  0.00    -0.012 A 
ATOM     22  C   UNL     1       0.754  -2.191  -0.450  1.00  0.00     0.119 A 
ATOM     23  C   UNL     1       2.022  -2.374  -0.967  1.00  0.00     0.048 A 
ATOM     24  C   UNL     1      -0.243  -3.121  -0.733  1.00  0.00     0.057 A 
ATOM     25  C   UNL     1       2.306  -3.481  -1.776  1.00  0.00     0.031 A 
ATOM     26  C   UNL     1       0.021  -4.264  -1.523  1.00  0.00     0.008 A 
ATOM     27  C   UNL     1       1.316  -4.462  -2.014  1.00  0.00     0.057 A 
ATOM     28  N   UNL     1       1.338  -5.691  -2.703  1.00  0.00    -0.280 N 
ATOM     29  C   UNL     1       0.020  -6.184  -2.728  1.00  0.00     0.028 A 
ATOM     30  C   UNL     1      -0.434  -7.431  -3.421  1.00  0.00     0.065 C 
BRANCH  22  31
ATOM     31  O   UNL     1       0.396  -1.164   0.377  1.00  0.00    -0.497 OA
ATOM     32  C   UNL     1       0.923   0.106   0.006  1.00  0.00     0.278 C 
ENDBRANCH  22  31
BRANCH  28  33
ATOM     33  C   UNL     1       2.491  -6.298  -3.290  1.00  0.00     0.262 C 
ATOM     34  O   UNL     1       2.353  -7.280  -4.018  1.00  0.00    -0.268 OA
BRANCH  33  35
ATOM     35  C   UNL     1       3.880  -5.824  -3.144  1.00  0.00     0.040 A 
ATOM     36  C   UNL     1       4.515  -5.806  -1.897  1.00  0.00     0.015 A 
ATOM     37  C   UNL     1       4.543  -5.365  -4.289  1.00  0.00     0.015 A 
ATOM     38  C   UNL     1       5.788  -5.240  -1.785  1.00  0.00     0.021 A 
ATOM     39  C   UNL     1       5.818  -4.810  -4.173  1.00  0.00     0.021 A 
ATOM     40  C   UNL     1       6.427  -4.733  -2.920  1.00  0.00     0.041 A 
ATOM     41  Cl  UNL     1       7.971  -3.988  -2.772  1.00  0.00    -0.084 Cl
ENDBRANCH  33  35
ENDBRANCH  28  33
ENDBRANCH  20  21
ENDBRANCH  16  20
ENDBRANCH  10  15
ENDBRANCH   7   9
ENDBRANCH   6   7
ENDBRANCH   5   6
ENDBRANCH   4   5
ENDBRANCH   3   4
ENDBRANCH   2   3
ENDBRANCH   1   2
BRANCH   1  42
ATOM     42  O   UNL     1      -4.658  -2.929   7.112  1.00  0.00    -0.377 OA
BRANCH  42  43
ATOM     43  C   UNL     1      -5.316  -2.483   8.297  1.00  0.00     0.188 C 
BRANCH  43  44
ATOM     44  C   UNL     1      -5.660  -3.457   9.448  1.00  0.00     0.188 C 
BRANCH  44  45
ATOM     45  O   UNL     1      -5.942  -4.775   9.005  1.00  0.00    -0.376 OA
BRANCH  45  46
ATOM     46  C   UNL     1      -7.303  -5.171   9.019  1.00  0.00     0.202 C 
BRANCH  46  47
ATOM     47  C   UNL     1      -8.269  -4.387   8.114  1.00  0.00     0.261 C 
BRANCH  47  48
ATOM     48  O   UNL     1      -8.272  -2.969   8.341  1.00  0.00    -0.460 OA
BRANCH  48  49
ATOM     49  C   UNL     1      -9.009  -2.457   9.360  1.00  0.00     0.338 C 
ATOM     50  O   UNL     1      -9.887  -3.016   9.971  1.00  0.00    -0.246 OA
BRANCH  49  51
ATOM     51  C   UNL     1      -8.277  -1.228   9.790  1.00  0.00     0.060 A 
ATOM     52  C   UNL     1      -7.780  -0.312   8.857  1.00  0.00     0.016 A 
ATOM     53  C   UNL     1      -7.828  -1.198  11.118  1.00  0.00     0.016 A 
ATOM     54  C   UNL     1      -6.741   0.540   9.230  1.00  0.00     0.010 A 
ATOM     55  C   UNL     1      -6.783  -0.348  11.485  1.00  0.00     0.010 A 
ATOM     56  C   UNL     1      -6.208   0.498  10.534  1.00  0.00    -0.014 A 
BRANCH  56  57
ATOM     57  C   UNL     1      -5.250   1.554  10.909  1.00  0.00     0.031 A 
ATOM     58  C   UNL     1      -5.866   2.906  10.815  1.00  0.00     0.074 A 
ATOM     59  C   UNL     1      -4.030   1.418  11.475  1.00  0.00     0.049 A 
ATOM     60  N   UNL     1      -5.520   3.910  10.078  1.00  0.00    -0.248 NA
ATOM     61  C   UNL     1      -7.139   3.090  11.534  1.00  0.00     0.031 C 
ATOM     62  C   UNL     1      -3.451   0.186  12.010  1.00  0.00     0.029 A 
ATOM     63  N   UNL     1      -3.092   2.371  11.804  1.00  0.00    -0.354 N 
ATOM     64  C   UNL     1      -6.428   4.921  10.393  1.00  0.00     0.074 A 
ATOM     65  C   UNL     1      -7.502   4.301  11.121  1.00  0.00     0.031 C 
ATOM     66  C   UNL     1      -2.377   0.491  12.773  1.00  0.00     0.029 A 
ATOM     67  C   UNL     1      -2.125   1.923  12.698  1.00  0.00     0.049 A 
ATOM     68  H   UNL     1      -3.105   3.285  11.440  1.00  0.00     0.167 HD
ATOM     69  C   UNL     1      -6.109   6.238  10.276  1.00  0.00     0.034 A 
ATOM     70  C   UNL     1      -1.234   2.660  13.410  1.00  0.00     0.034 A 
ATOM     71  C   UNL     1      -4.921   6.433   9.500  1.00  0.00     0.049 A 
ATOM     72  C   UNL     1      -1.094   4.006  12.818  1.00  0.00     0.074 A 
ATOM     73  C   UNL     1      -4.593   6.511   8.168  1.00  0.00     0.029 A 
ATOM     74  N   UNL     1      -3.760   6.277  10.206  1.00  0.00    -0.354 N 
ATOM     75  N   UNL     1      -0.518   4.250  11.677  1.00  0.00    -0.248 NA
ATOM     76  C   UNL     1      -1.848   5.118  13.391  1.00  0.00     0.031 C 
ATOM     77  C   UNL     1      -3.192   6.273   8.085  1.00  0.00     0.029 A 
ATOM     78  C   UNL     1      -2.696   6.066   9.371  1.00  0.00     0.049 A 
ATOM     79  H   UNL     1      -3.697   6.313  11.188  1.00  0.00     0.167 HD
ATOM     80  C   UNL     1      -1.196   5.349  11.195  1.00  0.00     0.074 A 
ATOM     81  C   UNL     1      -1.848   5.950  12.348  1.00  0.00     0.031 C 
ATOM     82  C   UNL     1      -1.471   5.473   9.868  1.00  0.00     0.034 A 
BRANCH  69  83
ATOM     83  C   UNL     1      -6.615   7.308  11.219  1.00  0.00     0.023 A 
ATOM     84  C   UNL     1      -7.219   7.008  12.455  1.00  0.00     0.031 A 
ATOM     85  C   UNL     1      -6.277   8.660  11.016  1.00  0.00     0.131 A 
ATOM     86  C   UNL     1      -7.501   7.999  13.402  1.00  0.00     0.055 A 
ATOM     87  C   UNL     1      -6.490   9.642  11.993  1.00  0.00     0.041 A 
ATOM     88  F   UNL     1      -5.681   9.061   9.882  1.00  0.00    -0.206 F 
ATOM     89  C   UNL     1      -7.109   9.315  13.194  1.00  0.00     0.022 A 
BRANCH  86  90
ATOM     90  S   UNL     1      -8.377   7.570  14.931  1.00  0.00     0.124 S 
ATOM     91  O   UNL     1      -7.409   7.955  15.952  1.00  0.00    -0.237 OA
ATOM     92  O   UNL     1      -9.567   8.412  14.834  1.00  0.00    -0.237 OA
ATOM     93  O   UNL     1      -8.623   6.137  14.793  1.00  0.00    -0.744 OA
ENDBRANCH  86  90
ENDBRANCH  69  83
BRANCH  70  94
ATOM     94  C   UNL     1      -0.748   2.393  14.787  1.00  0.00     0.023 A 
ATOM     95  C   UNL     1      -1.601   1.748  15.698  1.00  0.00     0.031 A 
ATOM     96  C   UNL     1       0.393   3.030  15.310  1.00  0.00     0.131 A 
ATOM     97  C   UNL     1      -1.343   1.794  17.073  1.00  0.00     0.055 A 
ATOM     98  C   UNL     1       0.658   3.062  16.686  1.00  0.00     0.041 A 
ATOM     99  F   UNL     1       1.235   3.695  14.504  1.00  0.00    -0.206 F 
ATOM    100  C   UNL     1      -0.222   2.454  17.577  1.00  0.00     0.022 A 
BRANCH  97 101
ATOM    101  S   UNL     1      -2.526   1.066  18.237  1.00  0.00     0.124 S 
ATOM    102  O   UNL     1      -1.652   0.327  19.145  1.00  0.00    -0.237 OA
ATOM    103  O   UNL     1      -3.157   2.255  18.798  1.00  0.00    -0.237 OA
ATOM    104  O   UNL     1      -3.373   0.236  17.385  1.00  0.00    -0.744 OA
ENDBRANCH  97 101
ENDBRANCH  70  94
BRANCH  82 105
ATOM    105  C   UNL     1      -0.568   4.799   8.879  1.00  0.00     0.023 A 
ATOM    106  C   UNL     1      -0.001   5.625   7.894  1.00  0.00     0.031 A 
ATOM    107  C   UNL     1      -0.371   3.412   8.772  1.00  0.00     0.131 A 
ATOM    108  C   UNL     1       0.682   5.068   6.812  1.00  0.00     0.055 A 
ATOM    109  C   UNL     1       0.384   2.863   7.731  1.00  0.00     0.041 A 
ATOM    110  F   UNL     1      -0.956   2.552   9.619  1.00  0.00    -0.206 F 
ATOM    111  C   UNL     1       0.897   3.690   6.733  1.00  0.00     0.022 A 
BRANCH 108 112
ATOM    112  S   UNL     1       1.155   6.110   5.409  1.00  0.00     0.124 S 
ATOM    113  O   UNL     1       2.613   6.040   5.448  1.00  0.00    -0.237 OA
ATOM    114  O   UNL     1       0.524   5.422   4.285  1.00  0.00    -0.237 OA
ATOM    115  O   UNL     1       0.583   7.415   5.729  1.00  0.00    -0.744 OA
ENDBRANCH 108 112
ENDBRANCH  82 105
ENDBRANCH  56  57
ENDBRANCH  49  51
ENDBRANCH  48  49
ENDBRANCH  47  48
ENDBRANCH  46  47
ENDBRANCH  45  46
ENDBRANCH  44  45
ENDBRANCH  43  44
ENDBRANCH  42  43
ENDBRANCH   1  42
TORSDOF 29
