REMARK SMILES O=C(C[NH+]1CCN(c2nccc(N3CCCCC3)n2)CC1)OCCOCCOCCOCCOC(=O)c1ccc(-c2c3nc(c(-c4cc(S(=O)(=O)[O-])ccc4F)c4ccc([nH]4)c(-c4cc(S(=O)(=O)[O-])ccc4F)c4nc(c(-c5cc(S(=O)(=O)[O-])ccc5F)c5ccc2[nH]5)C=C4)C=C3)cc1
REMARK SMILES IDX 28 1 27 2 26 3 25 4 24 5 23 6 22 7 2 8 1 9 3 10 4 11 5 12
REMARK SMILES IDX 21 13 6 15 20 16 7 17 8 18 9 19 19 20 10 21 12 22 11 23
REMARK SMILES IDX 13 24 14 25 18 26 15 27 17 28 16 29 29 30 30 31 31 32 32 33
REMARK SMILES IDX 33 34 34 35 35 36 36 37 37 38 38 39 99 40 39 41 98 42 40 43
REMARK SMILES IDX 41 44 42 45 92 46 43 47 97 48 91 49 93 50 44 51 96 52 90 53
REMARK SMILES IDX 89 54 45 56 77 57 57 58 76 59 58 60 61 61 75 62 94 63 59 64
REMARK SMILES IDX 60 65 74 67 95 68 62 69 46 70 47 71 55 72 48 73 54 74 56 75
REMARK SMILES IDX 53 76 49 77 50 78 51 79 52 80 78 81 79 82 87 83 80 84 86 85
REMARK SMILES IDX 88 86 85 87 81 88 82 89 83 90 84 91 63 92 64 93 72 94 65 95
REMARK SMILES IDX 71 96 73 97 70 98 66 99 67 100 68 101 69 102
REMARK H PARENT 4 14 93 55 61 66
REMARK Flexibility Score: inf
ROOT
ATOM      1  O   UNL     1       2.058  -2.905   2.742  1.00  0.00    -0.377 OA
ENDROOT
BRANCH   1   2
ATOM      2  C   UNL     1       1.730  -2.054   1.659  1.00  0.00     0.188 C 
BRANCH   2   3
ATOM      3  C   UNL     1       2.591  -2.244   0.410  1.00  0.00     0.188 C 
BRANCH   3   4
ATOM      4  O   UNL     1       3.900  -1.689   0.354  1.00  0.00    -0.376 OA
BRANCH   4   5
ATOM      5  C   UNL     1       4.253  -0.529   1.085  1.00  0.00     0.202 C 
BRANCH   5   6
ATOM      6  C   UNL     1       3.455   0.747   0.900  1.00  0.00     0.261 C 
BRANCH   6   7
ATOM      7  O   UNL     1       2.146   0.625   0.352  1.00  0.00    -0.459 OA
BRANCH   7   8
ATOM      8  C   UNL     1       1.980   0.963  -0.958  1.00  0.00     0.361 C 
ATOM      9  O   UNL     1       0.969   1.559  -1.319  1.00  0.00    -0.245 OA
BRANCH   8  10
ATOM     10  C   UNL     1       3.019   0.408  -1.932  1.00  0.00     0.386 C 
BRANCH  10  11
ATOM     11  N   UNL     1       3.926   1.346  -2.613  1.00  0.00    -0.323 N 
ATOM     12  C   UNL     1       4.083   2.707  -2.091  1.00  0.00     0.284 C 
ATOM     13  C   UNL     1       5.254   0.744  -2.847  1.00  0.00     0.284 C 
ATOM     14  H   UNL     1       3.413   1.500  -3.481  1.00  0.00     0.348 HD
ATOM     15  C   UNL     1       5.156   3.000  -1.009  1.00  0.00     0.181 C 
ATOM     16  C   UNL     1       6.271   0.787  -1.683  1.00  0.00     0.181 C 
ATOM     17  N   UNL     1       6.055   1.886  -0.758  1.00  0.00    -0.329 N 
BRANCH  17  18
ATOM     18  C   UNL     1       6.928   2.011   0.301  1.00  0.00     0.227 A 
ATOM     19  N   UNL     1       6.424   2.118   1.539  1.00  0.00    -0.221 NA
ATOM     20  N   UNL     1       8.236   2.010   0.037  1.00  0.00    -0.196 NA
ATOM     21  C   UNL     1       7.315   2.193   2.546  1.00  0.00     0.119 A 
ATOM     22  C   UNL     1       9.107   2.162   1.053  1.00  0.00     0.134 A 
ATOM     23  C   UNL     1       8.676   2.206   2.360  1.00  0.00     0.067 A 
BRANCH  22  24
ATOM     24  N   UNL     1      10.432   2.412   0.740  1.00  0.00    -0.356 N 
ATOM     25  C   UNL     1      10.673   3.128  -0.508  1.00  0.00     0.118 C 
ATOM     26  C   UNL     1      11.484   1.513   1.203  1.00  0.00     0.118 C 
ATOM     27  C   UNL     1      10.972   2.141  -1.632  1.00  0.00     0.022 C 
ATOM     28  C   UNL     1      11.864   0.530   0.088  1.00  0.00     0.022 C 
ATOM     29  C   UNL     1      12.142   1.243  -1.239  1.00  0.00     0.004 C 
ENDBRANCH  22  24
ENDBRANCH  17  18
ENDBRANCH  10  11
ENDBRANCH   8  10
ENDBRANCH   7   8
ENDBRANCH   6   7
ENDBRANCH   5   6
ENDBRANCH   4   5
ENDBRANCH   3   4
ENDBRANCH   2   3
ENDBRANCH   1   2
BRANCH   1  30
ATOM     30  C   UNL     1       3.296  -2.636   3.375  1.00  0.00     0.188 C 
BRANCH  30  31
ATOM     31  C   UNL     1       4.520  -3.374   2.779  1.00  0.00     0.188 C 
BRANCH  31  32
ATOM     32  O   UNL     1       4.404  -4.677   2.218  1.00  0.00    -0.376 OA
BRANCH  32  33
ATOM     33  C   UNL     1       3.252  -5.454   2.477  1.00  0.00     0.202 C 
BRANCH  33  34
ATOM     34  C   UNL     1       3.011  -5.939   3.917  1.00  0.00     0.261 C 
BRANCH  34  35
ATOM     35  O   UNL     1       3.358  -5.022   4.968  1.00  0.00    -0.460 OA
BRANCH  35  36
ATOM     36  C   UNL     1       4.647  -5.065   5.388  1.00  0.00     0.338 C 
ATOM     37  O   UNL     1       5.484  -5.887   5.046  1.00  0.00    -0.246 OA
BRANCH  36  38
ATOM     38  C   UNL     1       4.986  -3.833   6.159  1.00  0.00     0.060 A 
ATOM     39  C   UNL     1       6.233  -3.234   5.912  1.00  0.00     0.016 A 
ATOM     40  C   UNL     1       4.122  -3.259   7.099  1.00  0.00     0.016 A 
ATOM     41  C   UNL     1       6.657  -2.132   6.653  1.00  0.00     0.010 A 
ATOM     42  C   UNL     1       4.560  -2.169   7.869  1.00  0.00     0.010 A 
ATOM     43  C   UNL     1       5.860  -1.653   7.698  1.00  0.00    -0.014 A 
BRANCH  43  44
ATOM     44  C   UNL     1       6.540  -0.929   8.808  1.00  0.00     0.031 A 
ATOM     45  C   UNL     1       7.012  -1.766   9.976  1.00  0.00     0.074 A 
ATOM     46  C   UNL     1       6.833   0.383   8.759  1.00  0.00     0.049 A 
ATOM     47  N   UNL     1       7.642  -1.411  11.065  1.00  0.00    -0.248 NA
ATOM     48  C   UNL     1       6.727  -3.209   9.895  1.00  0.00     0.031 C 
ATOM     49  C   UNL     1       6.508   1.286   7.658  1.00  0.00     0.029 A 
ATOM     50  N   UNL     1       7.486   1.182   9.666  1.00  0.00    -0.354 N 
ATOM     51  C   UNL     1       7.811  -2.581  11.801  1.00  0.00     0.074 A 
ATOM     52  C   UNL     1       7.182  -3.646  11.056  1.00  0.00     0.031 C 
ATOM     53  C   UNL     1       6.963   2.518   7.955  1.00  0.00     0.029 A 
ATOM     54  C   UNL     1       7.583   2.499   9.281  1.00  0.00     0.049 A 
ATOM     55  H   UNL     1       7.852   0.843  10.515  1.00  0.00     0.167 HD
ATOM     56  C   UNL     1       8.445  -2.760  12.986  1.00  0.00     0.034 A 
ATOM     57  C   UNL     1       8.097   3.564   9.933  1.00  0.00     0.034 A 
ATOM     58  C   UNL     1       9.069  -1.691  13.722  1.00  0.00     0.049 A 
ATOM     59  C   UNL     1       8.714   3.361  11.302  1.00  0.00     0.074 A 
ATOM     60  C   UNL     1       9.745  -1.757  14.927  1.00  0.00     0.029 A 
ATOM     61  N   UNL     1       9.083  -0.359  13.330  1.00  0.00    -0.354 N 
ATOM     62  N   UNL     1       8.867   2.250  11.988  1.00  0.00    -0.248 NA
ATOM     63  C   UNL     1       9.238   4.556  11.975  1.00  0.00     0.031 C 
ATOM     64  C   UNL     1      10.090  -0.456  15.305  1.00  0.00     0.029 A 
ATOM     65  C   UNL     1       9.722   0.411  14.288  1.00  0.00     0.049 A 
ATOM     66  H   UNL     1       8.696  -0.013  12.493  1.00  0.00     0.167 HD
ATOM     67  C   UNL     1       9.546   2.611  13.152  1.00  0.00     0.074 A 
ATOM     68  C   UNL     1       9.782   4.037  13.066  1.00  0.00     0.031 C 
ATOM     69  C   UNL     1       9.949   1.835  14.192  1.00  0.00     0.034 A 
BRANCH  56  70
ATOM     70  C   UNL     1       8.421  -4.149  13.581  1.00  0.00     0.023 A 
ATOM     71  C   UNL     1       9.020  -5.249  12.942  1.00  0.00     0.031 A 
ATOM     72  C   UNL     1       7.738  -4.383  14.788  1.00  0.00     0.131 A 
ATOM     73  C   UNL     1       8.856  -6.540  13.469  1.00  0.00     0.055 A 
ATOM     74  C   UNL     1       7.656  -5.656  15.354  1.00  0.00     0.041 A 
ATOM     75  F   UNL     1       7.119  -3.379  15.429  1.00  0.00    -0.206 F 
ATOM     76  C   UNL     1       8.203  -6.747  14.686  1.00  0.00     0.022 A 
BRANCH  73  77
ATOM     77  S   UNL     1       9.363  -7.961  12.461  1.00  0.00     0.124 S 
ATOM     78  O   UNL     1       8.567  -7.763  11.252  1.00  0.00    -0.237 OA
ATOM     79  O   UNL     1      10.799  -7.753  12.323  1.00  0.00    -0.237 OA
ATOM     80  O   UNL     1       8.973  -9.112  13.273  1.00  0.00    -0.744 OA
ENDBRANCH  73  77
ENDBRANCH  56  70
BRANCH  57  81
ATOM     81  C   UNL     1       8.035   4.932   9.335  1.00  0.00     0.023 A 
ATOM     82  C   UNL     1       9.205   5.657   9.050  1.00  0.00     0.031 A 
ATOM     83  C   UNL     1       6.801   5.568   9.111  1.00  0.00     0.131 A 
ATOM     84  C   UNL     1       9.117   6.987   8.609  1.00  0.00     0.055 A 
ATOM     85  C   UNL     1       6.718   6.871   8.616  1.00  0.00     0.041 A 
ATOM     86  F   UNL     1       5.650   4.927   9.372  1.00  0.00    -0.206 F 
ATOM     87  C   UNL     1       7.881   7.594   8.376  1.00  0.00     0.022 A 
BRANCH  84  88
ATOM     88  S   UNL     1      10.646   7.949   8.433  1.00  0.00     0.124 S 
ATOM     89  O   UNL     1      11.191   7.887   9.784  1.00  0.00    -0.237 OA
ATOM     90  O   UNL     1      11.364   7.188   7.415  1.00  0.00    -0.237 OA
ATOM     91  O   UNL     1      10.174   9.264   8.008  1.00  0.00    -0.744 OA
ENDBRANCH  84  88
ENDBRANCH  57  81
BRANCH  69  92
ATOM     92  C   UNL     1      10.747   2.503  15.290  1.00  0.00     0.023 A 
ATOM     93  C   UNL     1      10.203   3.513  16.102  1.00  0.00     0.031 A 
ATOM     94  C   UNL     1      12.086   2.131  15.511  1.00  0.00     0.131 A 
ATOM     95  C   UNL     1      11.014   4.166  17.044  1.00  0.00     0.055 A 
ATOM     96  C   UNL     1      12.865   2.731  16.502  1.00  0.00     0.041 A 
ATOM     97  F   UNL     1      12.664   1.175  14.766  1.00  0.00    -0.206 F 
ATOM     98  C   UNL     1      12.335   3.768  17.263  1.00  0.00     0.022 A 
BRANCH  95  99
ATOM     99  S   UNL     1      10.358   5.632  17.887  1.00  0.00     0.124 S 
ATOM    100  O   UNL     1       9.978   6.483  16.764  1.00  0.00    -0.237 OA
ATOM    101  O   UNL     1       9.257   5.077  18.667  1.00  0.00    -0.237 OA
ATOM    102  O   UNL     1      11.493   6.112  18.672  1.00  0.00    -0.744 OA
ENDBRANCH  95  99
ENDBRANCH  69  92
ENDBRANCH  43  44
ENDBRANCH  36  38
ENDBRANCH  35  36
ENDBRANCH  34  35
ENDBRANCH  33  34
ENDBRANCH  32  33
ENDBRANCH  31  32
ENDBRANCH  30  31
ENDBRANCH   1  30
TORSDOF 26
