REMARK SMILES O=C(OCCOCCOCCOCCOC(=O)[C@@H]1CCCC[C@@H]1C(=O)Nc1ccccc1C(=O)N1CCN(c2ccc(F)cc2)CC1)c1ccc(-c2c3nc(c(-c4cc(S(=O)(=O)[O-])ccc4F)c4ccc([nH]4)c(-c4cc(S(=O)(=O)[O-])ccc4F)c4nc(c(-c5cc(S(=O)(=O)[O-])ccc5F)c5ccc2[nH]5)C=C4)C=C3)cc1
REMARK SMILES IDX 10 1 9 2 8 3 7 4 6 5 5 6 4 7 3 8 2 9 1 10 48 11 49 12 110 13
REMARK SMILES IDX 50 14 109 15 51 16 52 17 53 18 103 19 54 20 108 21 102 22
REMARK SMILES IDX 104 23 55 24 107 25 101 26 100 27 56 29 88 30 68 31 87 32
REMARK SMILES IDX 69 33 72 34 86 35 105 36 70 37 71 38 85 40 106 41 73 42
REMARK SMILES IDX 57 43 58 44 66 45 59 46 65 47 67 48 64 49 60 50 61 51 62 52
REMARK SMILES IDX 63 53 89 54 90 55 98 56 91 57 97 58 99 59 96 60 92 61 93 62
REMARK SMILES IDX 94 63 95 64 74 65 75 66 83 67 76 68 82 69 84 70 81 71 77 72
REMARK SMILES IDX 78 73 79 74 80 75 11 76 12 77 13 78 14 79 15 80 16 81 17 82
REMARK SMILES IDX 18 83 19 84 23 85 20 86 22 87 21 88 24 89 25 90 26 91 27 93
REMARK SMILES IDX 28 94 32 95 29 96 31 97 30 98 33 99 34 100 35 101 36 102
REMARK SMILES IDX 47 103 37 104 46 105 38 106 39 107 40 108 45 109 41 110
REMARK SMILES IDX 44 111 42 112 43 113
REMARK H PARENT 104 28 72 39 26 92
REMARK Flexibility Score: inf
ROOT
ATOM      1  C   UNL     1       4.978  -1.749   2.860  1.00  0.00     0.188 C 
ENDROOT
BRANCH   1   2
ATOM      2  O   UNL     1       3.813  -1.189   3.474  1.00  0.00    -0.377 OA
BRANCH   2   3
ATOM      3  C   UNL     1       2.731  -0.789   2.637  1.00  0.00     0.188 C 
BRANCH   3   4
ATOM      4  C   UNL     1       2.996  -0.392   1.191  1.00  0.00     0.188 C 
BRANCH   4   5
ATOM      5  O   UNL     1       4.325   0.058   0.984  1.00  0.00    -0.376 OA
BRANCH   5   6
ATOM      6  C   UNL     1       4.508   1.313   0.349  1.00  0.00     0.202 C 
BRANCH   6   7
ATOM      7  C   UNL     1       4.462   1.261  -1.183  1.00  0.00     0.261 C 
BRANCH   7   8
ATOM      8  O   UNL     1       3.128   0.962  -1.637  1.00  0.00    -0.460 OA
BRANCH   8   9
ATOM      9  C   UNL     1       2.554  -0.218  -1.948  1.00  0.00     0.338 C 
ATOM     10  O   UNL     1       1.337  -0.252  -2.122  1.00  0.00    -0.246 OA
BRANCH   9  11
ATOM     11  C   UNL     1       3.306  -1.497  -2.075  1.00  0.00     0.060 A 
ATOM     12  C   UNL     1       4.470  -1.803  -1.369  1.00  0.00     0.016 A 
ATOM     13  C   UNL     1       2.718  -2.501  -2.864  1.00  0.00     0.016 A 
ATOM     14  C   UNL     1       5.043  -3.053  -1.429  1.00  0.00     0.010 A 
ATOM     15  C   UNL     1       3.297  -3.766  -2.950  1.00  0.00     0.010 A 
ATOM     16  C   UNL     1       4.466  -4.027  -2.232  1.00  0.00    -0.014 A 
BRANCH  16  17
ATOM     17  C   UNL     1       5.266  -5.234  -2.436  1.00  0.00     0.031 A 
ATOM     18  C   UNL     1       6.148  -5.251  -3.642  1.00  0.00     0.074 A 
ATOM     19  C   UNL     1       5.328  -6.144  -1.450  1.00  0.00     0.049 A 
ATOM     20  N   UNL     1       6.914  -6.199  -4.093  1.00  0.00    -0.248 NA
ATOM     21  C   UNL     1       6.187  -4.011  -4.443  1.00  0.00     0.031 C 
ATOM     22  C   UNL     1       4.628  -6.038  -0.164  1.00  0.00     0.029 A 
ATOM     23  N   UNL     1       6.035  -7.305  -1.347  1.00  0.00    -0.354 N 
ATOM     24  C   UNL     1       7.490  -5.691  -5.252  1.00  0.00     0.074 A 
ATOM     25  C   UNL     1       7.010  -4.342  -5.423  1.00  0.00     0.031 C 
ATOM     26  C   UNL     1       4.950  -7.095   0.599  1.00  0.00     0.029 A 
ATOM     27  C   UNL     1       5.796  -7.990  -0.178  1.00  0.00     0.049 A 
ATOM     28  H   UNL     1       6.657  -7.622  -2.041  1.00  0.00     0.167 HD
ATOM     29  C   UNL     1       8.321  -6.335  -6.101  1.00  0.00     0.034 A 
ATOM     30  C   UNL     1       6.177  -9.235   0.168  1.00  0.00     0.034 A 
ATOM     31  C   UNL     1       8.732  -7.693  -5.861  1.00  0.00     0.049 A 
ATOM     32  C   UNL     1       7.010  -9.976  -0.852  1.00  0.00     0.074 A 
ATOM     33  C   UNL     1       9.473  -8.537  -6.662  1.00  0.00     0.029 A 
ATOM     34  N   UNL     1       8.411  -8.409  -4.707  1.00  0.00    -0.354 N 
ATOM     35  N   UNL     1       7.468  -9.545  -2.011  1.00  0.00    -0.248 NA
ATOM     36  C   UNL     1       7.363 -11.363  -0.542  1.00  0.00     0.031 C 
ATOM     37  C   UNL     1       9.544  -9.780  -6.021  1.00  0.00     0.029 A 
ATOM     38  C   UNL     1       8.915  -9.691  -4.785  1.00  0.00     0.049 A 
ATOM     39  H   UNL     1       7.900  -8.050  -3.946  1.00  0.00     0.167 HD
ATOM     40  C   UNL     1       8.171 -10.607  -2.564  1.00  0.00     0.074 A 
ATOM     41  C   UNL     1       8.106 -11.684  -1.591  1.00  0.00     0.031 C 
ATOM     42  C   UNL     1       8.802 -10.709  -3.764  1.00  0.00     0.034 A 
BRANCH  29  43
ATOM     43  C   UNL     1       8.678  -5.626  -7.382  1.00  0.00     0.023 A 
ATOM     44  C   UNL     1       9.454  -4.453  -7.407  1.00  0.00     0.031 A 
ATOM     45  C   UNL     1       8.134  -6.080  -8.598  1.00  0.00     0.131 A 
ATOM     46  C   UNL     1       9.608  -3.741  -8.609  1.00  0.00     0.055 A 
ATOM     47  C   UNL     1       8.351  -5.407  -9.801  1.00  0.00     0.041 A 
ATOM     48  F   UNL     1       7.348  -7.168  -8.629  1.00  0.00    -0.206 F 
ATOM     49  C   UNL     1       9.082  -4.223  -9.810  1.00  0.00     0.022 A 
BRANCH  46  50
ATOM     50  S   UNL     1      10.393  -2.105  -8.566  1.00  0.00     0.124 S 
ATOM     51  O   UNL     1       9.440  -1.343  -7.763  1.00  0.00    -0.237 OA
ATOM     52  O   UNL     1      11.678  -2.384  -7.935  1.00  0.00    -0.237 OA
ATOM     53  O   UNL     1      10.462  -1.719  -9.974  1.00  0.00    -0.744 OA
ENDBRANCH  46  50
ENDBRANCH  29  43
BRANCH  30  54
ATOM     54  C   UNL     1       5.696  -9.880   1.428  1.00  0.00     0.023 A 
ATOM     55  C   UNL     1       6.587 -10.430   2.364  1.00  0.00     0.031 A 
ATOM     56  C   UNL     1       4.317 -10.025   1.687  1.00  0.00     0.131 A 
ATOM     57  C   UNL     1       6.096 -11.139   3.474  1.00  0.00     0.055 A 
ATOM     58  C   UNL     1       3.833 -10.670   2.828  1.00  0.00     0.041 A 
ATOM     59  F   UNL     1       3.406  -9.540   0.828  1.00  0.00    -0.206 F 
ATOM     60  C   UNL     1       4.726 -11.249   3.721  1.00  0.00     0.022 A 
BRANCH  57  61
ATOM     61  S   UNL     1       7.272 -12.037   4.526  1.00  0.00     0.124 S 
ATOM     62  O   UNL     1       8.009 -12.824   3.544  1.00  0.00    -0.237 OA
ATOM     63  O   UNL     1       8.006 -10.946   5.156  1.00  0.00    -0.237 OA
ATOM     64  O   UNL     1       6.409 -12.806   5.421  1.00  0.00    -0.744 OA
ENDBRANCH  57  61
ENDBRANCH  30  54
BRANCH  42  65
ATOM     65  C   UNL     1       9.482 -12.019  -4.037  1.00  0.00     0.023 A 
ATOM     66  C   UNL     1       8.741 -13.193  -4.244  1.00  0.00     0.031 A 
ATOM     67  C   UNL     1      10.884 -12.088  -4.088  1.00  0.00     0.131 A 
ATOM     68  C   UNL     1       9.411 -14.406  -4.428  1.00  0.00     0.055 A 
ATOM     69  C   UNL     1      11.543 -13.287  -4.344  1.00  0.00     0.041 A 
ATOM     70  F   UNL     1      11.630 -10.988  -3.897  1.00  0.00    -0.206 F 
ATOM     71  C   UNL     1      10.806 -14.458  -4.501  1.00  0.00     0.022 A 
BRANCH  68  72
ATOM     72  S   UNL     1       8.433 -15.930  -4.469  1.00  0.00     0.124 S 
ATOM     73  O   UNL     1       7.785 -15.907  -3.162  1.00  0.00    -0.237 OA
ATOM     74  O   UNL     1       7.559 -15.710  -5.617  1.00  0.00    -0.237 OA
ATOM     75  O   UNL     1       9.438 -16.976  -4.647  1.00  0.00    -0.744 OA
ENDBRANCH  68  72
ENDBRANCH  42  65
ENDBRANCH  16  17
ENDBRANCH   9  11
ENDBRANCH   8   9
ENDBRANCH   7   8
ENDBRANCH   6   7
ENDBRANCH   5   6
ENDBRANCH   4   5
ENDBRANCH   3   4
ENDBRANCH   2   3
ENDBRANCH   1   2
BRANCH   1  76
ATOM     76  C   UNL     1       5.799  -2.571   3.862  1.00  0.00     0.188 C 
BRANCH  76  77
ATOM     77  O   UNL     1       5.212  -3.806   4.276  1.00  0.00    -0.376 OA
BRANCH  77  78
ATOM     78  C   UNL     1       3.843  -3.764   4.666  1.00  0.00     0.202 C 
BRANCH  78  79
ATOM     79  C   UNL     1       3.556  -3.027   5.982  1.00  0.00     0.261 C 
BRANCH  79  80
ATOM     80  O   UNL     1       4.151  -1.714   6.030  1.00  0.00    -0.463 OA
BRANCH  80  81
ATOM     81  C   UNL     1       4.643  -1.318   7.228  1.00  0.00     0.309 C 
ATOM     82  O   UNL     1       4.465  -1.935   8.268  1.00  0.00    -0.252 OA
BRANCH  81  83
ATOM     83  C   UNL     1       5.528  -0.070   7.139  1.00  0.00     0.111 C 
ATOM     84  C   UNL     1       5.545   0.612   8.516  1.00  0.00     0.016 C 
ATOM     85  C   UNL     1       5.371   0.912   5.958  1.00  0.00     0.093 C 
ATOM     86  C   UNL     1       6.474   1.810   8.596  1.00  0.00     0.001 C 
ATOM     87  C   UNL     1       6.176   2.220   6.123  1.00  0.00     0.014 C 
ATOM     88  C   UNL     1       6.171   2.827   7.518  1.00  0.00     0.001 C 
BRANCH  85  89
ATOM     89  C   UNL     1       4.065   1.179   5.193  1.00  0.00     0.228 C 
ATOM     90  O   UNL     1       4.143   1.587   4.030  1.00  0.00    -0.274 OA
ATOM     91  N   UNL     1       2.851   0.811   5.695  1.00  0.00    -0.325 N 
ATOM     92  H   UNL     1       2.303   0.199   5.152  1.00  0.00     0.169 HD
BRANCH  91  93
ATOM     93  C   UNL     1       2.322   1.233   6.920  1.00  0.00     0.054 A 
ATOM     94  C   UNL     1       1.778   0.221   7.725  1.00  0.00     0.027 A 
ATOM     95  C   UNL     1       2.414   2.547   7.405  1.00  0.00     0.063 A 
ATOM     96  C   UNL     1       1.559   0.448   9.080  1.00  0.00     0.002 A 
ATOM     97  C   UNL     1       2.210   2.757   8.780  1.00  0.00     0.016 A 
ATOM     98  C   UNL     1       1.821   1.704   9.618  1.00  0.00     0.001 A 
BRANCH  95  99
ATOM     99  C   UNL     1       2.769   3.742   6.569  1.00  0.00     0.256 C 
ATOM    100  O   UNL     1       3.406   4.659   7.087  1.00  0.00    -0.269 OA
ATOM    101  N   UNL     1       2.399   3.784   5.225  1.00  0.00    -0.335 N 
ATOM    102  C   UNL     1       3.275   4.520   4.309  1.00  0.00     0.141 C 
ATOM    103  C   UNL     1       0.989   3.767   4.822  1.00  0.00     0.141 C 
ATOM    104  C   UNL     1       3.066   4.165   2.829  1.00  0.00     0.138 C 
ATOM    105  C   UNL     1       0.772   3.404   3.332  1.00  0.00     0.138 C 
ATOM    106  N   UNL     1       1.635   4.225   2.460  1.00  0.00    -0.368 N 
BRANCH 106 107
ATOM    107  C   UNL     1       1.436   4.233   1.077  1.00  0.00     0.037 A 
ATOM    108  C   UNL     1       1.042   3.104   0.348  1.00  0.00     0.029 A 
ATOM    109  C   UNL     1       1.725   5.406   0.358  1.00  0.00     0.029 A 
ATOM    110  C   UNL     1       0.971   3.137  -1.050  1.00  0.00     0.041 A 
ATOM    111  C   UNL     1       1.648   5.447  -1.036  1.00  0.00     0.041 A 
ATOM    112  C   UNL     1       1.283   4.305  -1.730  1.00  0.00     0.123 A 
ATOM    113  F   UNL     1       1.240   4.330  -3.068  1.00  0.00    -0.207 F 
ENDBRANCH 106 107
ENDBRANCH  95  99
ENDBRANCH  91  93
ENDBRANCH  85  89
ENDBRANCH  81  83
ENDBRANCH  80  81
ENDBRANCH  79  80
ENDBRANCH  78  79
ENDBRANCH  77  78
ENDBRANCH  76  77
ENDBRANCH   1  76
TORSDOF 27
