REMARK SMILES Cc1cccc(-c2ccc(Cl)c(C(=O)OCCOCCOCCOCCOC(=O)c3ccc(-c4c5nc(c(-c6cc(S(=O)(=O)[O-])ccc6F)c6ccc([nH]6)c(-c6cc(S(=O)(=O)[O-])ccc6F)c6nc(c(-c7cc(S(=O)(=O)[O-])ccc7F)c7ccc4[nH]7)C=C6)C=C5)cc3)c2)c1
REMARK SMILES IDX 22 1 21 2 20 3 19 4 18 5 17 6 16 7 15 8 13 9 14 10 12 11
REMARK SMILES IDX 7 12 8 13 93 14 9 15 10 16 11 17 6 18 1 19 2 20 3 21 94 22
REMARK SMILES IDX 4 23 5 24 23 25 24 26 25 27 26 28 27 29 28 30 29 31 30 32
REMARK SMILES IDX 31 33 92 34 32 35 91 36 33 37 34 38 35 39 85 40 36 41 90 42
REMARK SMILES IDX 84 43 86 44 37 45 89 46 83 47 82 48 38 50 70 51 50 52 69 53
REMARK SMILES IDX 51 54 54 55 68 56 87 57 52 58 53 59 67 61 88 62 55 63 39 64
REMARK SMILES IDX 40 65 48 66 41 67 47 68 49 69 46 70 42 71 43 72 44 73 45 74
REMARK SMILES IDX 71 75 72 76 80 77 73 78 79 79 81 80 78 81 74 82 75 83 76 84
REMARK SMILES IDX 77 85 56 86 57 87 65 88 58 89 64 90 66 91 63 92 59 93 60 94
REMARK SMILES IDX 61 95 62 96
REMARK H PARENT 86 49 54 60
REMARK Flexibility Score: inf
ROOT
ATOM      1  C   UNL     1      -7.103   4.579   0.278  1.00  0.00     0.188 C 
ENDROOT
BRANCH   1   2
ATOM      2  O   UNL     1      -5.775   4.077   0.432  1.00  0.00    -0.377 OA
BRANCH   2   3
ATOM      3  C   UNL     1      -5.497   2.777  -0.041  1.00  0.00     0.188 C 
BRANCH   3   4
ATOM      4  C   UNL     1      -4.959   1.804   1.026  1.00  0.00     0.188 C 
BRANCH   4   5
ATOM      5  O   UNL     1      -5.561   1.762   2.316  1.00  0.00    -0.376 OA
BRANCH   5   6
ATOM      6  C   UNL     1      -5.255   2.876   3.160  1.00  0.00     0.202 C 
BRANCH   6   7
ATOM      7  C   UNL     1      -3.786   3.145   3.428  1.00  0.00     0.261 C 
BRANCH   7   8
ATOM      8  O   UNL     1      -3.256   3.836   2.295  1.00  0.00    -0.460 OA
BRANCH   8   9
ATOM      9  C   UNL     1      -1.961   3.581   2.065  1.00  0.00     0.339 C 
ATOM     10  O   UNL     1      -1.165   3.056   2.819  1.00  0.00    -0.246 OA
BRANCH   9  11
ATOM     11  C   UNL     1      -1.802   3.484   0.613  1.00  0.00     0.079 A 
ATOM     12  C   UNL     1      -1.083   1.851  -1.036  1.00  0.00    -0.017 A 
ATOM     13  C   UNL     1      -1.091   2.838  -2.013  1.00  0.00     0.010 A 
ATOM     14  C   UNL     1      -1.458   2.189   0.259  1.00  0.00     0.026 A 
ATOM     15  C   UNL     1      -1.565   4.115  -1.691  1.00  0.00     0.022 A 
ATOM     16  C   UNL     1      -1.940   4.439  -0.378  1.00  0.00     0.055 A 
ATOM     17  Cl  UNL     1      -2.525   6.020  -0.128  1.00  0.00    -0.083 Cl
BRANCH  12  18
ATOM     18  C   UNL     1      -0.471   0.536  -1.117  1.00  0.00    -0.018 A 
ATOM     19  C   UNL     1       2.954  -0.560   0.050  1.00  0.00     0.044 C 
ATOM     20  C   UNL     1       1.512  -0.631  -0.344  1.00  0.00    -0.051 A 
ATOM     21  C   UNL     1       0.736  -1.772  -0.115  1.00  0.00     0.003 A 
ATOM     22  C   UNL     1       0.911   0.500  -0.889  1.00  0.00     0.012 A 
ATOM     23  C   UNL     1      -0.633  -1.770  -0.397  1.00  0.00     0.001 A 
ATOM     24  C   UNL     1      -1.239  -0.619  -0.898  1.00  0.00     0.009 A 
ENDBRANCH  12  18
ENDBRANCH   9  11
ENDBRANCH   8   9
ENDBRANCH   7   8
ENDBRANCH   6   7
ENDBRANCH   5   6
ENDBRANCH   4   5
ENDBRANCH   3   4
ENDBRANCH   2   3
ENDBRANCH   1   2
BRANCH   1  25
ATOM     25  C   UNL     1      -8.249   3.610   0.058  1.00  0.00     0.188 C 
BRANCH  25  26
ATOM     26  O   UNL     1      -8.179   2.629   1.089  1.00  0.00    -0.376 OA
BRANCH  26  27
ATOM     27  C   UNL     1      -8.746   1.370   0.777  1.00  0.00     0.202 C 
BRANCH  27  28
ATOM     28  C   UNL     1     -10.248   1.468   0.508  1.00  0.00     0.261 C 
BRANCH  28  29
ATOM     29  O   UNL     1     -10.939   1.851   1.720  1.00  0.00    -0.460 OA
BRANCH  29  30
ATOM     30  C   UNL     1     -11.299   3.167   1.800  1.00  0.00     0.338 C 
ATOM     31  O   UNL     1     -12.114   3.700   1.067  1.00  0.00    -0.246 OA
BRANCH  30  32
ATOM     32  C   UNL     1     -10.470   3.887   2.817  1.00  0.00     0.060 A 
ATOM     33  C   UNL     1     -10.419   5.292   2.860  1.00  0.00     0.016 A 
ATOM     34  C   UNL     1      -9.536   3.164   3.536  1.00  0.00     0.016 A 
ATOM     35  C   UNL     1      -9.320   5.958   3.457  1.00  0.00     0.010 A 
ATOM     36  C   UNL     1      -8.425   3.824   4.028  1.00  0.00     0.010 A 
ATOM     37  C   UNL     1      -8.255   5.219   3.970  1.00  0.00    -0.014 A 
BRANCH  37  38
ATOM     38  C   UNL     1      -6.888   5.714   4.317  1.00  0.00     0.031 A 
ATOM     39  C   UNL     1      -6.179   5.133   5.543  1.00  0.00     0.074 A 
ATOM     40  C   UNL     1      -6.124   6.362   3.386  1.00  0.00     0.049 A 
ATOM     41  N   UNL     1      -4.949   5.346   5.877  1.00  0.00    -0.248 NA
ATOM     42  C   UNL     1      -6.800   4.213   6.500  1.00  0.00     0.031 C 
ATOM     43  C   UNL     1      -4.671   6.280   3.312  1.00  0.00     0.029 A 
ATOM     44  N   UNL     1      -6.421   7.176   2.286  1.00  0.00    -0.354 N 
ATOM     45  C   UNL     1      -4.520   4.370   6.765  1.00  0.00     0.074 A 
ATOM     46  C   UNL     1      -5.747   3.749   7.190  1.00  0.00     0.031 C 
ATOM     47  C   UNL     1      -4.173   7.057   2.356  1.00  0.00     0.029 A 
ATOM     48  C   UNL     1      -5.252   7.861   1.881  1.00  0.00     0.049 A 
ATOM     49  H   UNL     1      -7.306   7.259   1.861  1.00  0.00     0.167 HD
ATOM     50  C   UNL     1      -3.173   4.137   6.917  1.00  0.00     0.034 A 
ATOM     51  C   UNL     1      -5.156   9.212   1.752  1.00  0.00     0.034 A 
ATOM     52  C   UNL     1      -2.377   5.110   6.142  1.00  0.00     0.049 A 
ATOM     53  C   UNL     1      -4.162   9.697   2.807  1.00  0.00     0.074 A 
ATOM     54  C   UNL     1      -1.369   5.008   5.197  1.00  0.00     0.029 A 
ATOM     55  N   UNL     1      -2.700   6.463   6.198  1.00  0.00    -0.354 N 
ATOM     56  N   UNL     1      -3.983   9.060   3.948  1.00  0.00    -0.248 NA
ATOM     57  C   UNL     1      -3.107  10.684   2.560  1.00  0.00     0.031 C 
ATOM     58  C   UNL     1      -1.181   6.290   4.605  1.00  0.00     0.029 A 
ATOM     59  C   UNL     1      -2.004   7.191   5.263  1.00  0.00     0.049 A 
ATOM     60  H   UNL     1      -3.347   6.850   6.830  1.00  0.00     0.167 HD
ATOM     61  C   UNL     1      -2.746   9.376   4.448  1.00  0.00     0.074 A 
ATOM     62  C   UNL     1      -2.269  10.453   3.590  1.00  0.00     0.031 C 
ATOM     63  C   UNL     1      -2.010   8.635   5.334  1.00  0.00     0.034 A 
BRANCH  50  64
ATOM     64  C   UNL     1      -2.469   2.945   7.601  1.00  0.00     0.023 A 
ATOM     65  C   UNL     1      -1.046   2.903   7.626  1.00  0.00     0.031 A 
ATOM     66  C   UNL     1      -3.080   1.805   8.162  1.00  0.00     0.131 A 
ATOM     67  C   UNL     1      -0.319   1.792   8.111  1.00  0.00     0.055 A 
ATOM     68  C   UNL     1      -2.357   0.719   8.698  1.00  0.00     0.041 A 
ATOM     69  F   UNL     1      -4.407   1.654   8.207  1.00  0.00    -0.206 F 
ATOM     70  C   UNL     1      -0.972   0.700   8.664  1.00  0.00     0.022 A 
BRANCH  67  71
ATOM     71  S   UNL     1       1.499   1.775   7.996  1.00  0.00     0.124 S 
ATOM     72  O   UNL     1       1.718   1.644   6.560  1.00  0.00    -0.237 OA
ATOM     73  O   UNL     1       1.869   3.052   8.596  1.00  0.00    -0.237 OA
ATOM     74  O   UNL     1       1.878   0.600   8.782  1.00  0.00    -0.744 OA
ENDBRANCH  67  71
ENDBRANCH  50  64
BRANCH  51  75
ATOM     75  C   UNL     1      -6.408   9.750   1.132  1.00  0.00     0.023 A 
ATOM     76  C   UNL     1      -6.569   9.388  -0.240  1.00  0.00     0.031 A 
ATOM     77  C   UNL     1      -7.570   9.804   1.922  1.00  0.00     0.131 A 
ATOM     78  C   UNL     1      -7.780   8.823  -0.688  1.00  0.00     0.055 A 
ATOM     79  C   UNL     1      -8.773   9.242   1.463  1.00  0.00     0.041 A 
ATOM     80  F   UNL     1      -7.494  10.143   3.217  1.00  0.00    -0.206 F 
ATOM     81  C   UNL     1      -8.864   8.694   0.182  1.00  0.00     0.022 A 
BRANCH  78  82
ATOM     82  S   UNL     1      -7.862   8.044  -2.339  1.00  0.00     0.124 S 
ATOM     83  O   UNL     1      -7.742   9.193  -3.229  1.00  0.00    -0.237 OA
ATOM     84  O   UNL     1      -6.725   7.130  -2.322  1.00  0.00    -0.237 OA
ATOM     85  O   UNL     1      -9.166   7.384  -2.343  1.00  0.00    -0.744 OA
ENDBRANCH  78  82
ENDBRANCH  51  75
BRANCH  63  86
ATOM     86  C   UNL     1      -1.205   9.279   6.434  1.00  0.00     0.023 A 
ATOM     87  C   UNL     1      -1.199  10.662   6.595  1.00  0.00     0.031 A 
ATOM     88  C   UNL     1      -0.555   8.529   7.451  1.00  0.00     0.131 A 
ATOM     89  C   UNL     1      -0.522  11.259   7.662  1.00  0.00     0.055 A 
ATOM     90  C   UNL     1       0.046   9.123   8.561  1.00  0.00     0.041 A 
ATOM     91  F   UNL     1      -0.503   7.190   7.442  1.00  0.00    -0.206 F 
ATOM     92  C   UNL     1       0.078  10.503   8.665  1.00  0.00     0.022 A 
BRANCH  89  93
ATOM     93  S   UNL     1      -0.396  13.054   7.629  1.00  0.00     0.124 S 
ATOM     94  O   UNL     1       0.346  13.274   6.389  1.00  0.00    -0.237 OA
ATOM     95  O   UNL     1      -1.796  13.468   7.607  1.00  0.00    -0.237 OA
ATOM     96  O   UNL     1       0.330  13.371   8.855  1.00  0.00    -0.744 OA
ENDBRANCH  89  93
ENDBRANCH  63  86
ENDBRANCH  37  38
ENDBRANCH  30  32
ENDBRANCH  29  30
ENDBRANCH  28  29
ENDBRANCH  27  28
ENDBRANCH  26  27
ENDBRANCH  25  26
ENDBRANCH   1  25
TORSDOF 24
