REMARK SMILES C[C@@H](CC(=O)OCCOCCOCCOCCOC(=O)c1ccc(-c2c3nc(c(-c4cc(S(=O)(=O)[O-])ccc4F)c4ccc([nH]4)c(-c4cc(S(=O)(=O)[O-])ccc4F)c4nc(c(-c5cc(S(=O)(=O)[O-])ccc5F)c5ccc2[nH]5)C=C4)C=C3)cc1)NC(=O)CCCN1C(=O)CN(C)C1=O
REMARK SMILES IDX 10 1 9 2 8 3 7 4 6 5 4 6 5 7 3 8 2 9 1 10 84 11 85 12 86 14
REMARK SMILES IDX 87 15 88 16 89 17 90 18 91 19 96 20 92 21 93 22 94 23 97 24
REMARK SMILES IDX 95 25 11 26 12 27 13 28 14 29 15 30 16 31 17 32 18 33 19 34
REMARK SMILES IDX 20 35 21 36 22 37 83 38 23 39 82 40 24 41 25 42 26 43 76 44
REMARK SMILES IDX 27 45 81 46 75 47 77 48 28 49 80 50 74 51 73 52 29 54 61 55
REMARK SMILES IDX 41 56 60 57 42 58 45 59 59 60 78 61 43 62 44 63 58 65 79 66
REMARK SMILES IDX 46 67 30 68 31 69 39 70 32 71 38 72 40 73 37 74 33 75 34 76
REMARK SMILES IDX 35 77 36 78 62 79 63 80 71 81 64 82 70 83 72 84 69 85 65 86
REMARK SMILES IDX 66 87 67 88 68 89 47 90 48 91 56 92 49 93 55 94 57 95 54 96
REMARK SMILES IDX 50 97 51 98 52 99 53 100
REMARK H PARENT 84 13 77 53 45 64
REMARK Flexibility Score: inf
ROOT
ATOM      1  C   UNL     1      -1.708   1.585   4.199  1.00  0.00     0.188 C 
ENDROOT
BRANCH   1   2
ATOM      2  O   UNL     1      -1.557   2.991   4.264  1.00  0.00    -0.376 OA
BRANCH   2   3
ATOM      3  C   UNL     1      -0.505   3.627   3.539  1.00  0.00     0.202 C 
BRANCH   3   4
ATOM      4  C   UNL     1       0.889   2.981   3.461  1.00  0.00     0.261 C 
BRANCH   4   5
ATOM      5  O   UNL     1       0.920   1.796   2.635  1.00  0.00    -0.463 OA
BRANCH   5   6
ATOM      6  C   UNL     1       1.387   0.662   3.186  1.00  0.00     0.307 C 
ATOM      7  O   UNL     1       1.879   0.596   4.311  1.00  0.00    -0.252 OA
BRANCH   6   8
ATOM      8  C   UNL     1       1.207  -0.601   2.363  1.00  0.00     0.147 C 
BRANCH   8   9
ATOM      9  C   UNL     1       0.744  -0.657   0.898  1.00  0.00     0.090 C 
ATOM     10  C   UNL     1       1.173   0.462  -0.036  1.00  0.00     0.031 C 
BRANCH   9  11
ATOM     11  N   UNL     1      -0.666  -0.982   0.684  1.00  0.00    -0.353 N 
ATOM     12  C   UNL     1      -1.280  -2.171   0.423  1.00  0.00     0.220 C 
ATOM     13  H   UNL     1      -1.275  -0.211   0.736  1.00  0.00     0.163 HD
ATOM     14  O   UNL     1      -2.503  -2.188   0.266  1.00  0.00    -0.275 OA
BRANCH  12  15
ATOM     15  C   UNL     1      -0.484  -3.459   0.365  1.00  0.00     0.102 C 
BRANCH  15  16
ATOM     16  C   UNL     1       0.175  -3.759  -0.987  1.00  0.00     0.032 C 
BRANCH  16  17
ATOM     17  C   UNL     1       1.631  -3.305  -1.180  1.00  0.00     0.131 C 
BRANCH  17  18
ATOM     18  N   UNL     1       2.541  -3.559  -0.069  1.00  0.00    -0.263 N 
ATOM     19  C   UNL     1       3.540  -2.699   0.308  1.00  0.00     0.250 C 
ATOM     20  C   UNL     1       2.583  -4.687   0.702  1.00  0.00     0.326 C 
ATOM     21  O   UNL     1       3.811  -1.623  -0.206  1.00  0.00    -0.272 OA
ATOM     22  C   UNL     1       4.251  -3.259   1.524  1.00  0.00     0.221 C 
ATOM     23  N   UNL     1       3.548  -4.505   1.677  1.00  0.00    -0.318 N 
ATOM     24  O   UNL     1       1.886  -5.682   0.585  1.00  0.00    -0.248 OA
ATOM     25  C   UNL     1       3.871  -5.446   2.718  1.00  0.00     0.149 C 
ENDBRANCH  17  18
ENDBRANCH  16  17
ENDBRANCH  15  16
ENDBRANCH  12  15
ENDBRANCH   9  11
ENDBRANCH   8   9
ENDBRANCH   6   8
ENDBRANCH   5   6
ENDBRANCH   4   5
ENDBRANCH   3   4
ENDBRANCH   2   3
ENDBRANCH   1   2
BRANCH   1  26
ATOM     26  C   UNL     1      -1.919   0.905   2.846  1.00  0.00     0.188 C 
BRANCH  26  27
ATOM     27  O   UNL     1      -1.436   1.597   1.712  1.00  0.00    -0.377 OA
BRANCH  27  28
ATOM     28  C   UNL     1      -2.308   2.405   0.928  1.00  0.00     0.188 C 
BRANCH  28  29
ATOM     29  C   UNL     1      -3.672   2.792   1.503  1.00  0.00     0.188 C 
BRANCH  29  30
ATOM     30  O   UNL     1      -4.415   1.684   1.966  1.00  0.00    -0.376 OA
BRANCH  30  31
ATOM     31  C   UNL     1      -5.195   0.875   1.105  1.00  0.00     0.202 C 
BRANCH  31  32
ATOM     32  C   UNL     1      -4.800   0.465  -0.325  1.00  0.00     0.261 C 
BRANCH  32  33
ATOM     33  O   UNL     1      -4.158   1.415  -1.178  1.00  0.00    -0.460 OA
BRANCH  33  34
ATOM     34  C   UNL     1      -4.818   2.536  -1.516  1.00  0.00     0.338 C 
ATOM     35  O   UNL     1      -5.929   2.876  -1.148  1.00  0.00    -0.246 OA
BRANCH  34  36
ATOM     36  C   UNL     1      -3.866   3.359  -2.292  1.00  0.00     0.060 A 
ATOM     37  C   UNL     1      -3.463   4.608  -1.802  1.00  0.00     0.016 A 
ATOM     38  C   UNL     1      -3.375   2.883  -3.510  1.00  0.00     0.016 A 
ATOM     39  C   UNL     1      -2.605   5.411  -2.559  1.00  0.00     0.010 A 
ATOM     40  C   UNL     1      -2.533   3.692  -4.272  1.00  0.00     0.010 A 
ATOM     41  C   UNL     1      -2.177   4.975  -3.820  1.00  0.00    -0.014 A 
BRANCH  41  42
ATOM     42  C   UNL     1      -1.559   5.917  -4.785  1.00  0.00     0.031 A 
ATOM     43  C   UNL     1      -2.446   6.506  -5.847  1.00  0.00     0.074 A 
ATOM     44  C   UNL     1      -0.245   6.202  -4.758  1.00  0.00     0.049 A 
ATOM     45  N   UNL     1      -2.128   7.175  -6.923  1.00  0.00    -0.248 NA
ATOM     46  C   UNL     1      -3.892   6.290  -5.674  1.00  0.00     0.031 C 
ATOM     47  C   UNL     1       0.697   5.748  -3.738  1.00  0.00     0.029 A 
ATOM     48  N   UNL     1       0.526   6.923  -5.636  1.00  0.00    -0.354 N 
ATOM     49  C   UNL     1      -3.331   7.439  -7.570  1.00  0.00     0.074 A 
ATOM     50  C   UNL     1      -4.379   6.834  -6.777  1.00  0.00     0.031 C 
ATOM     51  C   UNL     1       1.929   6.177  -4.065  1.00  0.00     0.029 A 
ATOM     52  C   UNL     1       1.871   6.883  -5.345  1.00  0.00     0.049 A 
ATOM     53  H   UNL     1       0.154   7.419  -6.400  1.00  0.00     0.167 HD
ATOM     54  C   UNL     1      -3.538   8.122  -8.721  1.00  0.00     0.034 A 
ATOM     55  C   UNL     1       2.930   7.322  -6.057  1.00  0.00     0.034 A 
ATOM     56  C   UNL     1      -2.474   8.703  -9.501  1.00  0.00     0.049 A 
ATOM     57  C   UNL     1       2.689   7.986  -7.396  1.00  0.00     0.074 A 
ATOM     58  C   UNL     1      -2.565   9.423 -10.679  1.00  0.00     0.029 A 
ATOM     59  N   UNL     1      -1.123   8.618  -9.189  1.00  0.00    -0.354 N 
ATOM     60  N   UNL     1       1.551   8.218  -8.012  1.00  0.00    -0.248 NA
ATOM     61  C   UNL     1       3.872   8.445  -8.139  1.00  0.00     0.031 C 
ATOM     62  C   UNL     1      -1.268   9.697 -11.122  1.00  0.00     0.029 A 
ATOM     63  C   UNL     1      -0.370   9.240 -10.170  1.00  0.00     0.049 A 
ATOM     64  H   UNL     1      -0.755   8.179  -8.388  1.00  0.00     0.167 HD
ATOM     65  C   UNL     1       1.883   8.892  -9.187  1.00  0.00     0.074 A 
ATOM     66  C   UNL     1       3.324   9.023  -9.198  1.00  0.00     0.031 C 
ATOM     67  C   UNL     1       1.068   9.372 -10.160  1.00  0.00     0.034 A 
BRANCH  54  68
ATOM     68  C   UNL     1      -4.955   8.217  -9.231  1.00  0.00     0.023 A 
ATOM     69  C   UNL     1      -5.963   8.873  -8.504  1.00  0.00     0.031 A 
ATOM     70  C   UNL     1      -5.310   7.614 -10.451  1.00  0.00     0.131 A 
ATOM     71  C   UNL     1      -7.287   8.847  -8.965  1.00  0.00     0.055 A 
ATOM     72  C   UNL     1      -6.613   7.668 -10.948  1.00  0.00     0.041 A 
ATOM     73  F   UNL     1      -4.397   6.948 -11.176  1.00  0.00    -0.206 F 
ATOM     74  C   UNL     1      -7.615   8.274 -10.196  1.00  0.00     0.022 A 
BRANCH  71  75
ATOM     75  S   UNL     1      -8.599   9.436  -7.860  1.00  0.00     0.124 S 
ATOM     76  O   UNL     1      -8.414   8.572  -6.697  1.00  0.00    -0.237 OA
ATOM     77  O   UNL     1      -8.249  10.839  -7.675  1.00  0.00    -0.237 OA
ATOM     78  O   UNL     1      -9.823   9.192  -8.620  1.00  0.00    -0.744 OA
ENDBRANCH  71  75
ENDBRANCH  54  68
BRANCH  55  79
ATOM     79  C   UNL     1       4.320   7.106  -5.560  1.00  0.00     0.023 A 
ATOM     80  C   UNL     1       5.166   8.191  -5.282  1.00  0.00     0.031 A 
ATOM     81  C   UNL     1       4.847   5.809  -5.412  1.00  0.00     0.131 A 
ATOM     82  C   UNL     1       6.504   7.963  -4.921  1.00  0.00     0.055 A 
ATOM     83  C   UNL     1       6.159   5.587  -4.992  1.00  0.00     0.041 A 
ATOM     84  F   UNL     1       4.087   4.733  -5.672  1.00  0.00    -0.206 F 
ATOM     85  C   UNL     1       7.001   6.669  -4.757  1.00  0.00     0.022 A 
BRANCH  82  86
ATOM     86  S   UNL     1       7.616   9.389  -4.771  1.00  0.00     0.124 S 
ATOM     87  O   UNL     1       7.515   9.981  -6.100  1.00  0.00    -0.237 OA
ATOM     88  O   UNL     1       6.999  10.141  -3.684  1.00  0.00    -0.237 OA
ATOM     89  O   UNL     1       8.906   8.781  -4.454  1.00  0.00    -0.744 OA
ENDBRANCH  82  86
ENDBRANCH  55  79
BRANCH  67  90
ATOM     90  C   UNL     1       1.698  10.162 -11.282  1.00  0.00     0.023 A 
ATOM     91  C   UNL     1       2.524   9.568 -12.251  1.00  0.00     0.031 A 
ATOM     92  C   UNL     1       1.414  11.536 -11.407  1.00  0.00     0.131 A 
ATOM     93  C   UNL     1       3.058  10.351 -13.287  1.00  0.00     0.055 A 
ATOM     94  C   UNL     1       1.899  12.295 -12.470  1.00  0.00     0.041 A 
ATOM     95  F   UNL     1       0.633  12.155 -10.506  1.00  0.00    -0.206 F 
ATOM     96  C   UNL     1       2.732  11.705 -13.415  1.00  0.00     0.022 A 
BRANCH  93  97
ATOM     97  S   UNL     1       4.234   9.594 -14.441  1.00  0.00     0.124 S 
ATOM     98  O   UNL     1       5.312   9.181 -13.549  1.00  0.00    -0.237 OA
ATOM     99  O   UNL     1       3.446   8.516 -15.031  1.00  0.00    -0.237 OA
ATOM    100  O   UNL     1       4.570  10.685 -15.355  1.00  0.00    -0.744 OA
ENDBRANCH  93  97
ENDBRANCH  67  90
ENDBRANCH  41  42
ENDBRANCH  34  36
ENDBRANCH  33  34
ENDBRANCH  32  33
ENDBRANCH  31  32
ENDBRANCH  30  31
ENDBRANCH  29  30
ENDBRANCH  28  29
ENDBRANCH  27  28
ENDBRANCH  26  27
ENDBRANCH   1  26
TORSDOF 29
