REMARK SMILES Nc1c(C(=O)NCc2ccc3c(c2)OCO3)nsc1C(=O)OCCOCCOCCOCCOC(=O)c1ccc(-c2c3nc(c(-c4cc(S(=O)(=O)[O-])ccc4F)c4ccc([nH]4)c(-c4cc(S(=O)(=O)[O-])ccc4F)c4nc(c(-c5cc(S(=O)(=O)[O-])ccc5F)c5ccc2[nH]5)C=C4)C=C3)cc1
REMARK SMILES IDX 28 1 27 2 26 3 25 4 24 5 23 6 22 7 20 8 21 9 19 10 2 11 3 12
REMARK SMILES IDX 17 13 18 14 1 15 4 18 5 19 6 20 7 22 8 23 9 24 13 25 10 26
REMARK SMILES IDX 12 27 11 28 14 29 16 30 15 31 29 32 30 33 31 34 32 35 33 36
REMARK SMILES IDX 34 37 35 38 36 39 37 40 38 41 99 42 39 43 98 44 40 45 41 46
REMARK SMILES IDX 42 47 92 48 43 49 97 50 91 51 93 52 44 53 96 54 90 55 89 56
REMARK SMILES IDX 45 58 77 59 57 60 76 61 58 62 61 63 75 64 94 65 59 66 60 67
REMARK SMILES IDX 74 69 95 70 62 71 46 72 47 73 55 74 48 75 54 76 56 77 53 78
REMARK SMILES IDX 49 79 50 80 51 81 52 82 78 83 79 84 87 85 80 86 86 87 88 88
REMARK SMILES IDX 85 89 81 90 82 91 83 92 84 93 63 94 64 95 72 96 65 97 71 98
REMARK SMILES IDX 73 99 70 100 66 101 67 102 68 103 69 104
REMARK H PARENT 1 16 1 17 6 21 93 57 61 68
REMARK Flexibility Score: inf
ROOT
ATOM      1  O   UNL     1       2.016  -1.401  -2.957  1.00  0.00    -0.377 OA
ENDROOT
BRANCH   1   2
ATOM      2  C   UNL     1       0.979  -0.589  -3.478  1.00  0.00     0.188 C 
BRANCH   2   3
ATOM      3  C   UNL     1       1.472   0.595  -4.337  1.00  0.00     0.188 C 
BRANCH   3   4
ATOM      4  O   UNL     1       2.805   0.687  -4.828  1.00  0.00    -0.376 OA
BRANCH   4   5
ATOM      5  C   UNL     1       3.939   0.281  -4.083  1.00  0.00     0.202 C 
BRANCH   5   6
ATOM      6  C   UNL     1       4.172   0.726  -2.633  1.00  0.00     0.261 C 
BRANCH   6   7
ATOM      7  O   UNL     1       3.001   1.003  -1.869  1.00  0.00    -0.459 OA
BRANCH   7   8
ATOM      8  C   UNL     1       2.585   2.298  -1.879  1.00  0.00     0.352 C 
ATOM      9  O   UNL     1       3.213   3.216  -2.408  1.00  0.00    -0.245 OA
BRANCH   8  10
ATOM     10  C   UNL     1       1.284   2.406  -1.266  1.00  0.00     0.156 A 
ATOM     11  C   UNL     1       0.503   1.543  -0.502  1.00  0.00     0.091 A 
ATOM     12  C   UNL     1      -0.757   2.174  -0.127  1.00  0.00     0.165 A 
ATOM     13  N   UNL     1      -0.953   3.351  -0.749  1.00  0.00    -0.184 NA
ATOM     14  S   UNL     1       0.363   3.794  -1.610  1.00  0.00    -0.026 S 
BRANCH  11  15
ATOM     15  N   UNL     1       0.905   0.273  -0.247  1.00  0.00    -0.395 N 
ATOM     16  H   UNL     1       0.339  -0.323   0.296  1.00  0.00     0.156 HD
ATOM     17  H   UNL     1       1.762  -0.053  -0.604  1.00  0.00     0.156 HD
ENDBRANCH  11  15
BRANCH  12  18
ATOM     18  C   UNL     1      -1.867   1.786   0.774  1.00  0.00     0.273 C 
ATOM     19  O   UNL     1      -3.016   2.212   0.592  1.00  0.00    -0.267 OA
ATOM     20  N   UNL     1      -1.731   1.059   1.928  1.00  0.00    -0.347 N 
ATOM     21  H   UNL     1      -2.505   1.159   2.528  1.00  0.00     0.164 HD
BRANCH  20  22
ATOM     22  C   UNL     1      -0.724   0.186   2.470  1.00  0.00     0.152 C 
BRANCH  22  23
ATOM     23  C   UNL     1       0.258   0.772   3.446  1.00  0.00    -0.025 A 
ATOM     24  C   UNL     1       1.099  -0.144   4.134  1.00  0.00     0.009 A 
ATOM     25  C   UNL     1       0.378   2.143   3.718  1.00  0.00     0.056 A 
ATOM     26  C   UNL     1       2.025   0.282   5.087  1.00  0.00     0.051 A 
ATOM     27  C   UNL     1       1.298   2.535   4.672  1.00  0.00     0.166 A 
ATOM     28  C   UNL     1       2.094   1.631   5.338  1.00  0.00     0.165 A 
ATOM     29  O   UNL     1       1.525   3.814   5.080  1.00  0.00    -0.454 OA
ATOM     30  O   UNL     1       2.917   2.224   6.244  1.00  0.00    -0.454 OA
ATOM     31  C   UNL     1       2.508   3.600   6.114  1.00  0.00     0.468 C 
ENDBRANCH  22  23
ENDBRANCH  20  22
ENDBRANCH  12  18
ENDBRANCH   8  10
ENDBRANCH   7   8
ENDBRANCH   6   7
ENDBRANCH   5   6
ENDBRANCH   4   5
ENDBRANCH   3   4
ENDBRANCH   2   3
ENDBRANCH   1   2
BRANCH   1  32
ATOM     32  C   UNL     1       2.265  -2.601  -3.697  1.00  0.00     0.188 C 
BRANCH  32  33
ATOM     33  C   UNL     1       2.300  -2.529  -5.253  1.00  0.00     0.188 C 
BRANCH  33  34
ATOM     34  O   UNL     1       1.324  -1.668  -5.831  1.00  0.00    -0.376 OA
BRANCH  34  35
ATOM     35  C   UNL     1       0.219  -2.162  -6.573  1.00  0.00     0.202 C 
BRANCH  35  36
ATOM     36  C   UNL     1      -0.871  -2.896  -5.796  1.00  0.00     0.261 C 
BRANCH  36  37
ATOM     37  O   UNL     1      -0.344  -3.772  -4.822  1.00  0.00    -0.460 OA
BRANCH  37  38
ATOM     38  C   UNL     1       0.334  -4.818  -5.326  1.00  0.00     0.338 C 
ATOM     39  O   UNL     1       0.635  -5.012  -6.496  1.00  0.00    -0.246 OA
BRANCH  38  40
ATOM     40  C   UNL     1       0.607  -5.743  -4.229  1.00  0.00     0.060 A 
ATOM     41  C   UNL     1       1.276  -6.908  -4.597  1.00  0.00     0.016 A 
ATOM     42  C   UNL     1      -0.223  -5.652  -3.101  1.00  0.00     0.016 A 
ATOM     43  C   UNL     1       0.798  -8.078  -4.075  1.00  0.00     0.010 A 
ATOM     44  C   UNL     1      -0.729  -6.818  -2.616  1.00  0.00     0.010 A 
ATOM     45  C   UNL     1      -0.289  -8.002  -3.201  1.00  0.00    -0.014 A 
BRANCH  45  46
ATOM     46  C   UNL     1      -0.944  -9.226  -2.820  1.00  0.00     0.031 A 
ATOM     47  C   UNL     1      -0.152  -9.947  -1.804  1.00  0.00     0.074 A 
ATOM     48  C   UNL     1      -2.178  -9.509  -3.279  1.00  0.00     0.049 A 
ATOM     49  N   UNL     1       0.432 -11.091  -1.919  1.00  0.00    -0.248 NA
ATOM     50  C   UNL     1       0.260  -9.187  -0.605  1.00  0.00     0.031 C 
ATOM     51  C   UNL     1      -3.066  -8.662  -4.085  1.00  0.00     0.029 A 
ATOM     52  N   UNL     1      -2.959 -10.582  -3.014  1.00  0.00    -0.354 N 
ATOM     53  C   UNL     1       1.049 -11.302  -0.692  1.00  0.00     0.074 A 
ATOM     54  C   UNL     1       1.146 -10.019  -0.064  1.00  0.00     0.031 C 
ATOM     55  C   UNL     1      -4.328  -9.147  -4.017  1.00  0.00     0.029 A 
ATOM     56  C   UNL     1      -4.314 -10.392  -3.266  1.00  0.00     0.049 A 
ATOM     57  H   UNL     1      -2.598 -11.431  -2.671  1.00  0.00     0.167 HD
ATOM     58  C   UNL     1       1.116 -12.549  -0.161  1.00  0.00     0.034 A 
ATOM     59  C   UNL     1      -5.337 -11.155  -2.788  1.00  0.00     0.034 A 
ATOM     60  C   UNL     1       0.974 -13.548  -1.199  1.00  0.00     0.049 A 
ATOM     61  C   UNL     1      -4.729 -12.441  -2.344  1.00  0.00     0.074 A 
ATOM     62  C   UNL     1       1.687 -13.835  -2.348  1.00  0.00     0.029 A 
ATOM     63  N   UNL     1      -0.255 -14.152  -1.362  1.00  0.00    -0.354 N 
ATOM     64  N   UNL     1      -4.166 -13.285  -3.169  1.00  0.00    -0.248 NA
ATOM     65  C   UNL     1      -4.262 -12.531  -0.965  1.00  0.00     0.031 C 
ATOM     66  C   UNL     1       0.699 -14.159  -3.323  1.00  0.00     0.029 A 
ATOM     67  C   UNL     1      -0.554 -14.148  -2.704  1.00  0.00     0.049 A 
ATOM     68  H   UNL     1      -0.818 -14.521  -0.644  1.00  0.00     0.167 HD
ATOM     69  C   UNL     1      -3.006 -13.705  -2.532  1.00  0.00     0.074 A 
ATOM     70  C   UNL     1      -3.158 -13.266  -1.144  1.00  0.00     0.031 C 
ATOM     71  C   UNL     1      -1.903 -14.092  -3.243  1.00  0.00     0.034 A 
BRANCH  58  72
ATOM     72  C   UNL     1       0.880 -12.839   1.306  1.00  0.00     0.023 A 
ATOM     73  C   UNL     1       0.894 -14.191   1.682  1.00  0.00     0.031 A 
ATOM     74  C   UNL     1       0.370 -11.941   2.278  1.00  0.00     0.131 A 
ATOM     75  C   UNL     1       0.308 -14.611   2.886  1.00  0.00     0.055 A 
ATOM     76  C   UNL     1      -0.154 -12.359   3.503  1.00  0.00     0.041 A 
ATOM     77  F   UNL     1       0.266 -10.622   2.086  1.00  0.00    -0.206 F 
ATOM     78  C   UNL     1      -0.223 -13.705   3.799  1.00  0.00     0.022 A 
BRANCH  75  79
ATOM     79  S   UNL     1       0.082 -16.386   3.142  1.00  0.00     0.124 S 
ATOM     80  O   UNL     1      -0.598 -16.773   1.911  1.00  0.00    -0.237 OA
ATOM     81  O   UNL     1       1.461 -16.840   3.289  1.00  0.00    -0.237 OA
ATOM     82  O   UNL     1      -0.731 -16.450   4.354  1.00  0.00    -0.744 OA
ENDBRANCH  75  79
ENDBRANCH  58  72
BRANCH  59  83
ATOM     83  C   UNL     1      -6.666 -10.656  -2.318  1.00  0.00     0.023 A 
ATOM     84  C   UNL     1      -7.819 -11.467  -2.224  1.00  0.00     0.031 A 
ATOM     85  C   UNL     1      -6.756  -9.369  -1.736  1.00  0.00     0.131 A 
ATOM     86  C   UNL     1      -8.989 -10.976  -1.587  1.00  0.00     0.055 A 
ATOM     87  C   UNL     1      -7.912  -8.889  -1.116  1.00  0.00     0.041 A 
ATOM     88  F   UNL     1      -5.690  -8.556  -1.680  1.00  0.00    -0.206 F 
ATOM     89  C   UNL     1      -9.034  -9.695  -1.033  1.00  0.00     0.022 A 
BRANCH  86  90
ATOM     90  S   UNL     1     -10.471 -12.028  -1.409  1.00  0.00     0.124 S 
ATOM     91  O   UNL     1     -10.864 -12.252  -2.796  1.00  0.00    -0.237 OA
ATOM     92  O   UNL     1      -9.950 -13.182  -0.687  1.00  0.00    -0.237 OA
ATOM     93  O   UNL     1     -11.394 -11.192  -0.640  1.00  0.00    -0.744 OA
ENDBRANCH  86  90
ENDBRANCH  59  83
BRANCH  71  94
ATOM     94  C   UNL     1      -2.049 -14.296  -4.743  1.00  0.00     0.023 A 
ATOM     95  C   UNL     1      -2.453 -13.303  -5.668  1.00  0.00     0.031 A 
ATOM     96  C   UNL     1      -1.627 -15.532  -5.263  1.00  0.00     0.131 A 
ATOM     97  C   UNL     1      -2.429 -13.575  -7.052  1.00  0.00     0.055 A 
ATOM     98  C   UNL     1      -1.583 -15.788  -6.632  1.00  0.00     0.041 A 
ATOM     99  F   UNL     1      -1.205 -16.507  -4.441  1.00  0.00    -0.206 F 
ATOM    100  C   UNL     1      -1.989 -14.812  -7.533  1.00  0.00     0.022 A 
BRANCH  97 101
ATOM    101  S   UNL     1      -2.986 -12.329  -8.263  1.00  0.00     0.124 S 
ATOM    102  O   UNL     1      -4.260 -11.871  -7.720  1.00  0.00    -0.237 OA
ATOM    103  O   UNL     1      -1.895 -11.358  -8.241  1.00  0.00    -0.237 OA
ATOM    104  O   UNL     1      -3.094 -13.090  -9.510  1.00  0.00    -0.744 OA
ENDBRANCH  97 101
ENDBRANCH  71  94
ENDBRANCH  45  46
ENDBRANCH  38  40
ENDBRANCH  37  38
ENDBRANCH  36  37
ENDBRANCH  35  36
ENDBRANCH  34  35
ENDBRANCH  33  34
ENDBRANCH  32  33
ENDBRANCH   1  32
TORSDOF 27
