REMARK SMILES CC(C)C[C@H](NC(=O)c1cc(Cl)nnc1Cl)C(=O)OCCOCCOCCOCCOC(=O)c1ccc(-c2c3nc(c(-c4cc(S(=O)(=O)[O-])ccc4F)c4ccc([nH]4)c(-c4cc(S(=O)(=O)[O-])ccc4F)c4nc(c(-c5cc(S(=O)(=O)[O-])ccc5F)c5ccc2[nH]5)C=C4)C=C3)cc1
REMARK SMILES IDX 26 1 25 2 24 3 23 4 22 5 21 6 20 7 19 8 17 9 18 10 5 11 4 12
REMARK SMILES IDX 2 13 1 14 3 15 6 16 7 17 8 19 9 20 10 21 15 22 11 23 14 24
REMARK SMILES IDX 16 25 12 26 13 27 27 28 28 29 29 30 30 31 31 32 32 33 33 34
REMARK SMILES IDX 34 35 35 36 96 37 36 38 95 39 37 40 38 41 39 42 89 43 40 44
REMARK SMILES IDX 94 45 88 46 90 47 41 48 93 49 87 50 86 51 42 53 74 54 54 55
REMARK SMILES IDX 73 56 55 57 58 58 72 59 91 60 56 61 57 62 71 64 92 65 59 66
REMARK SMILES IDX 43 67 44 68 52 69 45 70 51 71 53 72 50 73 46 74 47 75 48 76
REMARK SMILES IDX 49 77 75 78 76 79 84 80 77 81 83 82 85 83 82 84 78 85 79 86
REMARK SMILES IDX 80 87 81 88 60 89 61 90 69 91 62 92 68 93 70 94 67 95 63 96
REMARK SMILES IDX 64 97 65 98 66 99
REMARK H PARENT 6 18 90 52 58 63
REMARK Flexibility Score: inf
ROOT
ATOM      1  C   UNL     1      -4.921   1.490  -2.280  1.00  0.00     0.188 C 
ENDROOT
BRANCH   1   2
ATOM      2  O   UNL     1      -3.680   0.817  -2.271  1.00  0.00    -0.377 OA
BRANCH   2   3
ATOM      3  C   UNL     1      -3.273   0.394  -0.991  1.00  0.00     0.188 C 
BRANCH   3   4
ATOM      4  C   UNL     1      -4.081  -0.729  -0.336  1.00  0.00     0.188 C 
BRANCH   4   5
ATOM      5  O   UNL     1      -5.357  -0.491   0.238  1.00  0.00    -0.376 OA
BRANCH   5   6
ATOM      6  C   UNL     1      -5.738   0.674   0.943  1.00  0.00     0.202 C 
BRANCH   6   7
ATOM      7  C   UNL     1      -4.872   1.355   2.007  1.00  0.00     0.261 C 
BRANCH   7   8
ATOM      8  O   UNL     1      -3.506   1.623   1.677  1.00  0.00    -0.462 OA
BRANCH   8   9
ATOM      9  C   UNL     1      -2.610   0.714   2.148  1.00  0.00     0.328 C 
ATOM     10  O   UNL     1      -2.911  -0.361   2.655  1.00  0.00    -0.250 OA
BRANCH   9  11
ATOM     11  C   UNL     1      -1.173   1.242   2.122  1.00  0.00     0.192 C 
BRANCH  11  12
ATOM     12  C   UNL     1      -0.882   2.187   3.302  1.00  0.00     0.040 C 
BRANCH  12  13
ATOM     13  C   UNL     1      -1.977   2.543   4.327  1.00  0.00    -0.015 C 
ATOM     14  C   UNL     1      -2.456   1.370   5.184  1.00  0.00     0.007 C 
ATOM     15  C   UNL     1      -1.408   3.625   5.254  1.00  0.00     0.007 C 
ENDBRANCH  12  13
ENDBRANCH  11  12
BRANCH  11  16
ATOM     16  N   UNL     1      -0.758   1.825   0.823  1.00  0.00    -0.338 N 
ATOM     17  C   UNL     1       0.487   2.184   0.369  1.00  0.00     0.255 C 
ATOM     18  H   UNL     1      -1.491   1.977   0.184  1.00  0.00     0.164 HD
ATOM     19  O   UNL     1       0.699   2.381  -0.821  1.00  0.00    -0.269 OA
BRANCH  17  20
ATOM     20  C   UNL     1       1.548   2.488   1.323  1.00  0.00     0.082 A 
ATOM     21  C   UNL     1       1.760   3.836   1.626  1.00  0.00     0.060 A 
ATOM     22  C   UNL     1       2.296   1.519   1.954  1.00  0.00     0.164 A 
ATOM     23  C   UNL     1       2.660   4.122   2.623  1.00  0.00     0.152 A 
ATOM     24  N   UNL     1       3.172   1.840   2.928  1.00  0.00    -0.136 NA
ATOM     25  Cl  UNL     1       2.198  -0.159   1.624  1.00  0.00    -0.059 Cl
ATOM     26  Cl  UNL     1       2.944   5.721   3.151  1.00  0.00    -0.060 Cl
ATOM     27  N   UNL     1       3.342   3.160   3.280  1.00  0.00    -0.137 NA
ENDBRANCH  17  20
ENDBRANCH  11  16
ENDBRANCH   9  11
ENDBRANCH   8   9
ENDBRANCH   7   8
ENDBRANCH   6   7
ENDBRANCH   5   6
ENDBRANCH   4   5
ENDBRANCH   3   4
ENDBRANCH   2   3
ENDBRANCH   1   2
BRANCH   1  28
ATOM     28  C   UNL     1      -6.066   0.600  -2.769  1.00  0.00     0.188 C 
BRANCH  28  29
ATOM     29  O   UNL     1      -5.824  -0.602  -3.487  1.00  0.00    -0.376 OA
BRANCH  29  30
ATOM     30  C   UNL     1      -4.606  -0.848  -4.166  1.00  0.00     0.202 C 
BRANCH  30  31
ATOM     31  C   UNL     1      -3.991   0.155  -5.164  1.00  0.00     0.261 C 
BRANCH  31  32
ATOM     32  O   UNL     1      -4.345   1.533  -5.048  1.00  0.00    -0.460 OA
BRANCH  32  33
ATOM     33  C   UNL     1      -5.491   1.919  -5.647  1.00  0.00     0.338 C 
ATOM     34  O   UNL     1      -6.269   1.225  -6.278  1.00  0.00    -0.246 OA
BRANCH  33  35
ATOM     35  C   UNL     1      -5.732   3.326  -5.262  1.00  0.00     0.060 A 
ATOM     36  C   UNL     1      -6.884   3.638  -4.527  1.00  0.00     0.016 A 
ATOM     37  C   UNL     1      -4.816   4.325  -5.602  1.00  0.00     0.016 A 
ATOM     38  C   UNL     1      -7.128   4.951  -4.136  1.00  0.00     0.010 A 
ATOM     39  C   UNL     1      -5.091   5.652  -5.263  1.00  0.00     0.010 A 
ATOM     40  C   UNL     1      -6.266   5.969  -4.560  1.00  0.00    -0.014 A 
BRANCH  40  41
ATOM     41  C   UNL     1      -6.752   7.365  -4.524  1.00  0.00     0.031 A 
ATOM     42  C   UNL     1      -7.610   7.823  -5.670  1.00  0.00     0.074 A 
ATOM     43  C   UNL     1      -6.469   8.191  -3.503  1.00  0.00     0.049 A 
ATOM     44  N   UNL     1      -8.160   8.988  -5.876  1.00  0.00    -0.248 NA
ATOM     45  C   UNL     1      -7.893   6.828  -6.722  1.00  0.00     0.031 C 
ATOM     46  C   UNL     1      -5.687   7.836  -2.322  1.00  0.00     0.029 A 
ATOM     47  N   UNL     1      -6.804   9.508  -3.307  1.00  0.00    -0.354 N 
ATOM     48  C   UNL     1      -8.858   8.865  -7.070  1.00  0.00     0.074 A 
ATOM     49  C   UNL     1      -8.649   7.522  -7.558  1.00  0.00     0.031 C 
ATOM     50  C   UNL     1      -5.581   8.919  -1.532  1.00  0.00     0.029 A 
ATOM     51  C   UNL     1      -6.264  10.050  -2.165  1.00  0.00     0.049 A 
ATOM     52  H   UNL     1      -7.377  10.015  -3.926  1.00  0.00     0.167 HD
ATOM     53  C   UNL     1      -9.611   9.791  -7.702  1.00  0.00     0.034 A 
ATOM     54  C   UNL     1      -6.301  11.316  -1.700  1.00  0.00     0.034 A 
ATOM     55  C   UNL     1      -9.789  11.133  -7.226  1.00  0.00     0.049 A 
ATOM     56  C   UNL     1      -7.085  12.357  -2.465  1.00  0.00     0.074 A 
ATOM     57  C   UNL     1     -10.533  12.148  -7.798  1.00  0.00     0.029 A 
ATOM     58  N   UNL     1      -9.211  11.651  -6.077  1.00  0.00    -0.354 N 
ATOM     59  N   UNL     1      -7.788  12.216  -3.564  1.00  0.00    -0.248 NA
ATOM     60  C   UNL     1      -7.093  13.726  -1.927  1.00  0.00     0.031 C 
ATOM     61  C   UNL     1     -10.360  13.296  -7.027  1.00  0.00     0.029 A 
ATOM     62  C   UNL     1      -9.565  12.980  -5.936  1.00  0.00     0.049 A 
ATOM     63  H   UNL     1      -8.636  11.149  -5.456  1.00  0.00     0.167 HD
ATOM     64  C   UNL     1      -8.347  13.464  -3.829  1.00  0.00     0.074 A 
ATOM     65  C   UNL     1      -7.908  14.348  -2.770  1.00  0.00     0.031 C 
ATOM     66  C   UNL     1      -9.149  13.842  -4.856  1.00  0.00     0.034 A 
BRANCH  53  67
ATOM     67  C   UNL     1     -10.294   9.405  -8.982  1.00  0.00     0.023 A 
ATOM     68  C   UNL     1      -9.903  10.004 -10.191  1.00  0.00     0.031 A 
ATOM     69  C   UNL     1     -11.405   8.544  -8.985  1.00  0.00     0.131 A 
ATOM     70  C   UNL     1     -10.649   9.773 -11.350  1.00  0.00     0.055 A 
ATOM     71  C   UNL     1     -12.124   8.287 -10.152  1.00  0.00     0.041 A 
ATOM     72  F   UNL     1     -11.803   7.940  -7.854  1.00  0.00    -0.206 F 
ATOM     73  C   UNL     1     -11.754   8.914 -11.339  1.00  0.00     0.022 A 
BRANCH  70  74
ATOM     74  S   UNL     1     -10.238  10.612 -12.903  1.00  0.00     0.124 S 
ATOM     75  O   UNL     1     -10.160   9.494 -13.841  1.00  0.00    -0.237 OA
ATOM     76  O   UNL     1     -11.383  11.498 -13.080  1.00  0.00    -0.237 OA
ATOM     77  O   UNL     1      -8.966  11.268 -12.619  1.00  0.00    -0.744 OA
ENDBRANCH  70  74
ENDBRANCH  53  67
BRANCH  54  78
ATOM     78  C   UNL     1      -5.587  11.651  -0.435  1.00  0.00     0.023 A 
ATOM     79  C   UNL     1      -4.188  11.531  -0.345  1.00  0.00     0.031 A 
ATOM     80  C   UNL     1      -6.294  12.023   0.720  1.00  0.00     0.131 A 
ATOM     81  C   UNL     1      -3.549  11.725   0.887  1.00  0.00     0.055 A 
ATOM     82  C   UNL     1      -5.646  12.280   1.929  1.00  0.00     0.041 A 
ATOM     83  F   UNL     1      -7.630  12.142   0.684  1.00  0.00    -0.206 F 
ATOM     84  C   UNL     1      -4.267  12.118   2.020  1.00  0.00     0.022 A 
BRANCH  81  85
ATOM     85  S   UNL     1      -1.779  11.382   1.079  1.00  0.00     0.124 S 
ATOM     86  O   UNL     1      -1.284  12.627   1.656  1.00  0.00    -0.237 OA
ATOM     87  O   UNL     1      -1.799  10.232   1.980  1.00  0.00    -0.237 OA
ATOM     88  O   UNL     1      -1.333  11.096  -0.281  1.00  0.00    -0.744 OA
ENDBRANCH  81  85
ENDBRANCH  54  78
BRANCH  66  89
ATOM     89  C   UNL     1      -9.657  15.261  -4.906  1.00  0.00     0.023 A 
ATOM     90  C   UNL     1     -11.041  15.506  -4.811  1.00  0.00     0.031 A 
ATOM     91  C   UNL     1      -8.810  16.332  -5.233  1.00  0.00     0.131 A 
ATOM     92  C   UNL     1     -11.543  16.782  -5.091  1.00  0.00     0.055 A 
ATOM     93  C   UNL     1      -9.311  17.613  -5.466  1.00  0.00     0.041 A 
ATOM     94  F   UNL     1      -7.486  16.142  -5.348  1.00  0.00    -0.206 F 
ATOM     95  C   UNL     1     -10.685  17.839  -5.411  1.00  0.00     0.022 A 
BRANCH  92  96
ATOM     96  S   UNL     1     -13.329  17.095  -5.130  1.00  0.00     0.124 S 
ATOM     97  O   UNL     1     -13.466  18.189  -4.171  1.00  0.00    -0.237 OA
ATOM     98  O   UNL     1     -13.545  17.460  -6.528  1.00  0.00    -0.237 OA
ATOM     99  O   UNL     1     -13.919  15.828  -4.712  1.00  0.00    -0.744 OA
ENDBRANCH  92  96
ENDBRANCH  66  89
ENDBRANCH  40  41
ENDBRANCH  33  35
ENDBRANCH  32  33
ENDBRANCH  31  32
ENDBRANCH  30  31
ENDBRANCH  29  30
ENDBRANCH  28  29
ENDBRANCH   1  28
TORSDOF 27
