REMARK SMILES O=C(OCCOCCOCCOCCOC(=O)c1cccc(OCC(F)F)c1)c1ccc(-c2c3nc(c(-c4cc(S(=O)(=O)[O-])ccc4F)c4ccc([nH]4)c(-c4cc(S(=O)(=O)[O-])ccc4F)c4nc(c(-c5cc(S(=O)(=O)[O-])ccc5F)c5ccc2[nH]5)C=C4)C=C3)cc1
REMARK SMILES IDX 9 1 8 2 7 3 6 4 5 5 4 6 3 7 2 8 1 9 29 10 30 11 91 12 31 13
REMARK SMILES IDX 90 14 32 15 33 16 34 17 84 18 35 19 89 20 83 21 85 22 36 23
REMARK SMILES IDX 88 24 82 25 81 26 37 28 69 29 49 30 68 31 50 32 53 33 67 34
REMARK SMILES IDX 86 35 51 36 52 37 66 39 87 40 54 41 38 42 39 43 47 44 40 45
REMARK SMILES IDX 46 46 48 47 45 48 41 49 42 50 43 51 44 52 70 53 71 54 79 55
REMARK SMILES IDX 72 56 78 57 80 58 77 59 73 60 74 61 75 62 76 63 55 64 56 65
REMARK SMILES IDX 64 66 57 67 63 68 65 69 62 70 58 71 59 72 60 73 61 74 10 75
REMARK SMILES IDX 11 76 12 77 13 78 14 79 15 80 16 81 17 82 18 83 19 84 28 85
REMARK SMILES IDX 20 86 22 87 21 88 23 89 24 90 25 91 26 92 27 93
REMARK H PARENT 85 27 53 38
REMARK Flexibility Score: inf
ROOT
ATOM      1  O   UNL     1       2.518   3.095   2.634  1.00  0.00    -0.377 OA
ENDROOT
BRANCH   1   2
ATOM      2  C   UNL     1       1.809   1.997   2.063  1.00  0.00     0.188 C 
BRANCH   2   3
ATOM      3  C   UNL     1       2.237   1.618   0.645  1.00  0.00     0.188 C 
BRANCH   3   4
ATOM      4  O   UNL     1       3.561   1.085   0.648  1.00  0.00    -0.376 OA
BRANCH   4   5
ATOM      5  C   UNL     1       4.364   1.403  -0.486  1.00  0.00     0.202 C 
BRANCH   5   6
ATOM      6  C   UNL     1       4.107   0.520  -1.710  1.00  0.00     0.261 C 
BRANCH   6   7
ATOM      7  O   UNL     1       2.739   0.096  -1.804  1.00  0.00    -0.460 OA
BRANCH   7   8
ATOM      8  C   UNL     1       2.199  -1.056  -1.327  1.00  0.00     0.338 C 
ATOM      9  O   UNL     1       1.010  -1.278  -1.552  1.00  0.00    -0.246 OA
BRANCH   8  10
ATOM     10  C   UNL     1       2.967  -2.083  -0.553  1.00  0.00     0.060 A 
ATOM     11  C   UNL     1       4.082  -1.821   0.243  1.00  0.00     0.016 A 
ATOM     12  C   UNL     1       2.483  -3.402  -0.581  1.00  0.00     0.016 A 
ATOM     13  C   UNL     1       4.754  -2.826   0.916  1.00  0.00     0.010 A 
ATOM     14  C   UNL     1       3.130  -4.422   0.128  1.00  0.00     0.010 A 
ATOM     15  C   UNL     1       4.290  -4.134   0.855  1.00  0.00    -0.014 A 
BRANCH  15  16
ATOM     16  C   UNL     1       5.160  -5.181   1.421  1.00  0.00     0.031 A 
ATOM     17  C   UNL     1       5.958  -6.014   0.462  1.00  0.00     0.074 A 
ATOM     18  C   UNL     1       5.363  -5.238   2.750  1.00  0.00     0.049 A 
ATOM     19  N   UNL     1       6.763  -7.011   0.698  1.00  0.00    -0.248 NA
ATOM     20  C   UNL     1       5.843  -5.656  -0.964  1.00  0.00     0.031 C 
ATOM     21  C   UNL     1       4.747  -4.340   3.734  1.00  0.00     0.029 A 
ATOM     22  N   UNL     1       6.170  -6.048   3.502  1.00  0.00    -0.354 N 
ATOM     23  C   UNL     1       7.232  -7.416  -0.547  1.00  0.00     0.074 A 
ATOM     24  C   UNL     1       6.611  -6.567  -1.538  1.00  0.00     0.031 C 
ATOM     25  C   UNL     1       5.219  -4.638   4.955  1.00  0.00     0.029 A 
ATOM     26  C   UNL     1       6.098  -5.797   4.854  1.00  0.00     0.049 A 
ATOM     27  H   UNL     1       6.747  -6.744   3.113  1.00  0.00     0.167 HD
ATOM     28  C   UNL     1       8.102  -8.415  -0.826  1.00  0.00     0.034 A 
ATOM     29  C   UNL     1       6.647  -6.468   5.885  1.00  0.00     0.034 A 
ATOM     30  C   UNL     1       8.684  -9.241   0.200  1.00  0.00     0.049 A 
ATOM     31  C   UNL     1       7.501  -7.667   5.546  1.00  0.00     0.074 A 
ATOM     32  C   UNL     1       9.492 -10.353   0.067  1.00  0.00     0.029 A 
ATOM     33  N   UNL     1       8.511  -9.032   1.566  1.00  0.00    -0.354 N 
ATOM     34  N   UNL     1       7.856  -8.120   4.362  1.00  0.00    -0.248 NA
ATOM     35  C   UNL     1       8.020  -8.450   6.671  1.00  0.00     0.031 C 
ATOM     36  C   UNL     1       9.755 -10.852   1.349  1.00  0.00     0.029 A 
ATOM     37  C   UNL     1       9.177 -10.007   2.286  1.00  0.00     0.049 A 
ATOM     38  H   UNL     1       7.989  -8.297   1.962  1.00  0.00     0.167 HD
ATOM     39  C   UNL     1       8.654  -9.233   4.604  1.00  0.00     0.074 A 
ATOM     40  C   UNL     1       8.755  -9.357   6.046  1.00  0.00     0.031 C 
ATOM     41  C   UNL     1       9.243 -10.088   3.727  1.00  0.00     0.034 A 
BRANCH  28  42
ATOM     42  C   UNL     1       8.364  -8.707  -2.281  1.00  0.00     0.023 A 
ATOM     43  C   UNL     1       9.015  -7.786  -3.123  1.00  0.00     0.031 A 
ATOM     44  C   UNL     1       7.869  -9.890  -2.858  1.00  0.00     0.131 A 
ATOM     45  C   UNL     1       9.085  -8.029  -4.504  1.00  0.00     0.055 A 
ATOM     46  C   UNL     1       8.011 -10.162  -4.220  1.00  0.00     0.041 A 
ATOM     47  F   UNL     1       7.208 -10.789  -2.112  1.00  0.00    -0.206 F 
ATOM     48  C   UNL     1       8.609  -9.222  -5.055  1.00  0.00     0.022 A 
BRANCH  45  49
ATOM     49  S   UNL     1       9.674  -6.703  -5.595  1.00  0.00     0.124 S 
ATOM     50  O   UNL     1       8.674  -5.663  -5.361  1.00  0.00    -0.237 OA
ATOM     51  O   UNL     1      11.009  -6.433  -5.075  1.00  0.00    -0.237 OA
ATOM     52  O   UNL     1       9.633  -7.308  -6.925  1.00  0.00    -0.744 OA
ENDBRANCH  45  49
ENDBRANCH  28  42
BRANCH  29  53
ATOM     53  C   UNL     1       6.340  -6.106   7.304  1.00  0.00     0.023 A 
ATOM     54  C   UNL     1       7.358  -5.821   8.228  1.00  0.00     0.031 A 
ATOM     55  C   UNL     1       5.015  -6.125   7.783  1.00  0.00     0.131 A 
ATOM     56  C   UNL     1       7.043  -5.630   9.585  1.00  0.00     0.055 A 
ATOM     57  C   UNL     1       4.701  -5.865   9.118  1.00  0.00     0.041 A 
ATOM     58  F   UNL     1       3.994  -6.406   6.956  1.00  0.00    -0.206 F 
ATOM     59  C   UNL     1       5.721  -5.634  10.033  1.00  0.00     0.022 A 
BRANCH  56  60
ATOM     60  S   UNL     1       8.400  -5.507  10.786  1.00  0.00     0.124 S 
ATOM     61  O   UNL     1       9.155  -6.723  10.506  1.00  0.00    -0.237 OA
ATOM     62  O   UNL     1       9.035  -4.253  10.397  1.00  0.00    -0.237 OA
ATOM     63  O   UNL     1       7.712  -5.483  12.075  1.00  0.00    -0.744 OA
ENDBRANCH  56  60
ENDBRANCH  29  53
BRANCH  41  64
ATOM     64  C   UNL     1      10.072 -11.193   4.326  1.00  0.00     0.023 A 
ATOM     65  C   UNL     1       9.485 -12.221   5.082  1.00  0.00     0.031 A 
ATOM     66  C   UNL     1      11.466 -11.204   4.151  1.00  0.00     0.131 A 
ATOM     67  C   UNL     1      10.299 -13.181   5.696  1.00  0.00     0.055 A 
ATOM     68  C   UNL     1      12.264 -12.204   4.705  1.00  0.00     0.041 A 
ATOM     69  F   UNL     1      12.074 -10.243   3.437  1.00  0.00    -0.206 F 
ATOM     70  C   UNL     1      11.682 -13.191   5.497  1.00  0.00     0.022 A 
BRANCH  67  71
ATOM     71  S   UNL     1       9.534 -14.352   6.849  1.00  0.00     0.124 S 
ATOM     72  O   UNL     1       8.935 -13.458   7.835  1.00  0.00    -0.237 OA
ATOM     73  O   UNL     1       8.600 -15.071   5.990  1.00  0.00    -0.237 OA
ATOM     74  O   UNL     1      10.664 -15.142   7.334  1.00  0.00    -0.744 OA
ENDBRANCH  67  71
ENDBRANCH  41  64
ENDBRANCH  15  16
ENDBRANCH   8  10
ENDBRANCH   7   8
ENDBRANCH   6   7
ENDBRANCH   5   6
ENDBRANCH   4   5
ENDBRANCH   3   4
ENDBRANCH   2   3
ENDBRANCH   1   2
BRANCH   1  75
ATOM     75  C   UNL     1       3.940   3.046   2.567  1.00  0.00     0.188 C 
BRANCH  75  76
ATOM     76  C   UNL     1       4.681   1.842   3.193  1.00  0.00     0.188 C 
BRANCH  76  77
ATOM     77  O   UNL     1       3.827   0.863   3.765  1.00  0.00    -0.376 OA
BRANCH  77  78
ATOM     78  C   UNL     1       3.839   0.791   5.187  1.00  0.00     0.202 C 
BRANCH  78  79
ATOM     79  C   UNL     1       3.176   1.972   5.906  1.00  0.00     0.261 C 
BRANCH  79  80
ATOM     80  O   UNL     1       3.710   3.271   5.599  1.00  0.00    -0.460 OA
BRANCH  80  81
ATOM     81  C   UNL     1       4.980   3.572   5.966  1.00  0.00     0.338 C 
ATOM     82  O   UNL     1       5.761   2.881   6.573  1.00  0.00    -0.246 OA
BRANCH  81  83
ATOM     83  C   UNL     1       5.301   4.855   5.286  1.00  0.00     0.063 A 
ATOM     84  C   UNL     1       6.405   4.921   4.428  1.00  0.00     0.016 A 
ATOM     85  C   UNL     1       4.396   5.920   5.364  1.00  0.00     0.062 A 
ATOM     86  C   UNL     1       6.561   6.035   3.602  1.00  0.00     0.005 A 
ATOM     87  C   UNL     1       4.568   7.048   4.565  1.00  0.00     0.120 A 
ATOM     88  C   UNL     1       5.644   7.089   3.671  1.00  0.00     0.046 A 
BRANCH  87  89
ATOM     89  O   UNL     1       3.748   8.142   4.533  1.00  0.00    -0.488 OA
BRANCH  89  90
ATOM     90  C   UNL     1       2.674   8.203   5.479  1.00  0.00     0.302 C 
BRANCH  90  91
ATOM     91  C   UNL     1       1.386   7.609   4.928  1.00  0.00     0.379 C 
ATOM     92  F   UNL     1       1.456   6.256   4.891  1.00  0.00    -0.207 F 
ATOM     93  F   UNL     1       0.361   7.910   5.770  1.00  0.00    -0.207 F 
ENDBRANCH  90  91
ENDBRANCH  89  90
ENDBRANCH  87  89
ENDBRANCH  81  83
ENDBRANCH  80  81
ENDBRANCH  79  80
ENDBRANCH  78  79
ENDBRANCH  77  78
ENDBRANCH  76  77
ENDBRANCH  75  76
ENDBRANCH   1  75
TORSDOF 26
