REMARK SMILES CCc1cc2c(C)cc(=O)oc2cc1O[C@H](C)C(=O)OCCOCCOCCOCCOC(=O)c1ccc(-c2c3nc(c(-c4cc(S(=O)(=O)[O-])ccc4F)c4ccc([nH]4)c(-c4cc(S(=O)(=O)[O-])ccc4F)c4nc(c(-c5cc(S(=O)(=O)[O-])ccc5F)c5ccc2[nH]5)C=C4)C=C3)cc1
REMARK SMILES IDX 26 1 25 2 24 3 23 4 22 5 21 6 20 7 18 8 19 9 16 10 17 11
REMARK SMILES IDX 15 12 14 13 3 14 4 15 5 16 13 17 6 18 12 19 7 20 8 21 11 22
REMARK SMILES IDX 9 23 10 24 2 25 1 26 27 27 28 28 29 29 30 30 31 31 32 32
REMARK SMILES IDX 33 33 34 34 35 35 36 36 97 37 37 38 96 39 38 40 39 41 40 42
REMARK SMILES IDX 90 43 41 44 95 45 89 46 91 47 42 48 94 49 88 50 87 51 43 53
REMARK SMILES IDX 75 54 55 55 74 56 56 57 59 58 73 59 92 60 57 61 58 62 72 64
REMARK SMILES IDX 93 65 60 66 44 67 45 68 53 69 46 70 52 71 54 72 51 73 47 74
REMARK SMILES IDX 48 75 49 76 50 77 76 78 77 79 85 80 78 81 84 82 86 83 83 84
REMARK SMILES IDX 79 85 80 86 81 87 82 88 61 89 62 90 70 91 63 92 69 93 71 94
REMARK SMILES IDX 68 95 64 96 65 97 66 98 67 99
REMARK H PARENT 91 52 59 63
REMARK Flexibility Score: inf
ROOT
ATOM      1  O   UNL     1      -1.994  -3.768   2.455  1.00  0.00    -0.377 OA
ENDROOT
BRANCH   1   2
ATOM      2  C   UNL     1      -2.409  -4.130   1.151  1.00  0.00     0.188 C 
BRANCH   2   3
ATOM      3  C   UNL     1      -3.359  -5.346   1.067  1.00  0.00     0.188 C 
BRANCH   3   4
ATOM      4  O   UNL     1      -3.840  -6.010   2.229  1.00  0.00    -0.376 OA
BRANCH   4   5
ATOM      5  C   UNL     1      -3.041  -6.146   3.392  1.00  0.00     0.202 C 
BRANCH   5   6
ATOM      6  C   UNL     1      -1.656  -6.762   3.276  1.00  0.00     0.261 C 
BRANCH   6   7
ATOM      7  O   UNL     1      -0.712  -6.115   2.402  1.00  0.00    -0.461 OA
BRANCH   7   8
ATOM      8  C   UNL     1      -0.494  -6.693   1.190  1.00  0.00     0.347 C 
ATOM      9  O   UNL     1      -1.206  -7.561   0.690  1.00  0.00    -0.248 OA
BRANCH   8  10
ATOM     10  C   UNL     1       0.867  -6.318   0.591  1.00  0.00     0.279 C 
ATOM     11  C   UNL     1       1.244  -4.838   0.740  1.00  0.00     0.066 C 
BRANCH  10  12
ATOM     12  O   UNL     1       1.994  -7.175   0.837  1.00  0.00    -0.479 OA
BRANCH  12  13
ATOM     13  C   UNL     1       2.155  -7.763   2.063  1.00  0.00     0.127 A 
ATOM     14  C   UNL     1       3.450  -7.846   2.595  1.00  0.00    -0.005 A 
ATOM     15  C   UNL     1       3.623  -8.364   3.906  1.00  0.00     0.019 A 
ATOM     16  C   UNL     1       2.532  -8.796   4.675  1.00  0.00     0.021 A 
ATOM     17  C   UNL     1       1.125  -8.373   2.761  1.00  0.00     0.094 A 
ATOM     18  C   UNL     1       2.599  -9.349   6.032  1.00  0.00    -0.033 A 
ATOM     19  C   UNL     1       1.286  -8.755   4.083  1.00  0.00     0.142 A 
ATOM     20  C   UNL     1       3.891  -9.894   6.548  1.00  0.00     0.045 C 
ATOM     21  C   UNL     1       1.464  -9.421   6.746  1.00  0.00     0.098 A 
ATOM     22  O   UNL     1       0.105  -9.031   4.792  1.00  0.00    -0.423 OA
ATOM     23  C   UNL     1       0.152  -9.076   6.174  1.00  0.00     0.336 A 
ATOM     24  O   UNL     1      -0.848  -8.963   6.870  1.00  0.00    -0.246 OA
BRANCH  14  25
ATOM     25  C   UNL     1       4.630  -7.393   1.761  1.00  0.00     0.036 C 
ATOM     26  C   UNL     1       5.835  -8.321   1.838  1.00  0.00     0.009 C 
ENDBRANCH  14  25
ENDBRANCH  12  13
ENDBRANCH  10  12
ENDBRANCH   8  10
ENDBRANCH   7   8
ENDBRANCH   6   7
ENDBRANCH   5   6
ENDBRANCH   4   5
ENDBRANCH   3   4
ENDBRANCH   2   3
ENDBRANCH   1   2
BRANCH   1  27
ATOM     27  C   UNL     1      -2.812  -2.833   3.157  1.00  0.00     0.188 C 
BRANCH  27  28
ATOM     28  C   UNL     1      -4.340  -2.927   2.963  1.00  0.00     0.188 C 
BRANCH  28  29
ATOM     29  O   UNL     1      -4.736  -2.968   1.600  1.00  0.00    -0.376 OA
BRANCH  29  30
ATOM     30  C   UNL     1      -5.098  -1.774   0.930  1.00  0.00     0.202 C 
BRANCH  30  31
ATOM     31  C   UNL     1      -4.053  -0.653   0.802  1.00  0.00     0.261 C 
BRANCH  31  32
ATOM     32  O   UNL     1      -3.481  -0.146   2.017  1.00  0.00    -0.460 OA
BRANCH  32  33
ATOM     33  C   UNL     1      -4.330   0.281   2.979  1.00  0.00     0.338 C 
ATOM     34  O   UNL     1      -5.536   0.367   2.892  1.00  0.00    -0.246 OA
BRANCH  33  35
ATOM     35  C   UNL     1      -3.561   0.412   4.239  1.00  0.00     0.060 A 
ATOM     36  C   UNL     1      -4.019  -0.264   5.378  1.00  0.00     0.016 A 
ATOM     37  C   UNL     1      -2.417   1.212   4.304  1.00  0.00     0.016 A 
ATOM     38  C   UNL     1      -3.382  -0.079   6.602  1.00  0.00     0.010 A 
ATOM     39  C   UNL     1      -1.795   1.420   5.539  1.00  0.00     0.010 A 
ATOM     40  C   UNL     1      -2.315   0.822   6.701  1.00  0.00    -0.014 A 
BRANCH  40  41
ATOM     41  C   UNL     1      -1.964   1.352   8.043  1.00  0.00     0.031 A 
ATOM     42  C   UNL     1      -2.583   2.663   8.459  1.00  0.00     0.074 A 
ATOM     43  C   UNL     1      -1.199   0.657   8.902  1.00  0.00     0.049 A 
ATOM     44  N   UNL     1      -2.452   3.333   9.573  1.00  0.00    -0.248 NA
ATOM     45  C   UNL     1      -3.472   3.303   7.474  1.00  0.00     0.031 C 
ATOM     46  C   UNL     1      -0.603  -0.651   8.636  1.00  0.00     0.029 A 
ATOM     47  N   UNL     1      -0.801   0.955  10.181  1.00  0.00    -0.354 N 
ATOM     48  C   UNL     1      -3.242   4.470   9.425  1.00  0.00     0.074 A 
ATOM     49  C   UNL     1      -3.802   4.424   8.093  1.00  0.00     0.031 C 
ATOM     50  C   UNL     1       0.084  -1.044   9.724  1.00  0.00     0.029 A 
ATOM     51  C   UNL     1       0.007  -0.002  10.747  1.00  0.00     0.049 A 
ATOM     52  H   UNL     1      -1.071   1.778  10.650  1.00  0.00     0.167 HD
ATOM     53  C   UNL     1      -3.493   5.453  10.323  1.00  0.00     0.034 A 
ATOM     54  C   UNL     1       0.625  -0.021  11.946  1.00  0.00     0.034 A 
ATOM     55  C   UNL     1      -2.915   5.491  11.643  1.00  0.00     0.049 A 
ATOM     56  C   UNL     1       0.415   1.141  12.892  1.00  0.00     0.074 A 
ATOM     57  C   UNL     1      -3.087   6.443  12.633  1.00  0.00     0.029 A 
ATOM     58  N   UNL     1      -2.045   4.538  12.158  1.00  0.00    -0.354 N 
ATOM     59  N   UNL     1      -0.328   2.215  12.739  1.00  0.00    -0.248 NA
ATOM     60  C   UNL     1       1.117   1.077  14.180  1.00  0.00     0.031 C 
ATOM     61  C   UNL     1      -2.260   6.109  13.710  1.00  0.00     0.029 A 
ATOM     62  C   UNL     1      -1.646   4.897  13.436  1.00  0.00     0.049 A 
ATOM     63  H   UNL     1      -1.754   3.726  11.683  1.00  0.00     0.167 HD
ATOM     64  C   UNL     1      -0.213   2.930  13.931  1.00  0.00     0.074 A 
ATOM     65  C   UNL     1       0.653   2.154  14.794  1.00  0.00     0.031 C 
ATOM     66  C   UNL     1      -0.773   4.117  14.283  1.00  0.00     0.034 A 
BRANCH  53  67
ATOM     67  C   UNL     1      -4.384   6.588   9.876  1.00  0.00     0.023 A 
ATOM     68  C   UNL     1      -5.728   6.380   9.516  1.00  0.00     0.031 A 
ATOM     69  C   UNL     1      -3.870   7.892   9.766  1.00  0.00     0.131 A 
ATOM     70  C   UNL     1      -6.486   7.439   8.994  1.00  0.00     0.055 A 
ATOM     71  C   UNL     1      -4.656   8.960   9.330  1.00  0.00     0.041 A 
ATOM     72  F   UNL     1      -2.586   8.148  10.065  1.00  0.00    -0.206 F 
ATOM     73  C   UNL     1      -5.968   8.734   8.925  1.00  0.00     0.022 A 
BRANCH  70  74
ATOM     74  S   UNL     1      -8.101   7.069   8.256  1.00  0.00     0.124 S 
ATOM     75  O   UNL     1      -7.737   6.110   7.216  1.00  0.00    -0.237 OA
ATOM     76  O   UNL     1      -8.849   6.533   9.387  1.00  0.00    -0.237 OA
ATOM     77  O   UNL     1      -8.559   8.367   7.764  1.00  0.00    -0.744 OA
ENDBRANCH  70  74
ENDBRANCH  53  67
BRANCH  54  78
ATOM     78  C   UNL     1       1.527  -1.149  12.323  1.00  0.00     0.023 A 
ATOM     79  C   UNL     1       1.266  -1.947  13.449  1.00  0.00     0.031 A 
ATOM     80  C   UNL     1       2.713  -1.393  11.607  1.00  0.00     0.131 A 
ATOM     81  C   UNL     1       2.205  -2.906  13.861  1.00  0.00     0.055 A 
ATOM     82  C   UNL     1       3.612  -2.393  11.983  1.00  0.00     0.041 A 
ATOM     83  F   UNL     1       3.019  -0.656  10.527  1.00  0.00    -0.206 F 
ATOM     84  C   UNL     1       3.369  -3.145  13.126  1.00  0.00     0.022 A 
BRANCH  81  85
ATOM     85  S   UNL     1       1.940  -3.762  15.439  1.00  0.00     0.124 S 
ATOM     86  O   UNL     1       1.871  -2.644  16.373  1.00  0.00    -0.237 OA
ATOM     87  O   UNL     1       0.689  -4.471  15.192  1.00  0.00    -0.237 OA
ATOM     88  O   UNL     1       3.122  -4.612  15.567  1.00  0.00    -0.744 OA
ENDBRANCH  81  85
ENDBRANCH  54  78
BRANCH  66  89
ATOM     89  C   UNL     1      -0.506   4.614  15.687  1.00  0.00     0.023 A 
ATOM     90  C   UNL     1       0.790   4.931  16.131  1.00  0.00     0.031 A 
ATOM     91  C   UNL     1      -1.563   4.735  16.608  1.00  0.00     0.131 A 
ATOM     92  C   UNL     1       1.007   5.266  17.476  1.00  0.00     0.055 A 
ATOM     93  C   UNL     1      -1.352   5.151  17.923  1.00  0.00     0.041 A 
ATOM     94  F   UNL     1      -2.824   4.446  16.246  1.00  0.00    -0.206 F 
ATOM     95  C   UNL     1      -0.057   5.398  18.370  1.00  0.00     0.022 A 
BRANCH  92  96
ATOM     96  S   UNL     1       2.716   5.385  18.075  1.00  0.00     0.124 S 
ATOM     97  O   UNL     1       3.257   4.082  17.704  1.00  0.00    -0.237 OA
ATOM     98  O   UNL     1       3.230   6.525  17.323  1.00  0.00    -0.237 OA
ATOM     99  O   UNL     1       2.561   5.608  19.511  1.00  0.00    -0.744 OA
ENDBRANCH  92  96
ENDBRANCH  66  89
ENDBRANCH  40  41
ENDBRANCH  33  35
ENDBRANCH  32  33
ENDBRANCH  31  32
ENDBRANCH  30  31
ENDBRANCH  29  30
ENDBRANCH  28  29
ENDBRANCH  27  28
ENDBRANCH   1  27
TORSDOF 26
