REMARK SMILES Cc1cc(Nc2ccc(C(=O)OCCOCCOCCOCCOC(=O)c3ccc(-c4c5nc(c(-c6cc(S(=O)(=O)[O-])ccc6F)c6ccc([nH]6)c(-c6cc(S(=O)(=O)[O-])ccc6F)c6nc(c(-c7cc(S(=O)(=O)[O-])ccc7F)c7ccc4[nH]7)C=C6)C=C5)cc3)cc2)nc(C(C)C)n1
REMARK SMILES IDX 18 1 17 2 16 3 15 4 14 5 13 6 12 7 10 8 11 9 9 10 6 11 7 12
REMARK SMILES IDX 91 13 8 14 90 15 5 16 4 18 1 19 2 20 3 21 97 22 93 23 92 24
REMARK SMILES IDX 94 25 95 26 96 27 19 28 20 29 21 30 22 31 23 32 24 33 25 34
REMARK SMILES IDX 26 35 27 36 28 37 89 38 29 39 88 40 30 41 31 42 32 43 82 44
REMARK SMILES IDX 33 45 87 46 81 47 83 48 34 49 86 50 80 51 79 52 35 54 67 55
REMARK SMILES IDX 47 56 66 57 48 58 51 59 65 60 84 61 49 62 50 63 64 65 85 66
REMARK SMILES IDX 52 67 36 68 37 69 45 70 38 71 44 72 46 73 43 74 39 75 40 76
REMARK SMILES IDX 41 77 42 78 68 79 69 80 77 81 70 82 76 83 78 84 75 85 71 86
REMARK SMILES IDX 72 87 73 88 74 89 53 90 54 91 62 92 55 93 61 94 63 95 60 96
REMARK SMILES IDX 56 97 57 98 58 99 59 100
REMARK H PARENT 5 17 83 53 51 64
REMARK Flexibility Score: inf
ROOT
ATOM      1  O   UNL     1       8.495  -3.023   2.366  1.00  0.00    -0.377 OA
ENDROOT
BRANCH   1   2
ATOM      2  C   UNL     1       7.903  -3.730   1.291  1.00  0.00     0.188 C 
BRANCH   2   3
ATOM      3  C   UNL     1       8.640  -3.612  -0.058  1.00  0.00     0.188 C 
BRANCH   3   4
ATOM      4  O   UNL     1       9.982  -3.182   0.050  1.00  0.00    -0.376 OA
BRANCH   4   5
ATOM      5  C   UNL     1      10.337  -1.814  -0.039  1.00  0.00     0.202 C 
BRANCH   5   6
ATOM      6  C   UNL     1       9.486  -0.650   0.499  1.00  0.00     0.261 C 
BRANCH   6   7
ATOM      7  O   UNL     1       8.076  -0.844   0.579  1.00  0.00    -0.460 OA
BRANCH   7   8
ATOM      8  C   UNL     1       7.370  -0.737  -0.563  1.00  0.00     0.338 C 
ATOM      9  O   UNL     1       7.800  -0.473  -1.672  1.00  0.00    -0.246 OA
BRANCH   8  10
ATOM     10  C   UNL     1       5.997  -1.218  -0.284  1.00  0.00     0.060 A 
ATOM     11  C   UNL     1       3.370  -2.094   0.116  1.00  0.00     0.040 A 
ATOM     12  C   UNL     1       4.085  -2.515  -1.011  1.00  0.00     0.027 A 
ATOM     13  C   UNL     1       4.018  -1.310   1.085  1.00  0.00     0.027 A 
ATOM     14  C   UNL     1       5.390  -2.066  -1.219  1.00  0.00     0.018 A 
ATOM     15  C   UNL     1       5.331  -0.880   0.895  1.00  0.00     0.018 A 
BRANCH  11  16
ATOM     16  N   UNL     1       1.964  -2.229   0.133  1.00  0.00    -0.340 N 
ATOM     17  H   UNL     1       1.571  -3.131   0.185  1.00  0.00     0.168 HD
BRANCH  16  18
ATOM     18  C   UNL     1       1.106  -1.109   0.078  1.00  0.00     0.134 A 
ATOM     19  C   UNL     1      -2.527  -0.211   0.021  1.00  0.00     0.067 C 
ATOM     20  C   UNL     1      -1.032  -0.135   0.026  1.00  0.00     0.043 A 
ATOM     21  C   UNL     1      -0.260  -1.280   0.105  1.00  0.00     0.070 A 
ATOM     22  N   UNL     1      -0.498   1.102  -0.046  1.00  0.00    -0.238 NA
ATOM     23  C   UNL     1       0.842   1.181  -0.038  1.00  0.00     0.133 A 
ATOM     24  N   UNL     1       1.650   0.118   0.016  1.00  0.00    -0.216 NA
BRANCH  23  25
ATOM     25  C   UNL     1       1.513   2.534  -0.088  1.00  0.00     0.051 C 
ATOM     26  C   UNL     1       1.145   3.282  -1.366  1.00  0.00     0.016 C 
ATOM     27  C   UNL     1       1.185   3.351   1.159  1.00  0.00     0.016 C 
ENDBRANCH  23  25
ENDBRANCH  16  18
ENDBRANCH  11  16
ENDBRANCH   8  10
ENDBRANCH   7   8
ENDBRANCH   6   7
ENDBRANCH   5   6
ENDBRANCH   4   5
ENDBRANCH   3   4
ENDBRANCH   2   3
ENDBRANCH   1   2
BRANCH   1  28
ATOM     28  C   UNL     1       9.722  -3.496   2.922  1.00  0.00     0.188 C 
BRANCH  28  29
ATOM     29  C   UNL     1      10.522  -4.680   2.322  1.00  0.00     0.188 C 
BRANCH  29  30
ATOM     30  O   UNL     1       9.746  -5.630   1.606  1.00  0.00    -0.376 OA
BRANCH  30  31
ATOM     31  C   UNL     1       9.512  -6.893   2.202  1.00  0.00     0.202 C 
BRANCH  31  32
ATOM     32  C   UNL     1       8.609  -6.899   3.443  1.00  0.00     0.261 C 
BRANCH  32  33
ATOM     33  O   UNL     1       9.026  -6.049   4.521  1.00  0.00    -0.460 OA
BRANCH  33  34
ATOM     34  C   UNL     1      10.206  -6.356   5.101  1.00  0.00     0.338 C 
ATOM     35  O   UNL     1      10.938  -7.292   4.812  1.00  0.00    -0.246 OA
BRANCH  34  36
ATOM     36  C   UNL     1      10.573  -5.258   6.015  1.00  0.00     0.060 A 
ATOM     37  C   UNL     1      11.803  -4.615   5.832  1.00  0.00     0.016 A 
ATOM     38  C   UNL     1       9.722  -4.881   7.058  1.00  0.00     0.016 A 
ATOM     39  C   UNL     1      12.220  -3.642   6.737  1.00  0.00     0.010 A 
ATOM     40  C   UNL     1      10.148  -3.915   7.974  1.00  0.00     0.010 A 
ATOM     41  C   UNL     1      11.423  -3.334   7.848  1.00  0.00    -0.014 A 
BRANCH  41  42
ATOM     42  C   UNL     1      12.040  -2.615   8.991  1.00  0.00     0.031 A 
ATOM     43  C   UNL     1      12.545  -3.435  10.150  1.00  0.00     0.074 A 
ATOM     44  C   UNL     1      12.222  -1.283   8.970  1.00  0.00     0.049 A 
ATOM     45  N   UNL     1      13.153  -3.053  11.242  1.00  0.00    -0.248 NA
ATOM     46  C   UNL     1      12.327  -4.888  10.060  1.00  0.00     0.031 C 
ATOM     47  C   UNL     1      11.828  -0.394   7.880  1.00  0.00     0.029 A 
ATOM     48  N   UNL     1      12.800  -0.450   9.894  1.00  0.00    -0.354 N 
ATOM     49  C   UNL     1      13.383  -4.215  11.973  1.00  0.00     0.074 A 
ATOM     50  C   UNL     1      12.804  -5.306  11.221  1.00  0.00     0.031 C 
ATOM     51  C   UNL     1      12.192   0.863   8.192  1.00  0.00     0.029 A 
ATOM     52  C   UNL     1      12.809   0.872   9.517  1.00  0.00     0.049 A 
ATOM     53  H   UNL     1      13.173  -0.769  10.748  1.00  0.00     0.167 HD
ATOM     54  C   UNL     1      14.029  -4.361  13.157  1.00  0.00     0.034 A 
ATOM     55  C   UNL     1      13.257   1.962  10.174  1.00  0.00     0.034 A 
ATOM     56  C   UNL     1      14.591  -3.259  13.899  1.00  0.00     0.049 A 
ATOM     57  C   UNL     1      13.889   1.787  11.537  1.00  0.00     0.074 A 
ATOM     58  C   UNL     1      15.280  -3.289  15.098  1.00  0.00     0.029 A 
ATOM     59  N   UNL     1      14.514  -1.923  13.521  1.00  0.00    -0.354 N 
ATOM     60  N   UNL     1      14.114   0.683  12.213  1.00  0.00    -0.248 NA
ATOM     61  C   UNL     1      14.337   3.009  12.216  1.00  0.00     0.031 C 
ATOM     62  C   UNL     1      15.536  -1.971  15.490  1.00  0.00     0.029 A 
ATOM     63  C   UNL     1      15.104  -1.120  14.486  1.00  0.00     0.049 A 
ATOM     64  H   UNL     1      14.101  -1.595  12.690  1.00  0.00     0.167 HD
ATOM     65  C   UNL     1      14.775   1.077  13.376  1.00  0.00     0.074 A 
ATOM     66  C   UNL     1      14.918   2.517  13.300  1.00  0.00     0.031 C 
ATOM     67  C   UNL     1      15.233   0.318  14.406  1.00  0.00     0.034 A 
BRANCH  54  68
ATOM     68  C   UNL     1      14.089  -5.753  13.745  1.00  0.00     0.023 A 
ATOM     69  C   UNL     1      14.726  -6.818  13.083  1.00  0.00     0.031 A 
ATOM     70  C   UNL     1      13.445  -6.032  14.964  1.00  0.00     0.131 A 
ATOM     71  C   UNL     1      14.625  -8.122  13.594  1.00  0.00     0.055 A 
ATOM     72  C   UNL     1      13.432  -7.314  15.517  1.00  0.00     0.041 A 
ATOM     73  F   UNL     1      12.795  -5.065  15.631  1.00  0.00    -0.206 F 
ATOM     74  C   UNL     1      14.008  -8.372  14.821  1.00  0.00     0.022 A 
BRANCH  71  75
ATOM     75  S   UNL     1      15.149  -9.508  12.546  1.00  0.00     0.124 S 
ATOM     76  O   UNL     1      14.334  -9.298  11.351  1.00  0.00    -0.237 OA
ATOM     77  O   UNL     1      16.579  -9.266  12.395  1.00  0.00    -0.237 OA
ATOM     78  O   UNL     1      14.793 -10.687  13.333  1.00  0.00    -0.744 OA
ENDBRANCH  71  75
ENDBRANCH  54  68
BRANCH  55  79
ATOM     79  C   UNL     1      13.124   3.321   9.572  1.00  0.00     0.023 A 
ATOM     80  C   UNL     1      14.257   4.097   9.277  1.00  0.00     0.031 A 
ATOM     81  C   UNL     1      11.859   3.890   9.341  1.00  0.00     0.131 A 
ATOM     82  C   UNL     1      14.103   5.414   8.817  1.00  0.00     0.055 A 
ATOM     83  C   UNL     1      11.712   5.179   8.826  1.00  0.00     0.041 A 
ATOM     84  F   UNL     1      10.742   3.196   9.611  1.00  0.00    -0.206 F 
ATOM     85  C   UNL     1      12.839   5.955   8.574  1.00  0.00     0.022 A 
BRANCH  82  86
ATOM     86  S   UNL     1      15.583   6.446   8.627  1.00  0.00     0.124 S 
ATOM     87  O   UNL     1      16.125   6.438   9.980  1.00  0.00    -0.237 OA
ATOM     88  O   UNL     1      16.343   5.705   7.626  1.00  0.00    -0.237 OA
ATOM     89  O   UNL     1      15.047   7.729   8.175  1.00  0.00    -0.744 OA
ENDBRANCH  82  86
ENDBRANCH  55  79
BRANCH  67  90
ATOM     90  C   UNL     1      15.992   1.031  15.505  1.00  0.00     0.023 A 
ATOM     91  C   UNL     1      15.392   2.007  16.319  1.00  0.00     0.031 A 
ATOM     92  C   UNL     1      17.354   0.744  15.720  1.00  0.00     0.131 A 
ATOM     93  C   UNL     1      16.167   2.717  17.249  1.00  0.00     0.055 A 
ATOM     94  C   UNL     1      18.099   1.396  16.703  1.00  0.00     0.041 A 
ATOM     95  F   UNL     1      17.986  -0.175  14.973  1.00  0.00    -0.206 F 
ATOM     96  C   UNL     1      17.511   2.403  17.461  1.00  0.00     0.022 A 
BRANCH  93  97
ATOM     97  S   UNL     1      15.430   4.150  18.083  1.00  0.00     0.124 S 
ATOM     98  O   UNL     1      14.991   4.965  16.955  1.00  0.00    -0.237 OA
ATOM     99  O   UNL     1      14.369   3.537  18.877  1.00  0.00    -0.237 OA
ATOM    100  O   UNL     1      16.539   4.706  18.855  1.00  0.00    -0.744 OA
ENDBRANCH  93  97
ENDBRANCH  67  90
ENDBRANCH  41  42
ENDBRANCH  34  36
ENDBRANCH  33  34
ENDBRANCH  32  33
ENDBRANCH  31  32
ENDBRANCH  30  31
ENDBRANCH  29  30
ENDBRANCH  28  29
ENDBRANCH   1  28
TORSDOF 26
