REMARK SMILES Cc1ccc(S(=O)(=O)Nc2ccccc2C(=O)OCCOCCOCCOCCOC(=O)c2ccc(-c3c4nc(c(-c5cc(S(=O)(=O)[O-])ccc5F)c5ccc([nH]5)c(-c5cc(S(=O)(=O)[O-])ccc5F)c5nc(c(-c6cc(S(=O)(=O)[O-])ccc6F)c6ccc3[nH]6)C=C5)C=C4)cc2)cc1C
REMARK SMILES IDX 24 1 23 2 22 3 21 4 20 5 19 6 18 7 16 8 17 9 15 10 10 11
REMARK SMILES IDX 11 12 12 13 14 14 13 15 9 16 6 18 7 19 8 20 5 21 1 22 2 23
REMARK SMILES IDX 3 24 97 25 4 26 96 27 98 28 25 29 26 30 27 31 28 32 29 33
REMARK SMILES IDX 30 34 31 35 32 36 33 37 34 38 95 39 35 40 94 41 36 42 37 43
REMARK SMILES IDX 38 44 88 45 39 46 93 47 87 48 89 49 40 50 92 51 86 52 85 53
REMARK SMILES IDX 41 55 73 56 53 57 72 58 54 59 57 60 71 61 90 62 55 63 56 64
REMARK SMILES IDX 70 66 91 67 58 68 42 69 43 70 51 71 44 72 50 73 52 74 49 75
REMARK SMILES IDX 45 76 46 77 47 78 48 79 74 80 75 81 83 82 76 83 82 84 84 85
REMARK SMILES IDX 81 86 77 87 78 88 79 89 80 90 59 91 60 92 68 93 61 94 67 95
REMARK SMILES IDX 69 96 66 97 62 98 63 99 64 100 65 101
REMARK H PARENT 9 17 89 54 57 65
REMARK Flexibility Score: inf
ROOT
ATOM      1  O   UNL     1      -3.735  -0.707  -3.594  1.00  0.00    -0.377 OA
ENDROOT
BRANCH   1   2
ATOM      2  C   UNL     1      -3.819   0.704  -3.683  1.00  0.00     0.188 C 
BRANCH   2   3
ATOM      3  C   UNL     1      -2.504   1.419  -4.068  1.00  0.00     0.188 C 
BRANCH   3   4
ATOM      4  O   UNL     1      -1.300   0.718  -4.368  1.00  0.00    -0.376 OA
BRANCH   4   5
ATOM      5  C   UNL     1      -0.981  -0.525  -3.763  1.00  0.00     0.202 C 
BRANCH   5   6
ATOM      6  C   UNL     1      -0.828  -0.595  -2.249  1.00  0.00     0.261 C 
BRANCH   6   7
ATOM      7  O   UNL     1      -1.944  -0.087  -1.513  1.00  0.00    -0.460 OA
BRANCH   7   8
ATOM      8  C   UNL     1      -1.802   1.173  -1.043  1.00  0.00     0.340 C 
ATOM      9  O   UNL     1      -0.845   1.911  -1.223  1.00  0.00    -0.246 OA
BRANCH   8  10
ATOM     10  C   UNL     1      -3.041   1.626  -0.359  1.00  0.00     0.084 A 
ATOM     11  C   UNL     1      -3.993   0.777   0.235  1.00  0.00     0.063 A 
ATOM     12  C   UNL     1      -5.098   1.345   0.881  1.00  0.00     0.027 A 
ATOM     13  C   UNL     1      -5.288   2.731   0.889  1.00  0.00     0.002 A 
ATOM     14  C   UNL     1      -3.240   3.019  -0.339  1.00  0.00     0.018 A 
ATOM     15  C   UNL     1      -4.365   3.568   0.270  1.00  0.00     0.001 A 
BRANCH  11  16
ATOM     16  N   UNL     1      -3.903  -0.653   0.216  1.00  0.00    -0.279 N 
ATOM     17  H   UNL     1      -4.244  -1.156  -0.559  1.00  0.00     0.180 HD
BRANCH  16  18
ATOM     18  S   UNL     1      -3.212  -1.484   1.526  1.00  0.00     0.261 S 
ATOM     19  O   UNL     1      -3.133  -2.871   1.120  1.00  0.00    -0.201 OA
ATOM     20  O   UNL     1      -3.880  -1.086   2.747  1.00  0.00    -0.201 OA
BRANCH  18  21
ATOM     21  C   UNL     1      -1.549  -0.848   1.592  1.00  0.00     0.088 A 
ATOM     22  C   UNL     1       2.056   1.244   0.657  1.00  0.00     0.044 C 
ATOM     23  C   UNL     1       0.884   0.424   1.125  1.00  0.00    -0.048 A 
ATOM     24  C   UNL     1      -0.132   1.069   1.852  1.00  0.00     0.005 A 
ATOM     25  C   UNL     1       0.747  -0.942   0.804  1.00  0.00    -0.047 A 
ATOM     26  C   UNL     1      -1.339   0.428   2.110  1.00  0.00     0.022 A 
ATOM     27  C   UNL     1      -0.494  -1.567   1.021  1.00  0.00     0.026 A 
ATOM     28  C   UNL     1       1.843  -1.736   0.144  1.00  0.00     0.044 C 
ENDBRANCH  18  21
ENDBRANCH  16  18
ENDBRANCH  11  16
ENDBRANCH   8  10
ENDBRANCH   7   8
ENDBRANCH   6   7
ENDBRANCH   5   6
ENDBRANCH   4   5
ENDBRANCH   3   4
ENDBRANCH   2   3
ENDBRANCH   1   2
BRANCH   1  29
ATOM     29  C   UNL     1      -4.189  -1.409  -4.753  1.00  0.00     0.188 C 
BRANCH  29  30
ATOM     30  C   UNL     1      -3.622  -0.932  -6.106  1.00  0.00     0.188 C 
BRANCH  30  31
ATOM     31  O   UNL     1      -3.957   0.425  -6.399  1.00  0.00    -0.376 OA
BRANCH  31  32
ATOM     32  C   UNL     1      -4.984   0.637  -7.360  1.00  0.00     0.202 C 
BRANCH  32  33
ATOM     33  C   UNL     1      -6.404   0.397  -6.830  1.00  0.00     0.261 C 
BRANCH  33  34
ATOM     34  O   UNL     1      -6.699  -0.957  -6.451  1.00  0.00    -0.460 OA
BRANCH  34  35
ATOM     35  C   UNL     1      -6.522  -1.911  -7.391  1.00  0.00     0.338 C 
ATOM     36  O   UNL     1      -6.226  -1.739  -8.560  1.00  0.00    -0.246 OA
BRANCH  35  37
ATOM     37  C   UNL     1      -6.539  -3.223  -6.716  1.00  0.00     0.060 A 
ATOM     38  C   UNL     1      -5.459  -4.094  -6.913  1.00  0.00     0.016 A 
ATOM     39  C   UNL     1      -7.622  -3.599  -5.918  1.00  0.00     0.016 A 
ATOM     40  C   UNL     1      -5.488  -5.372  -6.359  1.00  0.00     0.010 A 
ATOM     41  C   UNL     1      -7.661  -4.888  -5.383  1.00  0.00     0.010 A 
ATOM     42  C   UNL     1      -6.616  -5.793  -5.643  1.00  0.00    -0.014 A 
BRANCH  42  43
ATOM     43  C   UNL     1      -6.831  -7.241  -5.412  1.00  0.00     0.031 A 
ATOM     44  C   UNL     1      -7.624  -7.998  -6.444  1.00  0.00     0.074 A 
ATOM     45  C   UNL     1      -6.329  -7.867  -4.335  1.00  0.00     0.049 A 
ATOM     46  N   UNL     1      -7.998  -9.250  -6.455  1.00  0.00    -0.248 NA
ATOM     47  C   UNL     1      -8.058  -7.228  -7.622  1.00  0.00     0.031 C 
ATOM     48  C   UNL     1      -5.508  -7.244  -3.299  1.00  0.00     0.029 A 
ATOM     49  N   UNL     1      -6.447  -9.174  -3.933  1.00  0.00    -0.354 N 
ATOM     50  C   UNL     1      -8.710  -9.418  -7.638  1.00  0.00     0.074 A 
ATOM     51  C   UNL     1      -8.748  -8.131  -8.297  1.00  0.00     0.031 C 
ATOM     52  C   UNL     1      -5.208  -8.168  -2.369  1.00  0.00     0.029 A 
ATOM     53  C   UNL     1      -5.843  -9.436  -2.726  1.00  0.00     0.049 A 
ATOM     54  H   UNL     1      -6.919  -9.859  -4.460  1.00  0.00     0.167 HD
ATOM     55  C   UNL     1      -9.274 -10.546  -8.135  1.00  0.00     0.034 A 
ATOM     56  C   UNL     1      -5.833 -10.565  -1.988  1.00  0.00     0.034 A 
ATOM     57  C   UNL     1      -9.250 -11.814  -7.451  1.00  0.00     0.049 A 
ATOM     58  C   UNL     1      -6.552 -11.787  -2.514  1.00  0.00     0.074 A 
ATOM     59  C   UNL     1      -9.790 -13.022  -7.853  1.00  0.00     0.029 A 
ATOM     60  N   UNL     1      -8.666 -12.032  -6.209  1.00  0.00    -0.354 N 
ATOM     61  N   UNL     1      -7.216 -11.940  -3.638  1.00  0.00    -0.248 NA
ATOM     62  C   UNL     1      -6.516 -12.991  -1.672  1.00  0.00     0.031 C 
ATOM     63  C   UNL     1      -9.593 -13.952  -6.826  1.00  0.00     0.029 A 
ATOM     64  C   UNL     1      -8.861 -13.346  -5.816  1.00  0.00     0.049 A 
ATOM     65  H   UNL     1      -8.185 -11.352  -5.685  1.00  0.00     0.167 HD
ATOM     66  C   UNL     1      -7.645 -13.265  -3.650  1.00  0.00     0.074 A 
ATOM     67  C   UNL     1      -7.157 -13.870  -2.428  1.00  0.00     0.031 C 
ATOM     68  C   UNL     1      -8.371 -13.928  -4.588  1.00  0.00     0.034 A 
BRANCH  55  69
ATOM     69  C   UNL     1     -10.010 -10.426  -9.446  1.00  0.00     0.023 A 
ATOM     70  C   UNL     1      -9.346 -10.085 -10.638  1.00  0.00     0.031 A 
ATOM     71  C   UNL     1     -11.404 -10.601  -9.495  1.00  0.00     0.131 A 
ATOM     72  C   UNL     1     -10.084  -9.855 -11.809  1.00  0.00     0.055 A 
ATOM     73  C   UNL     1     -12.123 -10.450 -10.682  1.00  0.00     0.041 A 
ATOM     74  F   UNL     1     -12.095 -10.899  -8.384  1.00  0.00    -0.206 F 
ATOM     75  C   UNL     1     -11.465 -10.060 -11.846  1.00  0.00     0.022 A 
BRANCH  72  76
ATOM     76  S   UNL     1      -9.235  -9.141 -13.244  1.00  0.00     0.124 S 
ATOM     77  O   UNL     1      -8.728  -7.886 -12.693  1.00  0.00    -0.237 OA
ATOM     78  O   UNL     1      -8.232 -10.153 -13.554  1.00  0.00    -0.237 OA
ATOM     79  O   UNL     1     -10.299  -8.992 -14.234  1.00  0.00    -0.744 OA
ENDBRANCH  72  76
ENDBRANCH  55  69
BRANCH  56  80
ATOM     80  C   UNL     1      -5.163 -10.596  -0.656  1.00  0.00     0.023 A 
ATOM     81  C   UNL     1      -4.069 -11.441  -0.410  1.00  0.00     0.031 A 
ATOM     82  C   UNL     1      -5.652  -9.824   0.414  1.00  0.00     0.131 A 
ATOM     83  C   UNL     1      -3.530 -11.531   0.884  1.00  0.00     0.055 A 
ATOM     84  C   UNL     1      -5.078  -9.876   1.685  1.00  0.00     0.041 A 
ATOM     85  F   UNL     1      -6.700  -9.004   0.235  1.00  0.00    -0.206 F 
ATOM     86  C   UNL     1      -4.019 -10.744   1.930  1.00  0.00     0.022 A 
BRANCH  83  87
ATOM     87  S   UNL     1      -2.234 -12.760   1.202  1.00  0.00     0.124 S 
ATOM     88  O   UNL     1      -2.902 -14.001   0.824  1.00  0.00    -0.237 OA
ATOM     89  O   UNL     1      -1.166 -12.311   0.316  1.00  0.00    -0.237 OA
ATOM     90  O   UNL     1      -1.962 -12.607   2.630  1.00  0.00    -0.744 OA
ENDBRANCH  83  87
ENDBRANCH  56  80
BRANCH  68  91
ATOM     91  C   UNL     1      -8.633 -15.395  -4.347  1.00  0.00     0.023 A 
ATOM     92  C   UNL     1      -9.463 -15.840  -3.304  1.00  0.00     0.031 A 
ATOM     93  C   UNL     1      -8.040 -16.361  -5.180  1.00  0.00     0.131 A 
ATOM     94  C   UNL     1      -9.637 -17.216  -3.090  1.00  0.00     0.055 A 
ATOM     95  C   UNL     1      -8.264 -17.726  -4.998  1.00  0.00     0.041 A 
ATOM     96  F   UNL     1      -7.238 -15.991  -6.192  1.00  0.00    -0.206 F 
ATOM     97  C   UNL     1      -9.057 -18.160  -3.940  1.00  0.00     0.022 A 
BRANCH  94  98
ATOM     98  S   UNL     1     -10.567 -17.761  -1.630  1.00  0.00     0.124 S 
ATOM     99  O   UNL     1      -9.802 -17.161  -0.542  1.00  0.00    -0.237 OA
ATOM    100  O   UNL     1     -11.888 -17.190  -1.871  1.00  0.00    -0.237 OA
ATOM    101  O   UNL     1     -10.500 -19.219  -1.706  1.00  0.00    -0.744 OA
ENDBRANCH  94  98
ENDBRANCH  68  91
ENDBRANCH  42  43
ENDBRANCH  35  37
ENDBRANCH  34  35
ENDBRANCH  33  34
ENDBRANCH  32  33
ENDBRANCH  31  32
ENDBRANCH  30  31
ENDBRANCH  29  30
ENDBRANCH   1  29
TORSDOF 26
