REMARK SMILES O=C(OCCOCCOCCOCCOC(=O)[C@@H]1C=C[C@H](NS(=O)(=O)c2ccc(Cl)cc2)C1)c1ccc(-c2c3nc(c(-c4cc(S(=O)(=O)[O-])ccc4F)c4ccc([nH]4)c(-c4cc(S(=O)(=O)[O-])ccc4F)c4nc(c(-c5cc(S(=O)(=O)[O-])ccc5F)c5ccc2[nH]5)C=C4)C=C3)cc1
REMARK SMILES IDX 9 1 8 2 7 3 6 4 5 5 4 6 3 7 2 8 1 9 34 10 35 11 96 12 36 13
REMARK SMILES IDX 95 14 37 15 38 16 39 17 89 18 40 19 94 20 88 21 90 22 41 23
REMARK SMILES IDX 93 24 87 25 86 26 42 28 74 29 54 30 73 31 55 32 58 33 72 34
REMARK SMILES IDX 91 35 56 36 57 37 71 39 92 40 59 41 43 42 44 43 52 44 45 45
REMARK SMILES IDX 51 46 53 47 50 48 46 49 47 50 48 51 49 52 75 53 76 54 84 55
REMARK SMILES IDX 77 56 83 57 85 58 82 59 78 60 79 61 80 62 81 63 60 64 61 65
REMARK SMILES IDX 69 66 62 67 68 68 70 69 67 70 63 71 64 72 65 73 66 74 10 75
REMARK SMILES IDX 11 76 12 77 13 78 14 79 15 80 16 81 17 82 18 83 19 84 33 85
REMARK SMILES IDX 20 86 21 87 22 88 23 90 24 91 25 92 26 93 27 94 32 95 28 96
REMARK SMILES IDX 31 97 29 98 30 99
REMARK H PARENT 90 27 58 38 22 89
REMARK Flexibility Score: inf
ROOT
ATOM      1  O   UNL     1       5.646  -2.793   1.222  1.00  0.00    -0.377 OA
ENDROOT
BRANCH   1   2
ATOM      2  C   UNL     1       6.171  -1.899   2.194  1.00  0.00     0.188 C 
BRANCH   2   3
ATOM      3  C   UNL     1       5.779  -2.220   3.634  1.00  0.00     0.188 C 
BRANCH   3   4
ATOM      4  O   UNL     1       6.180  -3.533   3.969  1.00  0.00    -0.376 OA
BRANCH   4   5
ATOM      5  C   UNL     1       5.511  -4.331   4.929  1.00  0.00     0.202 C 
BRANCH   5   6
ATOM      6  C   UNL     1       5.067  -3.694   6.232  1.00  0.00     0.261 C 
BRANCH   6   7
ATOM      7  O   UNL     1       5.389  -2.307   6.412  1.00  0.00    -0.460 OA
BRANCH   7   8
ATOM      8  C   UNL     1       6.571  -1.673   6.571  1.00  0.00     0.338 C 
ATOM      9  O   UNL     1       6.566  -0.445   6.645  1.00  0.00    -0.246 OA
BRANCH   8  10
ATOM     10  C   UNL     1       7.884  -2.361   6.660  1.00  0.00     0.060 A 
ATOM     11  C   UNL     1       8.297  -3.430   5.871  1.00  0.00     0.016 A 
ATOM     12  C   UNL     1       8.830  -1.786   7.511  1.00  0.00     0.016 A 
ATOM     13  C   UNL     1       9.513  -4.048   6.024  1.00  0.00     0.010 A 
ATOM     14  C   UNL     1      10.109  -2.330   7.608  1.00  0.00     0.010 A 
ATOM     15  C   UNL     1      10.424  -3.494   6.893  1.00  0.00    -0.014 A 
BRANCH  15  16
ATOM     16  C   UNL     1      11.615  -4.282   7.191  1.00  0.00     0.031 A 
ATOM     17  C   UNL     1      11.668  -4.896   8.544  1.00  0.00     0.074 A 
ATOM     18  C   UNL     1      12.528  -4.518   6.237  1.00  0.00     0.049 A 
ATOM     19  N   UNL     1      12.681  -5.384   9.191  1.00  0.00    -0.248 NA
ATOM     20  C   UNL     1      10.392  -4.935   9.282  1.00  0.00     0.031 C 
ATOM     21  C   UNL     1      12.408  -4.125   4.828  1.00  0.00     0.029 A 
ATOM     22  N   UNL     1      13.738  -5.143   6.309  1.00  0.00    -0.354 N 
ATOM     23  C   UNL     1      12.186  -5.709  10.447  1.00  0.00     0.074 A 
ATOM     24  C   UNL     1      10.784  -5.364  10.467  1.00  0.00     0.031 C 
ATOM     25  C   UNL     1      13.519  -4.498   4.176  1.00  0.00     0.029 A 
ATOM     26  C   UNL     1      14.461  -5.036   5.146  1.00  0.00     0.049 A 
ATOM     27  H   UNL     1      14.058  -5.620   7.109  1.00  0.00     0.167 HD
ATOM     28  C   UNL     1      12.885  -6.221  11.485  1.00  0.00     0.034 A 
ATOM     29  C   UNL     1      15.772  -5.251   4.940  1.00  0.00     0.034 A 
ATOM     30  C   UNL     1      14.289  -6.515  11.362  1.00  0.00     0.049 A 
ATOM     31  C   UNL     1      16.575  -5.697   6.133  1.00  0.00     0.074 A 
ATOM     32  C   UNL     1      15.172  -6.974  12.316  1.00  0.00     0.029 A 
ATOM     33  N   UNL     1      15.017  -6.356  10.181  1.00  0.00    -0.354 N 
ATOM     34  N   UNL     1      16.165  -5.899   7.369  1.00  0.00    -0.248 NA
ATOM     35  C   UNL     1      18.003  -5.933   5.923  1.00  0.00     0.031 C 
ATOM     36  C   UNL     1      16.445  -7.007  11.736  1.00  0.00     0.029 A 
ATOM     37  C   UNL     1      16.344  -6.674  10.389  1.00  0.00     0.049 A 
ATOM     38  H   UNL     1      14.638  -6.059   9.322  1.00  0.00     0.167 HD
ATOM     39  C   UNL     1      17.280  -6.319   8.081  1.00  0.00     0.074 A 
ATOM     40  C   UNL     1      18.381  -6.333   7.131  1.00  0.00     0.031 C 
ATOM     41  C   UNL     1      17.392  -6.673   9.388  1.00  0.00     0.034 A 
BRANCH  28  42
ATOM     42  C   UNL     1      12.162  -6.319  12.806  1.00  0.00     0.023 A 
ATOM     43  C   UNL     1      10.984  -7.075  12.961  1.00  0.00     0.031 A 
ATOM     44  C   UNL     1      12.562  -5.505  13.880  1.00  0.00     0.131 A 
ATOM     45  C   UNL     1      10.185  -6.896  14.102  1.00  0.00     0.055 A 
ATOM     46  C   UNL     1      11.819  -5.420  15.059  1.00  0.00     0.041 A 
ATOM     47  F   UNL     1      13.652  -4.728  13.782  1.00  0.00    -0.206 F 
ATOM     48  C   UNL     1      10.608  -6.096  15.165  1.00  0.00     0.022 A 
BRANCH  45  49
ATOM     49  S   UNL     1       8.483  -7.532  14.072  1.00  0.00     0.124 S 
ATOM     50  O   UNL     1       7.929  -6.838  12.910  1.00  0.00    -0.237 OA
ATOM     51  O   UNL     1       8.683  -8.968  13.921  1.00  0.00    -0.237 OA
ATOM     52  O   UNL     1       7.935  -7.109  15.359  1.00  0.00    -0.744 OA
ENDBRANCH  45  49
ENDBRANCH  28  42
BRANCH  29  53
ATOM     53  C   UNL     1      16.381  -4.936   3.618  1.00  0.00     0.023 A 
ATOM     54  C   UNL     1      16.956  -5.935   2.820  1.00  0.00     0.031 A 
ATOM     55  C   UNL     1      16.369  -3.619   3.113  1.00  0.00     0.131 A 
ATOM     56  C   UNL     1      17.510  -5.601   1.572  1.00  0.00     0.055 A 
ATOM     57  C   UNL     1      16.871  -3.302   1.850  1.00  0.00     0.041 A 
ATOM     58  F   UNL     1      15.832  -2.620   3.832  1.00  0.00    -0.206 F 
ATOM     59  C   UNL     1      17.454  -4.296   1.074  1.00  0.00     0.022 A 
BRANCH  56  60
ATOM     60  S   UNL     1      18.365  -6.890   0.626  1.00  0.00     0.124 S 
ATOM     61  O   UNL     1      19.400  -7.309   1.565  1.00  0.00    -0.237 OA
ATOM     62  O   UNL     1      17.293  -7.850   0.382  1.00  0.00    -0.237 OA
ATOM     63  O   UNL     1      18.847  -6.182  -0.558  1.00  0.00    -0.744 OA
ENDBRANCH  56  60
ENDBRANCH  29  53
BRANCH  41  64
ATOM     64  C   UNL     1      18.732  -7.184   9.837  1.00  0.00     0.023 A 
ATOM     65  C   UNL     1      19.845  -6.341   9.966  1.00  0.00     0.031 A 
ATOM     66  C   UNL     1      18.860  -8.534  10.212  1.00  0.00     0.131 A 
ATOM     67  C   UNL     1      21.054  -6.867  10.440  1.00  0.00     0.055 A 
ATOM     68  C   UNL     1      20.045  -9.033  10.745  1.00  0.00     0.041 A 
ATOM     69  F   UNL     1      17.820  -9.376  10.100  1.00  0.00    -0.206 F 
ATOM     70  C   UNL     1      21.152  -8.198  10.856  1.00  0.00     0.022 A 
BRANCH  67  71
ATOM     71  S   UNL     1      22.520  -5.802  10.448  1.00  0.00     0.124 S 
ATOM     72  O   UNL     1      22.661  -5.472   9.034  1.00  0.00    -0.237 OA
ATOM     73  O   UNL     1      22.109  -4.708  11.321  1.00  0.00    -0.237 OA
ATOM     74  O   UNL     1      23.566  -6.667  10.991  1.00  0.00    -0.744 OA
ENDBRANCH  67  71
ENDBRANCH  41  64
ENDBRANCH  15  16
ENDBRANCH   8  10
ENDBRANCH   7   8
ENDBRANCH   6   7
ENDBRANCH   5   6
ENDBRANCH   4   5
ENDBRANCH   3   4
ENDBRANCH   2   3
ENDBRANCH   1   2
BRANCH   1  75
ATOM     75  C   UNL     1       5.859  -4.176   1.502  1.00  0.00     0.188 C 
BRANCH  75  76
ATOM     76  C   UNL     1       7.293  -4.734   1.605  1.00  0.00     0.188 C 
BRANCH  76  77
ATOM     77  O   UNL     1       8.288  -3.758   1.430  1.00  0.00    -0.376 OA
BRANCH  77  78
ATOM     78  C   UNL     1       8.693  -3.436   0.117  1.00  0.00     0.202 C 
BRANCH  78  79
ATOM     79  C   UNL     1       7.828  -3.607  -1.161  1.00  0.00     0.261 C 
BRANCH  79  80
ATOM     80  O   UNL     1       6.552  -4.285  -1.110  1.00  0.00    -0.463 OA
BRANCH  80  81
ATOM     81  C   UNL     1       6.481  -5.563  -1.560  1.00  0.00     0.312 C 
ATOM     82  O   UNL     1       7.440  -6.160  -2.044  1.00  0.00    -0.252 OA
BRANCH  81  83
ATOM     83  C   UNL     1       5.063  -6.210  -1.510  1.00  0.00     0.123 C 
ATOM     84  C   UNL     1       3.931  -5.773  -0.616  1.00  0.00    -0.015 C 
ATOM     85  C   UNL     1       5.210  -7.703  -1.118  1.00  0.00     0.043 C 
ATOM     86  C   UNL     1       3.404  -6.773   0.104  1.00  0.00    -0.011 C 
ATOM     87  C   UNL     1       4.065  -8.068  -0.164  1.00  0.00     0.093 C 
BRANCH  87  88
ATOM     88  N   UNL     1       4.506  -8.826   1.005  1.00  0.00    -0.204 NA
ATOM     89  H   UNL     1       5.284  -9.393   0.667  1.00  0.00     0.142 HD
BRANCH  88  90
ATOM     90  S   UNL     1       5.023  -8.239   2.476  1.00  0.00     0.241 S 
ATOM     91  O   UNL     1       5.694  -9.344   3.113  1.00  0.00    -0.207 OA
ATOM     92  O   UNL     1       5.707  -6.985   2.259  1.00  0.00    -0.207 OA
BRANCH  90  93
ATOM     93  C   UNL     1       3.554  -7.909   3.431  1.00  0.00     0.082 A 
ATOM     94  C   UNL     1       3.017  -6.617   3.463  1.00  0.00     0.023 A 
ATOM     95  C   UNL     1       3.060  -8.886   4.303  1.00  0.00     0.023 A 
ATOM     96  C   UNL     1       1.976  -6.304   4.341  1.00  0.00     0.022 A 
ATOM     97  C   UNL     1       2.012  -8.573   5.177  1.00  0.00     0.022 A 
ATOM     98  C   UNL     1       1.475  -7.285   5.193  1.00  0.00     0.041 A 
ATOM     99  Cl  UNL     1       0.202  -6.896   6.282  1.00  0.00    -0.084 Cl
ENDBRANCH  90  93
ENDBRANCH  88  90
ENDBRANCH  87  88
ENDBRANCH  81  83
ENDBRANCH  80  81
ENDBRANCH  79  80
ENDBRANCH  78  79
ENDBRANCH  77  78
ENDBRANCH  76  77
ENDBRANCH  75  76
ENDBRANCH   1  75
TORSDOF 26
