REMARK SMILES CC[C@@H](C)N(CC)C(=O)N[C@H]1CCCCC[C@@H]1C(=O)OCCOCCOCCOCCOC(=O)c1ccc(-c2c3nc(c(-c4cc(S(=O)(=O)[O-])ccc4F)c4ccc([nH]4)c(-c4cc(S(=O)(=O)[O-])ccc4F)c4nc(c(-c5cc(S(=O)(=O)[O-])ccc5F)c5ccc2[nH]5)C=C4)C=C3)cc1
REMARK SMILES IDX 25 1 24 2 23 3 22 4 21 5 20 6 18 7 19 8 17 9 11 10 10 11
REMARK SMILES IDX 8 12 9 13 5 15 3 16 4 17 2 18 1 19 6 20 7 21 12 22 13 23
REMARK SMILES IDX 14 24 16 26 15 27 26 29 27 30 28 31 29 32 30 33 31 34 32 35
REMARK SMILES IDX 33 36 34 37 35 38 36 39 97 40 37 41 96 42 38 43 39 44 40 45
REMARK SMILES IDX 90 46 41 47 95 48 89 49 91 50 42 51 94 52 88 53 87 54 43 56
REMARK SMILES IDX 75 57 55 58 74 59 56 60 59 61 73 62 92 63 57 64 58 65 72 67
REMARK SMILES IDX 93 68 60 69 44 70 45 71 53 72 46 73 52 74 54 75 51 76 47 77
REMARK SMILES IDX 48 78 49 79 50 80 76 81 77 82 85 83 78 84 84 85 86 86 83 87
REMARK SMILES IDX 79 88 80 89 81 90 82 91 61 92 62 93 70 94 63 95 69 96 71 97
REMARK SMILES IDX 68 98 64 99 65 100 66 101 67 102
REMARK H PARENT 10 14 91 55 59 66
REMARK Flexibility Score: 100.00
ROOT
ATOM      1  C   UNL     1      -1.570   1.990  -9.054  1.00  0.00     0.188 C 
ENDROOT
BRANCH   1   2
ATOM      2  C   UNL     1      -1.986   2.459  -7.676  1.00  0.00     0.188 C 
BRANCH   2   3
ATOM      3  O   UNL     1      -3.210   3.155  -7.475  1.00  0.00    -0.376 OA
BRANCH   3   4
ATOM      4  C   UNL     1      -3.662   3.047  -6.106  1.00  0.00     0.202 C 
BRANCH   4   5
ATOM      5  C   UNL     1      -2.661   3.443  -4.983  1.00  0.00     0.261 C 
BRANCH   5   6
ATOM      6  O   UNL     1      -1.351   2.859  -5.174  1.00  0.00    -0.463 OA
BRANCH   6   7
ATOM      7  C   UNL     1      -1.025   1.665  -4.617  1.00  0.00     0.311 C 
ATOM      8  O   UNL     1      -1.497   1.224  -3.579  1.00  0.00    -0.252 OA
BRANCH   7   9
ATOM      9  C   UNL     1      -0.011   0.943  -5.522  1.00  0.00     0.121 C 
BRANCH   9  10
ATOM     10  C   UNL     1      -0.290  -0.589  -5.603  1.00  0.00     0.098 C 
BRANCH  10  11
ATOM     11  N   UNL     1      -1.030  -1.018  -6.842  1.00  0.00    -0.334 N 
ATOM     12  C   UNL     1      -2.254  -1.268  -7.347  1.00  0.00     0.317 C 
ATOM     13  O   UNL     1      -2.214  -1.775  -8.473  1.00  0.00    -0.249 OA
ATOM     14  H   UNL     1      -0.368  -1.177  -7.553  1.00  0.00     0.165 HD
BRANCH  12  15
ATOM     15  N   UNL     1      -3.434  -0.964  -6.727  1.00  0.00    -0.322 N 
BRANCH  15  16
ATOM     16  C   UNL     1      -4.736  -1.069  -7.467  1.00  0.00     0.083 C 
ATOM     17  C   UNL     1      -5.356  -2.460  -7.347  1.00  0.00     0.031 C 
BRANCH  16  18
ATOM     18  C   UNL     1      -4.691  -0.618  -8.944  1.00  0.00     0.021 C 
ATOM     19  C   UNL     1      -6.030  -0.121  -9.479  1.00  0.00     0.006 C 
ENDBRANCH  16  18
ENDBRANCH  15  16
BRANCH  15  20
ATOM     20  C   UNL     1      -3.555  -0.613  -5.322  1.00  0.00     0.118 C 
ATOM     21  C   UNL     1      -3.434  -1.791  -4.375  1.00  0.00     0.027 C 
ENDBRANCH  15  20
ENDBRANCH  12  15
ENDBRANCH  10  11
BRANCH  10  22
ATOM     22  C   UNL     1       1.006  -1.440  -5.553  1.00  0.00     0.026 C 
BRANCH  22  23
ATOM     23  C   UNL     1       2.033  -1.172  -6.668  1.00  0.00     0.002 C 
BRANCH  23  24
ATOM     24  C   UNL     1       3.031  -0.064  -6.354  1.00  0.00     0.000 CG0
ATOM     25  G   UNL     1       2.415   1.319  -6.229  1.00  0.00     0.000 G0
ENDBRANCH  23  24
ENDBRANCH  22  23
ENDBRANCH  10  22
ENDBRANCH   9  10
BRANCH   9  26
ATOM     26  C   UNL     1       1.385   1.430  -5.104  1.00  0.00     0.017 C 
BRANCH  26  27
ATOM     27  C   UNL     1       2.415   1.319  -6.229  1.00  0.00     0.001 CG0
ATOM     28  G   UNL     1       3.031  -0.064  -6.354  1.00  0.00     0.000 G0
ENDBRANCH  26  27
ENDBRANCH   9  26
ENDBRANCH   7   9
ENDBRANCH   6   7
ENDBRANCH   5   6
ENDBRANCH   4   5
ENDBRANCH   3   4
ENDBRANCH   2   3
ENDBRANCH   1   2
BRANCH   1  29
ATOM     29  O   UNL     1      -1.433   3.039  -9.989  1.00  0.00    -0.377 OA
BRANCH  29  30
ATOM     30  C   UNL     1      -2.669   3.610 -10.411  1.00  0.00     0.188 C 
BRANCH  30  31
ATOM     31  C   UNL     1      -3.829   2.627 -10.649  1.00  0.00     0.188 C 
BRANCH  31  32
ATOM     32  O   UNL     1      -3.582   1.403 -11.348  1.00  0.00    -0.376 OA
BRANCH  32  33
ATOM     33  C   UNL     1      -2.534   1.326 -12.307  1.00  0.00     0.202 C 
BRANCH  33  34
ATOM     34  C   UNL     1      -2.954   1.748 -13.710  1.00  0.00     0.261 C 
BRANCH  34  35
ATOM     35  O   UNL     1      -3.117   3.170 -13.745  1.00  0.00    -0.460 OA
BRANCH  35  36
ATOM     36  C   UNL     1      -4.400   3.605 -13.657  1.00  0.00     0.338 C 
ATOM     37  O   UNL     1      -5.405   2.947 -13.803  1.00  0.00    -0.246 OA
BRANCH  36  38
ATOM     38  C   UNL     1      -4.381   4.985 -13.105  1.00  0.00     0.060 A 
ATOM     39  C   UNL     1      -5.477   5.385 -12.326  1.00  0.00     0.016 A 
ATOM     40  C   UNL     1      -3.281   5.837 -13.265  1.00  0.00     0.016 A 
ATOM     41  C   UNL     1      -5.507   6.655 -11.759  1.00  0.00     0.010 A 
ATOM     42  C   UNL     1      -3.310   7.111 -12.705  1.00  0.00     0.010 A 
ATOM     43  C   UNL     1      -4.451   7.540 -12.006  1.00  0.00    -0.014 A 
BRANCH  43  44
ATOM     44  C   UNL     1      -4.691   8.992 -11.880  1.00  0.00     0.031 A 
ATOM     45  C   UNL     1      -5.225   9.684 -13.106  1.00  0.00     0.074 A 
ATOM     46  C   UNL     1      -4.430   9.663 -10.746  1.00  0.00     0.049 A 
ATOM     47  N   UNL     1      -5.438  10.952 -13.324  1.00  0.00    -0.248 NA
ATOM     48  C   UNL     1      -5.545   8.815 -14.255  1.00  0.00     0.031 C 
ATOM     49  C   UNL     1      -3.942   9.070  -9.502  1.00  0.00     0.029 A 
ATOM     50  N   UNL     1      -4.522  11.002 -10.470  1.00  0.00    -0.354 N 
ATOM     51  C   UNL     1      -5.902  11.032 -14.633  1.00  0.00     0.074 A 
ATOM     52  C   UNL     1      -5.913   9.693 -15.171  1.00  0.00     0.031 C 
ATOM     53  C   UNL     1      -3.750  10.051  -8.601  1.00  0.00     0.029 A 
ATOM     54  C   UNL     1      -4.069  11.338  -9.216  1.00  0.00     0.049 A 
ATOM     55  H   UNL     1      -4.879  11.661 -11.109  1.00  0.00     0.167 HD
ATOM     56  C   UNL     1      -6.284  12.130 -15.326  1.00  0.00     0.034 A 
ATOM     57  C   UNL     1      -3.905  12.555  -8.657  1.00  0.00     0.034 A 
ATOM     58  C   UNL     1      -6.239  13.456 -14.773  1.00  0.00     0.049 A 
ATOM     59  C   UNL     1      -4.288  13.774  -9.467  1.00  0.00     0.074 A 
ATOM     60  C   UNL     1      -6.606  14.650 -15.362  1.00  0.00     0.029 A 
ATOM     61  N   UNL     1      -5.780  13.760 -13.497  1.00  0.00    -0.354 N 
ATOM     62  N   UNL     1      -4.756  13.838 -10.695  1.00  0.00    -0.248 NA
ATOM     63  C   UNL     1      -4.130  15.080  -8.816  1.00  0.00     0.031 C 
ATOM     64  C   UNL     1      -6.307  15.683 -14.467  1.00  0.00     0.029 A 
ATOM     65  C   UNL     1      -5.825  15.127 -13.291  1.00  0.00     0.049 A 
ATOM     66  H   UNL     1      -5.468  13.099 -12.837  1.00  0.00     0.167 HD
ATOM     67  C   UNL     1      -4.974  15.190 -10.949  1.00  0.00     0.074 A 
ATOM     68  C   UNL     1      -4.601  15.901  -9.743  1.00  0.00     0.031 C 
ATOM     69  C   UNL     1      -5.442  15.797 -12.071  1.00  0.00     0.034 A 
BRANCH  56  70
ATOM     70  C   UNL     1      -6.702  11.928 -16.760  1.00  0.00     0.023 A 
ATOM     71  C   UNL     1      -7.845  11.183 -17.104  1.00  0.00     0.031 A 
ATOM     72  C   UNL     1      -5.906  12.435 -17.802  1.00  0.00     0.131 A 
ATOM     73  C   UNL     1      -8.121  10.910 -18.452  1.00  0.00     0.055 A 
ATOM     74  C   UNL     1      -6.228  12.223 -19.143  1.00  0.00     0.041 A 
ATOM     75  F   UNL     1      -4.785  13.123 -17.532  1.00  0.00    -0.206 F 
ATOM     76  C   UNL     1      -7.334  11.445 -19.475  1.00  0.00     0.022 A 
BRANCH  73  77
ATOM     77  S   UNL     1      -9.446   9.736 -18.849  1.00  0.00     0.124 S 
ATOM     78  O   UNL     1      -8.957   8.515 -18.213  1.00  0.00    -0.237 OA
ATOM     79  O   UNL     1     -10.613  10.355 -18.231  1.00  0.00    -0.237 OA
ATOM     80  O   UNL     1      -9.454   9.709 -20.310  1.00  0.00    -0.744 OA
ENDBRANCH  73  77
ENDBRANCH  56  70
BRANCH  57  81
ATOM     81  C   UNL     1      -3.311  12.697  -7.295  1.00  0.00     0.023 A 
ATOM     82  C   UNL     1      -4.038  13.261  -6.234  1.00  0.00     0.031 A 
ATOM     83  C   UNL     1      -1.975  12.329  -7.051  1.00  0.00     0.131 A 
ATOM     84  C   UNL     1      -3.413  13.486  -4.996  1.00  0.00     0.055 A 
ATOM     85  C   UNL     1      -1.373  12.507  -5.804  1.00  0.00     0.041 A 
ATOM     86  F   UNL     1      -1.231  11.786  -8.028  1.00  0.00    -0.206 F 
ATOM     87  C   UNL     1      -2.090  13.103  -4.771  1.00  0.00     0.022 A 
BRANCH  84  88
ATOM     88  S   UNL     1      -4.330  14.374  -3.706  1.00  0.00     0.124 S 
ATOM     89  O   UNL     1      -4.683  15.613  -4.390  1.00  0.00    -0.237 OA
ATOM     90  O   UNL     1      -5.431  13.455  -3.433  1.00  0.00    -0.237 OA
ATOM     91  O   UNL     1      -3.354  14.511  -2.627  1.00  0.00    -0.744 OA
ENDBRANCH  84  88
ENDBRANCH  57  81
BRANCH  69  92
ATOM     92  C   UNL     1      -5.620  17.293 -12.016  1.00  0.00     0.023 A 
ATOM     93  C   UNL     1      -4.521  18.165 -11.945  1.00  0.00     0.031 A 
ATOM     94  C   UNL     1      -6.911  17.848 -12.047  1.00  0.00     0.131 A 
ATOM     95  C   UNL     1      -4.736  19.547 -11.854  1.00  0.00     0.055 A 
ATOM     96  C   UNL     1      -7.117  19.227 -12.017  1.00  0.00     0.041 A 
ATOM     97  F   UNL     1      -7.994  17.057 -12.118  1.00  0.00    -0.206 F 
ATOM     98  C   UNL     1      -6.026  20.084 -11.907  1.00  0.00     0.022 A 
BRANCH  95  99
ATOM     99  S   UNL     1      -3.310  20.632 -11.581  1.00  0.00     0.124 S 
ATOM    100  O   UNL     1      -2.767  20.110 -10.330  1.00  0.00    -0.237 OA
ATOM    101  O   UNL     1      -2.503  20.395 -12.773  1.00  0.00    -0.237 OA
ATOM    102  O   UNL     1      -3.905  21.964 -11.491  1.00  0.00    -0.744 OA
ENDBRANCH  95  99
ENDBRANCH  69  92
ENDBRANCH  43  44
ENDBRANCH  36  38
ENDBRANCH  35  36
ENDBRANCH  34  35
ENDBRANCH  33  34
ENDBRANCH  32  33
ENDBRANCH  31  32
ENDBRANCH  30  31
ENDBRANCH  29  30
ENDBRANCH   1  29
TORSDOF 28
