REMARK SMILES Cc1c([C@H]2[C@H](C(=O)OCCOCCOCCOCCOC(=O)c3ccc(-c4c5nc(c(-c6cc(S(=O)(=O)[O-])ccc6F)c6ccc([nH]6)c(-c6cc(S(=O)(=O)[O-])ccc6F)c6nc(c(-c7cc(S(=O)(=O)[O-])ccc7F)c7ccc4[nH]7)C=C6)C=C5)cc3)OCC(=O)N2CC(C)C)cnn1C
REMARK SMILES IDX 15 1 14 2 13 3 12 4 11 5 10 6 9 7 8 8 6 9 7 10 5 11 4 12
REMARK SMILES IDX 90 13 86 14 88 15 87 16 89 17 3 18 1 19 2 20 97 21 95 22
REMARK SMILES IDX 96 23 98 24 91 25 92 26 93 27 94 28 16 29 17 30 18 31 19 32
REMARK SMILES IDX 20 33 21 34 22 35 23 36 24 37 85 38 25 39 84 40 26 41 27 42
REMARK SMILES IDX 28 43 78 44 29 45 83 46 77 47 79 48 30 49 82 50 76 51 75 52
REMARK SMILES IDX 31 54 63 55 43 56 62 57 44 58 47 59 61 60 80 61 45 62 46 63
REMARK SMILES IDX 60 65 81 66 48 67 32 68 33 69 41 70 34 71 40 72 42 73 39 74
REMARK SMILES IDX 35 75 36 76 37 77 38 78 64 79 65 80 73 81 66 82 72 83 74 84
REMARK SMILES IDX 71 85 67 86 68 87 69 88 70 89 49 90 50 91 58 92 51 93 57 94
REMARK SMILES IDX 59 95 56 96 52 97 53 98 54 99 55 100
REMARK H PARENT 79 53 47 64
REMARK Flexibility Score: inf
ROOT
ATOM      1  C   UNL     1      -4.885  -0.516   0.011  1.00  0.00     0.188 C 
ENDROOT
BRANCH   1   2
ATOM      2  O   UNL     1      -4.028  -1.642  -0.159  1.00  0.00    -0.377 OA
BRANCH   2   3
ATOM      3  C   UNL     1      -3.427  -1.747  -1.427  1.00  0.00     0.188 C 
BRANCH   3   4
ATOM      4  C   UNL     1      -4.058  -2.805  -2.338  1.00  0.00     0.188 C 
BRANCH   4   5
ATOM      5  O   UNL     1      -5.393  -3.236  -2.146  1.00  0.00    -0.376 OA
BRANCH   5   6
ATOM      6  C   UNL     1      -5.875  -3.612  -0.864  1.00  0.00     0.202 C 
BRANCH   6   7
ATOM      7  C   UNL     1      -5.073  -4.456   0.145  1.00  0.00     0.261 C 
BRANCH   7   8
ATOM      8  O   UNL     1      -3.642  -4.338   0.139  1.00  0.00    -0.461 OA
BRANCH   8   9
ATOM      9  C   UNL     1      -2.985  -5.333  -0.502  1.00  0.00     0.337 C 
ATOM     10  O   UNL     1      -3.542  -6.236  -1.121  1.00  0.00    -0.249 OA
BRANCH   9  11
ATOM     11  C   UNL     1      -1.457  -5.255  -0.374  1.00  0.00     0.255 C 
ATOM     12  C   UNL     1      -0.818  -3.885  -0.002  1.00  0.00     0.159 C 
ATOM     13  N   UNL     1      -0.551  -3.664   1.436  1.00  0.00    -0.330 N 
ATOM     14  O   UNL     1      -0.901  -6.302   0.416  1.00  0.00    -0.354 OA
ATOM     15  C   UNL     1      -0.723  -4.699   2.355  1.00  0.00     0.249 C 
ATOM     16  C   UNL     1      -1.149  -6.062   1.788  1.00  0.00     0.261 C 
ATOM     17  O   UNL     1      -0.623  -4.541   3.571  1.00  0.00    -0.272 OA
BRANCH  12  18
ATOM     18  C   UNL     1       0.403  -3.688  -0.881  1.00  0.00     0.019 A 
ATOM     19  C   UNL     1      -0.588  -2.782  -3.158  1.00  0.00     0.067 C 
ATOM     20  C   UNL     1       0.453  -3.279  -2.219  1.00  0.00     0.040 A 
ATOM     21  N   UNL     1       1.740  -3.521  -2.633  1.00  0.00    -0.273 N 
ATOM     22  C   UNL     1       1.741  -4.045  -0.592  1.00  0.00     0.141 A 
ATOM     23  N   UNL     1       2.552  -3.917  -1.643  1.00  0.00    -0.181 NA
ATOM     24  C   UNL     1       2.221  -3.531  -3.997  1.00  0.00     0.174 C 
ENDBRANCH  12  18
BRANCH  13  25
ATOM     25  C   UNL     1      -0.436  -2.283   1.966  1.00  0.00     0.123 C 
BRANCH  25  26
ATOM     26  C   UNL     1       1.003  -1.745   2.135  1.00  0.00     0.002 C 
ATOM     27  C   UNL     1       1.419  -0.851   0.963  1.00  0.00     0.009 C 
ATOM     28  C   UNL     1       1.128  -0.901   3.415  1.00  0.00     0.009 C 
ENDBRANCH  25  26
ENDBRANCH  13  25
ENDBRANCH   9  11
ENDBRANCH   8   9
ENDBRANCH   7   8
ENDBRANCH   6   7
ENDBRANCH   5   6
ENDBRANCH   4   5
ENDBRANCH   3   4
ENDBRANCH   2   3
ENDBRANCH   1   2
BRANCH   1  29
ATOM     29  C   UNL     1      -5.730  -0.058  -1.204  1.00  0.00     0.188 C 
BRANCH  29  30
ATOM     30  O   UNL     1      -5.000   0.119  -2.414  1.00  0.00    -0.376 OA
BRANCH  30  31
ATOM     31  C   UNL     1      -4.510   1.410  -2.751  1.00  0.00     0.202 C 
BRANCH  31  32
ATOM     32  C   UNL     1      -3.491   2.088  -1.815  1.00  0.00     0.261 C 
BRANCH  32  33
ATOM     33  O   UNL     1      -3.891   2.282  -0.451  1.00  0.00    -0.460 OA
BRANCH  33  34
ATOM     34  C   UNL     1      -5.030   2.970  -0.222  1.00  0.00     0.338 C 
ATOM     35  O   UNL     1      -5.731   3.514  -1.059  1.00  0.00    -0.246 OA
BRANCH  34  36
ATOM     36  C   UNL     1      -5.408   2.757   1.191  1.00  0.00     0.060 A 
ATOM     37  C   UNL     1      -6.647   2.167   1.480  1.00  0.00     0.016 A 
ATOM     38  C   UNL     1      -4.544   3.124   2.225  1.00  0.00     0.016 A 
ATOM     39  C   UNL     1      -7.041   1.977   2.803  1.00  0.00     0.010 A 
ATOM     40  C   UNL     1      -4.954   2.961   3.552  1.00  0.00     0.010 A 
ATOM     41  C   UNL     1      -6.219   2.421   3.845  1.00  0.00    -0.014 A 
BRANCH  41  42
ATOM     42  C   UNL     1      -6.776   2.533   5.216  1.00  0.00     0.031 A 
ATOM     43  C   UNL     1      -7.292   3.876   5.659  1.00  0.00     0.074 A 
ATOM     44  C   UNL     1      -6.854   1.469   6.036  1.00  0.00     0.049 A 
ATOM     45  N   UNL     1      -7.767   4.245   6.819  1.00  0.00    -0.248 NA
ATOM     46  C   UNL     1      -7.262   4.949   4.651  1.00  0.00     0.031 C 
ATOM     47  C   UNL     1      -6.449   0.107   5.694  1.00  0.00     0.029 A 
ATOM     48  N   UNL     1      -7.299   1.373   7.331  1.00  0.00    -0.354 N 
ATOM     49  C   UNL     1      -8.078   5.595   6.687  1.00  0.00     0.074 A 
ATOM     50  C   UNL     1      -7.709   5.984   5.343  1.00  0.00     0.031 C 
ATOM     51  C   UNL     1      -6.657  -0.688   6.759  1.00  0.00     0.029 A 
ATOM     52  C   UNL     1      -7.165   0.115   7.870  1.00  0.00     0.049 A 
ATOM     53  H   UNL     1      -7.678   2.134   7.827  1.00  0.00     0.167 HD
ATOM     54  C   UNL     1      -8.622   6.431   7.604  1.00  0.00     0.034 A 
ATOM     55  C   UNL     1      -7.397  -0.325   9.125  1.00  0.00     0.034 A 
ATOM     56  C   UNL     1      -8.977   6.026   8.942  1.00  0.00     0.049 A 
ATOM     57  C   UNL     1      -7.907   0.654  10.161  1.00  0.00     0.074 A 
ATOM     58  C   UNL     1      -9.556   6.784   9.944  1.00  0.00     0.029 A 
ATOM     59  N   UNL     1      -8.771   4.759   9.472  1.00  0.00    -0.354 N 
ATOM     60  N   UNL     1      -8.207   1.926  10.023  1.00  0.00    -0.248 NA
ATOM     61  C   UNL     1      -8.113   0.134  11.520  1.00  0.00     0.031 C 
ATOM     62  C   UNL     1      -9.615   6.005  11.103  1.00  0.00     0.029 A 
ATOM     63  C   UNL     1      -9.169   4.729  10.800  1.00  0.00     0.049 A 
ATOM     64  H   UNL     1      -8.397   3.994   8.977  1.00  0.00     0.167 HD
ATOM     65  C   UNL     1      -8.678   2.342  11.268  1.00  0.00     0.074 A 
ATOM     66  C   UNL     1      -8.632   1.185  12.136  1.00  0.00     0.031 C 
ATOM     67  C   UNL     1      -9.115   3.568  11.657  1.00  0.00     0.034 A 
BRANCH  54  68
ATOM     68  C   UNL     1      -8.800   7.877   7.212  1.00  0.00     0.023 A 
ATOM     69  C   UNL     1      -9.665   8.271   6.176  1.00  0.00     0.031 A 
ATOM     70  C   UNL     1      -8.073   8.880   7.879  1.00  0.00     0.131 A 
ATOM     71  C   UNL     1      -9.732   9.620   5.796  1.00  0.00     0.055 A 
ATOM     72  C   UNL     1      -8.208  10.230   7.552  1.00  0.00     0.041 A 
ATOM     73  F   UNL     1      -7.209   8.562   8.856  1.00  0.00    -0.206 F 
ATOM     74  C   UNL     1      -9.032  10.606   6.495  1.00  0.00     0.022 A 
BRANCH  71  75
ATOM     75  S   UNL     1     -10.634  10.052   4.282  1.00  0.00     0.124 S 
ATOM     76  O   UNL     1      -9.938   9.244   3.283  1.00  0.00    -0.237 OA
ATOM     77  O   UNL     1     -11.997   9.641   4.599  1.00  0.00    -0.237 OA
ATOM     78  O   UNL     1     -10.428  11.493   4.160  1.00  0.00    -0.744 OA
ENDBRANCH  71  75
ENDBRANCH  54  68
BRANCH  55  79
ATOM     79  C   UNL     1      -7.115  -1.742   9.504  1.00  0.00     0.023 A 
ATOM     80  C   UNL     1      -8.135  -2.579   9.986  1.00  0.00     0.031 A 
ATOM     81  C   UNL     1      -5.806  -2.255   9.471  1.00  0.00     0.131 A 
ATOM     82  C   UNL     1      -7.821  -3.859  10.471  1.00  0.00     0.055 A 
ATOM     83  C   UNL     1      -5.509  -3.553   9.893  1.00  0.00     0.041 A 
ATOM     84  F   UNL     1      -4.790  -1.496   9.031  1.00  0.00    -0.206 F 
ATOM     85  C   UNL     1      -6.518  -4.357  10.412  1.00  0.00     0.022 A 
BRANCH  82  86
ATOM     86  S   UNL     1      -9.125  -4.818  11.290  1.00  0.00     0.124 S 
ATOM     87  O   UNL     1      -9.527  -3.914  12.361  1.00  0.00    -0.237 OA
ATOM     88  O   UNL     1     -10.088  -5.003  10.210  1.00  0.00    -0.237 OA
ATOM     89  O   UNL     1      -8.434  -6.031  11.722  1.00  0.00    -0.744 OA
ENDBRANCH  82  86
ENDBRANCH  55  79
BRANCH  67  90
ATOM     90  C   UNL     1      -9.640   3.703  13.069  1.00  0.00     0.023 A 
ATOM     91  C   UNL     1      -8.813   3.537  14.193  1.00  0.00     0.031 A 
ATOM     92  C   UNL     1     -10.998   4.002  13.288  1.00  0.00     0.131 A 
ATOM     93  C   UNL     1      -9.362   3.612  15.482  1.00  0.00     0.055 A 
ATOM     94  C   UNL     1     -11.523   4.147  14.573  1.00  0.00     0.041 A 
ATOM     95  F   UNL     1     -11.838   4.168  12.254  1.00  0.00    -0.206 F 
ATOM     96  C   UNL     1     -10.707   3.937  15.680  1.00  0.00     0.022 A 
BRANCH  93  97
ATOM     97  S   UNL     1      -8.319   3.176  16.901  1.00  0.00     0.124 S 
ATOM     98  O   UNL     1      -7.913   1.814  16.571  1.00  0.00    -0.237 OA
ATOM     99  O   UNL     1      -7.268   4.187  16.838  1.00  0.00    -0.237 OA
ATOM    100  O   UNL     1      -9.225   3.295  18.042  1.00  0.00    -0.744 OA
ENDBRANCH  93  97
ENDBRANCH  67  90
ENDBRANCH  41  42
ENDBRANCH  34  36
ENDBRANCH  33  34
ENDBRANCH  32  33
ENDBRANCH  31  32
ENDBRANCH  30  31
ENDBRANCH  29  30
ENDBRANCH   1  29
TORSDOF 26
