REMARK SMILES C[C@](NC(=O)[C@](C)([NH3+])C(F)(F)F)(C(=O)OCCOCCOCCOCCOC(=O)c1ccc(-c2c3nc(c(-c4cc(S(=O)(=O)[O-])ccc4F)c4ccc([nH]4)c(-c4cc(S(=O)(=O)[O-])ccc4F)c4nc(c(-c5cc(S(=O)(=O)[O-])ccc5F)c5ccc2[nH]5)C=C4)C=C3)cc1)c1ccccc1
REMARK SMILES IDX 21 1 20 2 19 3 18 4 17 5 16 6 15 7 13 8 14 9 2 10 1 11 93 12
REMARK SMILES IDX 94 13 98 14 95 15 97 16 96 17 3 18 4 19 5 21 6 22 7 23 8 24
REMARK SMILES IDX 9 28 10 29 11 30 12 31 22 32 23 33 24 34 25 35 26 36 27 37
REMARK SMILES IDX 28 38 29 39 30 40 31 41 92 42 32 43 91 44 33 45 34 46 35 47
REMARK SMILES IDX 85 48 36 49 90 50 84 51 86 52 37 53 89 54 83 55 82 56 38 58
REMARK SMILES IDX 70 59 50 60 69 61 51 62 54 63 68 64 87 65 52 66 53 67 67 69
REMARK SMILES IDX 88 70 55 71 39 72 40 73 48 74 41 75 47 76 49 77 46 78 42 79
REMARK SMILES IDX 43 80 44 81 45 82 71 83 72 84 80 85 73 86 79 87 81 88 78 89
REMARK SMILES IDX 74 90 75 91 76 92 77 93 56 94 57 95 65 96 58 97 64 98 66 99
REMARK SMILES IDX 63 100 59 101 60 102 61 103 62 104
REMARK H PARENT 3 20 8 25 8 26 8 27 86 57 54 68
REMARK Flexibility Score: inf
ROOT
ATOM      1  O   UNL     1      -0.479  -6.863  -0.341  1.00  0.00    -0.377 OA
ENDROOT
BRANCH   1   2
ATOM      2  C   UNL     1      -0.861  -6.469  -1.642  1.00  0.00     0.188 C 
BRANCH   2   3
ATOM      3  C   UNL     1      -0.319  -7.381  -2.772  1.00  0.00     0.188 C 
BRANCH   3   4
ATOM      4  O   UNL     1       0.514  -8.490  -2.478  1.00  0.00    -0.376 OA
BRANCH   4   5
ATOM      5  C   UNL     1       1.481  -8.387  -1.445  1.00  0.00     0.202 C 
BRANCH   5   6
ATOM      6  C   UNL     1       2.406  -7.158  -1.337  1.00  0.00     0.261 C 
BRANCH   6   7
ATOM      7  O   UNL     1       1.836  -5.858  -1.599  1.00  0.00    -0.461 OA
BRANCH   7   8
ATOM      8  C   UNL     1       2.105  -5.312  -2.813  1.00  0.00     0.336 C 
ATOM      9  O   UNL     1       2.748  -5.891  -3.685  1.00  0.00    -0.249 OA
BRANCH   8  10
ATOM     10  C   UNL     1       1.615  -3.812  -2.965  1.00  0.00     0.161 C 
ATOM     11  C   UNL     1       2.962  -3.080  -2.963  1.00  0.00     0.053 C 
BRANCH  10  12
ATOM     12  C   UNL     1       0.891  -3.677  -4.355  1.00  0.00    -0.012 A 
ATOM     13  C   UNL     1       1.343  -2.816  -5.367  1.00  0.00     0.007 A 
ATOM     14  C   UNL     1      -0.271  -4.423  -4.649  1.00  0.00     0.007 A 
ATOM     15  C   UNL     1       0.730  -2.782  -6.627  1.00  0.00     0.000 A 
ATOM     16  C   UNL     1      -0.865  -4.421  -5.915  1.00  0.00     0.000 A 
ATOM     17  C   UNL     1      -0.353  -3.607  -6.912  1.00  0.00     0.000 A 
ENDBRANCH  10  12
BRANCH  10  18
ATOM     18  N   UNL     1       0.646  -3.236  -1.966  1.00  0.00    -0.331 N 
ATOM     19  C   UNL     1       0.526  -2.622  -0.767  1.00  0.00     0.291 C 
ATOM     20  H   UNL     1      -0.261  -3.355  -2.331  1.00  0.00     0.165 HD
ATOM     21  O   UNL     1      -0.663  -2.454  -0.447  1.00  0.00    -0.267 OA
BRANCH  19  22
ATOM     22  C   UNL     1       1.637  -2.079   0.157  1.00  0.00     0.267 C 
ATOM     23  C   UNL     1       1.030  -1.067   1.157  1.00  0.00     0.100 C 
BRANCH  22  24
ATOM     24  N   UNL     1       2.611  -1.226  -0.595  1.00  0.00    -0.337 N 
ATOM     25  H   UNL     1       3.329  -0.885   0.044  1.00  0.00     0.345 HD
ATOM     26  H   UNL     1       2.120  -0.434  -1.010  1.00  0.00     0.345 HD
ATOM     27  H   UNL     1       3.048  -1.779  -1.333  1.00  0.00     0.345 HD
ENDBRANCH  22  24
BRANCH  22  28
ATOM     28  C   UNL     1       2.191  -3.266   0.968  1.00  0.00     0.453 C 
ATOM     29  F   UNL     1       3.182  -2.857   1.801  1.00  0.00    -0.164 F 
ATOM     30  F   UNL     1       1.252  -3.865   1.727  1.00  0.00    -0.164 F 
ATOM     31  F   UNL     1       2.742  -4.198   0.159  1.00  0.00    -0.164 F 
ENDBRANCH  22  28
ENDBRANCH  19  22
ENDBRANCH  10  18
ENDBRANCH   8  10
ENDBRANCH   7   8
ENDBRANCH   6   7
ENDBRANCH   5   6
ENDBRANCH   4   5
ENDBRANCH   3   4
ENDBRANCH   2   3
ENDBRANCH   1   2
BRANCH   1  32
ATOM     32  C   UNL     1      -1.413  -7.686   0.344  1.00  0.00     0.188 C 
BRANCH  32  33
ATOM     33  C   UNL     1      -2.108  -8.785  -0.486  1.00  0.00     0.188 C 
BRANCH  33  34
ATOM     34  O   UNL     1      -2.749  -8.293  -1.660  1.00  0.00    -0.376 OA
BRANCH  34  35
ATOM     35  C   UNL     1      -4.143  -8.034  -1.650  1.00  0.00     0.202 C 
BRANCH  35  36
ATOM     36  C   UNL     1      -4.664  -6.886  -0.768  1.00  0.00     0.261 C 
BRANCH  36  37
ATOM     37  O   UNL     1      -4.332  -6.940   0.624  1.00  0.00    -0.460 OA
BRANCH  37  38
ATOM     38  C   UNL     1      -4.692  -8.050   1.302  1.00  0.00     0.338 C 
ATOM     39  O   UNL     1      -5.343  -8.986   0.867  1.00  0.00    -0.246 OA
BRANCH  38  40
ATOM     40  C   UNL     1      -3.966  -8.055   2.588  1.00  0.00     0.060 A 
ATOM     41  C   UNL     1      -3.194  -9.178   2.913  1.00  0.00     0.016 A 
ATOM     42  C   UNL     1      -4.044  -6.969   3.466  1.00  0.00     0.016 A 
ATOM     43  C   UNL     1      -2.558  -9.253   4.148  1.00  0.00     0.010 A 
ATOM     44  C   UNL     1      -3.432  -7.058   4.718  1.00  0.00     0.010 A 
ATOM     45  C   UNL     1      -2.741  -8.227   5.083  1.00  0.00    -0.014 A 
BRANCH  45  46
ATOM     46  C   UNL     1      -2.488  -8.537   6.511  1.00  0.00     0.031 A 
ATOM     47  C   UNL     1      -3.662  -8.996   7.338  1.00  0.00     0.074 A 
ATOM     48  C   UNL     1      -1.250  -8.507   7.034  1.00  0.00     0.049 A 
ATOM     49  N   UNL     1      -3.710  -9.357   8.592  1.00  0.00    -0.248 NA
ATOM     50  C   UNL     1      -4.961  -9.052   6.646  1.00  0.00     0.031 C 
ATOM     51  C   UNL     1      -0.034  -8.147   6.308  1.00  0.00     0.029 A 
ATOM     52  N   UNL     1      -0.815  -8.800   8.301  1.00  0.00    -0.354 N 
ATOM     53  C   UNL     1      -5.042  -9.673   8.842  1.00  0.00     0.074 A 
ATOM     54  C   UNL     1      -5.774  -9.418   7.622  1.00  0.00     0.031 C 
ATOM     55  C   UNL     1       1.015  -8.247   7.144  1.00  0.00     0.029 A 
ATOM     56  C   UNL     1       0.540  -8.642   8.470  1.00  0.00     0.049 A 
ATOM     57  H   UNL     1      -1.416  -9.096   9.022  1.00  0.00     0.167 HD
ATOM     58  C   UNL     1      -5.603 -10.144   9.982  1.00  0.00     0.034 A 
ATOM     59  C   UNL     1       1.300  -8.788   9.574  1.00  0.00     0.034 A 
ATOM     60  C   UNL     1      -4.856 -10.383  11.192  1.00  0.00     0.049 A 
ATOM     61  C   UNL     1       0.638  -9.226  10.861  1.00  0.00     0.074 A 
ATOM     62  C   UNL     1      -5.314 -10.862  12.406  1.00  0.00     0.029 A 
ATOM     63  N   UNL     1      -3.495 -10.148  11.345  1.00  0.00    -0.354 N 
ATOM     64  N   UNL     1      -0.622  -9.522  11.089  1.00  0.00    -0.248 NA
ATOM     65  C   UNL     1       1.508  -9.364  12.036  1.00  0.00     0.031 C 
ATOM     66  C   UNL     1      -4.252 -10.831  13.316  1.00  0.00     0.029 A 
ATOM     67  C   UNL     1      -3.105 -10.437  12.643  1.00  0.00     0.049 A 
ATOM     68  H   UNL     1      -2.895  -9.823  10.635  1.00  0.00     0.167 HD
ATOM     69  C   UNL     1      -0.683  -9.932  12.421  1.00  0.00     0.074 A 
ATOM     70  C   UNL     1       0.668  -9.850  12.937  1.00  0.00     0.031 C 
ATOM     71  C   UNL     1      -1.753 -10.350  13.147  1.00  0.00     0.034 A 
BRANCH  58  72
ATOM     72  C   UNL     1      -7.099 -10.352   9.985  1.00  0.00     0.023 A 
ATOM     73  C   UNL     1      -7.730 -11.272   9.127  1.00  0.00     0.031 A 
ATOM     74  C   UNL     1      -7.915  -9.576  10.828  1.00  0.00     0.131 A 
ATOM     75  C   UNL     1      -9.131 -11.334   9.075  1.00  0.00     0.055 A 
ATOM     76  C   UNL     1      -9.305  -9.709  10.837  1.00  0.00     0.041 A 
ATOM     77  F   UNL     1      -7.376  -8.658  11.646  1.00  0.00    -0.206 F 
ATOM     78  C   UNL     1      -9.922 -10.579   9.944  1.00  0.00     0.022 A 
BRANCH  75  79
ATOM     79  S   UNL     1      -9.910 -12.286   7.741  1.00  0.00     0.124 S 
ATOM     80  O   UNL     1      -9.344 -11.648   6.554  1.00  0.00    -0.237 OA
ATOM     81  O   UNL     1      -9.455 -13.644   8.015  1.00  0.00    -0.237 OA
ATOM     82  O   UNL     1     -11.339 -12.053   7.942  1.00  0.00    -0.744 OA
ENDBRANCH  75  79
ENDBRANCH  58  72
BRANCH  59  83
ATOM     83  C   UNL     1       2.765  -8.503   9.534  1.00  0.00     0.023 A 
ATOM     84  C   UNL     1       3.709  -9.503   9.818  1.00  0.00     0.031 A 
ATOM     85  C   UNL     1       3.240  -7.204   9.278  1.00  0.00     0.131 A 
ATOM     86  C   UNL     1       5.073  -9.177   9.894  1.00  0.00     0.055 A 
ATOM     87  C   UNL     1       4.602  -6.899   9.295  1.00  0.00     0.041 A 
ATOM     88  F   UNL     1       2.382  -6.207   9.008  1.00  0.00    -0.206 F 
ATOM     89  C   UNL     1       5.527  -7.886   9.619  1.00  0.00     0.022 A 
BRANCH  86  90
ATOM     90  S   UNL     1       6.239 -10.447  10.460  1.00  0.00     0.124 S 
ATOM     91  O   UNL     1       5.703 -10.775  11.776  1.00  0.00    -0.237 OA
ATOM     92  O   UNL     1       6.092 -11.473   9.432  1.00  0.00    -0.237 OA
ATOM     93  O   UNL     1       7.524  -9.751  10.463  1.00  0.00    -0.744 OA
ENDBRANCH  86  90
ENDBRANCH  59  83
BRANCH  71  94
ATOM     94  C   UNL     1      -1.488 -10.827  14.558  1.00  0.00     0.023 A 
ATOM     95  C   UNL     1      -0.985  -9.976  15.557  1.00  0.00     0.031 A 
ATOM     96  C   UNL     1      -1.723 -12.172  14.898  1.00  0.00     0.131 A 
ATOM     97  C   UNL     1      -0.658 -10.495  16.819  1.00  0.00     0.055 A 
ATOM     98  C   UNL     1      -1.473 -12.664  16.180  1.00  0.00     0.041 A 
ATOM     99  F   UNL     1      -2.200 -13.036  13.987  1.00  0.00    -0.206 F 
ATOM    100  C   UNL     1      -0.919 -11.829  17.143  1.00  0.00     0.022 A 
BRANCH  97 101
ATOM    101  S   UNL     1       0.241  -9.439  17.989  1.00  0.00     0.124 S 
ATOM    102  O   UNL     1       1.401  -9.035  17.202  1.00  0.00    -0.237 OA
ATOM    103  O   UNL     1      -0.733  -8.390  18.273  1.00  0.00    -0.237 OA
ATOM    104  O   UNL     1       0.531 -10.335  19.107  1.00  0.00    -0.744 OA
ENDBRANCH  97 101
ENDBRANCH  71  94
ENDBRANCH  45  46
ENDBRANCH  38  40
ENDBRANCH  37  38
ENDBRANCH  36  37
ENDBRANCH  35  36
ENDBRANCH  34  35
ENDBRANCH  33  34
ENDBRANCH  32  33
ENDBRANCH   1  32
TORSDOF 28
