REMARK SMILES Cc1c(CC(=O)OCCOCCOCCOCCOC(=O)c2ccc(-c3c4nc(c(-c5cc(S(=O)(=O)[O-])ccc5F)c5ccc([nH]5)c(-c5cc(S(=O)(=O)[O-])ccc5F)c5nc(c(-c6cc(S(=O)(=O)[O-])ccc6F)c6ccc3[nH]6)C=C5)C=C4)cc2)cc(-c2ccccc2)cc1-c1ccccc1
REMARK SMILES IDX 14 1 13 2 12 3 11 4 10 5 9 6 8 7 7 8 5 9 6 10 4 11 3 12 1 13
REMARK SMILES IDX 2 14 94 15 85 16 93 17 86 18 95 19 96 20 100 21 97 22 99 23
REMARK SMILES IDX 98 24 87 25 88 26 92 27 89 28 91 29 90 30 15 31 16 32 17 33
REMARK SMILES IDX 18 34 19 35 20 36 21 37 22 38 23 39 84 40 24 41 83 42 25 43
REMARK SMILES IDX 26 44 27 45 77 46 28 47 82 48 76 49 78 50 29 51 81 52 75 53
REMARK SMILES IDX 74 54 30 56 62 57 42 58 61 59 43 60 46 61 60 62 79 63 44 64
REMARK SMILES IDX 45 65 59 67 80 68 47 69 31 70 32 71 40 72 33 73 39 74 41 75
REMARK SMILES IDX 38 76 34 77 35 78 36 79 37 80 63 81 64 82 72 83 65 84 71 85
REMARK SMILES IDX 73 86 70 87 66 88 67 89 68 90 69 91 48 92 49 93 57 94 50 95
REMARK SMILES IDX 56 96 58 97 55 98 51 99 52 100 53 101 54 102
REMARK H PARENT 78 55 46 66
REMARK Flexibility Score: inf
ROOT
ATOM      1  C   UNL     1      -2.600  -1.942   2.726  1.00  0.00     0.188 C 
ENDROOT
BRANCH   1   2
ATOM      2  O   UNL     1      -1.460  -1.931   1.913  1.00  0.00    -0.377 OA
BRANCH   2   3
ATOM      3  C   UNL     1      -1.549  -2.261   0.554  1.00  0.00     0.188 C 
BRANCH   3   4
ATOM      4  C   UNL     1      -1.988  -3.601  -0.071  1.00  0.00     0.188 C 
BRANCH   4   5
ATOM      5  O   UNL     1      -1.585  -4.867   0.413  1.00  0.00    -0.376 OA
BRANCH   5   6
ATOM      6  C   UNL     1      -0.354  -4.917   1.101  1.00  0.00     0.202 C 
BRANCH   6   7
ATOM      7  C   UNL     1       0.928  -4.823   0.275  1.00  0.00     0.261 C 
BRANCH   7   8
ATOM      8  O   UNL     1       1.176  -3.512  -0.270  1.00  0.00    -0.463 OA
BRANCH   8   9
ATOM      9  C   UNL     1       0.973  -3.371  -1.602  1.00  0.00     0.310 C 
ATOM     10  O   UNL     1       0.598  -4.269  -2.349  1.00  0.00    -0.252 OA
BRANCH   9  11
ATOM     11  C   UNL     1       1.337  -1.999  -2.124  1.00  0.00     0.158 C 
BRANCH  11  12
ATOM     12  C   UNL     1       0.615  -0.763  -1.591  1.00  0.00    -0.033 A 
ATOM     13  C   UNL     1       2.758   0.052  -0.476  1.00  0.00     0.045 C 
ATOM     14  C   UNL     1       1.316   0.247  -0.885  1.00  0.00    -0.039 A 
ATOM     15  C   UNL     1       0.654   1.455  -0.561  1.00  0.00    -0.015 A 
ATOM     16  C   UNL     1      -0.772  -0.573  -1.848  1.00  0.00     0.013 A 
ATOM     17  C   UNL     1      -0.740   1.528  -0.697  1.00  0.00     0.017 A 
ATOM     18  C   UNL     1      -1.487   0.522  -1.309  1.00  0.00    -0.017 A 
BRANCH  15  19
ATOM     19  C   UNL     1       1.360   2.719  -0.286  1.00  0.00    -0.018 A 
ATOM     20  C   UNL     1       1.065   3.530   0.816  1.00  0.00     0.009 A 
ATOM     21  C   UNL     1       2.230   3.224  -1.267  1.00  0.00     0.009 A 
ATOM     22  C   UNL     1       1.601   4.816   0.921  1.00  0.00     0.001 A 
ATOM     23  C   UNL     1       2.774   4.502  -1.162  1.00  0.00     0.001 A 
ATOM     24  C   UNL     1       2.450   5.303  -0.071  1.00  0.00     0.000 A 
ENDBRANCH  15  19
BRANCH  18  25
ATOM     25  C   UNL     1      -2.967   0.620  -1.256  1.00  0.00    -0.018 A 
ATOM     26  C   UNL     1      -3.604   0.851  -0.016  1.00  0.00     0.009 A 
ATOM     27  C   UNL     1      -3.789   0.505  -2.379  1.00  0.00     0.009 A 
ATOM     28  C   UNL     1      -4.997   0.901   0.112  1.00  0.00     0.001 A 
ATOM     29  C   UNL     1      -5.188   0.588  -2.260  1.00  0.00     0.001 A 
ATOM     30  C   UNL     1      -5.792   0.762  -1.014  1.00  0.00     0.000 A 
ENDBRANCH  18  25
ENDBRANCH  11  12
ENDBRANCH   9  11
ENDBRANCH   8   9
ENDBRANCH   7   8
ENDBRANCH   6   7
ENDBRANCH   5   6
ENDBRANCH   4   5
ENDBRANCH   3   4
ENDBRANCH   2   3
ENDBRANCH   1   2
BRANCH   1  31
ATOM     31  C   UNL     1      -3.965  -1.844   2.149  1.00  0.00     0.188 C 
BRANCH  31  32
ATOM     32  O   UNL     1      -4.322  -3.147   1.710  1.00  0.00    -0.376 OA
BRANCH  32  33
ATOM     33  C   UNL     1      -5.613  -3.215   1.141  1.00  0.00     0.202 C 
BRANCH  33  34
ATOM     34  C   UNL     1      -6.695  -2.846   2.161  1.00  0.00     0.261 C 
BRANCH  34  35
ATOM     35  O   UNL     1      -6.568  -3.718   3.312  1.00  0.00    -0.460 OA
BRANCH  35  36
ATOM     36  C   UNL     1      -6.120  -3.146   4.465  1.00  0.00     0.338 C 
ATOM     37  O   UNL     1      -6.628  -2.159   4.992  1.00  0.00    -0.246 OA
BRANCH  36  38
ATOM     38  C   UNL     1      -4.830  -3.769   4.909  1.00  0.00     0.060 A 
ATOM     39  C   UNL     1      -4.012  -3.147   5.875  1.00  0.00     0.016 A 
ATOM     40  C   UNL     1      -4.299  -4.804   4.149  1.00  0.00     0.016 A 
ATOM     41  C   UNL     1      -2.629  -3.444   5.958  1.00  0.00     0.010 A 
ATOM     42  C   UNL     1      -2.929  -5.018   4.170  1.00  0.00     0.010 A 
ATOM     43  C   UNL     1      -2.054  -4.321   5.038  1.00  0.00    -0.014 A 
BRANCH  43  44
ATOM     44  C   UNL     1      -0.603  -4.441   4.691  1.00  0.00     0.031 A 
ATOM     45  C   UNL     1      -0.085  -5.828   4.419  1.00  0.00     0.074 A 
ATOM     46  C   UNL     1       0.118  -3.366   4.240  1.00  0.00     0.049 A 
ATOM     47  N   UNL     1       1.053  -6.097   3.886  1.00  0.00    -0.248 NA
ATOM     48  C   UNL     1      -0.852  -7.053   4.658  1.00  0.00     0.031 C 
ATOM     49  C   UNL     1       1.275  -3.378   3.323  1.00  0.00     0.029 A 
ATOM     50  N   UNL     1      -0.085  -1.989   4.405  1.00  0.00    -0.354 N 
ATOM     51  C   UNL     1       1.083  -7.412   3.476  1.00  0.00     0.074 A 
ATOM     52  C   UNL     1      -0.132  -7.973   4.003  1.00  0.00     0.031 C 
ATOM     53  C   UNL     1       1.742  -2.140   3.096  1.00  0.00     0.029 A 
ATOM     54  C   UNL     1       1.113  -1.300   4.082  1.00  0.00     0.049 A 
ATOM     55  H   UNL     1      -0.924  -1.566   4.699  1.00  0.00     0.167 HD
ATOM     56  C   UNL     1       2.114  -7.813   2.674  1.00  0.00     0.034 A 
ATOM     57  C   UNL     1       1.781  -0.614   5.050  1.00  0.00     0.034 A 
ATOM     58  C   UNL     1       3.195  -6.801   2.676  1.00  0.00     0.049 A 
ATOM     59  C   UNL     1       3.007  -1.449   5.428  1.00  0.00     0.074 A 
ATOM     60  C   UNL     1       3.927  -6.115   1.723  1.00  0.00     0.029 A 
ATOM     61  N   UNL     1       3.567  -6.232   3.902  1.00  0.00    -0.354 N 
ATOM     62  N   UNL     1       3.110  -2.730   5.146  1.00  0.00    -0.248 NA
ATOM     63  C   UNL     1       4.268  -0.917   5.937  1.00  0.00     0.031 C 
ATOM     64  C   UNL     1       4.552  -5.000   2.373  1.00  0.00     0.029 A 
ATOM     65  C   UNL     1       4.297  -5.074   3.737  1.00  0.00     0.049 A 
ATOM     66  H   UNL     1       3.335  -6.615   4.779  1.00  0.00     0.167 HD
ATOM     67  C   UNL     1       4.396  -3.150   5.269  1.00  0.00     0.074 A 
ATOM     68  C   UNL     1       5.075  -1.994   5.841  1.00  0.00     0.031 C 
ATOM     69  C   UNL     1       4.848  -4.389   4.901  1.00  0.00     0.034 A 
BRANCH  56  70
ATOM     70  C   UNL     1       2.146  -9.066   1.798  1.00  0.00     0.023 A 
ATOM     71  C   UNL     1       3.310  -9.350   1.045  1.00  0.00     0.031 A 
ATOM     72  C   UNL     1       1.072  -9.957   1.565  1.00  0.00     0.131 A 
ATOM     73  C   UNL     1       3.371 -10.425   0.130  1.00  0.00     0.055 A 
ATOM     74  C   UNL     1       1.153 -11.063   0.699  1.00  0.00     0.041 A 
ATOM     75  F   UNL     1      -0.133  -9.791   2.119  1.00  0.00    -0.206 F 
ATOM     76  C   UNL     1       2.303 -11.299  -0.033  1.00  0.00     0.022 A 
BRANCH  73  77
ATOM     77  S   UNL     1       4.863 -10.648  -0.882  1.00  0.00     0.124 S 
ATOM     78  O   UNL     1       4.821  -9.474  -1.748  1.00  0.00    -0.237 OA
ATOM     79  O   UNL     1       5.921 -10.674   0.120  1.00  0.00    -0.237 OA
ATOM     80  O   UNL     1       4.628 -11.923  -1.560  1.00  0.00    -0.744 OA
ENDBRANCH  73  77
ENDBRANCH  56  70
BRANCH  57  81
ATOM     81  C   UNL     1       0.770   0.198   5.820  1.00  0.00     0.023 A 
ATOM     82  C   UNL     1       0.089   1.193   5.047  1.00  0.00     0.031 A 
ATOM     83  C   UNL     1       0.057  -0.372   6.887  1.00  0.00     0.131 A 
ATOM     84  C   UNL     1      -1.300   1.391   5.191  1.00  0.00     0.055 A 
ATOM     85  C   UNL     1      -1.321  -0.135   7.049  1.00  0.00     0.041 A 
ATOM     86  F   UNL     1       0.621  -1.314   7.656  1.00  0.00    -0.206 F 
ATOM     87  C   UNL     1      -2.014   0.694   6.164  1.00  0.00     0.022 A 
BRANCH  84  88
ATOM     88  S   UNL     1      -2.244   2.323   3.934  1.00  0.00     0.124 S 
ATOM     89  O   UNL     1      -2.313   3.654   4.527  1.00  0.00    -0.237 OA
ATOM     90  O   UNL     1      -1.421   2.209   2.737  1.00  0.00    -0.237 OA
ATOM     91  O   UNL     1      -3.514   1.600   3.853  1.00  0.00    -0.744 OA
ENDBRANCH  84  88
ENDBRANCH  57  81
BRANCH  69  92
ATOM     92  C   UNL     1       5.921  -5.082   5.690  1.00  0.00     0.023 A 
ATOM     93  C   UNL     1       6.257  -4.630   6.967  1.00  0.00     0.031 A 
ATOM     94  C   UNL     1       6.520  -6.293   5.277  1.00  0.00     0.131 A 
ATOM     95  C   UNL     1       7.249  -5.260   7.715  1.00  0.00     0.055 A 
ATOM     96  C   UNL     1       7.420  -6.994   6.082  1.00  0.00     0.041 A 
ATOM     97  F   UNL     1       6.241  -6.861   4.094  1.00  0.00    -0.206 F 
ATOM     98  C   UNL     1       7.817  -6.459   7.300  1.00  0.00     0.022 A 
BRANCH  95  99
ATOM     99  S   UNL     1       7.856  -4.365   9.157  1.00  0.00     0.124 S 
ATOM    100  O   UNL     1       8.338  -3.126   8.550  1.00  0.00    -0.237 OA
ATOM    101  O   UNL     1       6.658  -4.240   9.980  1.00  0.00    -0.237 OA
ATOM    102  O   UNL     1       8.895  -5.242   9.690  1.00  0.00    -0.744 OA
ENDBRANCH  95  99
ENDBRANCH  69  92
ENDBRANCH  43  44
ENDBRANCH  36  38
ENDBRANCH  35  36
ENDBRANCH  34  35
ENDBRANCH  33  34
ENDBRANCH  32  33
ENDBRANCH  31  32
ENDBRANCH   1  31
TORSDOF 26
