REMARK SMILES COc1ccc([C@H]2CC(c3ccc(S(C)(=O)=O)cc3)=NN2c2ccc(C(=O)OCCOCCOCCOCCOC(=O)c3ccc(-c4c5nc(c(-c6cc(S(=O)(=O)[O-])ccc6F)c6ccc([nH]6)c(-c6cc(S(=O)(=O)[O-])ccc6F)c6nc(c(-c7cc(S(=O)(=O)[O-])ccc7F)c7ccc4[nH]7)C=C6)C=C5)cc3)cc2)cc1OC
REMARK SMILES IDX 34 1 33 2 32 3 31 4 30 5 29 6 28 7 26 8 27 9 25 10 22 11
REMARK SMILES IDX 23 12 107 13 24 14 106 15 21 16 7 17 8 18 9 19 20 20 6 21
REMARK SMILES IDX 3 22 4 23 109 24 5 25 108 26 2 27 1 28 110 29 111 30 10 31
REMARK SMILES IDX 11 32 19 33 12 34 18 35 13 36 14 37 15 38 16 39 17 40 35 41
REMARK SMILES IDX 36 42 37 43 38 44 39 45 40 46 41 47 42 48 43 49 44 50 105 51
REMARK SMILES IDX 45 52 104 53 46 54 47 55 48 56 98 57 49 58 103 59 97 60
REMARK SMILES IDX 99 61 50 62 102 63 96 64 95 65 51 67 83 68 63 69 82 70 64 71
REMARK SMILES IDX 67 72 81 73 100 74 65 75 66 76 80 78 101 79 68 80 52 81
REMARK SMILES IDX 53 82 61 83 54 84 60 85 62 86 59 87 55 88 56 89 57 90 58 91
REMARK SMILES IDX 84 92 85 93 93 94 86 95 92 96 94 97 91 98 87 99 88 100
REMARK SMILES IDX 89 101 90 102 69 103 70 104 78 105 71 106 77 107 79 108
REMARK SMILES IDX 76 109 72 110 73 111 74 112 75 113
REMARK H PARENT 99 66 67 77
REMARK Flexibility Score: inf
ROOT
ATOM      1  O   UNL     1       2.843  -6.163 -10.348  1.00  0.00    -0.377 OA
ENDROOT
BRANCH   1   2
ATOM      2  C   UNL     1       3.886  -5.748  -9.482  1.00  0.00     0.188 C 
BRANCH   2   3
ATOM      3  C   UNL     1       4.289  -6.703  -8.340  1.00  0.00     0.188 C 
BRANCH   3   4
ATOM      4  O   UNL     1       3.785  -8.018  -8.489  1.00  0.00    -0.376 OA
BRANCH   4   5
ATOM      5  C   UNL     1       2.667  -8.436  -7.728  1.00  0.00     0.202 C 
BRANCH   5   6
ATOM      6  C   UNL     1       1.370  -7.611  -7.703  1.00  0.00     0.261 C 
BRANCH   6   7
ATOM      7  O   UNL     1       1.510  -6.188  -7.654  1.00  0.00    -0.460 OA
BRANCH   7   8
ATOM      8  C   UNL     1       1.906  -5.647  -6.483  1.00  0.00     0.338 C 
ATOM      9  O   UNL     1       2.154  -6.243  -5.449  1.00  0.00    -0.246 OA
BRANCH   8  10
ATOM     10  C   UNL     1       2.187  -4.211  -6.714  1.00  0.00     0.060 A 
ATOM     11  C   UNL     1       2.737  -1.473  -7.024  1.00  0.00     0.060 A 
ATOM     12  C   UNL     1       3.656  -2.314  -6.385  1.00  0.00     0.029 A 
ATOM     13  C   UNL     1       1.590  -2.046  -7.595  1.00  0.00     0.029 A 
ATOM     14  C   UNL     1       3.369  -3.668  -6.197  1.00  0.00     0.018 A 
ATOM     15  C   UNL     1       1.321  -3.410  -7.462  1.00  0.00     0.018 A 
BRANCH  11  16
ATOM     16  N   UNL     1       2.896  -0.090  -6.999  1.00  0.00    -0.257 N 
ATOM     17  C   UNL     1       1.919   0.775  -6.329  1.00  0.00     0.144 C 
ATOM     18  C   UNL     1       2.599   2.146  -6.386  1.00  0.00     0.091 C 
ATOM     19  C   UNL     1       3.921   1.767  -6.995  1.00  0.00     0.071 C 
ATOM     20  N   UNL     1       4.077   0.517  -7.301  1.00  0.00    -0.176 NA
BRANCH  17  21
ATOM     21  C   UNL     1       1.612   0.337  -4.899  1.00  0.00    -0.019 A 
ATOM     22  C   UNL     1       1.044  -0.508  -2.263  1.00  0.00     0.160 A 
ATOM     23  C   UNL     1       0.025  -0.425  -3.221  1.00  0.00     0.051 A 
ATOM     24  C   UNL     1       2.361  -0.196  -2.616  1.00  0.00     0.161 A 
ATOM     25  C   UNL     1       0.304  -0.002  -4.526  1.00  0.00     0.010 A 
ATOM     26  C   UNL     1       2.626   0.220  -3.931  1.00  0.00     0.056 A 
BRANCH  22  27
ATOM     27  O   UNL     1       0.724  -1.024  -1.036  1.00  0.00    -0.493 OA
ATOM     28  C   UNL     1       0.084  -0.064  -0.196  1.00  0.00     0.278 C 
ENDBRANCH  22  27
BRANCH  24  29
ATOM     29  O   UNL     1       3.492  -0.263  -1.849  1.00  0.00    -0.493 OA
ATOM     30  C   UNL     1       3.353  -0.394  -0.444  1.00  0.00     0.278 C 
ENDBRANCH  24  29
ENDBRANCH  17  21
BRANCH  19  31
ATOM     31  C   UNL     1       4.927   2.803  -7.264  1.00  0.00    -0.002 A 
ATOM     32  C   UNL     1       5.323   3.040  -8.585  1.00  0.00     0.011 A 
ATOM     33  C   UNL     1       5.434   3.576  -6.216  1.00  0.00     0.011 A 
ATOM     34  C   UNL     1       6.218   4.076  -8.865  1.00  0.00     0.021 A 
ATOM     35  C   UNL     1       6.347   4.597  -6.491  1.00  0.00     0.021 A 
ATOM     36  C   UNL     1       6.732   4.844  -7.814  1.00  0.00     0.067 A 
BRANCH  36  37
ATOM     37  S   UNL     1       7.847   6.183  -8.174  1.00  0.00     0.175 S 
ATOM     38  C   UNL     1       9.252   5.406  -8.924  1.00  0.00     0.163 C 
ATOM     39  O   UNL     1       7.197   7.015  -9.168  1.00  0.00    -0.224 OA
ATOM     40  O   UNL     1       8.286   6.742  -6.908  1.00  0.00    -0.224 OA
ENDBRANCH  36  37
ENDBRANCH  19  31
ENDBRANCH  11  16
ENDBRANCH   8  10
ENDBRANCH   7   8
ENDBRANCH   6   7
ENDBRANCH   5   6
ENDBRANCH   4   5
ENDBRANCH   3   4
ENDBRANCH   2   3
ENDBRANCH   1   2
BRANCH   1  41
ATOM     41  C   UNL     1       2.949  -7.395 -11.060  1.00  0.00     0.188 C 
BRANCH  41  42
ATOM     42  C   UNL     1       4.275  -8.187 -11.177  1.00  0.00     0.188 C 
BRANCH  42  43
ATOM     43  O   UNL     1       5.441  -7.458 -10.830  1.00  0.00    -0.376 OA
BRANCH  43  44
ATOM     44  C   UNL     1       6.312  -7.069 -11.875  1.00  0.00     0.202 C 
BRANCH  44  45
ATOM     45  C   UNL     1       5.758  -6.061 -12.889  1.00  0.00     0.261 C 
BRANCH  45  46
ATOM     46  O   UNL     1       4.526  -6.421 -13.531  1.00  0.00    -0.460 OA
BRANCH  46  47
ATOM     47  C   UNL     1       4.543  -7.502 -14.341  1.00  0.00     0.338 C 
ATOM     48  O   UNL     1       5.503  -8.214 -14.590  1.00  0.00    -0.246 OA
BRANCH  47  49
ATOM     49  C   UNL     1       3.147  -7.786 -14.731  1.00  0.00     0.060 A 
ATOM     50  C   UNL     1       2.568  -9.012 -14.377  1.00  0.00     0.016 A 
ATOM     51  C   UNL     1       2.405  -6.828 -15.426  1.00  0.00     0.016 A 
ATOM     52  C   UNL     1       1.251  -9.294 -14.745  1.00  0.00     0.010 A 
ATOM     53  C   UNL     1       1.095  -7.120 -15.812  1.00  0.00     0.010 A 
ATOM     54  C   UNL     1       0.521  -8.366 -15.500  1.00  0.00    -0.014 A 
BRANCH  54  55
ATOM     55  C   UNL     1      -0.757  -8.767 -16.141  1.00  0.00     0.031 A 
ATOM     56  C   UNL     1      -0.723  -9.175 -17.589  1.00  0.00     0.074 A 
ATOM     57  C   UNL     1      -1.916  -8.779 -15.459  1.00  0.00     0.049 A 
ATOM     58  N   UNL     1      -1.708  -9.479 -18.392  1.00  0.00    -0.248 NA
ATOM     59  C   UNL     1       0.608  -9.241 -18.214  1.00  0.00     0.031 C 
ATOM     60  C   UNL     1      -2.065  -8.459 -14.040  1.00  0.00     0.029 A 
ATOM     61  N   UNL     1      -3.193  -9.064 -15.876  1.00  0.00    -0.354 N 
ATOM     62  C   UNL     1      -1.119  -9.766 -19.620  1.00  0.00     0.074 A 
ATOM     63  C   UNL     1       0.305  -9.560 -19.462  1.00  0.00     0.031 C 
ATOM     64  C   UNL     1      -3.365  -8.555 -13.708  1.00  0.00     0.029 A 
ATOM     65  C   UNL     1      -4.146  -8.895 -14.897  1.00  0.00     0.049 A 
ATOM     66  H   UNL     1      -3.407  -9.362 -16.789  1.00  0.00     0.167 HD
ATOM     67  C   UNL     1      -1.711 -10.171 -20.770  1.00  0.00     0.034 A 
ATOM     68  C   UNL     1      -5.492  -8.973 -14.965  1.00  0.00     0.034 A 
ATOM     69  C   UNL     1      -3.134 -10.356 -20.913  1.00  0.00     0.049 A 
ATOM     70  C   UNL     1      -6.139  -9.322 -16.288  1.00  0.00     0.074 A 
ATOM     71  C   UNL     1      -3.839 -10.769 -22.030  1.00  0.00     0.029 A 
ATOM     72  N   UNL     1      -4.072 -10.127 -19.915  1.00  0.00    -0.354 N 
ATOM     73  N   UNL     1      -5.573  -9.591 -17.443  1.00  0.00    -0.248 NA
ATOM     74  C   UNL     1      -7.607  -9.382 -16.314  1.00  0.00     0.031 C 
ATOM     75  C   UNL     1      -5.204 -10.708 -21.733  1.00  0.00     0.029 A 
ATOM     76  C   UNL     1      -5.350 -10.352 -20.402  1.00  0.00     0.049 A 
ATOM     77  H   UNL     1      -3.860  -9.845 -18.995  1.00  0.00     0.167 HD
ATOM     78  C   UNL     1      -6.616  -9.892 -18.318  1.00  0.00     0.074 A 
ATOM     79  C   UNL     1      -7.841  -9.781 -17.555  1.00  0.00     0.031 C 
ATOM     80  C   UNL     1      -6.566 -10.236 -19.631  1.00  0.00     0.034 A 
BRANCH  67  81
ATOM     81  C   UNL     1      -0.824 -10.382 -21.972  1.00  0.00     0.023 A 
ATOM     82  C   UNL     1       0.175 -11.371 -21.993  1.00  0.00     0.031 A 
ATOM     83  C   UNL     1      -0.965  -9.565 -23.108  1.00  0.00     0.131 A 
ATOM     84  C   UNL     1       1.036 -11.473 -23.097  1.00  0.00     0.055 A 
ATOM     85  C   UNL     1      -0.161  -9.728 -24.237  1.00  0.00     0.041 A 
ATOM     86  F   UNL     1      -1.882  -8.585 -23.136  1.00  0.00    -0.206 F 
ATOM     87  C   UNL     1       0.856 -10.678 -24.231  1.00  0.00     0.022 A 
BRANCH  84  88
ATOM     88  S   UNL     1       2.482 -12.561 -22.972  1.00  0.00     0.124 S 
ATOM     89  O   UNL     1       3.170 -12.004 -21.810  1.00  0.00    -0.237 OA
ATOM     90  O   UNL     1       1.874 -13.873 -22.785  1.00  0.00    -0.237 OA
ATOM     91  O   UNL     1       3.168 -12.366 -24.247  1.00  0.00    -0.744 OA
ENDBRANCH  84  88
ENDBRANCH  67  81
BRANCH  68  92
ATOM     92  C   UNL     1      -6.335  -8.672 -13.770  1.00  0.00     0.023 A 
ATOM     93  C   UNL     1      -7.198  -9.637 -13.225  1.00  0.00     0.031 A 
ATOM     94  C   UNL     1      -6.348  -7.386 -13.200  1.00  0.00     0.131 A 
ATOM     95  C   UNL     1      -8.075  -9.287 -12.186  1.00  0.00     0.055 A 
ATOM     96  C   UNL     1      -7.176  -7.061 -12.124  1.00  0.00     0.041 A 
ATOM     97  F   UNL     1      -5.552  -6.419 -13.685  1.00  0.00    -0.206 F 
ATOM     98  C   UNL     1      -8.058  -8.011 -11.621  1.00  0.00     0.022 A 
BRANCH  95  99
ATOM     99  S   UNL     1      -9.322 -10.495 -11.658  1.00  0.00     0.124 S 
ATOM    100  O   UNL     1     -10.036 -10.747 -12.905  1.00  0.00    -0.237 OA
ATOM    101  O   UNL     1      -8.493 -11.588 -11.160  1.00  0.00    -0.237 OA
ATOM    102  O   UNL     1     -10.081  -9.776 -10.637  1.00  0.00    -0.744 OA
ENDBRANCH  95  99
ENDBRANCH  68  92
BRANCH  80 103
ATOM    103  C   UNL     1      -7.872 -10.579 -20.311  1.00  0.00     0.023 A 
ATOM    104  C   UNL     1      -8.884  -9.624 -20.512  1.00  0.00     0.031 A 
ATOM    105  C   UNL     1      -8.102 -11.890 -20.770  1.00  0.00     0.131 A 
ATOM    106  C   UNL     1     -10.098 -10.006 -21.104  1.00  0.00     0.055 A 
ATOM    107  C   UNL     1      -9.284 -12.247 -21.420  1.00  0.00     0.041 A 
ATOM    108  F   UNL     1      -7.174 -12.846 -20.603  1.00  0.00    -0.206 F 
ATOM    109  C   UNL     1     -10.296 -11.306 -21.578  1.00  0.00     0.022 A 
BRANCH 106 110
ATOM    110  S   UNL     1     -11.458  -8.806 -21.158  1.00  0.00     0.124 S 
ATOM    111  O   UNL     1     -11.635  -8.486 -19.745  1.00  0.00    -0.237 OA
ATOM    112  O   UNL     1     -10.903  -7.743 -21.989  1.00  0.00    -0.237 OA
ATOM    113  O   UNL     1     -12.555  -9.558 -21.765  1.00  0.00    -0.744 OA
ENDBRANCH 106 110
ENDBRANCH  80 103
ENDBRANCH  54  55
ENDBRANCH  47  49
ENDBRANCH  46  47
ENDBRANCH  45  46
ENDBRANCH  44  45
ENDBRANCH  43  44
ENDBRANCH  42  43
ENDBRANCH  41  42
ENDBRANCH   1  41
TORSDOF 29
