REMARK SMILES CC(C)Cc1ccc([C@@H](C)C(=O)OCCOCCOCCOCCOC(=O)c2ccc(-c3c4nc(c(-c5cc(S(=O)(=O)[O-])ccc5F)c5ccc([nH]5)c(-c5cc(S(=O)(=O)[O-])ccc5F)c5nc(c(-c6cc(S(=O)(=O)[O-])ccc6F)c6ccc3[nH]6)C=C5)C=C4)cc2)cc1
REMARK SMILES IDX 19 1 18 2 17 3 16 4 15 5 14 6 13 7 11 8 12 9 9 10 10 11 8 12
REMARK SMILES IDX 5 13 6 14 92 15 7 16 91 17 4 18 2 19 1 20 3 21 20 22 21 23
REMARK SMILES IDX 22 24 23 25 24 26 25 27 26 28 27 29 28 30 29 31 90 32 30 33
REMARK SMILES IDX 89 34 31 35 32 36 33 37 83 38 34 39 88 40 82 41 84 42 35 43
REMARK SMILES IDX 87 44 81 45 80 46 36 48 68 49 48 50 67 51 49 52 52 53 66 54
REMARK SMILES IDX 85 55 50 56 51 57 65 59 86 60 53 61 37 62 38 63 46 64 39 65
REMARK SMILES IDX 45 66 47 67 44 68 40 69 41 70 42 71 43 72 69 73 70 74 78 75
REMARK SMILES IDX 71 76 77 77 79 78 76 79 72 80 73 81 74 82 75 83 54 84 55 85
REMARK SMILES IDX 63 86 56 87 62 88 64 89 61 90 57 91 58 92 59 93 60 94
REMARK H PARENT 84 47 52 58
REMARK Flexibility Score: inf
ROOT
ATOM      1  O   UNL     1       0.766   1.082  -4.495  1.00  0.00    -0.377 OA
ENDROOT
BRANCH   1   2
ATOM      2  C   UNL     1       0.023  -0.005  -5.002  1.00  0.00     0.188 C 
BRANCH   2   3
ATOM      3  C   UNL     1      -0.192  -0.016  -6.525  1.00  0.00     0.188 C 
BRANCH   3   4
ATOM      4  O   UNL     1       0.383   0.974  -7.369  1.00  0.00    -0.376 OA
BRANCH   4   5
ATOM      5  C   UNL     1       0.604   2.291  -6.890  1.00  0.00     0.202 C 
BRANCH   5   6
ATOM      6  C   UNL     1      -0.567   3.116  -6.323  1.00  0.00     0.261 C 
BRANCH   6   7
ATOM      7  O   UNL     1      -1.434   2.458  -5.374  1.00  0.00    -0.463 OA
BRANCH   7   8
ATOM      8  C   UNL     1      -2.624   2.024  -5.849  1.00  0.00     0.313 C 
ATOM      9  O   UNL     1      -2.987   2.180  -7.015  1.00  0.00    -0.252 OA
BRANCH   8  10
ATOM     10  C   UNL     1      -3.544   1.345  -4.833  1.00  0.00     0.126 C 
ATOM     11  C   UNL     1      -4.697   2.295  -4.527  1.00  0.00     0.025 C 
BRANCH  10  12
ATOM     12  C   UNL     1      -2.983   0.730  -3.552  1.00  0.00    -0.034 A 
ATOM     13  C   UNL     1      -1.887  -0.517  -1.226  1.00  0.00    -0.048 A 
ATOM     14  C   UNL     1      -1.829   0.872  -1.410  1.00  0.00     0.004 A 
ATOM     15  C   UNL     1      -2.537  -1.276  -2.204  1.00  0.00     0.004 A 
ATOM     16  C   UNL     1      -2.352   1.487  -2.559  1.00  0.00     0.005 A 
ATOM     17  C   UNL     1      -3.091  -0.661  -3.338  1.00  0.00     0.005 A 
BRANCH  13  18
ATOM     18  C   UNL     1      -1.312  -1.179   0.013  1.00  0.00     0.038 C 
BRANCH  18  19
ATOM     19  C   UNL     1       0.230  -1.229   0.115  1.00  0.00    -0.013 C 
ATOM     20  C   UNL     1       0.855   0.163   0.206  1.00  0.00     0.008 C 
ATOM     21  C   UNL     1       0.659  -2.038   1.347  1.00  0.00     0.008 C 
ENDBRANCH  18  19
ENDBRANCH  13  18
ENDBRANCH  10  12
ENDBRANCH   8  10
ENDBRANCH   7   8
ENDBRANCH   6   7
ENDBRANCH   5   6
ENDBRANCH   4   5
ENDBRANCH   3   4
ENDBRANCH   2   3
ENDBRANCH   1   2
BRANCH   1  22
ATOM     22  C   UNL     1       2.114   0.805  -4.147  1.00  0.00     0.188 C 
BRANCH  22  23
ATOM     23  C   UNL     1       2.913  -0.034  -5.161  1.00  0.00     0.188 C 
BRANCH  23  24
ATOM     24  O   UNL     1       2.300  -1.279  -5.481  1.00  0.00    -0.376 OA
BRANCH  24  25
ATOM     25  C   UNL     1       2.709  -2.444  -4.778  1.00  0.00     0.202 C 
BRANCH  25  26
ATOM     26  C   UNL     1       2.422  -2.524  -3.268  1.00  0.00     0.261 C 
BRANCH  26  27
ATOM     27  O   UNL     1       2.999  -1.506  -2.436  1.00  0.00    -0.460 OA
BRANCH  27  28
ATOM     28  C   UNL     1       4.328  -1.293  -2.514  1.00  0.00     0.338 C 
ATOM     29  O   UNL     1       5.133  -1.929  -3.175  1.00  0.00    -0.246 OA
BRANCH  28  30
ATOM     30  C   UNL     1       4.615  -0.019  -1.822  1.00  0.00     0.060 A 
ATOM     31  C   UNL     1       5.218   1.030  -2.525  1.00  0.00     0.016 A 
ATOM     32  C   UNL     1       4.288   0.134  -0.476  1.00  0.00     0.016 A 
ATOM     33  C   UNL     1       5.550   2.214  -1.863  1.00  0.00     0.010 A 
ATOM     34  C   UNL     1       4.598   1.327   0.183  1.00  0.00     0.010 A 
ATOM     35  C   UNL     1       5.298   2.344  -0.491  1.00  0.00    -0.014 A 
BRANCH  35  36
ATOM     36  C   UNL     1       6.046   3.366   0.290  1.00  0.00     0.031 A 
ATOM     37  C   UNL     1       7.226   2.889   1.103  1.00  0.00     0.074 A 
ATOM     38  C   UNL     1       5.748   4.676   0.236  1.00  0.00     0.049 A 
ATOM     39  N   UNL     1       8.027   3.556   1.892  1.00  0.00    -0.248 NA
ATOM     40  C   UNL     1       7.527   1.450   1.025  1.00  0.00     0.031 C 
ATOM     41  C   UNL     1       4.670   5.271  -0.551  1.00  0.00     0.029 A 
ATOM     42  N   UNL     1       6.343   5.749   0.855  1.00  0.00    -0.354 N 
ATOM     43  C   UNL     1       8.913   2.616   2.410  1.00  0.00     0.074 A 
ATOM     44  C   UNL     1       8.499   1.325   1.910  1.00  0.00     0.031 C 
ATOM     45  C   UNL     1       4.692   6.606  -0.381  1.00  0.00     0.029 A 
ATOM     46  C   UNL     1       5.759   6.958   0.556  1.00  0.00     0.049 A 
ATOM     47  H   UNL     1       7.117   5.661   1.457  1.00  0.00     0.167 HD
ATOM     48  C   UNL     1       9.995   2.808   3.203  1.00  0.00     0.034 A 
ATOM     49  C   UNL     1       6.049   8.200   0.997  1.00  0.00     0.034 A 
ATOM     50  C   UNL     1      10.402   4.101   3.690  1.00  0.00     0.049 A 
ATOM     51  C   UNL     1       7.204   8.384   1.959  1.00  0.00     0.074 A 
ATOM     52  C   UNL     1      11.474   4.418   4.504  1.00  0.00     0.029 A 
ATOM     53  N   UNL     1       9.749   5.295   3.408  1.00  0.00    -0.354 N 
ATOM     54  N   UNL     1       8.028   7.486   2.451  1.00  0.00    -0.248 NA
ATOM     55  C   UNL     1       7.474   9.755   2.412  1.00  0.00     0.031 C 
ATOM     56  C   UNL     1      11.425   5.789   4.777  1.00  0.00     0.029 A 
ATOM     57  C   UNL     1      10.382   6.346   4.053  1.00  0.00     0.049 A 
ATOM     58  H   UNL     1       8.955   5.382   2.833  1.00  0.00     0.167 HD
ATOM     59  C   UNL     1       8.944   8.194   3.228  1.00  0.00     0.074 A 
ATOM     60  C   UNL     1       8.572   9.591   3.133  1.00  0.00     0.031 C 
ATOM     61  C   UNL     1      10.003   7.736   3.946  1.00  0.00     0.034 A 
BRANCH  48  62
ATOM     62  C   UNL     1      10.770   1.579   3.620  1.00  0.00     0.023 A 
ATOM     63  C   UNL     1      11.387   0.737   2.676  1.00  0.00     0.031 A 
ATOM     64  C   UNL     1      10.832   1.202   4.973  1.00  0.00     0.131 A 
ATOM     65  C   UNL     1      11.948  -0.482   3.085  1.00  0.00     0.055 A 
ATOM     66  C   UNL     1      11.483   0.037   5.384  1.00  0.00     0.041 A 
ATOM     67  F   UNL     1      10.238   1.947   5.918  1.00  0.00    -0.206 F 
ATOM     68  C   UNL     1      12.027  -0.824   4.436  1.00  0.00     0.022 A 
BRANCH  65  69
ATOM     69  S   UNL     1      12.396  -1.696   1.813  1.00  0.00     0.124 S 
ATOM     70  O   UNL     1      11.119  -1.887   1.127  1.00  0.00    -0.237 OA
ATOM     71  O   UNL     1      13.428  -0.997   1.058  1.00  0.00    -0.237 OA
ATOM     72  O   UNL     1      12.857  -2.848   2.586  1.00  0.00    -0.744 OA
ENDBRANCH  65  69
ENDBRANCH  48  62
BRANCH  49  73
ATOM     73  C   UNL     1       5.241   9.376   0.556  1.00  0.00     0.023 A 
ATOM     74  C   UNL     1       5.829  10.435  -0.156  1.00  0.00     0.031 A 
ATOM     75  C   UNL     1       3.884   9.495   0.904  1.00  0.00     0.131 A 
ATOM     76  C   UNL     1       5.080  11.586  -0.449  1.00  0.00     0.055 A 
ATOM     77  C   UNL     1       3.126  10.615   0.557  1.00  0.00     0.041 A 
ATOM     78  F   UNL     1       3.271   8.517   1.591  1.00  0.00    -0.206 F 
ATOM     79  C   UNL     1       3.728  11.677  -0.111  1.00  0.00     0.022 A 
BRANCH  76  80
ATOM     80  S   UNL     1       5.926  13.010  -1.190  1.00  0.00     0.124 S 
ATOM     81  O   UNL     1       6.951  13.296  -0.193  1.00  0.00    -0.237 OA
ATOM     82  O   UNL     1       6.397  12.457  -2.455  1.00  0.00    -0.237 OA
ATOM     83  O   UNL     1       4.868  14.012  -1.305  1.00  0.00    -0.744 OA
ENDBRANCH  76  80
ENDBRANCH  49  73
BRANCH  61  84
ATOM     84  C   UNL     1      10.885   8.763   4.619  1.00  0.00     0.023 A 
ATOM     85  C   UNL     1      10.414   9.600   5.645  1.00  0.00     0.031 A 
ATOM     86  C   UNL     1      12.224   8.911   4.211  1.00  0.00     0.131 A 
ATOM     87  C   UNL     1      11.252  10.592   6.178  1.00  0.00     0.055 A 
ATOM     88  C   UNL     1      13.075   9.848   4.798  1.00  0.00     0.041 A 
ATOM     89  F   UNL     1      12.731   8.143   3.233  1.00  0.00    -0.206 F 
ATOM     90  C   UNL     1      12.585  10.708   5.776  1.00  0.00     0.022 A 
BRANCH  87  91
ATOM     91  S   UNL     1      10.540  11.813   7.315  1.00  0.00     0.124 S 
ATOM     92  O   UNL     1       9.439  12.356   6.527  1.00  0.00    -0.237 OA
ATOM     93  O   UNL     1      10.160  10.989   8.458  1.00  0.00    -0.237 OA
ATOM     94  O   UNL     1      11.645  12.739   7.559  1.00  0.00    -0.744 OA
ENDBRANCH  87  91
ENDBRANCH  61  84
ENDBRANCH  35  36
ENDBRANCH  28  30
ENDBRANCH  27  28
ENDBRANCH  26  27
ENDBRANCH  25  26
ENDBRANCH  24  25
ENDBRANCH  23  24
ENDBRANCH  22  23
ENDBRANCH   1  22
TORSDOF 26
