REMARK SMILES O=C(OCCOCCOCCOCCOC(=O)c1ncc2ccccc2n1)c1ccc(-c2c3nc(c(-c4cc(S(=O)(=O)[O-])ccc4F)c4ccc([nH]4)c(-c4cc(S(=O)(=O)[O-])ccc4F)c4nc(c(-c5cc(S(=O)(=O)[O-])ccc5F)c5ccc2[nH]5)C=C4)C=C3)cc1
REMARK SMILES IDX 7 1 6 2 5 3 4 4 3 5 2 6 1 7 28 8 29 9 90 10 30 11 89 12
REMARK SMILES IDX 31 13 32 14 33 15 83 16 34 17 88 18 82 19 84 20 35 21 87 22
REMARK SMILES IDX 81 23 80 24 36 26 68 27 48 28 67 29 49 30 52 31 66 32 85 33
REMARK SMILES IDX 50 34 51 35 65 37 86 38 53 39 37 40 38 41 46 42 39 43 45 44
REMARK SMILES IDX 47 45 44 46 40 47 41 48 42 49 43 50 69 51 70 52 78 53 71 54
REMARK SMILES IDX 77 55 79 56 76 57 72 58 73 59 74 60 75 61 54 62 55 63 63 64
REMARK SMILES IDX 56 65 62 66 64 67 61 68 57 69 58 70 59 71 60 72 8 73 9 74
REMARK SMILES IDX 10 75 11 76 12 77 13 78 14 79 15 80 16 81 17 82 18 83 19 84
REMARK SMILES IDX 27 85 20 86 26 87 21 88 25 89 22 90 24 91 23 92
REMARK H PARENT 84 25 52 36
REMARK Flexibility Score: inf
ROOT
ATOM      1  C   UNL     1       2.571  -0.256  -1.772  1.00  0.00     0.188 C 
ENDROOT
BRANCH   1   2
ATOM      2  O   UNL     1       3.884   0.106  -1.368  1.00  0.00    -0.376 OA
BRANCH   2   3
ATOM      3  C   UNL     1       4.676  -0.837  -0.660  1.00  0.00     0.202 C 
BRANCH   3   4
ATOM      4  C   UNL     1       4.047  -1.564   0.532  1.00  0.00     0.261 C 
BRANCH   4   5
ATOM      5  O   UNL     1       2.654  -1.292   0.778  1.00  0.00    -0.460 OA
BRANCH   5   6
ATOM      6  C   UNL     1       2.068  -0.305   1.497  1.00  0.00     0.338 C 
ATOM      7  O   UNL     1       0.863  -0.372   1.730  1.00  0.00    -0.246 OA
BRANCH   6   8
ATOM      8  C   UNL     1       2.818   0.864   2.021  1.00  0.00     0.060 A 
ATOM      9  C   UNL     1       3.837   1.508   1.330  1.00  0.00     0.016 A 
ATOM     10  C   UNL     1       2.401   1.417   3.238  1.00  0.00     0.016 A 
ATOM     11  C   UNL     1       4.588   2.514   1.913  1.00  0.00     0.010 A 
ATOM     12  C   UNL     1       3.080   2.508   3.789  1.00  0.00     0.010 A 
ATOM     13  C   UNL     1       4.233   3.003   3.163  1.00  0.00    -0.014 A 
BRANCH  13  14
ATOM     14  C   UNL     1       5.202   3.861   3.878  1.00  0.00     0.031 A 
ATOM     15  C   UNL     1       5.872   3.280   5.092  1.00  0.00     0.074 A 
ATOM     16  C   UNL     1       5.583   5.047   3.366  1.00  0.00     0.049 A 
ATOM     17  N   UNL     1       6.671   3.842   5.955  1.00  0.00    -0.248 NA
ATOM     18  C   UNL     1       5.589   1.861   5.374  1.00  0.00     0.031 C 
ATOM     19  C   UNL     1       5.098   5.619   2.106  1.00  0.00     0.029 A 
ATOM     20  N   UNL     1       6.497   5.963   3.813  1.00  0.00    -0.354 N 
ATOM     21  C   UNL     1       6.933   2.867   6.913  1.00  0.00     0.074 A 
ATOM     22  C   UNL     1       6.194   1.685   6.535  1.00  0.00     0.031 C 
ATOM     23  C   UNL     1       5.759   6.761   1.859  1.00  0.00     0.029 A 
ATOM     24  C   UNL     1       6.634   7.055   2.986  1.00  0.00     0.049 A 
ATOM     25  H   UNL     1       7.008   5.851   4.647  1.00  0.00     0.167 HD
ATOM     26  C   UNL     1       7.718   2.962   8.013  1.00  0.00     0.034 A 
ATOM     27  C   UNL     1       7.359   8.179   3.154  1.00  0.00     0.034 A 
ATOM     28  C   UNL     1       8.457   4.158   8.329  1.00  0.00     0.049 A 
ATOM     29  C   UNL     1       8.161   8.299   4.426  1.00  0.00     0.074 A 
ATOM     30  C   UNL     1       9.230   4.436   9.439  1.00  0.00     0.029 A 
ATOM     31  N   UNL     1       8.515   5.282   7.509  1.00  0.00    -0.354 N 
ATOM     32  N   UNL     1       8.309   7.422   5.396  1.00  0.00    -0.248 NA
ATOM     33  C   UNL     1       8.882   9.558   4.635  1.00  0.00     0.031 C 
ATOM     34  C   UNL     1       9.705   5.747   9.319  1.00  0.00     0.029 A 
ATOM     35  C   UNL     1       9.297   6.261   8.096  1.00  0.00     0.049 A 
ATOM     36  H   UNL     1       8.065   5.368   6.638  1.00  0.00     0.167 HD
ATOM     37  C   UNL     1       9.163   8.016   6.320  1.00  0.00     0.074 A 
ATOM     38  C   UNL     1       9.511   9.315   5.776  1.00  0.00     0.031 C 
ATOM     39  C   UNL     1       9.618   7.543   7.510  1.00  0.00     0.034 A 
BRANCH  26  40
ATOM     40  C   UNL     1       7.701   1.792   8.969  1.00  0.00     0.023 A 
ATOM     41  C   UNL     1       8.147   0.510   8.598  1.00  0.00     0.031 A 
ATOM     42  C   UNL     1       7.109   1.939  10.236  1.00  0.00     0.131 A 
ATOM     43  C   UNL     1       7.900  -0.588   9.440  1.00  0.00     0.055 A 
ATOM     44  C   UNL     1       6.950   0.859  11.107  1.00  0.00     0.041 A 
ATOM     45  F   UNL     1       6.634   3.129  10.635  1.00  0.00    -0.206 F 
ATOM     46  C   UNL     1       7.327  -0.418  10.703  1.00  0.00     0.022 A 
BRANCH  43  47
ATOM     47  S   UNL     1       8.163  -2.262   8.787  1.00  0.00     0.124 S 
ATOM     48  O   UNL     1       7.255  -2.278   7.642  1.00  0.00    -0.237 OA
ATOM     49  O   UNL     1       9.586  -2.259   8.472  1.00  0.00    -0.237 OA
ATOM     50  O   UNL     1       7.770  -3.129   9.896  1.00  0.00    -0.744 OA
ENDBRANCH  43  47
ENDBRANCH  26  40
BRANCH  27  51
ATOM     51  C   UNL     1       7.308   9.288   2.153  1.00  0.00     0.023 A 
ATOM     52  C   UNL     1       8.469   9.752   1.512  1.00  0.00     0.031 A 
ATOM     53  C   UNL     1       6.096   9.942   1.856  1.00  0.00     0.131 A 
ATOM     54  C   UNL     1       8.401  10.857   0.645  1.00  0.00     0.055 A 
ATOM     55  C   UNL     1       6.024  11.000   0.947  1.00  0.00     0.041 A 
ATOM     56  F   UNL     1       4.952   9.556   2.444  1.00  0.00    -0.206 F 
ATOM     57  C   UNL     1       7.184  11.473   0.346  1.00  0.00     0.022 A 
BRANCH  54  58
ATOM     58  S   UNL     1       9.945  11.547  -0.013  1.00  0.00     0.124 S 
ATOM     59  O   UNL     1      10.685  11.839   1.209  1.00  0.00    -0.237 OA
ATOM     60  O   UNL     1      10.450  10.442  -0.821  1.00  0.00    -0.237 OA
ATOM     61  O   UNL     1       9.502  12.717  -0.768  1.00  0.00    -0.744 OA
ENDBRANCH  54  58
ENDBRANCH  27  51
BRANCH  39  62
ATOM     62  C   UNL     1      10.590   8.422   8.253  1.00  0.00     0.023 A 
ATOM     63  C   UNL     1      10.201   9.657   8.796  1.00  0.00     0.031 A 
ATOM     64  C   UNL     1      11.928   8.018   8.400  1.00  0.00     0.131 A 
ATOM     65  C   UNL     1      11.160  10.480   9.403  1.00  0.00     0.055 A 
ATOM     66  C   UNL     1      12.861   8.810   9.067  1.00  0.00     0.041 A 
ATOM     67  F   UNL     1      12.348   6.846   7.898  1.00  0.00    -0.206 F 
ATOM     68  C   UNL     1      12.483  10.056   9.558  1.00  0.00     0.022 A 
BRANCH  65  69
ATOM     69  S   UNL     1      10.678  12.160   9.883  1.00  0.00     0.124 S 
ATOM     70  O   UNL     1      10.198  12.710   8.620  1.00  0.00    -0.237 OA
ATOM     71  O   UNL     1       9.660  11.914  10.899  1.00  0.00    -0.237 OA
ATOM     72  O   UNL     1      11.923  12.743  10.381  1.00  0.00    -0.744 OA
ENDBRANCH  65  69
ENDBRANCH  39  62
ENDBRANCH  13  14
ENDBRANCH   6   8
ENDBRANCH   5   6
ENDBRANCH   4   5
ENDBRANCH   3   4
ENDBRANCH   2   3
ENDBRANCH   1   2
BRANCH   1  73
ATOM     73  C   UNL     1       2.131   0.505  -3.023  1.00  0.00     0.188 C 
BRANCH  73  74
ATOM     74  O   UNL     1       2.907   0.275  -4.197  1.00  0.00    -0.377 OA
BRANCH  74  75
ATOM     75  C   UNL     1       4.324   0.344  -4.043  1.00  0.00     0.188 C 
BRANCH  75  76
ATOM     76  C   UNL     1       4.964   1.656  -3.526  1.00  0.00     0.188 C 
BRANCH  76  77
ATOM     77  O   UNL     1       4.051   2.556  -2.911  1.00  0.00    -0.376 OA
BRANCH  77  78
ATOM     78  C   UNL     1       3.861   3.794  -3.589  1.00  0.00     0.202 C 
BRANCH  78  79
ATOM     79  C   UNL     1       3.096   3.719  -4.923  1.00  0.00     0.261 C 
BRANCH  79  80
ATOM     80  O   UNL     1       3.567   2.719  -5.844  1.00  0.00    -0.457 OA
BRANCH  80  81
ATOM     81  C   UNL     1       4.677   3.004  -6.569  1.00  0.00     0.376 C 
ATOM     82  O   UNL     1       5.274   4.071  -6.581  1.00  0.00    -0.242 OA
BRANCH  81  83
ATOM     83  C   UNL     1       5.153   1.733  -7.208  1.00  0.00     0.239 A 
ATOM     84  N   UNL     1       6.294   1.211  -6.704  1.00  0.00    -0.230 NA
ATOM     85  N   UNL     1       4.363   1.156  -8.140  1.00  0.00    -0.222 NA
ATOM     86  C   UNL     1       6.638  -0.000  -7.175  1.00  0.00     0.124 A 
ATOM     87  C   UNL     1       4.771  -0.030  -8.617  1.00  0.00     0.075 A 
ATOM     88  C   UNL     1       5.924  -0.679  -8.150  1.00  0.00     0.019 A 
ATOM     89  C   UNL     1       4.050  -0.657  -9.625  1.00  0.00     0.029 A 
ATOM     90  C   UNL     1       6.322  -1.929  -8.666  1.00  0.00     0.012 A 
ATOM     91  C   UNL     1       4.453  -1.881 -10.174  1.00  0.00     0.002 A 
ATOM     92  C   UNL     1       5.590  -2.521  -9.690  1.00  0.00     0.001 A 
ENDBRANCH  81  83
ENDBRANCH  80  81
ENDBRANCH  79  80
ENDBRANCH  78  79
ENDBRANCH  77  78
ENDBRANCH  76  77
ENDBRANCH  75  76
ENDBRANCH  74  75
ENDBRANCH  73  74
ENDBRANCH   1  73
TORSDOF 23
