REMARK SMILES O=C(OCCOCCOCCOCCOC(=O)c1cnccc1C(=O)N1CCC(Cc2ccccc2)CC1)c1ccc(-c2c3nc(c(-c4cc(S(=O)(=O)[O-])ccc4F)c4ccc([nH]4)c(-c4cc(S(=O)(=O)[O-])ccc4F)c4nc(c(-c5cc(S(=O)(=O)[O-])ccc5F)c5ccc2[nH]5)C=C4)C=C3)cc1
REMARK SMILES IDX 9 1 8 2 7 3 6 4 5 5 4 6 3 7 2 8 1 9 39 10 40 11 101 12 41 13
REMARK SMILES IDX 100 14 42 15 43 16 44 17 94 18 45 19 99 20 93 21 95 22 46 23
REMARK SMILES IDX 98 24 92 25 91 26 47 28 79 29 59 30 78 31 60 32 63 33 77 34
REMARK SMILES IDX 96 35 61 36 62 37 76 39 97 40 64 41 48 42 49 43 57 44 50 45
REMARK SMILES IDX 56 46 58 47 55 48 51 49 52 50 53 51 54 52 80 53 81 54 89 55
REMARK SMILES IDX 82 56 88 57 90 58 87 59 83 60 84 61 85 62 86 63 65 64 66 65
REMARK SMILES IDX 74 66 67 67 73 68 75 69 72 70 68 71 69 72 70 73 71 74 10 75
REMARK SMILES IDX 11 76 12 77 13 78 14 79 15 80 16 81 17 82 18 83 19 84 23 85
REMARK SMILES IDX 20 86 22 87 21 88 24 89 25 90 26 91 27 92 38 93 28 94 37 95
REMARK SMILES IDX 29 96 30 97 31 98 32 99 36 100 33 101 35 102 34 103
REMARK H PARENT 95 27 63 38
REMARK Flexibility Score: inf
ROOT
ATOM      1  O   UNL     1       3.034   0.220   3.750  1.00  0.00    -0.377 OA
ENDROOT
BRANCH   1   2
ATOM      2  C   UNL     1       2.173  -0.001   2.629  1.00  0.00     0.188 C 
BRANCH   2   3
ATOM      3  C   UNL     1       2.504   0.791   1.359  1.00  0.00     0.188 C 
BRANCH   3   4
ATOM      4  O   UNL     1       3.764   0.357   0.891  1.00  0.00    -0.376 OA
BRANCH   4   5
ATOM      5  C   UNL     1       4.660   1.234   0.243  1.00  0.00     0.202 C 
BRANCH   5   6
ATOM      6  C   UNL     1       4.186   1.788  -1.087  1.00  0.00     0.261 C 
BRANCH   6   7
ATOM      7  O   UNL     1       2.842   1.430  -1.452  1.00  0.00    -0.460 OA
BRANCH   7   8
ATOM      8  C   UNL     1       2.321   0.268  -1.906  1.00  0.00     0.338 C 
ATOM      9  O   UNL     1       1.117   0.235  -2.163  1.00  0.00    -0.246 OA
BRANCH   8  10
ATOM     10  C   UNL     1       3.104  -0.973  -2.154  1.00  0.00     0.060 A 
ATOM     11  C   UNL     1       4.085  -1.482  -1.310  1.00  0.00     0.016 A 
ATOM     12  C   UNL     1       2.703  -1.772  -3.235  1.00  0.00     0.016 A 
ATOM     13  C   UNL     1       4.736  -2.672  -1.563  1.00  0.00     0.010 A 
ATOM     14  C   UNL     1       3.300  -3.017  -3.464  1.00  0.00     0.010 A 
ATOM     15  C   UNL     1       4.339  -3.454  -2.633  1.00  0.00    -0.014 A 
BRANCH  15  16
ATOM     16  C   UNL     1       5.143  -4.648  -2.919  1.00  0.00     0.031 A 
ATOM     17  C   UNL     1       6.051  -4.589  -4.105  1.00  0.00     0.074 A 
ATOM     18  C   UNL     1       5.166  -5.668  -2.041  1.00  0.00     0.049 A 
ATOM     19  N   UNL     1       6.767  -5.532  -4.643  1.00  0.00    -0.248 NA
ATOM     20  C   UNL     1       6.175  -3.279  -4.771  1.00  0.00     0.031 C 
ATOM     21  C   UNL     1       4.447  -5.700  -0.761  1.00  0.00     0.029 A 
ATOM     22  N   UNL     1       5.835  -6.861  -2.070  1.00  0.00    -0.354 N 
ATOM     23  C   UNL     1       7.385  -4.947  -5.741  1.00  0.00     0.074 A 
ATOM     24  C   UNL     1       6.973  -3.564  -5.787  1.00  0.00     0.031 C 
ATOM     25  C   UNL     1       4.722  -6.853  -0.129  1.00  0.00     0.029 A 
ATOM     26  C   UNL     1       5.542  -7.680  -1.003  1.00  0.00     0.049 A 
ATOM     27  H   UNL     1       6.466  -7.109  -2.784  1.00  0.00     0.167 HD
ATOM     28  C   UNL     1       8.203  -5.542  -6.636  1.00  0.00     0.034 A 
ATOM     29  C   UNL     1       5.847  -8.977  -0.810  1.00  0.00     0.034 A 
ATOM     30  C   UNL     1       8.579  -6.926  -6.528  1.00  0.00     0.049 A 
ATOM     31  C   UNL     1       6.651  -9.653  -1.896  1.00  0.00     0.074 A 
ATOM     32  C   UNL     1       9.351  -7.681  -7.387  1.00  0.00     0.029 A 
ATOM     33  N   UNL     1       8.193  -7.764  -5.486  1.00  0.00    -0.354 N 
ATOM     34  N   UNL     1       7.168  -9.127  -2.987  1.00  0.00    -0.248 NA
ATOM     35  C   UNL     1       6.900 -11.089  -1.743  1.00  0.00     0.031 C 
ATOM     36  C   UNL     1       9.364  -8.995  -6.907  1.00  0.00     0.029 A 
ATOM     37  C   UNL     1       8.676  -9.040  -5.702  1.00  0.00     0.049 A 
ATOM     38  H   UNL     1       7.655  -7.487  -4.710  1.00  0.00     0.167 HD
ATOM     39  C   UNL     1       7.819 -10.167  -3.639  1.00  0.00     0.074 A 
ATOM     40  C   UNL     1       7.657 -11.340  -2.801  1.00  0.00     0.031 C 
ATOM     41  C   UNL     1       8.482 -10.171  -4.825  1.00  0.00     0.034 A 
BRANCH  28  42
ATOM     42  C   UNL     1       8.617  -4.738  -7.838  1.00  0.00     0.023 A 
ATOM     43  C   UNL     1       9.459  -3.616  -7.746  1.00  0.00     0.031 A 
ATOM     44  C   UNL     1       8.102  -5.076  -9.102  1.00  0.00     0.131 A 
ATOM     45  C   UNL     1       9.718  -2.845  -8.890  1.00  0.00     0.055 A 
ATOM     46  C   UNL     1       8.422  -4.348 -10.248  1.00  0.00     0.041 A 
ATOM     47  F   UNL     1       7.257  -6.110  -9.240  1.00  0.00    -0.206 F 
ATOM     48  C   UNL     1       9.228  -3.219 -10.144  1.00  0.00     0.022 A 
BRANCH  45  49
ATOM     49  S   UNL     1      10.608  -1.275  -8.701  1.00  0.00     0.124 S 
ATOM     50  O   UNL     1       9.690  -0.516  -7.855  1.00  0.00    -0.237 OA
ATOM     51  O   UNL     1      11.857  -1.690  -8.073  1.00  0.00    -0.237 OA
ATOM     52  O   UNL     1      10.732  -0.783 -10.072  1.00  0.00    -0.744 OA
ENDBRANCH  45  49
ENDBRANCH  28  42
BRANCH  29  53
ATOM     53  C   UNL     1       5.307  -9.746   0.354  1.00  0.00     0.023 A 
ATOM     54  C   UNL     1       6.156 -10.461   1.213  1.00  0.00     0.031 A 
ATOM     55  C   UNL     1       3.919  -9.866   0.566  1.00  0.00     0.131 A 
ATOM     56  C   UNL     1       5.613 -11.317   2.186  1.00  0.00     0.055 A 
ATOM     57  C   UNL     1       3.385 -10.657   1.586  1.00  0.00     0.041 A 
ATOM     58  F   UNL     1       3.048  -9.219  -0.225  1.00  0.00    -0.206 F 
ATOM     59  C   UNL     1       4.234 -11.408   2.389  1.00  0.00     0.022 A 
BRANCH  56  60
ATOM     60  S   UNL     1       6.732 -12.429   3.083  1.00  0.00     0.124 S 
ATOM     61  O   UNL     1       7.425 -13.097   1.987  1.00  0.00    -0.237 OA
ATOM     62  O   UNL     1       7.526 -11.488   3.867  1.00  0.00    -0.237 OA
ATOM     63  O   UNL     1       5.824 -13.273   3.856  1.00  0.00    -0.744 OA
ENDBRANCH  56  60
ENDBRANCH  29  53
BRANCH  41  64
ATOM     64  C   UNL     1       9.102 -11.477  -5.241  1.00  0.00     0.023 A 
ATOM     65  C   UNL     1       8.312 -12.587  -5.579  1.00  0.00     0.031 A 
ATOM     66  C   UNL     1      10.500 -11.604  -5.306  1.00  0.00     0.131 A 
ATOM     67  C   UNL     1       8.928 -13.799  -5.911  1.00  0.00     0.055 A 
ATOM     68  C   UNL     1      11.106 -12.791  -5.711  1.00  0.00     0.041 A 
ATOM     69  F   UNL     1      11.297 -10.570  -4.991  1.00  0.00    -0.206 F 
ATOM     70  C   UNL     1      10.319 -13.902  -6.003  1.00  0.00     0.022 A 
BRANCH  67  71
ATOM     71  S   UNL     1       7.887 -15.266  -6.124  1.00  0.00     0.124 S 
ATOM     72  O   UNL     1       7.238 -15.367  -4.821  1.00  0.00    -0.237 OA
ATOM     73  O   UNL     1       7.026 -14.879  -7.237  1.00  0.00    -0.237 OA
ATOM     74  O   UNL     1       8.848 -16.326  -6.424  1.00  0.00    -0.744 OA
ENDBRANCH  67  71
ENDBRANCH  41  64
ENDBRANCH  15  16
ENDBRANCH   8  10
ENDBRANCH   7   8
ENDBRANCH   6   7
ENDBRANCH   5   6
ENDBRANCH   4   5
ENDBRANCH   3   4
ENDBRANCH   2   3
ENDBRANCH   1   2
BRANCH   1  75
ATOM     75  C   UNL     1       4.433   0.331   3.487  1.00  0.00     0.188 C 
BRANCH  75  76
ATOM     76  C   UNL     1       5.231  -0.897   2.960  1.00  0.00     0.188 C 
BRANCH  76  77
ATOM     77  O   UNL     1       4.476  -1.849   2.240  1.00  0.00    -0.376 OA
BRANCH  77  78
ATOM     78  C   UNL     1       3.977  -3.002   2.891  1.00  0.00     0.202 C 
BRANCH  78  79
ATOM     79  C   UNL     1       3.692  -3.061   4.398  1.00  0.00     0.261 C 
BRANCH  79  80
ATOM     80  O   UNL     1       3.979  -1.895   5.180  1.00  0.00    -0.460 OA
BRANCH  80  81
ATOM     81  C   UNL     1       5.072  -1.927   5.970  1.00  0.00     0.340 C 
ATOM     82  O   UNL     1       5.918  -2.809   6.015  1.00  0.00    -0.246 OA
BRANCH  81  83
ATOM     83  C   UNL     1       5.210  -0.676   6.713  1.00  0.00     0.091 A 
ATOM     84  C   UNL     1       6.410  -0.006   6.446  1.00  0.00     0.127 A 
ATOM     85  C   UNL     1       4.280  -0.063   7.554  1.00  0.00     0.057 A 
ATOM     86  N   UNL     1       6.723   1.231   6.896  1.00  0.00    -0.264 NA
ATOM     87  C   UNL     1       4.619   1.218   8.048  1.00  0.00     0.035 A 
ATOM     88  C   UNL     1       5.813   1.820   7.686  1.00  0.00     0.112 A 
BRANCH  85  89
ATOM     89  C   UNL     1       2.887  -0.502   7.901  1.00  0.00     0.254 C 
ATOM     90  O   UNL     1       2.146   0.348   8.406  1.00  0.00    -0.269 OA
ATOM     91  N   UNL     1       2.364  -1.752   7.586  1.00  0.00    -0.339 N 
ATOM     92  C   UNL     1       1.106  -1.720   6.843  1.00  0.00     0.120 C 
ATOM     93  C   UNL     1       3.010  -3.035   7.859  1.00  0.00     0.120 C 
ATOM     94  C   UNL     1       0.169  -2.874   7.155  1.00  0.00     0.025 C 
ATOM     95  C   UNL     1       2.076  -4.232   7.978  1.00  0.00     0.025 C 
ATOM     96  C   UNL     1       0.901  -4.206   6.987  1.00  0.00    -0.003 C 
BRANCH  96  97
ATOM     97  C   UNL     1       0.029  -5.449   7.234  1.00  0.00     0.039 C 
BRANCH  97  98
ATOM     98  C   UNL     1      -1.345  -5.439   6.617  1.00  0.00    -0.048 A 
ATOM     99  C   UNL     1      -2.467  -5.276   7.443  1.00  0.00     0.004 A 
ATOM    100  C   UNL     1      -1.534  -5.619   5.242  1.00  0.00     0.004 A 
ATOM    101  C   UNL     1      -3.754  -5.319   6.912  1.00  0.00     0.000 A 
ATOM    102  C   UNL     1      -2.826  -5.661   4.710  1.00  0.00     0.000 A 
ATOM    103  C   UNL     1      -3.934  -5.518   5.545  1.00  0.00     0.000 A 
ENDBRANCH  97  98
ENDBRANCH  96  97
ENDBRANCH  85  89
ENDBRANCH  81  83
ENDBRANCH  80  81
ENDBRANCH  79  80
ENDBRANCH  78  79
ENDBRANCH  77  78
ENDBRANCH  76  77
ENDBRANCH  75  76
ENDBRANCH   1  75
TORSDOF 26
