REMARK SMILES CNc1nccc(-c2cc(C(=O)OCCOCCOCCOCCOC(=O)c3ccc(-c4c5nc(c(-c6cc(S(=O)(=O)[O-])ccc6F)c6ccc([nH]6)c(-c6cc(S(=O)(=O)[O-])ccc6F)c6nc(c(-c7cc(S(=O)(=O)[O-])ccc7F)c7ccc4[nH]7)C=C6)C=C5)cc3)ccn2)n1
REMARK SMILES IDX 20 1 19 2 18 3 17 4 16 5 15 6 14 7 13 8 11 9 12 10 10 11
REMARK SMILES IDX 8 12 9 13 93 14 92 15 91 16 7 17 3 18 4 19 94 20 5 21 6 22
REMARK SMILES IDX 2 23 1 24 21 26 22 27 23 28 24 29 25 30 26 31 27 32 28 33
REMARK SMILES IDX 29 34 90 35 30 36 89 37 31 38 32 39 33 40 83 41 34 42 88 43
REMARK SMILES IDX 82 44 84 45 35 46 87 47 81 48 80 49 36 51 68 52 48 53 67 54
REMARK SMILES IDX 49 55 52 56 66 57 85 58 50 59 51 60 65 62 86 63 53 64 37 65
REMARK SMILES IDX 38 66 46 67 39 68 45 69 47 70 44 71 40 72 41 73 42 74 43 75
REMARK SMILES IDX 69 76 70 77 78 78 71 79 77 80 79 81 76 82 72 83 73 84 74 85
REMARK SMILES IDX 75 86 54 87 55 88 63 89 56 90 62 91 64 92 61 93 57 94 58 95
REMARK SMILES IDX 59 96 60 97
REMARK H PARENT 2 25 84 50 52 61
REMARK Flexibility Score: inf
ROOT
ATOM      1  C   UNL     1      -2.027   5.845   5.908  1.00  0.00     0.188 C 
ENDROOT
BRANCH   1   2
ATOM      2  O   UNL     1      -2.588   4.594   5.512  1.00  0.00    -0.377 OA
BRANCH   2   3
ATOM      3  C   UNL     1      -3.572   4.603   4.493  1.00  0.00     0.188 C 
BRANCH   3   4
ATOM      4  C   UNL     1      -4.990   4.884   5.022  1.00  0.00     0.188 C 
BRANCH   4   5
ATOM      5  O   UNL     1      -5.058   5.503   6.291  1.00  0.00    -0.376 OA
BRANCH   5   6
ATOM      6  C   UNL     1      -4.910   4.786   7.506  1.00  0.00     0.202 C 
BRANCH   6   7
ATOM      7  C   UNL     1      -4.322   3.371   7.686  1.00  0.00     0.261 C 
BRANCH   7   8
ATOM      8  O   UNL     1      -4.139   2.556   6.532  1.00  0.00    -0.460 OA
BRANCH   8   9
ATOM      9  C   UNL     1      -5.204   1.866   6.074  1.00  0.00     0.338 C 
ATOM     10  O   UNL     1      -6.321   1.833   6.539  1.00  0.00    -0.246 OA
BRANCH   9  11
ATOM     11  C   UNL     1      -4.819   1.320   4.750  1.00  0.00     0.063 A 
ATOM     12  C   UNL     1      -3.260   0.254   3.271  1.00  0.00     0.090 A 
ATOM     13  C   UNL     1      -3.572   0.730   4.543  1.00  0.00     0.046 A 
ATOM     14  N   UNL     1      -4.108   0.433   2.222  1.00  0.00    -0.255 NA
ATOM     15  C   UNL     1      -5.289   1.048   2.447  1.00  0.00     0.112 A 
ATOM     16  C   UNL     1      -5.705   1.478   3.689  1.00  0.00     0.036 A 
BRANCH  12  17
ATOM     17  C   UNL     1      -2.086  -0.618   3.040  1.00  0.00     0.094 A 
ATOM     18  C   UNL     1      -0.371  -1.312   1.669  1.00  0.00     0.222 A 
ATOM     19  N   UNL     1      -0.069  -2.346   2.465  1.00  0.00    -0.222 NA
ATOM     20  N   UNL     1      -1.360  -0.439   1.909  1.00  0.00    -0.211 NA
ATOM     21  C   UNL     1      -0.776  -2.475   3.595  1.00  0.00     0.117 A 
ATOM     22  C   UNL     1      -1.798  -1.633   3.937  1.00  0.00     0.051 A 
BRANCH  18  23
ATOM     23  N   UNL     1       0.451  -1.194   0.579  1.00  0.00    -0.357 N 
ATOM     24  C   UNL     1       0.737   0.089   0.004  1.00  0.00     0.143 C 
ATOM     25  H   UNL     1       0.851  -2.002   0.184  1.00  0.00     0.163 HD
ENDBRANCH  18  23
ENDBRANCH  12  17
ENDBRANCH   9  11
ENDBRANCH   8   9
ENDBRANCH   7   8
ENDBRANCH   6   7
ENDBRANCH   5   6
ENDBRANCH   4   5
ENDBRANCH   3   4
ENDBRANCH   2   3
ENDBRANCH   1   2
BRANCH   1  26
ATOM     26  C   UNL     1      -2.792   7.176   5.708  1.00  0.00     0.188 C 
BRANCH  26  27
ATOM     27  O   UNL     1      -3.499   7.274   4.477  1.00  0.00    -0.376 OA
BRANCH  27  28
ATOM     28  C   UNL     1      -2.969   8.107   3.460  1.00  0.00     0.202 C 
BRANCH  28  29
ATOM     29  C   UNL     1      -1.670   7.629   2.798  1.00  0.00     0.261 C 
BRANCH  29  30
ATOM     30  O   UNL     1      -0.564   7.404   3.682  1.00  0.00    -0.460 OA
BRANCH  30  31
ATOM     31  C   UNL     1      -0.090   8.478   4.356  1.00  0.00     0.338 C 
ATOM     32  O   UNL     1      -0.488   9.621   4.276  1.00  0.00    -0.246 OA
BRANCH  31  33
ATOM     33  C   UNL     1       0.878   7.982   5.359  1.00  0.00     0.060 A 
ATOM     34  C   UNL     1       0.638   8.233   6.716  1.00  0.00     0.016 A 
ATOM     35  C   UNL     1       2.009   7.266   4.960  1.00  0.00     0.016 A 
ATOM     36  C   UNL     1       1.553   7.799   7.677  1.00  0.00     0.010 A 
ATOM     37  C   UNL     1       2.933   6.850   5.922  1.00  0.00     0.010 A 
ATOM     38  C   UNL     1       2.727   7.144   7.282  1.00  0.00    -0.014 A 
BRANCH  38  39
ATOM     39  C   UNL     1       3.826   6.942   8.261  1.00  0.00     0.031 A 
ATOM     40  C   UNL     1       4.970   7.921   8.254  1.00  0.00     0.074 A 
ATOM     41  C   UNL     1       3.806   5.925   9.142  1.00  0.00     0.049 A 
ATOM     42  N   UNL     1       6.070   7.920   8.959  1.00  0.00    -0.248 NA
ATOM     43  C   UNL     1       4.856   9.051   7.317  1.00  0.00     0.031 C 
ATOM     44  C   UNL     1       2.732   4.941   9.272  1.00  0.00     0.029 A 
ATOM     45  N   UNL     1       4.727   5.543  10.087  1.00  0.00    -0.354 N 
ATOM     46  C   UNL     1       6.789   9.036   8.541  1.00  0.00     0.074 A 
ATOM     47  C   UNL     1       6.010   9.675   7.503  1.00  0.00     0.031 C 
ATOM     48  C   UNL     1       3.065   4.058  10.230  1.00  0.00     0.029 A 
ATOM     49  C   UNL     1       4.392   4.384  10.750  1.00  0.00     0.049 A 
ATOM     50  H   UNL     1       5.549   6.052  10.274  1.00  0.00     0.167 HD
ATOM     51  C   UNL     1       7.989   9.483   8.983  1.00  0.00     0.034 A 
ATOM     52  C   UNL     1       5.093   3.653  11.642  1.00  0.00     0.034 A 
ATOM     53  C   UNL     1       8.752   8.832  10.019  1.00  0.00     0.049 A 
ATOM     54  C   UNL     1       6.465   4.135  12.066  1.00  0.00     0.074 A 
ATOM     55  C   UNL     1       9.959   9.224  10.570  1.00  0.00     0.029 A 
ATOM     56  N   UNL     1       8.397   7.644  10.644  1.00  0.00    -0.354 N 
ATOM     57  N   UNL     1       7.119   5.209  11.686  1.00  0.00    -0.248 NA
ATOM     58  C   UNL     1       7.187   3.311  13.046  1.00  0.00     0.031 C 
ATOM     59  C   UNL     1      10.378   8.229  11.458  1.00  0.00     0.029 A 
ATOM     60  C   UNL     1       9.385   7.266  11.540  1.00  0.00     0.049 A 
ATOM     61  H   UNL     1       7.566   7.143  10.476  1.00  0.00     0.167 HD
ATOM     62  C   UNL     1       8.311   5.205  12.409  1.00  0.00     0.074 A 
ATOM     63  C   UNL     1       8.277   4.033  13.258  1.00  0.00     0.031 C 
ATOM     64  C   UNL     1       9.340   6.091  12.379  1.00  0.00     0.034 A 
BRANCH  51  65
ATOM     65  C   UNL     1       8.581  10.694   8.306  1.00  0.00     0.023 A 
ATOM     66  C   UNL     1       7.982  11.963   8.379  1.00  0.00     0.031 A 
ATOM     67  C   UNL     1       9.775  10.570   7.572  1.00  0.00     0.131 A 
ATOM     68  C   UNL     1       8.551  13.045   7.687  1.00  0.00     0.055 A 
ATOM     69  C   UNL     1      10.377  11.666   6.952  1.00  0.00     0.041 A 
ATOM     70  F   UNL     1      10.377   9.377   7.443  1.00  0.00    -0.206 F 
ATOM     71  C   UNL     1       9.759  12.911   6.998  1.00  0.00     0.022 A 
BRANCH  68  72
ATOM     72  S   UNL     1       7.625  14.602   7.596  1.00  0.00     0.124 S 
ATOM     73  O   UNL     1       6.382  14.170   6.962  1.00  0.00    -0.237 OA
ATOM     74  O   UNL     1       7.526  14.993   8.997  1.00  0.00    -0.237 OA
ATOM     75  O   UNL     1       8.474  15.457   6.768  1.00  0.00    -0.744 OA
ENDBRANCH  68  72
ENDBRANCH  51  65
BRANCH  52  76
ATOM     76  C   UNL     1       4.558   2.356  12.157  1.00  0.00     0.023 A 
ATOM     77  C   UNL     1       4.340   2.145  13.528  1.00  0.00     0.031 A 
ATOM     78  C   UNL     1       4.341   1.272  11.286  1.00  0.00     0.131 A 
ATOM     79  C   UNL     1       3.982   0.869  13.994  1.00  0.00     0.055 A 
ATOM     80  C   UNL     1       3.919   0.024  11.747  1.00  0.00     0.041 A 
ATOM     81  F   UNL     1       4.541   1.410   9.966  1.00  0.00    -0.206 F 
ATOM     82  C   UNL     1       3.754  -0.188  13.111  1.00  0.00     0.022 A 
BRANCH  79  83
ATOM     83  S   UNL     1       3.939   0.577  15.785  1.00  0.00     0.124 S 
ATOM     84  O   UNL     1       5.289   0.963  16.179  1.00  0.00    -0.237 OA
ATOM     85  O   UNL     1       2.866   1.469  16.210  1.00  0.00    -0.237 OA
ATOM     86  O   UNL     1       3.640  -0.850  15.889  1.00  0.00    -0.744 OA
ENDBRANCH  79  83
ENDBRANCH  52  76
BRANCH  64  87
ATOM     87  C   UNL     1      10.487   5.859  13.337  1.00  0.00     0.023 A 
ATOM     88  C   UNL     1      11.326   4.735  13.238  1.00  0.00     0.031 A 
ATOM     89  C   UNL     1      10.742   6.782  14.368  1.00  0.00     0.131 A 
ATOM     90  C   UNL     1      12.338   4.532  14.189  1.00  0.00     0.055 A 
ATOM     91  C   UNL     1      11.796   6.612  15.266  1.00  0.00     0.041 A 
ATOM     92  F   UNL     1       9.972   7.872  14.515  1.00  0.00    -0.206 F 
ATOM     93  C   UNL     1      12.592   5.474  15.189  1.00  0.00     0.022 A 
BRANCH  90  94
ATOM     94  S   UNL     1      13.254   2.966  14.168  1.00  0.00     0.124 S 
ATOM     95  O   UNL     1      12.181   1.987  14.307  1.00  0.00    -0.237 OA
ATOM     96  O   UNL     1      13.914   3.008  12.867  1.00  0.00    -0.237 OA
ATOM     97  O   UNL     1      14.147   3.075  15.320  1.00  0.00    -0.744 OA
ENDBRANCH  90  94
ENDBRANCH  64  87
ENDBRANCH  38  39
ENDBRANCH  31  33
ENDBRANCH  30  31
ENDBRANCH  29  30
ENDBRANCH  28  29
ENDBRANCH  27  28
ENDBRANCH  26  27
ENDBRANCH   1  26
TORSDOF 25
