REMARK SMILES Cc1nn([C@H]2CCS(=O)(=O)C2)c(C)c1/C=C(\CC(=O)OCCOCCOCCOCCOC(=O)c1ccc(-c2c3nc(c(-c4cc(S(=O)(=O)[O-])ccc4F)c4ccc([nH]4)c(-c4cc(S(=O)(=O)[O-])ccc4F)c4nc(c(-c5cc(S(=O)(=O)[O-])ccc5F)c5ccc2[nH]5)C=C4)C=C3)cc1)c1nc2ccccc2s1
REMARK SMILES IDX 26 1 25 2 24 3 23 4 22 5 21 6 20 7 18 8 19 9 17 10 16 11
REMARK SMILES IDX 15 12 14 13 1 14 2 15 3 16 4 17 12 18 13 19 5 20 6 21 11 22
REMARK SMILES IDX 7 23 8 24 9 25 10 26 98 27 99 28 106 29 100 30 105 31 101 32
REMARK SMILES IDX 104 33 102 34 103 35 27 36 28 37 29 38 30 39 31 40 32 41
REMARK SMILES IDX 33 42 34 43 35 44 36 45 97 46 37 47 96 48 38 49 39 50 40 51
REMARK SMILES IDX 90 52 41 53 95 54 89 55 91 56 42 57 94 58 88 59 87 60 43 62
REMARK SMILES IDX 75 63 55 64 74 65 56 66 59 67 73 68 92 69 57 70 58 71 72 73
REMARK SMILES IDX 93 74 60 75 44 76 45 77 53 78 46 79 52 80 54 81 51 82 47 83
REMARK SMILES IDX 48 84 49 85 50 86 76 87 77 88 85 89 78 90 84 91 86 92 83 93
REMARK SMILES IDX 79 94 80 95 81 96 82 97 61 98 62 99 70 100 63 101 69 102
REMARK SMILES IDX 71 103 68 104 64 105 65 106 66 107 67 108
REMARK H PARENT 91 61 59 72
REMARK Flexibility Score: inf
ROOT
ATOM      1  O   UNL     1       3.231  -7.539   6.562  1.00  0.00    -0.377 OA
ENDROOT
BRANCH   1   2
ATOM      2  C   UNL     1       4.171  -6.620   6.027  1.00  0.00     0.188 C 
BRANCH   2   3
ATOM      3  C   UNL     1       5.094  -5.897   7.047  1.00  0.00     0.188 C 
BRANCH   3   4
ATOM      4  O   UNL     1       4.695  -5.627   8.395  1.00  0.00    -0.376 OA
BRANCH   4   5
ATOM      5  C   UNL     1       3.464  -6.133   8.878  1.00  0.00     0.202 C 
BRANCH   5   6
ATOM      6  C   UNL     1       2.243  -5.312   8.451  1.00  0.00     0.261 C 
BRANCH   6   7
ATOM      7  O   UNL     1       2.244  -4.923   7.069  1.00  0.00    -0.463 OA
BRANCH   7   8
ATOM      8  C   UNL     1       3.030  -3.853   6.750  1.00  0.00     0.310 C 
ATOM      9  O   UNL     1       3.628  -3.154   7.563  1.00  0.00    -0.252 OA
BRANCH   8  10
ATOM     10  C   UNL     1       2.828  -3.410   5.304  1.00  0.00     0.161 C 
BRANCH  10  11
ATOM     11  C   UNL     1       2.726  -3.861   3.882  1.00  0.00    -0.000 C 
ATOM     12  C   UNL     1       1.612  -3.456   3.197  1.00  0.00     0.019 C 
BRANCH  12  13
ATOM     13  C   UNL     1       0.471  -2.613   3.605  1.00  0.00     0.019 A 
ATOM     14  C   UNL     1      -1.236  -3.440   1.779  1.00  0.00     0.069 C 
ATOM     15  C   UNL     1      -0.762  -2.555   2.880  1.00  0.00     0.067 A 
ATOM     16  N   UNL     1      -1.557  -1.575   3.323  1.00  0.00    -0.177 NA
ATOM     17  N   UNL     1      -0.859  -0.994   4.314  1.00  0.00    -0.265 N 
ATOM     18  C   UNL     1       0.232  -1.746   4.692  1.00  0.00     0.043 A 
ATOM     19  C   UNL     1       0.862  -1.518   6.029  1.00  0.00     0.067 C 
BRANCH  17  20
ATOM     20  C   UNL     1      -1.224   0.369   4.676  1.00  0.00     0.123 C 
ATOM     21  C   UNL     1      -2.682   0.528   5.137  1.00  0.00     0.044 C 
ATOM     22  C   UNL     1      -0.431   1.091   5.766  1.00  0.00     0.164 C 
ATOM     23  C   UNL     1      -2.865   2.018   5.444  1.00  0.00     0.139 C 
ATOM     24  S   UNL     1      -1.281   2.611   6.015  1.00  0.00     0.152 S 
ATOM     25  O   UNL     1      -0.756   3.578   5.073  1.00  0.00    -0.229 OA
ATOM     26  O   UNL     1      -1.346   2.869   7.437  1.00  0.00    -0.229 OA
ENDBRANCH  17  20
ENDBRANCH  12  13
BRANCH  11  27
ATOM     27  C   UNL     1       3.841  -4.494   3.205  1.00  0.00     0.121 A 
ATOM     28  N   UNL     1       5.086  -4.413   3.644  1.00  0.00    -0.236 NA
ATOM     29  S   UNL     1       3.688  -5.466   1.774  1.00  0.00    -0.114 S 
ATOM     30  C   UNL     1       5.959  -5.161   2.864  1.00  0.00     0.082 A 
ATOM     31  C   UNL     1       5.370  -5.840   1.799  1.00  0.00     0.055 A 
ATOM     32  C   UNL     1       7.343  -5.331   3.098  1.00  0.00     0.030 A 
ATOM     33  C   UNL     1       6.117  -6.692   0.962  1.00  0.00     0.021 A 
ATOM     34  C   UNL     1       8.085  -6.209   2.297  1.00  0.00     0.002 A 
ATOM     35  C   UNL     1       7.475  -6.883   1.244  1.00  0.00     0.002 A 
ENDBRANCH  11  27
ENDBRANCH  10  11
ENDBRANCH   8  10
ENDBRANCH   7   8
ENDBRANCH   6   7
ENDBRANCH   5   6
ENDBRANCH   4   5
ENDBRANCH   3   4
ENDBRANCH   2   3
ENDBRANCH   1   2
BRANCH   1  36
ATOM     36  C   UNL     1       3.558  -8.907   6.371  1.00  0.00     0.188 C 
BRANCH  36  37
ATOM     37  C   UNL     1       4.886  -9.338   7.018  1.00  0.00     0.188 C 
BRANCH  37  38
ATOM     38  O   UNL     1       5.995  -8.489   6.742  1.00  0.00    -0.376 OA
BRANCH  38  39
ATOM     39  C   UNL     1       6.952  -8.834   5.753  1.00  0.00     0.202 C 
BRANCH  39  40
ATOM     40  C   UNL     1       6.509  -8.664   4.308  1.00  0.00     0.261 C 
BRANCH  40  41
ATOM     41  O   UNL     1       5.296  -9.302   3.969  1.00  0.00    -0.460 OA
BRANCH  41  42
ATOM     42  C   UNL     1       5.299 -10.633   4.147  1.00  0.00     0.338 C 
ATOM     43  O   UNL     1       6.035 -11.290   4.856  1.00  0.00    -0.246 OA
BRANCH  42  44
ATOM     44  C   UNL     1       4.391 -11.212   3.169  1.00  0.00     0.060 A 
ATOM     45  C   UNL     1       4.370 -12.602   3.170  1.00  0.00     0.016 A 
ATOM     46  C   UNL     1       3.931 -10.430   2.093  1.00  0.00     0.016 A 
ATOM     47  C   UNL     1       4.107 -13.221   1.982  1.00  0.00     0.010 A 
ATOM     48  C   UNL     1       3.671 -11.055   0.903  1.00  0.00     0.010 A 
ATOM     49  C   UNL     1       3.834 -12.433   0.855  1.00  0.00    -0.014 A 
BRANCH  49  50
ATOM     50  C   UNL     1       3.517 -13.158  -0.342  1.00  0.00     0.031 A 
ATOM     51  C   UNL     1       2.204 -13.811  -0.232  1.00  0.00     0.074 A 
ATOM     52  C   UNL     1       4.308 -13.229  -1.417  1.00  0.00     0.049 A 
ATOM     53  N   UNL     1       1.980 -15.052   0.028  1.00  0.00    -0.248 NA
ATOM     54  C   UNL     1       1.026 -12.940  -0.125  1.00  0.00     0.031 C 
ATOM     55  C   UNL     1       5.477 -12.421  -1.751  1.00  0.00     0.029 A 
ATOM     56  N   UNL     1       4.137 -14.018  -2.504  1.00  0.00    -0.354 N 
ATOM     57  C   UNL     1       0.601 -15.164   0.078  1.00  0.00     0.074 A 
ATOM     58  C   UNL     1       0.101 -13.827   0.236  1.00  0.00     0.031 C 
ATOM     59  C   UNL     1       5.772 -12.613  -3.058  1.00  0.00     0.029 A 
ATOM     60  C   UNL     1       4.894 -13.642  -3.598  1.00  0.00     0.049 A 
ATOM     61  H   UNL     1       3.529 -14.792  -2.514  1.00  0.00     0.167 HD
ATOM     62  C   UNL     1      -0.009 -16.312  -0.312  1.00  0.00     0.034 A 
ATOM     63  C   UNL     1       4.712 -14.082  -4.867  1.00  0.00     0.034 A 
ATOM     64  C   UNL     1       0.926 -17.422  -0.302  1.00  0.00     0.049 A 
ATOM     65  C   UNL     1       3.997 -15.387  -4.785  1.00  0.00     0.074 A 
ATOM     66  C   UNL     1       1.741 -17.980   0.668  1.00  0.00     0.029 A 
ATOM     67  N   UNL     1       1.427 -17.874  -1.506  1.00  0.00    -0.354 N 
ATOM     68  N   UNL     1       4.523 -16.462  -4.261  1.00  0.00    -0.248 NA
ATOM     69  C   UNL     1       2.541 -15.393  -4.844  1.00  0.00     0.031 C 
ATOM     70  C   UNL     1       2.948 -18.324  -0.010  1.00  0.00     0.029 A 
ATOM     71  C   UNL     1       2.786 -18.026  -1.365  1.00  0.00     0.049 A 
ATOM     72  H   UNL     1       0.904 -18.055  -2.320  1.00  0.00     0.167 HD
ATOM     73  C   UNL     1       3.497 -17.065  -3.547  1.00  0.00     0.074 A 
ATOM     74  C   UNL     1       2.278 -16.426  -4.036  1.00  0.00     0.031 C 
ATOM     75  C   UNL     1       3.750 -17.816  -2.433  1.00  0.00     0.034 A 
BRANCH  62  76
ATOM     76  C   UNL     1      -1.306 -16.331  -1.090  1.00  0.00     0.023 A 
ATOM     77  C   UNL     1      -1.768 -17.592  -1.497  1.00  0.00     0.031 A 
ATOM     78  C   UNL     1      -1.941 -15.221  -1.699  1.00  0.00     0.131 A 
ATOM     79  C   UNL     1      -2.688 -17.715  -2.549  1.00  0.00     0.055 A 
ATOM     80  C   UNL     1      -2.910 -15.349  -2.696  1.00  0.00     0.041 A 
ATOM     81  F   UNL     1      -1.617 -13.950  -1.442  1.00  0.00    -0.206 F 
ATOM     82  C   UNL     1      -3.260 -16.602  -3.157  1.00  0.00     0.022 A 
BRANCH  79  83
ATOM     83  S   UNL     1      -2.964 -19.363  -3.236  1.00  0.00     0.124 S 
ATOM     84  O   UNL     1      -1.598 -19.781  -3.534  1.00  0.00    -0.237 OA
ATOM     85  O   UNL     1      -3.619 -20.041  -2.123  1.00  0.00    -0.237 OA
ATOM     86  O   UNL     1      -3.810 -19.105  -4.398  1.00  0.00    -0.744 OA
ENDBRANCH  79  83
ENDBRANCH  62  76
BRANCH  63  87
ATOM     87  C   UNL     1       4.828 -13.263  -6.099  1.00  0.00     0.023 A 
ATOM     88  C   UNL     1       4.949 -13.845  -7.374  1.00  0.00     0.031 A 
ATOM     89  C   UNL     1       4.595 -11.868  -6.055  1.00  0.00     0.131 A 
ATOM     90  C   UNL     1       4.845 -13.042  -8.532  1.00  0.00     0.055 A 
ATOM     91  C   UNL     1       4.511 -11.077  -7.201  1.00  0.00     0.041 A 
ATOM     92  F   UNL     1       4.355 -11.234  -4.897  1.00  0.00    -0.206 F 
ATOM     93  C   UNL     1       4.627 -11.664  -8.448  1.00  0.00     0.022 A 
BRANCH  90  94
ATOM     94  S   UNL     1       4.882 -13.809 -10.181  1.00  0.00     0.124 S 
ATOM     95  O   UNL     1       6.279 -14.205 -10.305  1.00  0.00    -0.237 OA
ATOM     96  O   UNL     1       3.909 -14.888 -10.045  1.00  0.00    -0.237 OA
ATOM     97  O   UNL     1       4.468 -12.723 -11.070  1.00  0.00    -0.744 OA
ENDBRANCH  90  94
ENDBRANCH  63  87
BRANCH  75  98
ATOM     98  C   UNL     1       5.175 -18.273  -2.179  1.00  0.00     0.023 A 
ATOM     99  C   UNL     1       6.297 -17.416  -2.096  1.00  0.00     0.031 A 
ATOM    100  C   UNL     1       5.383 -19.639  -1.910  1.00  0.00     0.131 A 
ATOM    101  C   UNL     1       7.566 -17.939  -1.778  1.00  0.00     0.055 A 
ATOM    102  C   UNL     1       6.637 -20.150  -1.574  1.00  0.00     0.041 A 
ATOM    103  F   UNL     1       4.356 -20.504  -1.941  1.00  0.00    -0.206 F 
ATOM    104  C   UNL     1       7.736 -19.302  -1.516  1.00  0.00     0.022 A 
BRANCH 101 105
ATOM    105  S   UNL     1       9.030 -16.857  -1.725  1.00  0.00     0.124 S 
ATOM    106  O   UNL     1       8.893 -16.030  -2.918  1.00  0.00    -0.237 OA
ATOM    107  O   UNL     1       8.864 -16.167  -0.448  1.00  0.00    -0.237 OA
ATOM    108  O   UNL     1      10.150 -17.800  -1.763  1.00  0.00    -0.744 OA
ENDBRANCH 101 105
ENDBRANCH  75  98
ENDBRANCH  49  50
ENDBRANCH  42  44
ENDBRANCH  41  42
ENDBRANCH  40  41
ENDBRANCH  39  40
ENDBRANCH  38  39
ENDBRANCH  37  38
ENDBRANCH  36  37
ENDBRANCH   1  36
TORSDOF 27
