REMARK SMILES O=C(OCCOCCOCCOCCOC(=O)[C@]1(NC(=O)C2CCN(C(=O)C3CC3)CC2)CCCc2ccccc21)c1ccc(-c2c3nc(c(-c4cc(S(=O)(=O)[O-])ccc4F)c4ccc([nH]4)c(-c4cc(S(=O)(=O)[O-])ccc4F)c4nc(c(-c5cc(S(=O)(=O)[O-])ccc5F)c5ccc2[nH]5)C=C4)C=C3)cc1
REMARK SMILES IDX 9 1 8 2 7 3 6 4 5 5 4 6 3 7 2 8 1 9 42 10 43 11 104 12 44 13
REMARK SMILES IDX 103 14 45 15 46 16 47 17 97 18 48 19 102 20 96 21 98 22
REMARK SMILES IDX 49 23 101 24 95 25 94 26 50 28 82 29 62 30 81 31 63 32 66 33
REMARK SMILES IDX 80 34 99 35 64 36 65 37 79 39 100 40 67 41 51 42 52 43 60 44
REMARK SMILES IDX 53 45 59 46 61 47 58 48 54 49 55 50 56 51 57 52 83 53 84 54
REMARK SMILES IDX 92 55 85 56 91 57 93 58 90 59 86 60 87 61 88 62 89 63 68 64
REMARK SMILES IDX 69 65 77 66 70 67 76 68 78 69 75 70 71 71 72 72 73 73 74 74
REMARK SMILES IDX 10 75 11 76 12 77 13 78 14 79 15 80 16 81 17 82 18 83 33 84
REMARK SMILES IDX 41 85 34 86 36 87 40 88 35 89 37 90 39 91 38 92 19 93 20 94
REMARK SMILES IDX 21 96 22 97 23 98 32 99 24 100 31 101 25 102 26 103 27 104
REMARK SMILES IDX 28 105 29 106 30 107
REMARK H PARENT 98 27 66 38 19 95
REMARK Flexibility Score: inf
ROOT
ATOM      1  O   UNL     1       2.963   2.986   1.651  1.00  0.00    -0.377 OA
ENDROOT
BRANCH   1   2
ATOM      2  C   UNL     1       2.359   1.726   1.841  1.00  0.00     0.188 C 
BRANCH   2   3
ATOM      3  C   UNL     1       2.724   0.678   0.809  1.00  0.00     0.188 C 
BRANCH   3   4
ATOM      4  O   UNL     1       4.127   0.435   0.775  1.00  0.00    -0.376 OA
BRANCH   4   5
ATOM      5  C   UNL     1       4.752   0.447  -0.511  1.00  0.00     0.202 C 
BRANCH   5   6
ATOM      6  C   UNL     1       4.338  -0.631  -1.522  1.00  0.00     0.261 C 
BRANCH   6   7
ATOM      7  O   UNL     1       3.015  -1.174  -1.370  1.00  0.00    -0.460 OA
BRANCH   7   8
ATOM      8  C   UNL     1       2.555  -2.144  -0.539  1.00  0.00     0.338 C 
ATOM      9  O   UNL     1       1.422  -2.590  -0.714  1.00  0.00    -0.246 OA
BRANCH   8  10
ATOM     10  C   UNL     1       3.275  -2.562   0.705  1.00  0.00     0.060 A 
ATOM     11  C   UNL     1       4.592  -2.225   0.993  1.00  0.00     0.016 A 
ATOM     12  C   UNL     1       2.539  -3.249   1.695  1.00  0.00     0.016 A 
ATOM     13  C   UNL     1       5.121  -2.391   2.251  1.00  0.00     0.010 A 
ATOM     14  C   UNL     1       3.114  -3.559   2.932  1.00  0.00     0.010 A 
ATOM     15  C   UNL     1       4.410  -3.116   3.198  1.00  0.00    -0.014 A 
BRANCH  15  16
ATOM     16  C   UNL     1       5.272  -3.652   4.255  1.00  0.00     0.031 A 
ATOM     17  C   UNL     1       6.021  -4.904   3.896  1.00  0.00     0.074 A 
ATOM     18  C   UNL     1       5.628  -2.841   5.266  1.00  0.00     0.049 A 
ATOM     19  N   UNL     1       6.986  -5.506   4.527  1.00  0.00    -0.248 NA
ATOM     20  C   UNL     1       5.681  -5.518   2.594  1.00  0.00     0.031 C 
ATOM     21  C   UNL     1       5.093  -1.491   5.485  1.00  0.00     0.029 A 
ATOM     22  N   UNL     1       6.567  -2.990   6.244  1.00  0.00    -0.354 N 
ATOM     23  C   UNL     1       7.377  -6.552   3.696  1.00  0.00     0.074 A 
ATOM     24  C   UNL     1       6.551  -6.508   2.516  1.00  0.00     0.031 C 
ATOM     25  C   UNL     1       5.717  -0.940   6.540  1.00  0.00     0.029 A 
ATOM     26  C   UNL     1       6.640  -1.918   7.104  1.00  0.00     0.049 A 
ATOM     27  H   UNL     1       7.138  -3.787   6.327  1.00  0.00     0.167 HD
ATOM     28  C   UNL     1       8.340  -7.473   3.922  1.00  0.00     0.034 A 
ATOM     29  C   UNL     1       7.347  -1.792   8.243  1.00  0.00     0.034 A 
ATOM     30  C   UNL     1       9.068  -7.502   5.160  1.00  0.00     0.049 A 
ATOM     31  C   UNL     1       8.253  -2.951   8.590  1.00  0.00     0.074 A 
ATOM     32  C   UNL     1       9.912  -8.471   5.660  1.00  0.00     0.029 A 
ATOM     33  N   UNL     1       9.004  -6.488   6.116  1.00  0.00    -0.354 N 
ATOM     34  N   UNL     1       8.516  -4.031   7.881  1.00  0.00    -0.248 NA
ATOM     35  C   UNL     1       8.951  -2.888   9.874  1.00  0.00     0.031 C 
ATOM     36  C   UNL     1      10.301  -8.075   6.945  1.00  0.00     0.029 A 
ATOM     37  C   UNL     1       9.773  -6.817   7.213  1.00  0.00     0.049 A 
ATOM     38  H   UNL     1       8.485  -5.657   6.021  1.00  0.00     0.167 HD
ATOM     39  C   UNL     1       9.421  -4.772   8.630  1.00  0.00     0.074 A 
ATOM     40  C   UNL     1       9.685  -3.990   9.826  1.00  0.00     0.031 C 
ATOM     41  C   UNL     1       9.980  -5.987   8.378  1.00  0.00     0.034 A 
BRANCH  28  42
ATOM     42  C   UNL     1       8.495  -8.555   2.884  1.00  0.00     0.023 A 
ATOM     43  C   UNL     1       8.953  -8.276   1.581  1.00  0.00     0.031 A 
ATOM     44  C   UNL     1       8.029  -9.854   3.152  1.00  0.00     0.131 A 
ATOM     45  C   UNL     1       8.858  -9.258   0.581  1.00  0.00     0.055 A 
ATOM     46  C   UNL     1       8.010 -10.848   2.171  1.00  0.00     0.041 A 
ATOM     47  F   UNL     1       7.534 -10.165   4.360  1.00  0.00    -0.206 F 
ATOM     48  C   UNL     1       8.411 -10.549   0.873  1.00  0.00     0.022 A 
BRANCH  45  49
ATOM     49  S   UNL     1       9.170  -8.783  -1.145  1.00  0.00     0.124 S 
ATOM     50  O   UNL     1       8.102  -7.813  -1.379  1.00  0.00    -0.237 OA
ATOM     51  O   UNL     1      10.522  -8.240  -1.086  1.00  0.00    -0.237 OA
ATOM     52  O   UNL     1       9.034 -10.040  -1.877  1.00  0.00    -0.744 OA
ENDBRANCH  45  49
ENDBRANCH  28  42
BRANCH  29  53
ATOM     53  C   UNL     1       7.138  -0.635   9.168  1.00  0.00     0.023 A 
ATOM     54  C   UNL     1       8.201   0.154   9.635  1.00  0.00     0.031 A 
ATOM     55  C   UNL     1       5.853  -0.355   9.681  1.00  0.00     0.131 A 
ATOM     56  C   UNL     1       7.973   1.136  10.618  1.00  0.00     0.055 A 
ATOM     57  C   UNL     1       5.621   0.665  10.607  1.00  0.00     0.041 A 
ATOM     58  F   UNL     1       4.791  -1.081   9.295  1.00  0.00    -0.206 F 
ATOM     59  C   UNL     1       6.689   1.405  11.095  1.00  0.00     0.022 A 
BRANCH  56  60
ATOM     60  S   UNL     1       9.400   1.972  11.368  1.00  0.00     0.124 S 
ATOM     61  O   UNL     1      10.211   0.841  11.804  1.00  0.00    -0.237 OA
ATOM     62  O   UNL     1       9.923   2.743  10.246  1.00  0.00    -0.237 OA
ATOM     63  O   UNL     1       8.805   2.763  12.444  1.00  0.00    -0.744 OA
ENDBRANCH  56  60
ENDBRANCH  29  53
BRANCH  41  64
ATOM     64  C   UNL     1      10.945  -6.494   9.412  1.00  0.00     0.023 A 
ATOM     65  C   UNL     1      10.517  -6.830  10.706  1.00  0.00     0.031 A 
ATOM     66  C   UNL     1      12.307  -6.628   9.099  1.00  0.00     0.131 A 
ATOM     67  C   UNL     1      11.459  -7.207  11.668  1.00  0.00     0.055 A 
ATOM     68  C   UNL     1      13.229  -7.085  10.038  1.00  0.00     0.041 A 
ATOM     69  F   UNL     1      12.761  -6.320   7.873  1.00  0.00    -0.206 F 
ATOM     70  C   UNL     1      12.809  -7.359  11.337  1.00  0.00     0.022 A 
BRANCH  67  71
ATOM     71  S   UNL     1      10.913  -7.367  13.387  1.00  0.00     0.124 S 
ATOM     72  O   UNL     1      10.356  -6.044  13.650  1.00  0.00    -0.237 OA
ATOM     73  O   UNL     1       9.948  -8.459  13.307  1.00  0.00    -0.237 OA
ATOM     74  O   UNL     1      12.145  -7.678  14.108  1.00  0.00    -0.744 OA
ENDBRANCH  67  71
ENDBRANCH  41  64
ENDBRANCH  15  16
ENDBRANCH   8  10
ENDBRANCH   7   8
ENDBRANCH   6   7
ENDBRANCH   5   6
ENDBRANCH   4   5
ENDBRANCH   3   4
ENDBRANCH   2   3
ENDBRANCH   1   2
BRANCH   1  75
ATOM     75  C   UNL     1       4.379   3.091   1.603  1.00  0.00     0.188 C 
BRANCH  75  76
ATOM     76  C   UNL     1       5.141   2.894   2.898  1.00  0.00     0.188 C 
BRANCH  76  77
ATOM     77  O   UNL     1       4.868   3.920   3.855  1.00  0.00    -0.376 OA
BRANCH  77  78
ATOM     78  C   UNL     1       3.513   3.994   4.279  1.00  0.00     0.202 C 
BRANCH  78  79
ATOM     79  C   UNL     1       2.741   5.227   3.746  1.00  0.00     0.261 C 
BRANCH  79  80
ATOM     80  O   UNL     1       2.931   5.579   2.346  1.00  0.00    -0.461 OA
BRANCH  80  81
ATOM     81  C   UNL     1       4.081   6.265   2.116  1.00  0.00     0.336 C 
ATOM     82  O   UNL     1       4.831   6.591   3.038  1.00  0.00    -0.249 OA
BRANCH  81  83
ATOM     83  C   UNL     1       4.405   6.661   0.573  1.00  0.00     0.164 C 
ATOM     84  C   UNL     1       5.813   6.112   0.157  1.00  0.00     0.046 C 
ATOM     85  C   UNL     1       4.513   8.198   0.760  1.00  0.00    -0.008 A 
ATOM     86  C   UNL     1       6.965   6.573   1.049  1.00  0.00     0.008 C 
ATOM     87  C   UNL     1       5.718   8.824   1.116  1.00  0.00    -0.042 A 
ATOM     88  C   UNL     1       3.303   8.929   0.770  1.00  0.00     0.007 A 
ATOM     89  C   UNL     1       7.042   8.096   1.143  1.00  0.00     0.036 C 
ATOM     90  C   UNL     1       5.675  10.176   1.479  1.00  0.00     0.004 A 
ATOM     91  C   UNL     1       3.282  10.266   1.123  1.00  0.00     0.000 A 
ATOM     92  C   UNL     1       4.469  10.886   1.490  1.00  0.00     0.000 A 
BRANCH  83  93
ATOM     93  N   UNL     1       3.529   6.572  -0.676  1.00  0.00    -0.336 N 
ATOM     94  C   UNL     1       2.773   5.736  -1.420  1.00  0.00     0.224 C 
ATOM     95  H   UNL     1       3.509   7.460  -1.099  1.00  0.00     0.164 HD
ATOM     96  O   UNL     1       2.535   6.076  -2.584  1.00  0.00    -0.275 OA
BRANCH  94  97
ATOM     97  C   UNL     1       2.167   4.482  -0.871  1.00  0.00     0.082 C 
ATOM     98  C   UNL     1       2.733   3.283  -1.641  1.00  0.00     0.035 C 
ATOM     99  C   UNL     1       0.632   4.554  -0.769  1.00  0.00     0.035 C 
ATOM    100  C   UNL     1       1.783   2.441  -2.494  1.00  0.00     0.120 C 
ATOM    101  C   UNL     1      -0.110   3.780  -1.849  1.00  0.00     0.120 C 
ATOM    102  N   UNL     1       0.427   2.439  -1.970  1.00  0.00    -0.342 N 
ATOM    103  C   UNL     1      -0.244   1.227  -1.865  1.00  0.00     0.225 C 
ATOM    104  O   UNL     1       0.220   0.207  -2.397  1.00  0.00    -0.275 OA
BRANCH 103 105
ATOM    105  C   UNL     1      -1.505   1.011  -1.095  1.00  0.00     0.079 C 
ATOM    106  C   UNL     1      -2.407   1.947  -0.347  1.00  0.00     0.014 C 
ATOM    107  C   UNL     1      -2.814   1.458  -1.708  1.00  0.00     0.014 C 
ENDBRANCH 103 105
ENDBRANCH  94  97
ENDBRANCH  83  93
ENDBRANCH  81  83
ENDBRANCH  80  81
ENDBRANCH  79  80
ENDBRANCH  78  79
ENDBRANCH  77  78
ENDBRANCH  76  77
ENDBRANCH  75  76
ENDBRANCH   1  75
TORSDOF 26
