REMARK SMILES CC[C@@](C)(NC(=O)CCc1ccc(OC)c(Br)c1)C(=O)OCCOCCOCCOCCOC(=O)c1ccc(-c2c3nc(c(-c4cc(S(=O)(=O)[O-])ccc4F)c4ccc([nH]4)c(-c4cc(S(=O)(=O)[O-])ccc4F)c4nc(c(-c5cc(S(=O)(=O)[O-])ccc5F)c5ccc2[nH]5)C=C4)C=C3)cc1
REMARK SMILES IDX 26 1 25 2 24 3 23 4 22 5 21 6 19 7 20 8 3 9 4 10 2 11 1 12
REMARK SMILES IDX 5 13 6 14 7 16 8 17 9 18 10 19 11 20 18 21 12 22 16 23 13 24
REMARK SMILES IDX 17 25 14 26 15 27 27 28 28 29 29 30 30 31 31 32 32 33 33 34
REMARK SMILES IDX 34 35 35 36 36 37 37 38 98 39 38 40 97 41 39 42 40 43 41 44
REMARK SMILES IDX 91 45 42 46 96 47 90 48 92 49 43 50 95 51 89 52 88 53 44 55
REMARK SMILES IDX 76 56 56 57 75 58 57 59 60 60 74 61 93 62 58 63 59 64 73 66
REMARK SMILES IDX 94 67 61 68 45 69 46 70 54 71 47 72 53 73 55 74 52 75 48 76
REMARK SMILES IDX 49 77 50 78 51 79 77 80 78 81 86 82 79 83 85 84 87 85 84 86
REMARK SMILES IDX 80 87 81 88 82 89 83 90 62 91 63 92 71 93 64 94 70 95 72 96
REMARK SMILES IDX 69 97 65 98 66 99 67 100 68 101
REMARK H PARENT 5 15 92 54 60 65
REMARK Flexibility Score: inf
ROOT
ATOM      1  C   UNL     1       4.665  -1.459  -3.489  1.00  0.00     0.188 C 
ENDROOT
BRANCH   1   2
ATOM      2  C   UNL     1       5.529  -1.471  -2.206  1.00  0.00     0.188 C 
BRANCH   2   3
ATOM      3  O   UNL     1       4.886  -1.849  -0.971  1.00  0.00    -0.376 OA
BRANCH   3   4
ATOM      4  C   UNL     1       5.030  -3.221  -0.517  1.00  0.00     0.202 C 
BRANCH   4   5
ATOM      5  C   UNL     1       4.160  -3.559   0.785  1.00  0.00     0.261 C 
BRANCH   5   6
ATOM      6  O   UNL     1       2.741  -3.959   0.511  1.00  0.00    -0.462 OA
BRANCH   6   7
ATOM      7  C   UNL     1       1.730  -3.537   1.359  1.00  0.00     0.331 C 
ATOM      8  O   UNL     1       1.973  -3.128   2.494  1.00  0.00    -0.249 OA
BRANCH   7   9
ATOM      9  C   UNL     1       0.216  -3.526   0.742  1.00  0.00     0.135 C 
ATOM     10  C   UNL     1      -0.678  -3.925   1.938  1.00  0.00     0.047 C 
BRANCH   9  11
ATOM     11  C   UNL     1      -0.574  -2.322   0.065  1.00  0.00     0.037 C 
ATOM     12  C   UNL     1      -0.976  -1.029   0.753  1.00  0.00     0.007 C 
ENDBRANCH   9  11
BRANCH   9  13
ATOM     13  N   UNL     1       0.147  -4.548  -0.302  1.00  0.00    -0.340 N 
ATOM     14  C   UNL     1       0.473  -4.349  -1.604  1.00  0.00     0.221 C 
ATOM     15  H   UNL     1      -0.160  -5.446  -0.041  1.00  0.00     0.164 HD
ATOM     16  O   UNL     1      -0.086  -5.076  -2.432  1.00  0.00    -0.275 OA
BRANCH  14  17
ATOM     17  C   UNL     1       1.530  -3.355  -2.070  1.00  0.00     0.105 C 
BRANCH  17  18
ATOM     18  C   UNL     1       2.128  -2.060  -1.460  1.00  0.00     0.045 C 
BRANCH  18  19
ATOM     19  C   UNL     1       1.934  -0.701  -0.795  1.00  0.00    -0.046 A 
ATOM     20  C   UNL     1       2.073  -0.530   0.601  1.00  0.00     0.007 A 
ATOM     21  C   UNL     1       2.034   0.473  -1.551  1.00  0.00     0.023 A 
ATOM     22  C   UNL     1       2.172   0.705   1.236  1.00  0.00     0.048 A 
ATOM     23  C   UNL     1       2.247   1.718  -0.934  1.00  0.00     0.060 A 
ATOM     24  C   UNL     1       2.250   1.838   0.459  1.00  0.00     0.133 A 
ATOM     25  Br  UNL     1       2.652   3.207  -2.036  1.00  0.00    -0.047 Br
BRANCH  24  26
ATOM     26  O   UNL     1       2.397   3.036   1.098  1.00  0.00    -0.496 OA
ATOM     27  C   UNL     1       1.124   3.672   1.208  1.00  0.00     0.278 C 
ENDBRANCH  24  26
ENDBRANCH  18  19
ENDBRANCH  17  18
ENDBRANCH  14  17
ENDBRANCH   9  13
ENDBRANCH   7   9
ENDBRANCH   6   7
ENDBRANCH   5   6
ENDBRANCH   4   5
ENDBRANCH   3   4
ENDBRANCH   2   3
ENDBRANCH   1   2
BRANCH   1  28
ATOM     28  O   UNL     1       4.069  -2.713  -3.798  1.00  0.00    -0.377 OA
BRANCH  28  29
ATOM     29  C   UNL     1       4.974  -3.726  -4.207  1.00  0.00     0.188 C 
BRANCH  29  30
ATOM     30  C   UNL     1       5.856  -3.335  -5.398  1.00  0.00     0.188 C 
BRANCH  30  31
ATOM     31  O   UNL     1       5.279  -2.820  -6.595  1.00  0.00    -0.376 OA
BRANCH  31  32
ATOM     32  C   UNL     1       3.882  -2.917  -6.825  1.00  0.00     0.202 C 
BRANCH  32  33
ATOM     33  C   UNL     1       3.324  -4.271  -7.285  1.00  0.00     0.261 C 
BRANCH  33  34
ATOM     34  O   UNL     1       3.683  -5.390  -6.466  1.00  0.00    -0.460 OA
BRANCH  34  35
ATOM     35  C   UNL     1       4.847  -5.993  -6.817  1.00  0.00     0.338 C 
ATOM     36  O   UNL     1       5.594  -5.681  -7.721  1.00  0.00    -0.246 OA
BRANCH  35  37
ATOM     37  C   UNL     1       5.164  -7.048  -5.835  1.00  0.00     0.060 A 
ATOM     38  C   UNL     1       6.375  -6.977  -5.134  1.00  0.00     0.016 A 
ATOM     39  C   UNL     1       4.334  -8.162  -5.709  1.00  0.00     0.016 A 
ATOM     40  C   UNL     1       6.790  -8.045  -4.347  1.00  0.00     0.010 A 
ATOM     41  C   UNL     1       4.764  -9.247  -4.941  1.00  0.00     0.010 A 
ATOM     42  C   UNL     1       6.017  -9.210  -4.301  1.00  0.00    -0.014 A 
BRANCH  42  43
ATOM     43  C   UNL     1       6.640 -10.455  -3.798  1.00  0.00     0.031 A 
ATOM     44  C   UNL     1       7.220 -11.414  -4.804  1.00  0.00     0.074 A 
ATOM     45  C   UNL     1       6.752 -10.690  -2.479  1.00  0.00     0.049 A 
ATOM     46  N   UNL     1       7.772 -12.583  -4.616  1.00  0.00    -0.248 NA
ATOM     47  C   UNL     1       7.167 -10.993  -6.215  1.00  0.00     0.031 C 
ATOM     48  C   UNL     1       6.295  -9.791  -1.420  1.00  0.00     0.029 A 
ATOM     49  N   UNL     1       7.284 -11.760  -1.808  1.00  0.00    -0.354 N 
ATOM     50  C   UNL     1       8.128 -13.041  -5.881  1.00  0.00     0.074 A 
ATOM     51  C   UNL     1       7.696 -12.039  -6.830  1.00  0.00     0.031 C 
ATOM     52  C   UNL     1       6.556 -10.356  -0.229  1.00  0.00     0.029 A 
ATOM     53  C   UNL     1       7.153 -11.673  -0.442  1.00  0.00     0.049 A 
ATOM     54  H   UNL     1       7.718 -12.519  -2.260  1.00  0.00     0.167 HD
ATOM     55  C   UNL     1       8.765 -14.189  -6.215  1.00  0.00     0.034 A 
ATOM     56  C   UNL     1       7.450 -12.572   0.518  1.00  0.00     0.034 A 
ATOM     57  C   UNL     1       9.178 -15.179  -5.253  1.00  0.00     0.049 A 
ATOM     58  C   UNL     1       8.063 -13.893   0.108  1.00  0.00     0.074 A 
ATOM     59  C   UNL     1       9.824 -16.382  -5.476  1.00  0.00     0.029 A 
ATOM     60  N   UNL     1       8.978 -15.086  -3.881  1.00  0.00    -0.354 N 
ATOM     61  N   UNL     1       8.386 -14.321  -1.092  1.00  0.00    -0.248 NA
ATOM     62  C   UNL     1       8.359 -14.847   1.185  1.00  0.00     0.031 C 
ATOM     63  C   UNL     1       9.944 -17.049  -4.253  1.00  0.00     0.029 A 
ATOM     64  C   UNL     1       9.456 -16.224  -3.252  1.00  0.00     0.049 A 
ATOM     65  H   UNL     1       8.557 -14.322  -3.423  1.00  0.00     0.167 HD
ATOM     66  C   UNL     1       8.955 -15.580  -0.906  1.00  0.00     0.074 A 
ATOM     67  C   UNL     1       8.953 -15.826   0.521  1.00  0.00     0.031 C 
ATOM     68  C   UNL     1       9.436 -16.456  -1.826  1.00  0.00     0.034 A 
BRANCH  55  69
ATOM     69  C   UNL     1       9.000 -14.456  -7.682  1.00  0.00     0.023 A 
ATOM     70  C   UNL     1       9.848 -13.647  -8.460  1.00  0.00     0.031 A 
ATOM     71  C   UNL     1       8.359 -15.536  -8.315  1.00  0.00     0.131 A 
ATOM     72  C   UNL     1       9.989 -13.899  -9.833  1.00  0.00     0.055 A 
ATOM     73  C   UNL     1       8.563 -15.827  -9.665  1.00  0.00     0.041 A 
ATOM     74  F   UNL     1       7.516 -16.326  -7.630  1.00  0.00    -0.206 F 
ATOM     75  C   UNL     1       9.374 -14.999 -10.435  1.00  0.00     0.022 A 
BRANCH  72  76
ATOM     76  S   UNL     1      10.890 -12.697 -10.850  1.00  0.00     0.124 S 
ATOM     77  O   UNL     1      10.107 -11.483 -10.636  1.00  0.00    -0.237 OA
ATOM     78  O   UNL     1      12.221 -12.713 -10.253  1.00  0.00    -0.237 OA
ATOM     79  O   UNL     1      10.805 -13.255 -12.198  1.00  0.00    -0.744 OA
ENDBRANCH  72  76
ENDBRANCH  55  69
BRANCH  56  80
ATOM     80  C   UNL     1       7.131 -12.296   1.949  1.00  0.00     0.023 A 
ATOM     81  C   UNL     1       8.137 -12.281   2.929  1.00  0.00     0.031 A 
ATOM     82  C   UNL     1       5.800 -12.129   2.373  1.00  0.00     0.131 A 
ATOM     83  C   UNL     1       7.792 -12.170   4.285  1.00  0.00     0.055 A 
ATOM     84  C   UNL     1       5.468 -11.950   3.717  1.00  0.00     0.041 A 
ATOM     85  F   UNL     1       4.795 -12.141   1.483  1.00  0.00    -0.206 F 
ATOM     86  C   UNL     1       6.466 -11.989   4.685  1.00  0.00     0.022 A 
BRANCH  83  87
ATOM     87  S   UNL     1       9.093 -12.392   5.530  1.00  0.00     0.124 S 
ATOM     88  O   UNL     1       9.614 -13.708   5.180  1.00  0.00    -0.237 OA
ATOM     89  O   UNL     1       9.970 -11.260   5.254  1.00  0.00    -0.237 OA
ATOM     90  O   UNL     1       8.367 -12.323   6.796  1.00  0.00    -0.744 OA
ENDBRANCH  83  87
ENDBRANCH  56  80
BRANCH  68  91
ATOM     91  C   UNL     1      10.042 -17.737  -1.302  1.00  0.00     0.023 A 
ATOM     92  C   UNL     1       9.273 -18.692  -0.615  1.00  0.00     0.031 A 
ATOM     93  C   UNL     1      11.415 -17.993  -1.470  1.00  0.00     0.131 A 
ATOM     94  C   UNL     1       9.893 -19.818  -0.054  1.00  0.00     0.055 A 
ATOM     95  C   UNL     1      12.013 -19.153  -0.976  1.00  0.00     0.041 A 
ATOM     96  F   UNL     1      12.201 -17.117  -2.116  1.00  0.00    -0.206 F 
ATOM     97  C   UNL     1      11.255 -20.065  -0.248  1.00  0.00     0.022 A 
BRANCH  94  98
ATOM     98  S   UNL     1       8.922 -20.891   1.038  1.00  0.00     0.124 S 
ATOM     99  O   UNL     1       8.462 -19.950   2.055  1.00  0.00    -0.237 OA
ATOM    100  O   UNL     1       7.897 -21.407   0.138  1.00  0.00    -0.237 OA
ATOM    101  O   UNL     1       9.894 -21.879   1.502  1.00  0.00    -0.744 OA
ENDBRANCH  94  98
ENDBRANCH  68  91
ENDBRANCH  42  43
ENDBRANCH  35  37
ENDBRANCH  34  35
ENDBRANCH  33  34
ENDBRANCH  32  33
ENDBRANCH  31  32
ENDBRANCH  30  31
ENDBRANCH  29  30
ENDBRANCH  28  29
ENDBRANCH   1  28
TORSDOF 29
