REMARK SMILES CCCC[C@H]1C(=S)c2cc(C(=O)OCCOCCOCCOCCOC(=O)c3ccc(-c4c5nc(c(-c6cc(S(=O)(=O)[O-])ccc6F)c6ccc([nH]6)c(-c6cc(S(=O)(=O)[O-])ccc6F)c6nc(c(-c7cc(S(=O)(=O)[O-])ccc7F)c7ccc4[nH]7)C=C6)C=C5)cc3)ccc2N=C1C
REMARK SMILES IDX 19 1 18 2 17 3 16 4 15 5 14 6 13 7 11 8 12 9 10 10 5 11 6 12
REMARK SMILES IDX 95 13 7 14 8 15 94 16 96 17 9 18 93 19 92 20 91 21 4 22 3 23
REMARK SMILES IDX 2 24 1 25 20 26 21 27 22 28 23 29 24 30 25 31 26 32 27 33
REMARK SMILES IDX 28 34 29 35 90 36 30 37 89 38 31 39 32 40 33 41 83 42 34 43
REMARK SMILES IDX 88 44 82 45 84 46 35 47 87 48 81 49 80 50 36 52 68 53 48 54
REMARK SMILES IDX 67 55 49 56 52 57 66 58 85 59 50 60 51 61 65 63 86 64 53 65
REMARK SMILES IDX 37 66 38 67 46 68 39 69 45 70 47 71 44 72 40 73 41 74 42 75
REMARK SMILES IDX 43 76 69 77 70 78 78 79 71 80 77 81 79 82 76 83 72 84 73 85
REMARK SMILES IDX 74 86 75 87 54 88 55 89 63 90 56 91 62 92 64 93 61 94 57 95
REMARK SMILES IDX 58 96 59 97 60 98
REMARK H PARENT 84 51 52 62
REMARK Flexibility Score: inf
ROOT
ATOM      1  O   UNL     1      -3.006   7.212   4.753  1.00  0.00    -0.377 OA
ENDROOT
BRANCH   1   2
ATOM      2  C   UNL     1      -2.275   7.263   3.543  1.00  0.00     0.188 C 
BRANCH   2   3
ATOM      3  C   UNL     1      -2.729   8.348   2.552  1.00  0.00     0.188 C 
BRANCH   3   4
ATOM      4  O   UNL     1      -3.612   9.302   3.131  1.00  0.00    -0.376 OA
BRANCH   4   5
ATOM      5  C   UNL     1      -4.981   9.236   2.756  1.00  0.00     0.202 C 
BRANCH   5   6
ATOM      6  C   UNL     1      -5.795   8.015   3.215  1.00  0.00     0.261 C 
BRANCH   6   7
ATOM      7  O   UNL     1      -5.219   6.734   2.927  1.00  0.00    -0.460 OA
BRANCH   7   8
ATOM      8  C   UNL     1      -5.149   6.365   1.636  1.00  0.00     0.338 C 
ATOM      9  O   UNL     1      -5.557   6.976   0.664  1.00  0.00    -0.246 OA
BRANCH   8  10
ATOM     10  C   UNL     1      -4.275   5.176   1.554  1.00  0.00     0.060 A 
ATOM     11  C   UNL     1      -1.109   2.682  -1.163  1.00  0.00     0.075 C 
ATOM     12  C   UNL     1      -1.321   4.033  -0.507  1.00  0.00     0.033 C 
ATOM     13  C   UNL     1      -1.393   1.535  -0.206  1.00  0.00     0.024 C 
ATOM     14  S   UNL     1      -0.316   5.336  -0.878  1.00  0.00    -0.083 S 
ATOM     15  C   UNL     1      -2.403   4.081   0.492  1.00  0.00     0.016 A 
ATOM     16  N   UNL     1      -2.086   1.662   0.884  1.00  0.00    -0.257 NA
ATOM     17  C   UNL     1      -0.871   0.164  -0.554  1.00  0.00     0.062 C 
ATOM     18  C   UNL     1      -3.206   5.214   0.654  1.00  0.00     0.027 A 
ATOM     19  C   UNL     1      -2.689   2.895   1.180  1.00  0.00     0.071 A 
ATOM     20  C   UNL     1      -3.692   2.912   2.155  1.00  0.00     0.030 A 
ATOM     21  C   UNL     1      -4.484   4.049   2.352  1.00  0.00     0.018 A 
BRANCH  11  22
ATOM     22  C   UNL     1      -1.823   2.541  -2.523  1.00  0.00     0.015 C 
BRANCH  22  23
ATOM     23  C   UNL     1      -3.356   2.421  -2.565  1.00  0.00     0.001 C 
BRANCH  23  24
ATOM     24  C   UNL     1      -4.210   3.669  -2.324  1.00  0.00    -0.003 C 
ATOM     25  C   UNL     1      -3.792   4.923  -3.072  1.00  0.00     0.004 C 
ENDBRANCH  23  24
ENDBRANCH  22  23
ENDBRANCH  11  22
ENDBRANCH   8  10
ENDBRANCH   7   8
ENDBRANCH   6   7
ENDBRANCH   5   6
ENDBRANCH   4   5
ENDBRANCH   3   4
ENDBRANCH   2   3
ENDBRANCH   1   2
BRANCH   1  26
ATOM     26  C   UNL     1      -2.878   8.287   5.681  1.00  0.00     0.188 C 
BRANCH  26  27
ATOM     27  C   UNL     1      -1.974   9.518   5.427  1.00  0.00     0.188 C 
BRANCH  27  28
ATOM     28  O   UNL     1      -0.827   9.276   4.620  1.00  0.00    -0.376 OA
BRANCH  28  29
ATOM     29  C   UNL     1       0.431   9.281   5.276  1.00  0.00     0.202 C 
BRANCH  29  30
ATOM     30  C   UNL     1       0.717   8.020   6.098  1.00  0.00     0.261 C 
BRANCH  30  31
ATOM     31  O   UNL     1      -0.186   7.781   7.186  1.00  0.00    -0.460 OA
BRANCH  31  32
ATOM     32  C   UNL     1      -0.276   8.727   8.150  1.00  0.00     0.338 C 
ATOM     33  O   UNL     1       0.360   9.763   8.223  1.00  0.00    -0.246 OA
BRANCH  32  34
ATOM     34  C   UNL     1      -1.435   8.372   8.996  1.00  0.00     0.060 A 
ATOM     35  C   UNL     1      -1.552   7.080   9.514  1.00  0.00     0.016 A 
ATOM     36  C   UNL     1      -2.441   9.322   9.218  1.00  0.00     0.016 A 
ATOM     37  C   UNL     1      -2.670   6.744  10.277  1.00  0.00     0.010 A 
ATOM     38  C   UNL     1      -3.563   8.980   9.979  1.00  0.00     0.010 A 
ATOM     39  C   UNL     1      -3.674   7.695  10.532  1.00  0.00    -0.014 A 
BRANCH  39  40
ATOM     40  C   UNL     1      -4.714   7.394  11.545  1.00  0.00     0.031 A 
ATOM     41  C   UNL     1      -6.109   6.997  11.175  1.00  0.00     0.074 A 
ATOM     42  C   UNL     1      -4.354   7.483  12.840  1.00  0.00     0.049 A 
ATOM     43  N   UNL     1      -7.073   6.588  11.959  1.00  0.00    -0.248 NA
ATOM     44  C   UNL     1      -6.477   7.075   9.755  1.00  0.00     0.031 C 
ATOM     45  C   UNL     1      -3.031   7.903  13.304  1.00  0.00     0.029 A 
ATOM     46  N   UNL     1      -5.048   7.224  13.994  1.00  0.00    -0.354 N 
ATOM     47  C   UNL     1      -8.160   6.335  11.131  1.00  0.00     0.074 A 
ATOM     48  C   UNL     1      -7.748   6.687   9.787  1.00  0.00     0.031 C 
ATOM     49  C   UNL     1      -3.000   7.848  14.642  1.00  0.00     0.029 A 
ATOM     50  C   UNL     1      -4.305   7.416  15.135  1.00  0.00     0.049 A 
ATOM     51  H   UNL     1      -5.987   6.928  14.005  1.00  0.00     0.167 HD
ATOM     52  C   UNL     1      -9.375   5.837  11.470  1.00  0.00     0.034 A 
ATOM     53  C   UNL     1      -4.628   7.254  16.434  1.00  0.00     0.034 A 
ATOM     54  C   UNL     1      -9.763   5.509  12.822  1.00  0.00     0.049 A 
ATOM     55  C   UNL     1      -5.988   6.709  16.782  1.00  0.00     0.074 A 
ATOM     56  C   UNL     1     -10.952   4.946  13.255  1.00  0.00     0.029 A 
ATOM     57  N   UNL     1      -8.991   5.720  13.957  1.00  0.00    -0.354 N 
ATOM     58  N   UNL     1      -6.962   6.352  15.977  1.00  0.00    -0.248 NA
ATOM     59  C   UNL     1      -6.289   6.518  18.206  1.00  0.00     0.031 C 
ATOM     60  C   UNL     1     -10.930   4.888  14.649  1.00  0.00     0.029 A 
ATOM     61  C   UNL     1      -9.693   5.332  15.088  1.00  0.00     0.049 A 
ATOM     62  H   UNL     1      -8.079   6.090  13.958  1.00  0.00     0.167 HD
ATOM     63  C   UNL     1      -7.979   5.870  16.796  1.00  0.00     0.074 A 
ATOM     64  C   UNL     1      -7.490   5.955  18.156  1.00  0.00     0.031 C 
ATOM     65  C   UNL     1      -9.204   5.403  16.447  1.00  0.00     0.034 A 
BRANCH  52  66
ATOM     66  C   UNL     1     -10.387   5.570  10.380  1.00  0.00     0.023 A 
ATOM     67  C   UNL     1     -11.636   6.221  10.397  1.00  0.00     0.031 A 
ATOM     68  C   UNL     1     -10.187   4.546   9.438  1.00  0.00     0.131 A 
ATOM     69  C   UNL     1     -12.650   5.808   9.523  1.00  0.00     0.055 A 
ATOM     70  C   UNL     1     -11.186   4.167   8.540  1.00  0.00     0.041 A 
ATOM     71  F   UNL     1      -9.018   3.886   9.385  1.00  0.00    -0.206 F 
ATOM     72  C   UNL     1     -12.430   4.789   8.591  1.00  0.00     0.022 A 
BRANCH  69  73
ATOM     73  S   UNL     1     -14.319   6.516   9.614  1.00  0.00     0.124 S 
ATOM     74  O   UNL     1     -14.488   7.056   8.266  1.00  0.00    -0.237 OA
ATOM     75  O   UNL     1     -15.132   5.344   9.923  1.00  0.00    -0.237 OA
ATOM     76  O   UNL     1     -14.219   7.514  10.673  1.00  0.00    -0.744 OA
ENDBRANCH  69  73
ENDBRANCH  52  66
BRANCH  53  77
ATOM     77  C   UNL     1      -3.595   7.538  17.472  1.00  0.00     0.023 A 
ATOM     78  C   UNL     1      -3.049   8.828  17.610  1.00  0.00     0.031 A 
ATOM     79  C   UNL     1      -3.052   6.503  18.250  1.00  0.00     0.131 A 
ATOM     80  C   UNL     1      -1.948   9.031  18.450  1.00  0.00     0.055 A 
ATOM     81  C   UNL     1      -2.003   6.727  19.143  1.00  0.00     0.041 A 
ATOM     82  F   UNL     1      -3.526   5.252  18.138  1.00  0.00    -0.206 F 
ATOM     83  C   UNL     1      -1.433   7.993  19.232  1.00  0.00     0.022 A 
BRANCH  80  84
ATOM     84  S   UNL     1      -1.055  10.611  18.444  1.00  0.00     0.124 S 
ATOM     85  O   UNL     1      -1.198  11.047  19.829  1.00  0.00    -0.237 OA
ATOM     86  O   UNL     1       0.288  10.193  18.048  1.00  0.00    -0.237 OA
ATOM     87  O   UNL     1      -1.772  11.408  17.453  1.00  0.00    -0.744 OA
ENDBRANCH  80  84
ENDBRANCH  53  77
BRANCH  65  88
ATOM     88  C   UNL     1     -10.138   4.929  17.538  1.00  0.00     0.023 A 
ATOM     89  C   UNL     1     -10.593   3.595  17.546  1.00  0.00     0.031 A 
ATOM     90  C   UNL     1     -10.693   5.822  18.471  1.00  0.00     0.131 A 
ATOM     91  C   UNL     1     -11.602   3.206  18.436  1.00  0.00     0.055 A 
ATOM     92  C   UNL     1     -11.659   5.415  19.393  1.00  0.00     0.041 A 
ATOM     93  F   UNL     1     -10.305   7.108  18.500  1.00  0.00    -0.206 F 
ATOM     94  C   UNL     1     -12.130   4.106  19.367  1.00  0.00     0.022 A 
BRANCH  91  95
ATOM     95  S   UNL     1     -12.335   1.548  18.356  1.00  0.00     0.124 S 
ATOM     96  O   UNL     1     -12.024   1.016  19.681  1.00  0.00    -0.237 OA
ATOM     97  O   UNL     1     -13.745   1.846  18.120  1.00  0.00    -0.237 OA
ATOM     98  O   UNL     1     -11.635   0.905  17.249  1.00  0.00    -0.744 OA
ENDBRANCH  91  95
ENDBRANCH  65  88
ENDBRANCH  39  40
ENDBRANCH  32  34
ENDBRANCH  31  32
ENDBRANCH  30  31
ENDBRANCH  29  30
ENDBRANCH  28  29
ENDBRANCH  27  28
ENDBRANCH  26  27
ENDBRANCH   1  26
TORSDOF 26
