REMARK SMILES O=C(CNC(=O)N1CC(OCCOCCOCCOCCOC(=O)c2ccc(-c3c4nc(c(-c5cc(S(=O)(=O)[O-])ccc5F)c5ccc([nH]5)c(-c5cc(S(=O)(=O)[O-])ccc5F)c5nc(c(-c6cc(S(=O)(=O)[O-])ccc6F)c6ccc3[nH]6)C=C5)C=C4)cc2)=Nc2ccccc21)N[C@H](C(=O)[O-])c1ccccc1
REMARK SMILES IDX 15 1 14 2 13 3 12 4 11 5 10 6 9 7 7 8 8 9 94 10 89 11 93 12
REMARK SMILES IDX 88 13 90 14 92 15 91 16 5 17 4 18 6 20 3 21 2 22 1 23 95 24
REMARK SMILES IDX 96 26 100 27 101 28 105 29 102 30 104 31 103 32 97 33 98 34
REMARK SMILES IDX 99 35 16 36 17 37 18 38 19 39 20 40 21 41 22 42 23 43 24 44
REMARK SMILES IDX 25 45 26 46 87 47 27 48 86 49 28 50 29 51 30 52 80 53 31 54
REMARK SMILES IDX 85 55 79 56 81 57 32 58 84 59 78 60 77 61 33 63 65 64 45 65
REMARK SMILES IDX 64 66 46 67 49 68 63 69 82 70 47 71 48 72 62 74 83 75 50 76
REMARK SMILES IDX 34 77 35 78 43 79 36 80 42 81 44 82 41 83 37 84 38 85 39 86
REMARK SMILES IDX 40 87 66 88 67 89 75 90 68 91 74 92 76 93 73 94 69 95 70 96
REMARK SMILES IDX 71 97 72 98 51 99 52 100 60 101 53 102 59 103 61 104 58 105
REMARK SMILES IDX 54 106 55 107 56 108 57 109
REMARK H PARENT 4 19 95 25 81 62 49 73
REMARK Flexibility Score: inf
ROOT
ATOM      1  C   UNL     1       1.148   3.083  -3.541  1.00  0.00     0.188 C 
ENDROOT
BRANCH   1   2
ATOM      2  C   UNL     1       2.554   3.652  -3.336  1.00  0.00     0.188 C 
BRANCH   2   3
ATOM      3  O   UNL     1       2.813   4.894  -2.716  1.00  0.00    -0.376 OA
BRANCH   3   4
ATOM      4  C   UNL     1       1.883   5.948  -2.643  1.00  0.00     0.201 C 
BRANCH   4   5
ATOM      5  C   UNL     1       1.091   6.497  -3.852  1.00  0.00     0.259 C 
BRANCH   5   6
ATOM      6  O   UNL     1       0.952   5.726  -5.061  1.00  0.00    -0.477 OA
BRANCH   6   7
ATOM      7  C   UNL     1       2.064   5.374  -5.745  1.00  0.00     0.209 C 
ATOM      8  N   UNL     1       2.932   3.256  -6.667  1.00  0.00    -0.283 N 
ATOM      9  C   UNL     1       1.827   4.240  -6.732  1.00  0.00     0.224 C 
ATOM     10  C   UNL     1       4.223   3.860  -6.545  1.00  0.00     0.072 A 
ATOM     11  C   UNL     1       4.329   5.151  -5.953  1.00  0.00     0.091 A 
ATOM     12  C   UNL     1       5.384   3.204  -6.944  1.00  0.00     0.029 A 
ATOM     13  N   UNL     1       3.220   5.887  -5.489  1.00  0.00    -0.214 NA
ATOM     14  C   UNL     1       5.584   5.630  -5.578  1.00  0.00     0.030 A 
ATOM     15  C   UNL     1       6.633   3.703  -6.572  1.00  0.00     0.002 A 
ATOM     16  C   UNL     1       6.731   4.891  -5.852  1.00  0.00     0.002 A 
BRANCH   8  17
ATOM     17  C   UNL     1       2.599   1.924  -6.790  1.00  0.00     0.322 C 
ATOM     18  N   UNL     1       3.272   0.903  -6.188  1.00  0.00    -0.329 N 
ATOM     19  H   UNL     1       2.901   0.022  -6.425  1.00  0.00     0.165 HD
ATOM     20  O   UNL     1       1.568   1.586  -7.383  1.00  0.00    -0.248 OA
BRANCH  18  21
ATOM     21  C   UNL     1       4.418   0.793  -5.272  1.00  0.00     0.218 C 
BRANCH  21  22
ATOM     22  C   UNL     1       4.604  -0.479  -4.363  1.00  0.00     0.240 C 
ATOM     23  O   UNL     1       5.723  -0.798  -3.961  1.00  0.00    -0.273 OA
ATOM     24  N   UNL     1       3.474  -1.095  -3.889  1.00  0.00    -0.342 N 
ATOM     25  H   UNL     1       2.611  -0.799  -4.261  1.00  0.00     0.164 HD
BRANCH  24  26
ATOM     26  C   UNL     1       3.438  -2.169  -2.863  1.00  0.00     0.158 C 
BRANCH  26  27
ATOM     27  C   UNL     1       3.428  -3.605  -3.350  1.00  0.00    -0.020 A 
ATOM     28  C   UNL     1       2.293  -4.397  -3.072  1.00  0.00     0.006 A 
ATOM     29  C   UNL     1       4.617  -4.226  -3.740  1.00  0.00     0.006 A 
ATOM     30  C   UNL     1       2.367  -5.785  -3.123  1.00  0.00     0.000 A 
ATOM     31  C   UNL     1       4.686  -5.619  -3.786  1.00  0.00     0.000 A 
ATOM     32  C   UNL     1       3.569  -6.395  -3.465  1.00  0.00     0.000 A 
ENDBRANCH  26  27
BRANCH  26  33
ATOM     33  C   UNL     1       4.216  -2.125  -1.492  1.00  0.00     0.068 C 
ATOM     34  O   UNL     1       4.234  -3.017  -0.652  1.00  0.00    -0.548 OA
ATOM     35  O   UNL     1       4.770  -0.943  -1.163  1.00  0.00    -0.548 OA
ENDBRANCH  26  33
ENDBRANCH  24  26
ENDBRANCH  21  22
ENDBRANCH  18  21
ENDBRANCH   8  17
ENDBRANCH   6   7
ENDBRANCH   5   6
ENDBRANCH   4   5
ENDBRANCH   3   4
ENDBRANCH   2   3
ENDBRANCH   1   2
BRANCH   1  36
ATOM     36  O   UNL     1       0.512   2.432  -2.457  1.00  0.00    -0.377 OA
BRANCH  36  37
ATOM     37  C   UNL     1       0.275   3.211  -1.300  1.00  0.00     0.188 C 
BRANCH  37  38
ATOM     38  C   UNL     1       1.387   3.132  -0.239  1.00  0.00     0.188 C 
BRANCH  38  39
ATOM     39  O   UNL     1       2.681   2.853  -0.739  1.00  0.00    -0.376 OA
BRANCH  39  40
ATOM     40  C   UNL     1       3.075   1.488  -0.802  1.00  0.00     0.202 C 
BRANCH  40  41
ATOM     41  C   UNL     1       2.124   0.486  -1.448  1.00  0.00     0.261 C 
BRANCH  41  42
ATOM     42  O   UNL     1       0.860   0.338  -0.835  1.00  0.00    -0.460 OA
BRANCH  42  43
ATOM     43  C   UNL     1       0.853  -0.365   0.313  1.00  0.00     0.338 C 
ATOM     44  O   UNL     1       1.781  -0.901   0.886  1.00  0.00    -0.246 OA
BRANCH  43  45
ATOM     45  C   UNL     1      -0.506  -0.165   0.781  1.00  0.00     0.060 A 
ATOM     46  C   UNL     1      -0.713   0.851   1.716  1.00  0.00     0.016 A 
ATOM     47  C   UNL     1      -1.555  -0.813   0.122  1.00  0.00     0.016 A 
ATOM     48  C   UNL     1      -2.005   1.234   2.000  1.00  0.00     0.010 A 
ATOM     49  C   UNL     1      -2.852  -0.442   0.426  1.00  0.00     0.010 A 
ATOM     50  C   UNL     1      -3.067   0.567   1.378  1.00  0.00    -0.014 A 
BRANCH  50  51
ATOM     51  C   UNL     1      -4.414   0.791   1.908  1.00  0.00     0.031 A 
ATOM     52  C   UNL     1      -4.903  -0.180   2.934  1.00  0.00     0.074 A 
ATOM     53  C   UNL     1      -5.107   1.872   1.522  1.00  0.00     0.049 A 
ATOM     54  N   UNL     1      -6.042  -0.210   3.563  1.00  0.00    -0.248 NA
ATOM     55  C   UNL     1      -3.977  -1.268   3.301  1.00  0.00     0.031 C 
ATOM     56  C   UNL     1      -4.638   2.877   0.566  1.00  0.00     0.029 A 
ATOM     57  N   UNL     1      -6.345   2.309   1.893  1.00  0.00    -0.354 N 
ATOM     58  C   UNL     1      -5.973  -1.320   4.397  1.00  0.00     0.074 A 
ATOM     59  C   UNL     1      -4.699  -1.959   4.166  1.00  0.00     0.031 C 
ATOM     60  C   UNL     1      -5.587   3.818   0.425  1.00  0.00     0.029 A 
ATOM     61  C   UNL     1      -6.739   3.453   1.243  1.00  0.00     0.049 A 
ATOM     62  H   UNL     1      -6.902   1.849   2.562  1.00  0.00     0.167 HD
ATOM     63  C   UNL     1      -6.902  -1.750   5.279  1.00  0.00     0.034 A 
ATOM     64  C   UNL     1      -7.919   4.098   1.294  1.00  0.00     0.034 A 
ATOM     65  C   UNL     1      -8.166  -1.084   5.451  1.00  0.00     0.049 A 
ATOM     66  C   UNL     1      -8.975   3.543   2.219  1.00  0.00     0.074 A 
ATOM     67  C   UNL     1      -9.206  -1.410   6.298  1.00  0.00     0.029 A 
ATOM     68  N   UNL     1      -8.564   0.045   4.740  1.00  0.00    -0.354 N 
ATOM     69  N   UNL     1      -8.908   2.494   3.012  1.00  0.00    -0.248 NA
ATOM     70  C   UNL     1     -10.255   4.254   2.265  1.00  0.00     0.031 C 
ATOM     71  C   UNL     1     -10.262  -0.531   6.040  1.00  0.00     0.029 A 
ATOM     72  C   UNL     1      -9.850   0.404   5.101  1.00  0.00     0.049 A 
ATOM     73  H   UNL     1      -8.011   0.518   4.077  1.00  0.00     0.167 HD
ATOM     74  C   UNL     1     -10.131   2.437   3.673  1.00  0.00     0.074 A 
ATOM     75  C   UNL     1     -10.904   3.569   3.196  1.00  0.00     0.031 C 
ATOM     76  C   UNL     1     -10.582   1.540   4.588  1.00  0.00     0.034 A 
BRANCH  63  77
ATOM     77  C   UNL     1      -6.605  -3.017   6.039  1.00  0.00     0.023 A 
ATOM     78  C   UNL     1      -5.522  -3.115   6.932  1.00  0.00     0.031 A 
ATOM     79  C   UNL     1      -7.385  -4.166   5.824  1.00  0.00     0.131 A 
ATOM     80  C   UNL     1      -5.213  -4.349   7.524  1.00  0.00     0.055 A 
ATOM     81  C   UNL     1      -7.122  -5.369   6.479  1.00  0.00     0.041 A 
ATOM     82  F   UNL     1      -8.406  -4.145   4.952  1.00  0.00    -0.206 F 
ATOM     83  C   UNL     1      -6.022  -5.470   7.326  1.00  0.00     0.022 A 
BRANCH  80  84
ATOM     84  S   UNL     1      -3.655  -4.506   8.442  1.00  0.00     0.124 S 
ATOM     85  O   UNL     1      -2.672  -4.176   7.412  1.00  0.00    -0.237 OA
ATOM     86  O   UNL     1      -3.816  -3.526   9.508  1.00  0.00    -0.237 OA
ATOM     87  O   UNL     1      -3.651  -5.903   8.873  1.00  0.00    -0.744 OA
ENDBRANCH  80  84
ENDBRANCH  63  77
BRANCH  64  88
ATOM     88  C   UNL     1      -8.175   5.284   0.429  1.00  0.00     0.023 A 
ATOM     89  C   UNL     1      -8.479   6.537   0.982  1.00  0.00     0.031 A 
ATOM     90  C   UNL     1      -8.158   5.173  -0.974  1.00  0.00     0.131 A 
ATOM     91  C   UNL     1      -8.803   7.614   0.141  1.00  0.00     0.055 A 
ATOM     92  C   UNL     1      -8.421   6.261  -1.807  1.00  0.00     0.041 A 
ATOM     93  F   UNL     1      -7.874   3.998  -1.560  1.00  0.00    -0.206 F 
ATOM     94  C   UNL     1      -8.761   7.489  -1.250  1.00  0.00     0.022 A 
BRANCH  91  95
ATOM     95  S   UNL     1      -9.381   9.158   0.895  1.00  0.00     0.124 S 
ATOM     96  O   UNL     1     -10.511   8.694   1.691  1.00  0.00    -0.237 OA
ATOM     97  O   UNL     1      -8.203   9.588   1.640  1.00  0.00    -0.237 OA
ATOM     98  O   UNL     1      -9.727   9.989  -0.256  1.00  0.00    -0.744 OA
ENDBRANCH  91  95
ENDBRANCH  64  88
BRANCH  76  99
ATOM     99  C   UNL     1     -11.957   1.785   5.154  1.00  0.00     0.023 A 
ATOM    100  C   UNL     1     -13.109   1.683   4.359  1.00  0.00     0.031 A 
ATOM    101  C   UNL     1     -12.110   2.113   6.513  1.00  0.00     0.131 A 
ATOM    102  C   UNL     1     -14.363   1.965   4.916  1.00  0.00     0.055 A 
ATOM    103  C   UNL     1     -13.367   2.318   7.079  1.00  0.00     0.041 A 
ATOM    104  F   UNL     1     -11.039   2.224   7.315  1.00  0.00    -0.206 F 
ATOM    105  C   UNL     1     -14.502   2.259   6.276  1.00  0.00     0.022 A 
BRANCH 102 106
ATOM    106  S   UNL     1     -15.800   2.044   3.815  1.00  0.00     0.124 S 
ATOM    107  O   UNL     1     -15.404   3.090   2.878  1.00  0.00    -0.237 OA
ATOM    108  O   UNL     1     -15.854   0.690   3.273  1.00  0.00    -0.237 OA
ATOM    109  O   UNL     1     -16.899   2.397   4.712  1.00  0.00    -0.744 OA
ENDBRANCH 102 106
ENDBRANCH  76  99
ENDBRANCH  50  51
ENDBRANCH  43  45
ENDBRANCH  42  43
ENDBRANCH  41  42
ENDBRANCH  40  41
ENDBRANCH  39  40
ENDBRANCH  38  39
ENDBRANCH  37  38
ENDBRANCH  36  37
ENDBRANCH   1  36
TORSDOF 28
