REMARK SMILES O=C(OCCOCCOCCOCCOC(=O)c1ccc(-c2c3nc(c(-c4cc(S(=O)(=O)[O-])ccc4F)c4ccc([nH]4)c(-c4cc(S(=O)(=O)[O-])ccc4F)c4nc(c(-c5cc(S(=O)(=O)[O-])ccc5F)c5ccc2[nH]5)C=C4)C=C3)cc1)C1=Cc2cc(Cl)ccc2O[C@@H]1C(F)(F)F
REMARK SMILES IDX 10 1 9 2 8 3 7 4 6 5 5 6 4 7 3 8 2 9 1 10 81 11 82 12 91 13
REMARK SMILES IDX 83 14 90 15 84 16 89 17 85 18 88 19 86 20 87 21 92 22 93 23
REMARK SMILES IDX 94 24 95 25 11 26 12 27 13 28 14 29 15 30 16 31 17 32 18 33
REMARK SMILES IDX 19 34 80 35 20 36 79 37 21 38 22 39 23 40 73 41 24 42 78 43
REMARK SMILES IDX 72 44 74 45 25 46 77 47 71 48 70 49 26 51 58 52 38 53 57 54
REMARK SMILES IDX 39 55 42 56 56 57 75 58 40 59 41 60 55 62 76 63 43 64 27 65
REMARK SMILES IDX 28 66 36 67 29 68 35 69 37 70 34 71 30 72 31 73 32 74 33 75
REMARK SMILES IDX 59 76 60 77 68 78 61 79 67 80 69 81 66 82 62 83 63 84 64 85
REMARK SMILES IDX 65 86 44 87 45 88 53 89 46 90 52 91 54 92 51 93 47 94 48 95
REMARK SMILES IDX 49 96 50 97
REMARK H PARENT 74 50 42 61
REMARK Flexibility Score: inf
ROOT
ATOM      1  C   UNL     1       4.185  -0.858   3.609  1.00  0.00     0.188 C 
ENDROOT
BRANCH   1   2
ATOM      2  O   UNL     1       2.824  -1.121   3.872  1.00  0.00    -0.377 OA
BRANCH   2   3
ATOM      3  C   UNL     1       2.024  -0.970   2.721  1.00  0.00     0.188 C 
BRANCH   3   4
ATOM      4  C   UNL     1       2.382  -1.846   1.506  1.00  0.00     0.188 C 
BRANCH   4   5
ATOM      5  O   UNL     1       3.635  -1.843   0.736  1.00  0.00    -0.376 OA
BRANCH   5   6
ATOM      6  C   UNL     1       4.367  -0.816  -0.318  1.00  0.00     0.202 C 
BRANCH   6   7
ATOM      7  C   UNL     1       3.623   1.110  -1.020  1.00  0.00     0.261 C 
BRANCH   7   8
ATOM      8  O   UNL     1       2.693   1.342  -2.203  1.00  0.00    -0.460 OA
BRANCH   8   9
ATOM      9  C   UNL     1       2.886   0.452  -3.184  1.00  0.00     0.338 C 
ATOM     10  O   UNL     1       2.235   0.280  -4.184  1.00  0.00    -0.246 OA
BRANCH   9  11
ATOM     11  C   UNL     1       3.748  -0.440  -2.433  1.00  0.00     0.087 C 
ATOM     12  C   UNL     1       5.136   0.043  -2.313  1.00  0.00     0.027 C 
ATOM     13  C   UNL     1       2.513  -0.622  -0.966  1.00  0.00     0.316 C 
ATOM     14  C   UNL     1       5.831   0.753  -0.809  1.00  0.00     0.019 A 
ATOM     15  O   UNL     1       3.188   0.270   0.626  1.00  0.00    -0.475 OA
ATOM     16  C   UNL     1       7.136   1.169  -0.787  1.00  0.00     0.032 A 
ATOM     17  C   UNL     1       4.882   0.986   0.617  1.00  0.00     0.128 A 
ATOM     18  C   UNL     1       7.575   1.713   0.436  1.00  0.00     0.041 A 
ATOM     19  C   UNL     1       5.382   1.579   1.748  1.00  0.00     0.048 A 
ATOM     20  Cl  UNL     1       9.244   2.183   0.523  1.00  0.00    -0.084 Cl
ATOM     21  C   UNL     1       6.756   1.906   1.625  1.00  0.00     0.024 A 
BRANCH  13  22
ATOM     22  C   UNL     1       2.188  -2.217  -1.314  1.00  0.00     0.430 C 
ATOM     23  F   UNL     1       1.338  -2.903  -0.530  1.00  0.00    -0.167 F 
ATOM     24  F   UNL     1       1.565  -2.215  -2.537  1.00  0.00    -0.167 F 
ATOM     25  F   UNL     1       3.283  -2.995  -1.509  1.00  0.00    -0.167 F 
ENDBRANCH  13  22
ENDBRANCH   9  11
ENDBRANCH   8   9
ENDBRANCH   7   8
ENDBRANCH   6   7
ENDBRANCH   5   6
ENDBRANCH   4   5
ENDBRANCH   3   4
ENDBRANCH   2   3
ENDBRANCH   1   2
BRANCH   1  26
ATOM     26  C   UNL     1       5.055  -2.093   3.372  1.00  0.00     0.188 C 
BRANCH  26  27
ATOM     27  O   UNL     1       4.323  -3.244   2.981  1.00  0.00    -0.376 OA
BRANCH  27  28
ATOM     28  C   UNL     1       3.991  -4.173   4.007  1.00  0.00     0.202 C 
BRANCH  28  29
ATOM     29  C   UNL     1       2.996  -3.714   5.093  1.00  0.00     0.261 C 
BRANCH  29  30
ATOM     30  O   UNL     1       3.390  -2.613   5.939  1.00  0.00    -0.460 OA
BRANCH  30  31
ATOM     31  C   UNL     1       4.628  -2.616   6.469  1.00  0.00     0.338 C 
ATOM     32  O   UNL     1       5.418  -3.543   6.465  1.00  0.00    -0.246 OA
BRANCH  31  33
ATOM     33  C   UNL     1       4.993  -1.230   6.854  1.00  0.00     0.060 A 
ATOM     34  C   UNL     1       6.239  -0.734   6.436  1.00  0.00     0.016 A 
ATOM     35  C   UNL     1       4.143  -0.431   7.623  1.00  0.00     0.016 A 
ATOM     36  C   UNL     1       6.678   0.516   6.859  1.00  0.00     0.010 A 
ATOM     37  C   UNL     1       4.602   0.808   8.084  1.00  0.00     0.010 A 
ATOM     38  C   UNL     1       5.901   1.246   7.765  1.00  0.00    -0.014 A 
BRANCH  38  39
ATOM     39  C   UNL     1       6.594   2.241   8.623  1.00  0.00     0.031 A 
ATOM     40  C   UNL     1       7.044   1.779   9.988  1.00  0.00     0.074 A 
ATOM     41  C   UNL     1       6.910   3.470   8.181  1.00  0.00     0.049 A 
ATOM     42  N   UNL     1       7.679   2.434  10.925  1.00  0.00    -0.248 NA
ATOM     43  C   UNL     1       6.729   0.385  10.342  1.00  0.00     0.031 C 
ATOM     44  C   UNL     1       6.599   3.998   6.855  1.00  0.00     0.029 A 
ATOM     45  N   UNL     1       7.578   4.494   8.805  1.00  0.00    -0.354 N 
ATOM     46  C   UNL     1       7.822   1.537  11.981  1.00  0.00     0.074 A 
ATOM     47  C   UNL     1       7.169   0.310  11.586  1.00  0.00     0.031 C 
ATOM     48  C   UNL     1       7.081   5.251   6.764  1.00  0.00     0.029 A 
ATOM     49  C   UNL     1       7.696   5.627   8.036  1.00  0.00     0.049 A 
ATOM     50  H   UNL     1       7.939   4.423   9.718  1.00  0.00     0.167 HD
ATOM     51  C   UNL     1       8.449   1.717  13.168  1.00  0.00     0.034 A 
ATOM     52  C   UNL     1       8.223   6.832   8.337  1.00  0.00     0.034 A 
ATOM     53  C   UNL     1       9.091   2.950  13.547  1.00  0.00     0.049 A 
ATOM     54  C   UNL     1       8.832   7.042   9.706  1.00  0.00     0.074 A 
ATOM     55  C   UNL     1       9.765   3.244  14.718  1.00  0.00     0.029 A 
ATOM     56  N   UNL     1       9.127   4.101  12.768  1.00  0.00    -0.354 N 
ATOM     57  N   UNL     1       8.955   6.191  10.700  1.00  0.00    -0.248 NA
ATOM     58  C   UNL     1       9.386   8.373   9.985  1.00  0.00     0.031 C 
ATOM     59  C   UNL     1      10.117   4.597  14.691  1.00  0.00     0.029 A 
ATOM     60  C   UNL     1       9.774   5.117  13.453  1.00  0.00     0.049 A 
ATOM     61  H   UNL     1       8.748   4.182  11.863  1.00  0.00     0.167 HD
ATOM     62  C   UNL     1       9.649   6.872  11.701  1.00  0.00     0.074 A 
ATOM     63  C   UNL     1       9.921   8.196  11.183  1.00  0.00     0.031 C 
ATOM     64  C   UNL     1      10.039   6.437  12.929  1.00  0.00     0.034 A 
BRANCH  51  65
ATOM     65  C   UNL     1       8.401   0.580  14.162  1.00  0.00     0.023 A 
ATOM     66  C   UNL     1       8.967  -0.679  13.893  1.00  0.00     0.031 A 
ATOM     67  C   UNL     1       7.739   0.751  15.392  1.00  0.00     0.131 A 
ATOM     68  C   UNL     1       8.794  -1.734  14.803  1.00  0.00     0.055 A 
ATOM     69  C   UNL     1       7.654  -0.275  16.334  1.00  0.00     0.041 A 
ATOM     70  F   UNL     1       7.148   1.918  15.694  1.00  0.00    -0.206 F 
ATOM     71  C   UNL     1       8.169  -1.532  16.035  1.00  0.00     0.022 A 
BRANCH  68  72
ATOM     72  S   UNL     1       9.245  -3.412  14.282  1.00  0.00     0.124 S 
ATOM     73  O   UNL     1       8.429  -3.577  13.082  1.00  0.00    -0.237 OA
ATOM     74  O   UNL     1      10.683  -3.300  14.066  1.00  0.00    -0.237 OA
ATOM     75  O   UNL     1       8.846  -4.242  15.417  1.00  0.00    -0.744 OA
ENDBRANCH  68  72
ENDBRANCH  51  65
BRANCH  52  76
ATOM     76  C   UNL     1       8.183   7.949   7.348  1.00  0.00     0.023 A 
ATOM     77  C   UNL     1       9.363   8.546   6.875  1.00  0.00     0.031 A 
ATOM     78  C   UNL     1       6.957   8.487   6.915  1.00  0.00     0.131 A 
ATOM     79  C   UNL     1       9.293   9.678   6.046  1.00  0.00     0.055 A 
ATOM     80  C   UNL     1       6.893   9.570   6.037  1.00  0.00     0.041 A 
ATOM     81  F   UNL     1       5.797   7.963   7.342  1.00  0.00    -0.206 F 
ATOM     82  C   UNL     1       8.066  10.182   5.609  1.00  0.00     0.022 A 
BRANCH  79  83
ATOM     83  S   UNL     1      10.829  10.553   5.639  1.00  0.00     0.124 S 
ATOM     84  O   UNL     1      11.335  10.891   6.965  1.00  0.00    -0.237 OA
ATOM     85  O   UNL     1      11.573   9.533   4.908  1.00  0.00    -0.237 OA
ATOM     86  O   UNL     1      10.372  11.684   4.835  1.00  0.00    -0.744 OA
ENDBRANCH  79  83
ENDBRANCH  52  76
BRANCH  64  87
ATOM     87  C   UNL     1      10.876   7.380  13.766  1.00  0.00     0.023 A 
ATOM     88  C   UNL     1      10.395   8.625  14.204  1.00  0.00     0.031 A 
ATOM     89  C   UNL     1      12.197   7.030  14.105  1.00  0.00     0.131 A 
ATOM     90  C   UNL     1      11.254   9.509  14.876  1.00  0.00     0.055 A 
ATOM     91  C   UNL     1      13.017   7.876  14.852  1.00  0.00     0.041 A 
ATOM     92  F   UNL     1      12.718   5.856  13.711  1.00  0.00    -0.206 F 
ATOM     93  C   UNL     1      12.553   9.133  15.224  1.00  0.00     0.022 A 
BRANCH  90  94
ATOM     94  S   UNL     1      10.701  11.215  15.150  1.00  0.00     0.124 S 
ATOM     95  O   UNL     1      10.352  11.639  13.798  1.00  0.00    -0.237 OA
ATOM     96  O   UNL     1       9.583  11.037  16.070  1.00  0.00    -0.237 OA
ATOM     97  O   UNL     1      11.877  11.869  15.721  1.00  0.00    -0.744 OA
ENDBRANCH  90  94
ENDBRANCH  64  87
ENDBRANCH  38  39
ENDBRANCH  31  33
ENDBRANCH  30  31
ENDBRANCH  29  30
ENDBRANCH  28  29
ENDBRANCH  27  28
ENDBRANCH  26  27
ENDBRANCH   1  26
TORSDOF 24
