REMARK SMILES O=C(N[C@@H](Cc1ccc(O)cc1)C(=O)N[C@@H](Cc1c[nH]c2ccccc12)C(=O)N[C@@H](CO)C(=O)OCCOCCOCCOCCOC(=O)c1ccc(-c2c3nc(c(-c4cc(S(=O)(=O)[O-])ccc4F)c4ccc([nH]4)c(-c4cc(S(=O)(=O)[O-])ccc4F)c4nc(c(-c5cc(S(=O)(=O)[O-])ccc5F)c5ccc2[nH]5)C=C4)C=C3)cc1)c1ccc(F)cc1
REMARK SMILES IDX 39 1 38 2 37 3 36 4 35 5 33 6 34 7 30 8 29 9 27 10 28 11
REMARK SMILES IDX 16 13 15 14 13 15 14 16 4 18 3 19 1 20 2 21 113 23 114 24
REMARK SMILES IDX 119 25 115 26 118 27 116 28 117 29 5 30 6 31 7 32 12 33 8 34
REMARK SMILES IDX 11 35 9 36 10 37 17 39 18 40 19 41 26 42 20 43 21 44 25 45
REMARK SMILES IDX 22 47 24 48 23 49 31 50 32 51 40 53 41 54 42 55 43 56 44 57
REMARK SMILES IDX 45 58 46 59 47 60 48 61 49 62 50 63 51 64 112 65 52 66
REMARK SMILES IDX 111 67 53 68 54 69 55 70 105 71 56 72 110 73 104 74 106 75
REMARK SMILES IDX 57 76 109 77 103 78 102 79 58 81 90 82 70 83 89 84 71 85
REMARK SMILES IDX 74 86 88 87 107 88 72 89 73 90 87 92 108 93 75 94 59 95
REMARK SMILES IDX 60 96 68 97 61 98 67 99 69 100 66 101 62 102 63 103 64 104
REMARK SMILES IDX 65 105 91 106 92 107 100 108 93 109 99 110 101 111 98 112
REMARK SMILES IDX 94 113 95 114 96 115 97 116 76 117 77 118 85 119 78 120
REMARK SMILES IDX 84 121 86 122 83 123 79 124 80 125 81 126 82 127
REMARK H PARENT 29 12 15 17 3 22 10 38 20 46 32 52 106 80 74 91
REMARK Flexibility Score: inf
ROOT
ATOM      1  C   UNL     1       1.737   0.286   9.292  1.00  0.00     0.188 C 
ENDROOT
BRANCH   1   2
ATOM      2  O   UNL     1       2.049   0.197  10.676  1.00  0.00    -0.376 OA
BRANCH   2   3
ATOM      3  C   UNL     1       3.030  -0.776  11.024  1.00  0.00     0.202 C 
BRANCH   3   4
ATOM      4  C   UNL     1       4.476  -0.362  10.728  1.00  0.00     0.261 C 
BRANCH   4   5
ATOM      5  O   UNL     1       4.814  -0.368   9.322  1.00  0.00    -0.462 OA
BRANCH   5   6
ATOM      6  C   UNL     1       5.296  -1.510   8.762  1.00  0.00     0.331 C 
ATOM      7  O   UNL     1       5.355  -2.586   9.346  1.00  0.00    -0.250 OA
BRANCH   6   8
ATOM      8  C   UNL     1       5.766  -1.291   7.293  1.00  0.00     0.218 C 
BRANCH   8   9
ATOM      9  N   UNL     1       5.335  -0.006   6.704  1.00  0.00    -0.339 N 
ATOM     10  C   UNL     1       5.156   0.354   5.412  1.00  0.00     0.243 C 
ATOM     11  O   UNL     1       5.848   1.326   5.071  1.00  0.00    -0.273 OA
ATOM     12  H   UNL     1       5.147   0.705   7.359  1.00  0.00     0.164 HD
BRANCH  10  13
ATOM     13  C   UNL     1       4.286  -0.368   4.320  1.00  0.00     0.175 C 
BRANCH  13  14
ATOM     14  N   UNL     1       5.136  -0.972   3.300  1.00  0.00    -0.342 N 
ATOM     15  C   UNL     1       5.386  -0.542   2.027  1.00  0.00     0.243 C 
ATOM     16  O   UNL     1       6.348  -1.072   1.454  1.00  0.00    -0.273 OA
ATOM     17  H   UNL     1       5.592  -1.803   3.565  1.00  0.00     0.164 HD
BRANCH  15  18
ATOM     18  C   UNL     1       4.518   0.504   1.253  1.00  0.00     0.176 C 
BRANCH  18  19
ATOM     19  N   UNL     1       3.103   0.132   1.148  1.00  0.00    -0.340 N 
ATOM     20  O   UNL     1       1.168  -0.346   0.095  1.00  0.00    -0.269 OA
ATOM     21  C   UNL     1       2.389  -0.247   0.037  1.00  0.00     0.251 C 
ATOM     22  H   UNL     1       2.594   0.157   1.991  1.00  0.00     0.164 HD
BRANCH  21  23
ATOM     23  C   UNL     1       3.079  -0.522  -1.243  1.00  0.00     0.040 A 
ATOM     24  C   UNL     1       4.099  -1.480  -1.313  1.00  0.00     0.017 A 
ATOM     25  C   UNL     1       2.667   0.156  -2.397  1.00  0.00     0.017 A 
ATOM     26  C   UNL     1       4.750  -1.712  -2.525  1.00  0.00     0.040 A 
ATOM     27  C   UNL     1       3.315  -0.088  -3.611  1.00  0.00     0.040 A 
ATOM     28  C   UNL     1       4.355  -1.013  -3.661  1.00  0.00     0.123 A 
ATOM     29  F   UNL     1       4.982  -1.237  -4.823  1.00  0.00    -0.207 F 
ENDBRANCH  21  23
ENDBRANCH  18  19
BRANCH  18  30
ATOM     30  C   UNL     1       4.785   2.019   1.436  1.00  0.00     0.070 C 
BRANCH  30  31
ATOM     31  C   UNL     1       4.312   2.821   2.627  1.00  0.00    -0.045 A 
ATOM     32  C   UNL     1       5.190   3.782   3.163  1.00  0.00     0.007 A 
ATOM     33  C   UNL     1       3.037   2.710   3.197  1.00  0.00     0.007 A 
ATOM     34  C   UNL     1       4.870   4.493   4.319  1.00  0.00     0.046 A 
ATOM     35  C   UNL     1       2.731   3.385   4.382  1.00  0.00     0.046 A 
ATOM     36  C   UNL     1       3.661   4.248   4.946  1.00  0.00     0.115 A 
BRANCH  36  37
ATOM     37  O   UNL     1       3.353   4.851   6.123  1.00  0.00    -0.508 OA
ATOM     38  H   UNL     1       3.964   5.438   6.523  1.00  0.00     0.293 HD
ENDBRANCH  36  37
ENDBRANCH  30  31
ENDBRANCH  18  30
ENDBRANCH  15  18
ENDBRANCH  13  14
BRANCH  13  39
ATOM     39  C   UNL     1       2.924  -1.071   4.506  1.00  0.00     0.072 C 
BRANCH  39  40
ATOM     40  C   UNL     1       2.782  -2.145   5.523  1.00  0.00    -0.020 A 
ATOM     41  C   UNL     1       2.838  -1.891   6.866  1.00  0.00     0.087 A 
ATOM     42  C   UNL     1       2.398  -3.523   5.415  1.00  0.00     0.003 A 
ATOM     43  N   UNL     1       2.692  -3.039   7.573  1.00  0.00    -0.361 N 
ATOM     44  C   UNL     1       2.399  -4.058   6.710  1.00  0.00     0.046 A 
ATOM     45  C   UNL     1       2.022  -4.376   4.360  1.00  0.00     0.010 A 
ATOM     46  H   UNL     1       2.782  -3.125   8.549  1.00  0.00     0.166 HD
ATOM     47  C   UNL     1       2.115  -5.392   7.003  1.00  0.00     0.026 A 
ATOM     48  C   UNL     1       1.695  -5.713   4.640  1.00  0.00     0.001 A 
ATOM     49  C   UNL     1       1.757  -6.215   5.939  1.00  0.00     0.002 A 
ENDBRANCH  39  40
ENDBRANCH  13  39
ENDBRANCH  10  13
ENDBRANCH   8   9
BRANCH   8  50
ATOM     50  C   UNL     1       7.299  -1.375   7.301  1.00  0.00     0.193 C 
BRANCH  50  51
ATOM     51  O   UNL     1       7.877  -0.279   8.009  1.00  0.00    -0.394 OA
ATOM     52  H   UNL     1       7.629   0.553   7.576  1.00  0.00     0.210 HD
ENDBRANCH  50  51
ENDBRANCH   8  50
ENDBRANCH   6   8
ENDBRANCH   5   6
ENDBRANCH   4   5
ENDBRANCH   3   4
ENDBRANCH   2   3
ENDBRANCH   1   2
BRANCH   1  53
ATOM     53  C   UNL     1       2.533   1.356   8.525  1.00  0.00     0.188 C 
BRANCH  53  54
ATOM     54  O   UNL     1       2.968   2.488   9.255  1.00  0.00    -0.377 OA
BRANCH  54  55
ATOM     55  C   UNL     1       2.082   3.029  10.225  1.00  0.00     0.188 C 
BRANCH  55  56
ATOM     56  C   UNL     1       0.572   3.045   9.921  1.00  0.00     0.188 C 
BRANCH  56  57
ATOM     57  O   UNL     1       0.277   2.854   8.539  1.00  0.00    -0.376 OA
BRANCH  57  58
ATOM     58  C   UNL     1      -0.422   3.909   7.900  1.00  0.00     0.202 C 
BRANCH  58  59
ATOM     59  C   UNL     1       0.451   5.097   7.482  1.00  0.00     0.261 C 
BRANCH  59  60
ATOM     60  O   UNL     1       1.357   5.570   8.489  1.00  0.00    -0.460 OA
BRANCH  60  61
ATOM     61  C   UNL     1       0.794   6.288   9.485  1.00  0.00     0.338 C 
ATOM     62  O   UNL     1      -0.386   6.584   9.581  1.00  0.00    -0.246 OA
BRANCH  61  63
ATOM     63  C   UNL     1       1.789   6.450  10.568  1.00  0.00     0.060 A 
ATOM     64  C   UNL     1       1.404   6.069  11.861  1.00  0.00     0.016 A 
ATOM     65  C   UNL     1       3.092   6.902  10.323  1.00  0.00     0.016 A 
ATOM     66  C   UNL     1       2.300   6.188  12.920  1.00  0.00     0.010 A 
ATOM     67  C   UNL     1       3.981   7.060  11.395  1.00  0.00     0.010 A 
ATOM     68  C   UNL     1       3.566   6.751  12.703  1.00  0.00    -0.014 A 
BRANCH  68  69
ATOM     69  C   UNL     1       4.260   7.337  13.877  1.00  0.00     0.031 A 
ATOM     70  C   UNL     1       3.866   8.742  14.258  1.00  0.00     0.074 A 
ATOM     71  C   UNL     1       5.124   6.638  14.634  1.00  0.00     0.049 A 
ATOM     72  N   UNL     1       4.227   9.465  15.285  1.00  0.00    -0.248 NA
ATOM     73  C   UNL     1       2.921   9.417  13.351  1.00  0.00     0.031 C 
ATOM     74  C   UNL     1       5.543   5.259  14.393  1.00  0.00     0.029 A 
ATOM     75  N   UNL     1       5.793   6.999  15.777  1.00  0.00    -0.354 N 
ATOM     76  C   UNL     1       3.530  10.663  15.163  1.00  0.00     0.074 A 
ATOM     77  C   UNL     1       2.771  10.592  13.935  1.00  0.00     0.031 C 
ATOM     78  C   UNL     1       6.404   4.891  15.361  1.00  0.00     0.029 A 
ATOM     79  C   UNL     1       6.607   6.011  16.280  1.00  0.00     0.049 A 
ATOM     80  H   UNL     1       5.699   7.884  16.198  1.00  0.00     0.167 HD
ATOM     81  C   UNL     1       3.509  11.724  16.003  1.00  0.00     0.034 A 
ATOM     82  C   UNL     1       7.421   6.021  17.357  1.00  0.00     0.034 A 
ATOM     83  C   UNL     1       4.312  11.808  17.194  1.00  0.00     0.049 A 
ATOM     84  C   UNL     1       7.465   7.260  18.226  1.00  0.00     0.074 A 
ATOM     85  C   UNL     1       4.416  12.851  18.096  1.00  0.00     0.029 A 
ATOM     86  N   UNL     1       5.169  10.808  17.639  1.00  0.00    -0.354 N 
ATOM     87  N   UNL     1       6.795   8.384  18.105  1.00  0.00    -0.248 NA
ATOM     88  C   UNL     1       8.362   7.219  19.388  1.00  0.00     0.031 C 
ATOM     89  C   UNL     1       5.382  12.508  19.050  1.00  0.00     0.029 A 
ATOM     90  C   UNL     1       5.822  11.219  18.790  1.00  0.00     0.049 A 
ATOM     91  H   UNL     1       5.294   9.936  17.200  1.00  0.00     0.167 HD
ATOM     92  C   UNL     1       7.160   9.165  19.201  1.00  0.00     0.074 A 
ATOM     93  C   UNL     1       8.098   8.377  19.974  1.00  0.00     0.031 C 
ATOM     94  C   UNL     1       6.756  10.416  19.544  1.00  0.00     0.034 A 
BRANCH  81  95
ATOM     95  C   UNL     1       2.634  12.887  15.606  1.00  0.00     0.023 A 
ATOM     96  C   UNL     1       1.235  12.761  15.520  1.00  0.00     0.031 A 
ATOM     97  C   UNL     1       3.209  14.114  15.232  1.00  0.00     0.131 A 
ATOM     98  C   UNL     1       0.468  13.813  14.997  1.00  0.00     0.055 A 
ATOM     99  C   UNL     1       2.432  15.185  14.790  1.00  0.00     0.041 A 
ATOM    100  F   UNL     1       4.540  14.281  15.262  1.00  0.00    -0.206 F 
ATOM    101  C   UNL     1       1.054  15.033  14.654  1.00  0.00     0.022 A 
BRANCH  98 102
ATOM    102  S   UNL     1      -1.281  13.510  14.623  1.00  0.00     0.124 S 
ATOM    103  O   UNL     1      -1.191  12.417  13.658  1.00  0.00    -0.237 OA
ATOM    104  O   UNL     1      -1.829  13.166  15.929  1.00  0.00    -0.237 OA
ATOM    105  O   UNL     1      -1.738  14.783  14.069  1.00  0.00    -0.744 OA
ENDBRANCH  98 102
ENDBRANCH  81  95
BRANCH  82 106
ATOM    106  C   UNL     1       8.285   4.846  17.676  1.00  0.00     0.023 A 
ATOM    107  C   UNL     1       8.140   4.134  18.879  1.00  0.00     0.031 A 
ATOM    108  C   UNL     1       9.331   4.471  16.814  1.00  0.00     0.131 A 
ATOM    109  C   UNL     1       9.058   3.124  19.212  1.00  0.00     0.055 A 
ATOM    110  C   UNL     1      10.210   3.431  17.126  1.00  0.00     0.041 A 
ATOM    111  F   UNL     1       9.520   5.118  15.653  1.00  0.00    -0.206 F 
ATOM    112  C   UNL     1      10.085   2.761  18.339  1.00  0.00     0.022 A 
BRANCH 109 113
ATOM    113  S   UNL     1       8.949   2.353  20.851  1.00  0.00     0.124 S 
ATOM    114  O   UNL     1       9.088   3.506  21.733  1.00  0.00    -0.237 OA
ATOM    115  O   UNL     1       7.629   1.734  20.806  1.00  0.00    -0.237 OA
ATOM    116  O   UNL     1      10.072   1.418  20.863  1.00  0.00    -0.744 OA
ENDBRANCH 109 113
ENDBRANCH  82 106
BRANCH  94 117
ATOM    117  C   UNL     1       7.283  10.977  20.844  1.00  0.00     0.023 A 
ATOM    118  C   UNL     1       8.646  11.259  21.035  1.00  0.00     0.031 A 
ATOM    119  C   UNL     1       6.403  11.211  21.916  1.00  0.00     0.131 A 
ATOM    120  C   UNL     1       9.101  11.692  22.289  1.00  0.00     0.055 A 
ATOM    121  C   UNL     1       6.852  11.706  23.142  1.00  0.00     0.041 A 
ATOM    122  F   UNL     1       5.090  10.962  21.791  1.00  0.00    -0.206 F 
ATOM    123  C   UNL     1       8.211  11.932  23.339  1.00  0.00     0.022 A 
BRANCH 120 124
ATOM    124  S   UNL     1      10.889  11.823  22.569  1.00  0.00     0.124 S 
ATOM    125  O   UNL     1      11.353  10.489  22.202  1.00  0.00    -0.237 OA
ATOM    126  O   UNL     1      11.266  12.901  21.660  1.00  0.00    -0.237 OA
ATOM    127  O   UNL     1      10.991  12.146  23.990  1.00  0.00    -0.744 OA
ENDBRANCH 120 124
ENDBRANCH  94 117
ENDBRANCH  68  69
ENDBRANCH  61  63
ENDBRANCH  60  61
ENDBRANCH  59  60
ENDBRANCH  58  59
ENDBRANCH  57  58
ENDBRANCH  56  57
ENDBRANCH  55  56
ENDBRANCH  54  55
ENDBRANCH  53  54
ENDBRANCH   1  53
TORSDOF 36
