REMARK SMILES O=C(OCCOCCOCCOCCOC(=O)[C@H]1O[C@@H](Oc2c(-c3cc(O)c(O)c(O)c3)oc3cc(O)cc(O)c3c2=O)[C@H](O)[C@@H](O)[C@@H]1O)c1ccc(-c2c3nc(c(-c4cc(S(=O)(=O)[O-])ccc4F)c4ccc([nH]4)c(-c4cc(S(=O)(=O)[O-])ccc4F)c4nc(c(-c5cc(S(=O)(=O)[O-])ccc5F)c5ccc2[nH]5)C=C4)C=C3)cc1
REMARK SMILES IDX 10 1 9 2 8 3 7 4 6 5 5 6 4 7 3 8 2 9 1 10 50 11 51 12 112 13
REMARK SMILES IDX 52 14 111 15 53 16 54 17 55 18 105 19 56 20 110 21 104 22
REMARK SMILES IDX 106 23 57 24 109 25 103 26 102 27 58 29 90 30 70 31 89 32
REMARK SMILES IDX 71 33 74 34 88 35 107 36 72 37 73 38 87 40 108 41 75 42
REMARK SMILES IDX 59 43 60 44 68 45 61 46 67 47 69 48 66 49 62 50 63 51 64 52
REMARK SMILES IDX 65 53 91 54 92 55 100 56 93 57 99 58 101 59 98 60 94 61
REMARK SMILES IDX 95 62 96 63 97 64 76 65 77 66 85 67 78 68 84 69 86 70 83 71
REMARK SMILES IDX 79 72 80 73 81 74 82 75 11 76 12 77 13 78 14 79 15 80 16 81
REMARK SMILES IDX 17 82 18 83 19 84 48 85 20 86 46 87 44 88 49 89 21 91 22 92
REMARK SMILES IDX 23 93 42 94 33 95 41 96 43 97 34 98 39 99 35 100 38 101
REMARK SMILES IDX 36 102 24 103 25 104 32 105 26 106 30 107 28 108 27 109
REMARK SMILES IDX 31 111 29 113 40 115 37 117 47 119 45 121
REMARK H PARENT 106 28 74 39 49 90 27 110 31 112 29 114 40 116 37 118 47 120
REMARK H PARENT 45 122
REMARK Flexibility Score: inf
ROOT
ATOM      1  C   UNL     1       5.109  -6.912   0.596  1.00  0.00     0.188 C 
ENDROOT
BRANCH   1   2
ATOM      2  O   UNL     1       5.088  -8.214   0.018  1.00  0.00    -0.377 OA
BRANCH   2   3
ATOM      3  C   UNL     1       4.786  -9.276   0.921  1.00  0.00     0.188 C 
BRANCH   3   4
ATOM      4  C   UNL     1       5.503  -9.204   2.271  1.00  0.00     0.188 C 
BRANCH   4   5
ATOM      5  O   UNL     1       5.066  -8.079   3.023  1.00  0.00    -0.376 OA
BRANCH   5   6
ATOM      6  C   UNL     1       6.035  -7.274   3.688  1.00  0.00     0.202 C 
BRANCH   6   7
ATOM      7  C   UNL     1       6.775  -7.933   4.839  1.00  0.00     0.261 C 
BRANCH   7   8
ATOM      8  O   UNL     1       6.703  -9.359   4.850  1.00  0.00    -0.460 OA
BRANCH   8   9
ATOM      9  C   UNL     1       5.688 -10.155   5.253  1.00  0.00     0.338 C 
ATOM     10  O   UNL     1       5.839 -11.372   5.141  1.00  0.00    -0.246 OA
BRANCH   9  11
ATOM     11  C   UNL     1       4.395  -9.668   5.816  1.00  0.00     0.060 A 
ATOM     12  C   UNL     1       3.748  -8.474   5.495  1.00  0.00     0.016 A 
ATOM     13  C   UNL     1       3.730 -10.559   6.670  1.00  0.00     0.016 A 
ATOM     14  C   UNL     1       2.507  -8.143   5.998  1.00  0.00     0.010 A 
ATOM     15  C   UNL     1       2.481 -10.238   7.200  1.00  0.00     0.010 A 
ATOM     16  C   UNL     1       1.889  -9.014   6.874  1.00  0.00    -0.014 A 
BRANCH  16  17
ATOM     17  C   UNL     1       0.766  -8.480   7.643  1.00  0.00     0.031 A 
ATOM     18  C   UNL     1       1.074  -8.039   9.033  1.00  0.00     0.074 A 
ATOM     19  C   UNL     1      -0.420  -8.276   7.055  1.00  0.00     0.049 A 
ATOM     20  N   UNL     1       0.269  -7.749  10.010  1.00  0.00    -0.248 NA
ATOM     21  C   UNL     1       2.505  -7.920   9.366  1.00  0.00     0.031 C 
ATOM     22  C   UNL     1      -0.705  -8.479   5.632  1.00  0.00     0.029 A 
ATOM     23  N   UNL     1      -1.605  -7.851   7.582  1.00  0.00    -0.354 N 
ATOM     24  C   UNL     1       1.093  -7.481  11.096  1.00  0.00     0.074 A 
ATOM     25  C   UNL     1       2.458  -7.638  10.654  1.00  0.00     0.031 C 
ATOM     26  C   UNL     1      -2.000  -8.209   5.407  1.00  0.00     0.029 A 
ATOM     27  C   UNL     1      -2.641  -7.920   6.684  1.00  0.00     0.049 A 
ATOM     28  H   UNL     1      -1.706  -7.529   8.507  1.00  0.00     0.167 HD
ATOM     29  C   UNL     1       0.709  -7.163  12.354  1.00  0.00     0.034 A 
ATOM     30  C   UNL     1      -3.965  -7.851   6.912  1.00  0.00     0.034 A 
ATOM     31  C   UNL     1      -0.684  -7.056  12.703  1.00  0.00     0.049 A 
ATOM     32  C   UNL     1      -4.396  -7.639   8.341  1.00  0.00     0.074 A 
ATOM     33  C   UNL     1      -1.262  -6.831  13.935  1.00  0.00     0.029 A 
ATOM     34  N   UNL     1      -1.728  -7.186  11.785  1.00  0.00    -0.354 N 
ATOM     35  N   UNL     1      -3.643  -7.511   9.414  1.00  0.00    -0.248 NA
ATOM     36  C   UNL     1      -5.834  -7.574   8.600  1.00  0.00     0.031 C 
ATOM     37  C   UNL     1      -2.651  -6.906  13.774  1.00  0.00     0.029 A 
ATOM     38  C   UNL     1      -2.946  -7.077  12.426  1.00  0.00     0.049 A 
ATOM     39  H   UNL     1      -1.613  -7.335  10.819  1.00  0.00     0.167 HD
ATOM     40  C   UNL     1      -4.516  -7.316  10.476  1.00  0.00     0.074 A 
ATOM     41  C   UNL     1      -5.854  -7.352   9.909  1.00  0.00     0.031 C 
ATOM     42  C   UNL     1      -4.249  -7.115  11.794  1.00  0.00     0.034 A 
BRANCH  29  43
ATOM     43  C   UNL     1       1.801  -7.084  13.394  1.00  0.00     0.023 A 
ATOM     44  C   UNL     1       2.877  -6.182  13.283  1.00  0.00     0.031 A 
ATOM     45  C   UNL     1       1.859  -8.046  14.418  1.00  0.00     0.131 A 
ATOM     46  C   UNL     1       4.016  -6.347  14.088  1.00  0.00     0.055 A 
ATOM     47  C   UNL     1       2.947  -8.133  15.289  1.00  0.00     0.041 A 
ATOM     48  F   UNL     1       0.886  -8.961  14.554  1.00  0.00    -0.206 F 
ATOM     49  C   UNL     1       4.047  -7.299  15.110  1.00  0.00     0.022 A 
BRANCH  46  50
ATOM     50  S   UNL     1       5.537  -5.466  13.627  1.00  0.00     0.124 S 
ATOM     51  O   UNL     1       5.755  -5.938  12.260  1.00  0.00    -0.237 OA
ATOM     52  O   UNL     1       5.149  -4.068  13.761  1.00  0.00    -0.237 OA
ATOM     53  O   UNL     1       6.519  -5.939  14.601  1.00  0.00    -0.744 OA
ENDBRANCH  46  50
ENDBRANCH  29  43
BRANCH  30  54
ATOM     54  C   UNL     1      -4.927  -8.095   5.800  1.00  0.00     0.023 A 
ATOM     55  C   UNL     1      -5.807  -7.099   5.358  1.00  0.00     0.031 A 
ATOM     56  C   UNL     1      -4.955  -9.339   5.136  1.00  0.00     0.131 A 
ATOM     57  C   UNL     1      -6.688  -7.365   4.295  1.00  0.00     0.055 A 
ATOM     58  C   UNL     1      -5.796  -9.582   4.049  1.00  0.00     0.041 A 
ATOM     59  F   UNL     1      -4.135 -10.332   5.516  1.00  0.00    -0.206 F 
ATOM     60  C   UNL     1      -6.675  -8.592   3.627  1.00  0.00     0.022 A 
BRANCH  57  61
ATOM     61  S   UNL     1      -7.896  -6.097   3.826  1.00  0.00     0.124 S 
ATOM     62  O   UNL     1      -8.632  -5.912   5.072  1.00  0.00    -0.237 OA
ATOM     63  O   UNL     1      -7.034  -4.992   3.419  1.00  0.00    -0.237 OA
ATOM     64  O   UNL     1      -8.650  -6.727   2.744  1.00  0.00    -0.744 OA
ENDBRANCH  57  61
ENDBRANCH  30  54
BRANCH  42  65
ATOM     65  C   UNL     1      -5.426  -6.838  12.687  1.00  0.00     0.023 A 
ATOM     66  C   UNL     1      -6.351  -7.835  13.030  1.00  0.00     0.031 A 
ATOM     67  C   UNL     1      -5.572  -5.559  13.255  1.00  0.00     0.131 A 
ATOM     68  C   UNL     1      -7.403  -7.528  13.903  1.00  0.00     0.055 A 
ATOM     69  C   UNL     1      -6.583  -5.278  14.169  1.00  0.00     0.041 A 
ATOM     70  F   UNL     1      -4.710  -4.575  12.951  1.00  0.00    -0.206 F 
ATOM     71  C   UNL     1      -7.510  -6.264  14.493  1.00  0.00     0.022 A 
BRANCH  68  72
ATOM     72  S   UNL     1      -8.667  -8.786  14.217  1.00  0.00     0.124 S 
ATOM     73  O   UNL     1      -9.212  -9.005  12.880  1.00  0.00    -0.237 OA
ATOM     74  O   UNL     1      -7.886  -9.885  14.775  1.00  0.00    -0.237 OA
ATOM     75  O   UNL     1      -9.575  -8.131  15.157  1.00  0.00    -0.744 OA
ENDBRANCH  68  72
ENDBRANCH  42  65
ENDBRANCH  16  17
ENDBRANCH   9  11
ENDBRANCH   8   9
ENDBRANCH   7   8
ENDBRANCH   6   7
ENDBRANCH   5   6
ENDBRANCH   4   5
ENDBRANCH   3   4
ENDBRANCH   2   3
ENDBRANCH   1   2
BRANCH   1  76
ATOM     76  C   UNL     1       3.809  -6.287   1.164  1.00  0.00     0.188 C 
BRANCH  76  77
ATOM     77  O   UNL     1       2.856  -7.259   1.556  1.00  0.00    -0.376 OA
BRANCH  77  78
ATOM     78  C   UNL     1       1.726  -7.484   0.725  1.00  0.00     0.202 C 
BRANCH  78  79
ATOM     79  C   UNL     1       1.853  -7.547  -0.812  1.00  0.00     0.261 C 
BRANCH  79  80
ATOM     80  O   UNL     1       3.023  -6.930  -1.359  1.00  0.00    -0.461 OA
BRANCH  80  81
ATOM     81  C   UNL     1       2.942  -5.693  -1.902  1.00  0.00     0.338 C 
ATOM     82  O   UNL     1       1.901  -5.051  -2.040  1.00  0.00    -0.249 OA
BRANCH  81  83
ATOM     83  C   UNL     1       4.338  -5.138  -2.260  1.00  0.00     0.263 C 
ATOM     84  O   UNL     1       5.021  -4.535  -1.133  1.00  0.00    -0.322 OA
ATOM     85  C   UNL     1       5.189  -6.255  -2.887  1.00  0.00     0.186 C 
ATOM     86  C   UNL     1       6.275  -3.912  -1.432  1.00  0.00     0.340 C 
ATOM     87  C   UNL     1       6.468  -5.635  -3.423  1.00  0.00     0.181 C 
ATOM     88  C   UNL     1       7.144  -4.716  -2.413  1.00  0.00     0.214 C 
BRANCH  85  89
ATOM     89  O   UNL     1       4.513  -6.954  -3.938  1.00  0.00    -0.387 OA
ATOM     90  H   UNL     1       4.306  -6.335  -4.656  1.00  0.00     0.211 HD
ENDBRANCH  85  89
BRANCH  86  91
ATOM     91  O   UNL     1       7.050  -3.396  -0.287  1.00  0.00    -0.454 OA
BRANCH  91  92
ATOM     92  C   UNL     1       7.742  -4.113   0.694  1.00  0.00     0.214 A 
ATOM     93  C   UNL     1       8.986  -4.654   0.583  1.00  0.00     0.181 A 
ATOM     94  C   UNL     1       7.257  -3.963   2.127  1.00  0.00     0.239 A 
ATOM     95  O   UNL     1       9.680  -5.299   1.589  1.00  0.00    -0.452 OA
ATOM     96  C   UNL     1       8.135  -4.456   3.239  1.00  0.00     0.111 A 
ATOM     97  O   UNL     1       6.164  -3.453   2.344  1.00  0.00    -0.285 OA
ATOM     98  C   UNL     1       9.283  -5.151   2.883  1.00  0.00     0.146 A 
ATOM     99  C   UNL     1       7.849  -4.334   4.614  1.00  0.00     0.134 A 
ATOM    100  C   UNL     1      10.103  -5.759   3.844  1.00  0.00     0.094 A 
ATOM    101  C   UNL     1       8.668  -4.934   5.589  1.00  0.00     0.093 A 
ATOM    102  C   UNL     1       9.782  -5.661   5.189  1.00  0.00     0.123 A 
BRANCH  93 103
ATOM    103  C   UNL     1       9.799  -4.673  -0.642  1.00  0.00     0.029 A 
ATOM    104  C   UNL     1      10.029  -5.909  -1.278  1.00  0.00     0.062 A 
ATOM    105  C   UNL     1      10.261  -3.483  -1.224  1.00  0.00     0.062 A 
ATOM    106  C   UNL     1      10.524  -5.913  -2.574  1.00  0.00     0.162 A 
ATOM    107  C   UNL     1      10.826  -3.527  -2.494  1.00  0.00     0.162 A 
ATOM    108  C   UNL     1      10.931  -4.732  -3.179  1.00  0.00     0.200 A 
BRANCH 106 109
ATOM    109  O   UNL     1      10.421  -7.043  -3.336  1.00  0.00    -0.504 OA
ATOM    110  H   UNL     1      10.148  -7.849  -2.945  1.00  0.00     0.293 HD
ENDBRANCH 106 109
BRANCH 107 111
ATOM    111  O   UNL     1      11.146  -2.359  -3.126  1.00  0.00    -0.504 OA
ATOM    112  H   UNL     1      11.528  -2.378  -3.981  1.00  0.00     0.293 HD
ENDBRANCH 107 111
BRANCH 108 113
ATOM    113  O   UNL     1      11.337  -4.727  -4.487  1.00  0.00    -0.502 OA
ATOM    114  H   UNL     1      11.411  -5.533  -4.958  1.00  0.00     0.293 HD
ENDBRANCH 108 113
ENDBRANCH  93 103
BRANCH  99 115
ATOM    115  O   UNL     1       6.747  -3.651   5.040  1.00  0.00    -0.507 OA
ATOM    116  H   UNL     1       6.567  -3.576   5.957  1.00  0.00     0.293 HD
ENDBRANCH  99 115
BRANCH 102 117
ATOM    117  O   UNL     1      10.574  -6.321   6.080  1.00  0.00    -0.508 OA
ATOM    118  H   UNL     1      11.318  -6.803   5.778  1.00  0.00     0.293 HD
ENDBRANCH 102 117
ENDBRANCH  91  92
ENDBRANCH  86  91
BRANCH  87 119
ATOM    119  O   UNL     1       7.407  -6.676  -3.816  1.00  0.00    -0.387 OA
ATOM    120  H   UNL     1       7.649  -7.202  -3.038  1.00  0.00     0.211 HD
ENDBRANCH  87 119
BRANCH  88 121
ATOM    121  O   UNL     1       7.995  -3.850  -3.175  1.00  0.00    -0.384 OA
ATOM    122  H   UNL     1       7.453  -3.305  -3.767  1.00  0.00     0.211 HD
ENDBRANCH  88 121
ENDBRANCH  81  83
ENDBRANCH  80  81
ENDBRANCH  79  80
ENDBRANCH  78  79
ENDBRANCH  77  78
ENDBRANCH  76  77
ENDBRANCH   1  76
TORSDOF 34
