REMARK SMILES CSCc1ccc(C(=O)N2C[C@@H](O)C[C@@H]2C(=O)OCCOCCOCCOCCOC(=O)c2ccc(-c3c4nc(c(-c5cc(S(=O)(=O)[O-])ccc5F)c5ccc([nH]5)c(-c5cc(S(=O)(=O)[O-])ccc5F)c5nc(c(-c6cc(S(=O)(=O)[O-])ccc6F)c6ccc3[nH]6)C=C5)C=C4)cc2)o1
REMARK SMILES IDX 23 1 22 2 21 3 20 4 19 5 18 6 16 7 17 8 15 9 10 10 11 11
REMARK SMILES IDX 12 12 14 13 8 14 9 15 7 16 4 17 5 18 96 19 6 20 3 21 2 22
REMARK SMILES IDX 1 23 13 24 24 26 25 27 26 28 27 29 28 30 29 31 30 32 31 33
REMARK SMILES IDX 32 34 33 35 34 36 95 37 35 38 94 39 36 40 37 41 38 42 88 43
REMARK SMILES IDX 39 44 93 45 87 46 89 47 40 48 92 49 86 50 85 51 41 53 73 54
REMARK SMILES IDX 53 55 72 56 54 57 57 58 71 59 90 60 55 61 56 62 70 64 91 65
REMARK SMILES IDX 58 66 42 67 43 68 51 69 44 70 50 71 52 72 49 73 45 74 46 75
REMARK SMILES IDX 47 76 48 77 74 78 75 79 83 80 76 81 82 82 84 83 81 84 77 85
REMARK SMILES IDX 78 86 79 87 80 88 59 89 60 90 68 91 61 92 67 93 69 94 66 95
REMARK SMILES IDX 62 96 63 97 64 98 65 99
REMARK H PARENT 13 25 89 52 57 63
REMARK Flexibility Score: inf
ROOT
ATOM      1  C   UNL     1       3.102   2.527  -5.006  1.00  0.00     0.188 C 
ENDROOT
BRANCH   1   2
ATOM      2  C   UNL     1       3.039   1.113  -5.630  1.00  0.00     0.188 C 
BRANCH   2   3
ATOM      3  O   UNL     1       4.199   0.742  -6.352  1.00  0.00    -0.376 OA
BRANCH   3   4
ATOM      4  C   UNL     1       4.114   0.751  -7.764  1.00  0.00     0.202 C 
BRANCH   4   5
ATOM      5  C   UNL     1       3.814   2.099  -8.435  1.00  0.00     0.261 C 
BRANCH   5   6
ATOM      6  O   UNL     1       2.663   2.818  -7.951  1.00  0.00    -0.462 OA
BRANCH   6   7
ATOM      7  C   UNL     1       1.431   2.265  -8.089  1.00  0.00     0.329 C 
ATOM      8  O   UNL     1       1.196   1.212  -8.669  1.00  0.00    -0.250 OA
BRANCH   7   9
ATOM      9  C   UNL     1       0.371   3.129  -7.372  1.00  0.00     0.198 C 
ATOM     10  N   UNL     1      -0.470   2.340  -6.446  1.00  0.00    -0.319 N 
ATOM     11  C   UNL     1      -1.853   2.387  -6.864  1.00  0.00     0.152 C 
ATOM     12  C   UNL     1      -1.764   2.669  -8.357  1.00  0.00     0.136 C 
ATOM     13  C   UNL     1      -0.600   3.658  -8.427  1.00  0.00     0.071 C 
BRANCH  10  14
ATOM     14  C   UNL     1      -0.177   2.155  -5.101  1.00  0.00     0.290 C 
ATOM     15  O   UNL     1       0.197   3.095  -4.404  1.00  0.00    -0.265 OA
BRANCH  14  16
ATOM     16  C   UNL     1      -0.250   0.769  -4.650  1.00  0.00     0.191 A 
ATOM     17  C   UNL     1       0.209  -0.934  -3.309  1.00  0.00     0.114 A 
ATOM     18  C   UNL     1      -0.366  -1.470  -4.440  1.00  0.00     0.047 A 
ATOM     19  O   UNL     1       0.265   0.430  -3.418  1.00  0.00    -0.455 OA
ATOM     20  C   UNL     1      -0.640  -0.388  -5.302  1.00  0.00     0.056 A 
BRANCH  17  21
ATOM     21  C   UNL     1       0.831  -1.582  -2.123  1.00  0.00     0.144 C 
BRANCH  21  22
ATOM     22  S   UNL     1      -0.084  -1.292  -0.582  1.00  0.00    -0.157 SA
ATOM     23  C   UNL     1       0.823   0.157   0.007  1.00  0.00     0.085 C 
ENDBRANCH  21  22
ENDBRANCH  17  21
ENDBRANCH  14  16
ENDBRANCH  10  14
BRANCH  12  24
ATOM     24  O   UNL     1      -2.957   3.211  -8.888  1.00  0.00    -0.391 OA
ATOM     25  H   UNL     1      -3.179   4.029  -8.416  1.00  0.00     0.211 HD
ENDBRANCH  12  24
ENDBRANCH   7   9
ENDBRANCH   6   7
ENDBRANCH   5   6
ENDBRANCH   4   5
ENDBRANCH   3   4
ENDBRANCH   2   3
ENDBRANCH   1   2
BRANCH   1  26
ATOM     26  O   UNL     1       4.334   3.219  -4.867  1.00  0.00    -0.377 OA
BRANCH  26  27
ATOM     27  C   UNL     1       5.533   2.474  -4.763  1.00  0.00     0.188 C 
BRANCH  27  28
ATOM     28  C   UNL     1       5.573   1.266  -3.804  1.00  0.00     0.188 C 
BRANCH  28  29
ATOM     29  O   UNL     1       4.325   0.919  -3.224  1.00  0.00    -0.376 OA
BRANCH  29  30
ATOM     30  C   UNL     1       4.087   1.245  -1.869  1.00  0.00     0.202 C 
BRANCH  30  31
ATOM     31  C   UNL     1       4.057   2.723  -1.459  1.00  0.00     0.261 C 
BRANCH  31  32
ATOM     32  O   UNL     1       5.185   3.508  -1.855  1.00  0.00    -0.460 OA
BRANCH  32  33
ATOM     33  C   UNL     1       6.386   3.172  -1.342  1.00  0.00     0.338 C 
ATOM     34  O   UNL     1       6.624   2.267  -0.556  1.00  0.00    -0.246 OA
BRANCH  33  35
ATOM     35  C   UNL     1       7.392   3.960  -2.077  1.00  0.00     0.060 A 
ATOM     36  C   UNL     1       8.371   3.292  -2.824  1.00  0.00     0.016 A 
ATOM     37  C   UNL     1       7.313   5.355  -2.088  1.00  0.00     0.016 A 
ATOM     38  C   UNL     1       9.275   4.021  -3.592  1.00  0.00     0.010 A 
ATOM     39  C   UNL     1       8.247   6.086  -2.821  1.00  0.00     0.010 A 
ATOM     40  C   UNL     1       9.243   5.421  -3.556  1.00  0.00    -0.014 A 
BRANCH  40  41
ATOM     41  C   UNL     1      10.400   6.181  -4.078  1.00  0.00     0.031 A 
ATOM     42  C   UNL     1      11.491   6.529  -3.105  1.00  0.00     0.074 A 
ATOM     43  C   UNL     1      10.491   6.528  -5.373  1.00  0.00     0.049 A 
ATOM     44  N   UNL     1      12.582   7.222  -3.290  1.00  0.00    -0.248 NA
ATOM     45  C   UNL     1      11.320   6.023  -1.733  1.00  0.00     0.031 C 
ATOM     46  C   UNL     1       9.517   6.192  -6.409  1.00  0.00     0.029 A 
ATOM     47  N   UNL     1      11.454   7.247  -6.034  1.00  0.00    -0.354 N 
ATOM     48  C   UNL     1      13.227   7.238  -2.058  1.00  0.00     0.074 A 
ATOM     49  C   UNL     1      12.385   6.520  -1.127  1.00  0.00     0.031 C 
ATOM     50  C   UNL     1       9.928   6.716  -7.577  1.00  0.00     0.029 A 
ATOM     51  C   UNL     1      11.171   7.457  -7.363  1.00  0.00     0.049 A 
ATOM     52  H   UNL     1      12.271   7.581  -5.598  1.00  0.00     0.167 HD
ATOM     53  C   UNL     1      14.418   7.796  -1.737  1.00  0.00     0.034 A 
ATOM     54  C   UNL     1      11.829   8.189  -8.285  1.00  0.00     0.034 A 
ATOM     55  C   UNL     1      15.226   8.533  -2.676  1.00  0.00     0.049 A 
ATOM     56  C   UNL     1      13.102   8.896  -7.877  1.00  0.00     0.074 A 
ATOM     57  C   UNL     1      16.449   9.143  -2.466  1.00  0.00     0.029 A 
ATOM     58  N   UNL     1      14.881   8.776  -4.000  1.00  0.00    -0.354 N 
ATOM     59  N   UNL     1      13.711   8.902  -6.712  1.00  0.00    -0.248 NA
ATOM     60  C   UNL     1      13.780   9.690  -8.911  1.00  0.00     0.031 C 
ATOM     61  C   UNL     1      16.802   9.824  -3.636  1.00  0.00     0.029 A 
ATOM     62  C   UNL     1      15.849   9.561  -4.607  1.00  0.00     0.049 A 
ATOM     63  H   UNL     1      14.068   8.440  -4.442  1.00  0.00     0.167 HD
ATOM     64  C   UNL     1      14.861   9.670  -6.886  1.00  0.00     0.074 A 
ATOM     65  C   UNL     1      14.865  10.099  -8.270  1.00  0.00     0.031 C 
ATOM     66  C   UNL     1      15.831   9.988  -5.988  1.00  0.00     0.034 A 
BRANCH  53  67
ATOM     67  C   UNL     1      14.869   7.682  -0.301  1.00  0.00     0.023 A 
ATOM     68  C   UNL     1      15.130   6.437   0.298  1.00  0.00     0.031 A 
ATOM     69  C   UNL     1      14.989   8.834   0.496  1.00  0.00     0.131 A 
ATOM     70  C   UNL     1      15.423   6.367   1.668  1.00  0.00     0.055 A 
ATOM     71  C   UNL     1      15.367   8.764   1.838  1.00  0.00     0.041 A 
ATOM     72  F   UNL     1      14.722  10.047  -0.011  1.00  0.00    -0.206 F 
ATOM     73  C   UNL     1      15.570   7.524   2.436  1.00  0.00     0.022 A 
BRANCH  70  74
ATOM     74  S   UNL     1      15.452   4.738   2.467  1.00  0.00     0.124 S 
ATOM     75  O   UNL     1      14.109   4.243   2.175  1.00  0.00    -0.237 OA
ATOM     76  O   UNL     1      16.545   4.066   1.774  1.00  0.00    -0.237 OA
ATOM     77  O   UNL     1      15.701   5.051   3.873  1.00  0.00    -0.744 OA
ENDBRANCH  70  74
ENDBRANCH  53  67
BRANCH  54  78
ATOM     78  C   UNL     1      11.287   8.334  -9.667  1.00  0.00     0.023 A 
ATOM     79  C   UNL     1      12.006   7.877 -10.784  1.00  0.00     0.031 A 
ATOM     80  C   UNL     1      10.063   8.989  -9.897  1.00  0.00     0.131 A 
ATOM     81  C   UNL     1      11.518   8.120 -12.078  1.00  0.00     0.055 A 
ATOM     82  C   UNL     1       9.555   9.178 -11.184  1.00  0.00     0.041 A 
ATOM     83  F   UNL     1       9.337   9.454  -8.868  1.00  0.00    -0.206 F 
ATOM     84  C   UNL     1      10.291   8.754 -12.285  1.00  0.00     0.022 A 
BRANCH  81  85
ATOM     85  S   UNL     1      12.558   7.675 -13.497  1.00  0.00     0.124 S 
ATOM     86  O   UNL     1      13.761   8.458 -13.240  1.00  0.00    -0.237 OA
ATOM     87  O   UNL     1      12.685   6.230 -13.337  1.00  0.00    -0.237 OA
ATOM     88  O   UNL     1      11.766   8.105 -14.647  1.00  0.00    -0.744 OA
ENDBRANCH  81  85
ENDBRANCH  54  78
BRANCH  66  89
ATOM     89  C   UNL     1      17.003  10.796  -6.493  1.00  0.00     0.023 A 
ATOM     90  C   UNL     1      16.858  12.120  -6.940  1.00  0.00     0.031 A 
ATOM     91  C   UNL     1      18.289  10.226  -6.525  1.00  0.00     0.131 A 
ATOM     92  C   UNL     1      17.967  12.810  -7.454  1.00  0.00     0.055 A 
ATOM     93  C   UNL     1      19.401  10.941  -6.971  1.00  0.00     0.041 A 
ATOM     94  F   UNL     1      18.488   8.963  -6.113  1.00  0.00    -0.206 F 
ATOM     95  C   UNL     1      19.241  12.236  -7.453  1.00  0.00     0.022 A 
BRANCH  92  96
ATOM     96  S   UNL     1      17.705  14.432  -8.222  1.00  0.00     0.124 S 
ATOM     97  O   UNL     1      16.739  14.119  -9.270  1.00  0.00    -0.237 OA
ATOM     98  O   UNL     1      17.201  15.228  -7.107  1.00  0.00    -0.237 OA
ATOM     99  O   UNL     1      19.036  14.806  -8.697  1.00  0.00    -0.744 OA
ENDBRANCH  92  96
ENDBRANCH  66  89
ENDBRANCH  40  41
ENDBRANCH  33  35
ENDBRANCH  32  33
ENDBRANCH  31  32
ENDBRANCH  30  31
ENDBRANCH  29  30
ENDBRANCH  28  29
ENDBRANCH  27  28
ENDBRANCH  26  27
ENDBRANCH   1  26
TORSDOF 28
