REMARK SMILES CC[C@@H]1CCCN(S(=O)(=O)c2cc(C(=O)OCCOCCOCCOCCOC(=O)c3ccc(-c4c5nc(c(-c6cc(S(=O)(=O)[O-])ccc6F)c6ccc([nH]6)c(-c6cc(S(=O)(=O)[O-])ccc6F)c6nc(c(-c7cc(S(=O)(=O)[O-])ccc7F)c7ccc4[nH]7)C=C6)C=C5)cc3)ccc2F)C1
REMARK SMILES IDX 22 1 21 2 20 3 19 4 18 5 17 6 16 7 14 8 15 9 13 10 11 11
REMARK SMILES IDX 12 12 96 13 95 14 97 15 94 16 8 17 9 18 10 19 7 20 3 21 4 22
REMARK SMILES IDX 98 23 5 24 6 25 2 26 1 27 23 28 24 29 25 30 26 31 27 32
REMARK SMILES IDX 28 33 29 34 30 35 31 36 32 37 93 38 33 39 92 40 34 41 35 42
REMARK SMILES IDX 36 43 86 44 37 45 91 46 85 47 87 48 38 49 90 50 84 51 83 52
REMARK SMILES IDX 39 54 71 55 51 56 70 57 52 58 55 59 69 60 88 61 53 62 54 63
REMARK SMILES IDX 68 65 89 66 56 67 40 68 41 69 49 70 42 71 48 72 50 73 47 74
REMARK SMILES IDX 43 75 44 76 45 77 46 78 72 79 73 80 81 81 74 82 80 83 82 84
REMARK SMILES IDX 79 85 75 86 76 87 77 88 78 89 57 90 58 91 66 92 59 93 65 94
REMARK SMILES IDX 67 95 64 96 60 97 61 98 62 99 63 100
REMARK H PARENT 87 53 55 64
REMARK Flexibility Score: inf
ROOT
ATOM      1  O   UNL     1       8.316   4.257   2.987  1.00  0.00    -0.377 OA
ENDROOT
BRANCH   1   2
ATOM      2  C   UNL     1       7.930   3.881   1.677  1.00  0.00     0.188 C 
BRANCH   2   3
ATOM      3  C   UNL     1       6.985   4.881   0.984  1.00  0.00     0.188 C 
BRANCH   3   4
ATOM      4  O   UNL     1       7.017   6.187   1.522  1.00  0.00    -0.376 OA
BRANCH   4   5
ATOM      5  C   UNL     1       6.190   6.581   2.603  1.00  0.00     0.202 C 
BRANCH   5   6
ATOM      6  C   UNL     1       5.601   5.650   3.682  1.00  0.00     0.261 C 
BRANCH   6   7
ATOM      7  O   UNL     1       5.546   4.253   3.407  1.00  0.00    -0.460 OA
BRANCH   7   8
ATOM      8  C   UNL     1       4.479   3.776   2.732  1.00  0.00     0.338 C 
ATOM      9  O   UNL     1       3.529   4.398   2.313  1.00  0.00    -0.246 OA
BRANCH   8  10
ATOM     10  C   UNL     1       4.799   2.366   2.383  1.00  0.00     0.061 A 
ATOM     11  C   UNL     1       4.984   0.666   0.673  1.00  0.00     0.119 A 
ATOM     12  C   UNL     1       4.543   1.934   1.077  1.00  0.00     0.040 A 
ATOM     13  C   UNL     1       5.671  -0.153   1.559  1.00  0.00     0.143 A 
ATOM     14  C   UNL     1       5.900   0.262   2.868  1.00  0.00     0.041 A 
ATOM     15  F   UNL     1       6.097  -1.371   1.201  1.00  0.00    -0.206 F 
ATOM     16  C   UNL     1       5.471   1.524   3.282  1.00  0.00     0.019 A 
BRANCH  11  17
ATOM     17  S   UNL     1       4.728   0.152  -0.994  1.00  0.00     0.246 S 
ATOM     18  O   UNL     1       5.764  -0.776  -1.392  1.00  0.00    -0.207 OA
ATOM     19  O   UNL     1       4.491   1.352  -1.771  1.00  0.00    -0.207 OA
BRANCH  17  20
ATOM     20  N   UNL     1       3.251  -0.705  -0.896  1.00  0.00    -0.197 NA
ATOM     21  C   UNL     1       1.105  -1.242  -1.985  1.00  0.00     0.004 C 
ATOM     22  C   UNL     1       1.011  -2.526  -1.149  1.00  0.00     0.006 C 
ATOM     23  C   UNL     1       2.573  -0.856  -2.206  1.00  0.00     0.106 C 
ATOM     24  C   UNL     1       1.897  -2.525   0.095  1.00  0.00     0.017 C 
ATOM     25  C   UNL     1       3.306  -2.000  -0.167  1.00  0.00     0.102 C 
BRANCH  21  26
ATOM     26  C   UNL     1       0.237  -0.062  -1.489  1.00  0.00     0.001 C 
ATOM     27  C   UNL     1       0.370   0.377  -0.038  1.00  0.00     0.004 C 
ENDBRANCH  21  26
ENDBRANCH  17  20
ENDBRANCH  11  17
ENDBRANCH   8  10
ENDBRANCH   7   8
ENDBRANCH   6   7
ENDBRANCH   5   6
ENDBRANCH   4   5
ENDBRANCH   3   4
ENDBRANCH   2   3
ENDBRANCH   1   2
BRANCH   1  28
ATOM     28  C   UNL     1       9.337   5.244   3.145  1.00  0.00     0.188 C 
BRANCH  28  29
ATOM     29  C   UNL     1       9.803   6.155   1.981  1.00  0.00     0.188 C 
BRANCH  29  30
ATOM     30  O   UNL     1       9.768   5.548   0.698  1.00  0.00    -0.376 OA
BRANCH  30  31
ATOM     31  C   UNL     1      10.994   5.171   0.096  1.00  0.00     0.202 C 
BRANCH  31  32
ATOM     32  C   UNL     1      11.755   4.017   0.763  1.00  0.00     0.261 C 
BRANCH  32  33
ATOM     33  O   UNL     1      12.067   4.195   2.152  1.00  0.00    -0.460 OA
BRANCH  33  34
ATOM     34  C   UNL     1      12.912   5.205   2.462  1.00  0.00     0.338 C 
ATOM     35  O   UNL     1      13.450   5.971   1.686  1.00  0.00    -0.246 OA
BRANCH  34  36
ATOM     36  C   UNL     1      12.929   5.336   3.934  1.00  0.00     0.060 A 
ATOM     37  C   UNL     1      12.528   6.545   4.514  1.00  0.00     0.016 A 
ATOM     38  C   UNL     1      13.336   4.265   4.734  1.00  0.00     0.016 A 
ATOM     39  C   UNL     1      12.571   6.700   5.900  1.00  0.00     0.010 A 
ATOM     40  C   UNL     1      13.396   4.428   6.120  1.00  0.00     0.010 A 
ATOM     41  C   UNL     1      13.048   5.658   6.707  1.00  0.00    -0.014 A 
BRANCH  41  42
ATOM     42  C   UNL     1      13.371   5.916   8.132  1.00  0.00     0.031 A 
ATOM     43  C   UNL     1      14.806   6.189   8.497  1.00  0.00     0.074 A 
ATOM     44  C   UNL     1      12.414   5.942   9.077  1.00  0.00     0.049 A 
ATOM     45  N   UNL     1      15.340   6.380   9.674  1.00  0.00    -0.248 NA
ATOM     46  C   UNL     1      15.766   6.254   7.382  1.00  0.00     0.031 C 
ATOM     47  C   UNL     1      10.984   5.757   8.836  1.00  0.00     0.029 A 
ATOM     48  N   UNL     1      12.504   6.139  10.433  1.00  0.00    -0.354 N 
ATOM     49  C   UNL     1      16.695   6.586   9.444  1.00  0.00     0.074 A 
ATOM     50  C   UNL     1      16.909   6.462   8.019  1.00  0.00     0.031 C 
ATOM     51  C   UNL     1      10.330   5.852  10.008  1.00  0.00     0.029 A 
ATOM     52  C   UNL     1      11.297   6.060  11.086  1.00  0.00     0.049 A 
ATOM     53  H   UNL     1      13.355   6.320  10.895  1.00  0.00     0.167 HD
ATOM     54  C   UNL     1      17.671   6.864  10.340  1.00  0.00     0.034 A 
ATOM     55  C   UNL     1      11.007   6.123  12.403  1.00  0.00     0.034 A 
ATOM     56  C   UNL     1      17.448   6.988  11.757  1.00  0.00     0.049 A 
ATOM     57  C   UNL     1      12.127   6.329  13.395  1.00  0.00     0.074 A 
ATOM     58  C   UNL     1      18.369   7.276  12.747  1.00  0.00     0.029 A 
ATOM     59  N   UNL     1      16.222   6.824  12.386  1.00  0.00    -0.354 N 
ATOM     60  N   UNL     1      13.409   6.492  13.167  1.00  0.00    -0.248 NA
ATOM     61  C   UNL     1      11.763   6.354  14.819  1.00  0.00     0.031 C 
ATOM     62  C   UNL     1      17.717   7.213  13.981  1.00  0.00     0.029 A 
ATOM     63  C   UNL     1      16.372   6.969  13.755  1.00  0.00     0.049 A 
ATOM     64  H   UNL     1      15.372   6.634  11.927  1.00  0.00     0.167 HD
ATOM     65  C   UNL     1      14.000   6.663  14.416  1.00  0.00     0.074 A 
ATOM     66  C   UNL     1      12.936   6.585  15.395  1.00  0.00     0.031 C 
ATOM     67  C   UNL     1      15.305   6.877  14.722  1.00  0.00     0.034 A 
BRANCH  54  68
ATOM     68  C   UNL     1      19.077   7.017   9.823  1.00  0.00     0.023 A 
ATOM     69  C   UNL     1      19.455   8.110   9.026  1.00  0.00     0.031 A 
ATOM     70  C   UNL     1      20.060   6.072  10.165  1.00  0.00     0.131 A 
ATOM     71  C   UNL     1      20.778   8.214   8.569  1.00  0.00     0.055 A 
ATOM     72  C   UNL     1      21.387   6.213   9.759  1.00  0.00     0.041 A 
ATOM     73  F   UNL     1      19.745   4.998  10.906  1.00  0.00    -0.206 F 
ATOM     74  C   UNL     1      21.752   7.287   8.952  1.00  0.00     0.022 A 
BRANCH  71  75
ATOM     75  S   UNL     1      21.196   9.542   7.409  1.00  0.00     0.124 S 
ATOM     76  O   UNL     1      20.376   9.191   6.252  1.00  0.00    -0.237 OA
ATOM     77  O   UNL     1      20.794  10.739   8.138  1.00  0.00    -0.237 OA
ATOM     78  O   UNL     1      22.636   9.385   7.214  1.00  0.00    -0.744 OA
ENDBRANCH  71  75
ENDBRANCH  54  68
BRANCH  55  79
ATOM     79  C   UNL     1       9.601   5.954  12.864  1.00  0.00     0.023 A 
ATOM     80  C   UNL     1       8.896   7.017  13.450  1.00  0.00     0.031 A 
ATOM     81  C   UNL     1       8.941   4.720  12.726  1.00  0.00     0.131 A 
ATOM     82  C   UNL     1       7.576   6.821  13.890  1.00  0.00     0.055 A 
ATOM     83  C   UNL     1       7.617   4.541  13.128  1.00  0.00     0.041 A 
ATOM     84  F   UNL     1       9.572   3.672  12.172  1.00  0.00    -0.206 F 
ATOM     85  C   UNL     1       6.928   5.595  13.719  1.00  0.00     0.022 A 
BRANCH  82  86
ATOM     86  S   UNL     1       6.718   8.189  14.716  1.00  0.00     0.124 S 
ATOM     87  O   UNL     1       7.522   8.359  15.921  1.00  0.00    -0.237 OA
ATOM     88  O   UNL     1       6.816   9.254  13.722  1.00  0.00    -0.237 OA
ATOM     89  O   UNL     1       5.371   7.665  14.931  1.00  0.00    -0.744 OA
ENDBRANCH  82  86
ENDBRANCH  55  79
BRANCH  67  90
ATOM     90  C   UNL     1      15.668   7.076  16.171  1.00  0.00     0.023 A 
ATOM     91  C   UNL     1      15.655   6.011  17.087  1.00  0.00     0.031 A 
ATOM     92  C   UNL     1      16.115   8.333  16.618  1.00  0.00     0.131 A 
ATOM     93  C   UNL     1      16.066   6.228  18.411  1.00  0.00     0.055 A 
ATOM     94  C   UNL     1      16.568   8.530  17.922  1.00  0.00     0.041 A 
ATOM     95  F   UNL     1      16.153   9.381  15.779  1.00  0.00    -0.206 F 
ATOM     96  C   UNL     1      16.541   7.474  18.828  1.00  0.00     0.022 A 
BRANCH  93  97
ATOM     97  S   UNL     1      15.953   4.859  19.595  1.00  0.00     0.124 S 
ATOM     98  O   UNL     1      14.512   4.629  19.654  1.00  0.00    -0.237 OA
ATOM     99  O   UNL     1      16.739   3.814  18.948  1.00  0.00    -0.237 OA
ATOM    100  O   UNL     1      16.542   5.410  20.814  1.00  0.00    -0.744 OA
ENDBRANCH  93  97
ENDBRANCH  67  90
ENDBRANCH  41  42
ENDBRANCH  34  36
ENDBRANCH  33  34
ENDBRANCH  32  33
ENDBRANCH  31  32
ENDBRANCH  30  31
ENDBRANCH  29  30
ENDBRANCH  28  29
ENDBRANCH   1  28
TORSDOF 26
