REMARK SMILES Cc1ccc2c(=O)c3cccc(CC(=O)OCCOCCOCCOCCOC(=O)c4ccc(-c5c6nc(c(-c7cc(S(=O)(=O)[O-])ccc7F)c7ccc([nH]7)c(-c7cc(S(=O)(=O)[O-])ccc7F)c7nc(c(-c8cc(S(=O)(=O)[O-])ccc8F)c8ccc5[nH]8)C=C7)C=C6)cc4)c3oc2c1C
REMARK SMILES IDX 23 1 22 2 21 3 20 4 19 5 18 6 17 7 16 8 14 9 15 10 13 11
REMARK SMILES IDX 12 12 1 13 2 14 3 15 97 16 4 17 96 18 98 19 5 20 95 21 6 22
REMARK SMILES IDX 94 23 7 24 8 25 9 26 11 27 10 28 24 29 25 30 26 31 27 32
REMARK SMILES IDX 28 33 29 34 30 35 31 36 32 37 93 38 33 39 92 40 34 41 35 42
REMARK SMILES IDX 36 43 86 44 37 45 91 46 85 47 87 48 38 49 90 50 84 51 83 52
REMARK SMILES IDX 39 54 71 55 51 56 70 57 52 58 55 59 69 60 88 61 53 62 54 63
REMARK SMILES IDX 68 65 89 66 56 67 40 68 41 69 49 70 42 71 48 72 50 73 47 74
REMARK SMILES IDX 43 75 44 76 45 77 46 78 72 79 73 80 81 81 74 82 80 83 82 84
REMARK SMILES IDX 79 85 75 86 76 87 77 88 78 89 57 90 58 91 66 92 59 93 65 94
REMARK SMILES IDX 67 95 64 96 60 97 61 98 62 99 63 100
REMARK H PARENT 87 53 55 64
REMARK Flexibility Score: inf
ROOT
ATOM      1  C   UNL     1      -2.500   5.270   2.187  1.00  0.00     0.188 C 
ENDROOT
BRANCH   1   2
ATOM      2  O   UNL     1      -1.875   5.415   0.935  1.00  0.00    -0.377 OA
BRANCH   2   3
ATOM      3  C   UNL     1      -0.489   5.693   0.957  1.00  0.00     0.188 C 
BRANCH   3   4
ATOM      4  C   UNL     1       0.497   5.015   1.935  1.00  0.00     0.188 C 
BRANCH   4   5
ATOM      5  O   UNL     1       0.235   5.111   3.320  1.00  0.00    -0.376 OA
BRANCH   5   6
ATOM      6  C   UNL     1       0.322   6.326   4.038  1.00  0.00     0.202 C 
BRANCH   6   7
ATOM      7  C   UNL     1       0.698   7.688   3.422  1.00  0.00     0.261 C 
BRANCH   7   8
ATOM      8  O   UNL     1       1.186   7.676   2.070  1.00  0.00    -0.463 OA
BRANCH   8   9
ATOM      9  C   UNL     1       2.518   7.660   1.861  1.00  0.00     0.310 C 
ATOM     10  O   UNL     1       3.346   7.782   2.758  1.00  0.00    -0.252 OA
BRANCH   9  11
ATOM     11  C   UNL     1       2.931   7.402   0.416  1.00  0.00     0.162 C 
BRANCH  11  12
ATOM     12  C   UNL     1       1.908   7.308  -0.711  1.00  0.00     0.007 A 
ATOM     13  C   UNL     1       1.368   0.050  -0.392  1.00  0.00     0.045 C 
ATOM     14  C   UNL     1       1.280   1.322  -1.202  1.00  0.00    -0.044 A 
ATOM     15  C   UNL     1       0.468   1.315  -2.346  1.00  0.00     0.005 A 
ATOM     16  C   UNL     1       1.924   2.526  -0.795  1.00  0.00    -0.005 A 
ATOM     17  C   UNL     1       0.255   2.487  -3.060  1.00  0.00     0.016 A 
ATOM     18  C   UNL     1       1.666   3.728  -1.498  1.00  0.00     0.141 A 
ATOM     19  C   UNL     1       2.802   2.510   0.429  1.00  0.00     0.049 C 
ATOM     20  C   UNL     1       0.833   3.682  -2.619  1.00  0.00     0.066 A 
ATOM     21  O   UNL     1       2.215   4.919  -1.034  1.00  0.00    -0.455 OA
ATOM     22  C   UNL     1       0.464   4.935  -3.277  1.00  0.00     0.200 A 
ATOM     23  C   UNL     1       1.656   6.121  -1.454  1.00  0.00     0.142 A 
ATOM     24  O   UNL     1      -0.129   4.943  -4.348  1.00  0.00    -0.288 OA
ATOM     25  C   UNL     1       0.781   6.170  -2.552  1.00  0.00     0.066 A 
ATOM     26  C   UNL     1       0.140   7.352  -2.925  1.00  0.00     0.016 A 
ATOM     27  C   UNL     1       1.233   8.488  -1.097  1.00  0.00     0.008 A 
ATOM     28  C   UNL     1       0.358   8.508  -2.188  1.00  0.00     0.001 A 
ENDBRANCH  11  12
ENDBRANCH   9  11
ENDBRANCH   8   9
ENDBRANCH   7   8
ENDBRANCH   6   7
ENDBRANCH   5   6
ENDBRANCH   4   5
ENDBRANCH   3   4
ENDBRANCH   2   3
ENDBRANCH   1   2
BRANCH   1  29
ATOM     29  C   UNL     1      -2.551   3.798   2.605  1.00  0.00     0.188 C 
BRANCH  29  30
ATOM     30  O   UNL     1      -1.477   3.034   2.072  1.00  0.00    -0.376 OA
BRANCH  30  31
ATOM     31  C   UNL     1      -1.725   2.219   0.931  1.00  0.00     0.202 C 
BRANCH  31  32
ATOM     32  C   UNL     1      -2.170   2.829  -0.410  1.00  0.00     0.261 C 
BRANCH  32  33
ATOM     33  O   UNL     1      -3.352   3.626  -0.418  1.00  0.00    -0.460 OA
BRANCH  33  34
ATOM     34  C   UNL     1      -4.505   3.100   0.030  1.00  0.00     0.338 C 
ATOM     35  O   UNL     1      -4.713   1.952   0.376  1.00  0.00    -0.246 OA
BRANCH  34  36
ATOM     36  C   UNL     1      -5.369   4.273   0.268  1.00  0.00     0.060 A 
ATOM     37  C   UNL     1      -5.511   5.250  -0.725  1.00  0.00     0.016 A 
ATOM     38  C   UNL     1      -5.901   4.466   1.547  1.00  0.00     0.016 A 
ATOM     39  C   UNL     1      -6.188   6.430  -0.433  1.00  0.00     0.010 A 
ATOM     40  C   UNL     1      -6.557   5.656   1.846  1.00  0.00     0.010 A 
ATOM     41  C   UNL     1      -6.724   6.630   0.849  1.00  0.00    -0.014 A 
BRANCH  41  42
ATOM     42  C   UNL     1      -7.702   7.713   1.066  1.00  0.00     0.031 A 
ATOM     43  C   UNL     1      -7.360   8.976   1.780  1.00  0.00     0.074 A 
ATOM     44  C   UNL     1      -8.953   7.462   0.637  1.00  0.00     0.049 A 
ATOM     45  N   UNL     1      -8.127  10.007   2.014  1.00  0.00    -0.248 NA
ATOM     46  C   UNL     1      -5.996   9.103   2.313  1.00  0.00     0.031 C 
ATOM     47  C   UNL     1      -9.361   6.219  -0.024  1.00  0.00     0.029 A 
ATOM     48  N   UNL     1     -10.099   8.204   0.694  1.00  0.00    -0.354 N 
ATOM     49  C   UNL     1      -7.345  10.914   2.716  1.00  0.00     0.074 A 
ATOM     50  C   UNL     1      -6.050  10.293   2.902  1.00  0.00     0.031 C 
ATOM     51  C   UNL     1     -10.662   6.288  -0.319  1.00  0.00     0.029 A 
ATOM     52  C   UNL     1     -11.190   7.558   0.164  1.00  0.00     0.049 A 
ATOM     53  H   UNL     1     -10.139   9.111   1.076  1.00  0.00     0.167 HD
ATOM     54  C   UNL     1      -7.695  12.150   3.148  1.00  0.00     0.034 A 
ATOM     55  C   UNL     1     -12.478   7.941   0.082  1.00  0.00     0.034 A 
ATOM     56  C   UNL     1      -9.011  12.714   2.949  1.00  0.00     0.049 A 
ATOM     57  C   UNL     1     -12.836   9.317   0.562  1.00  0.00     0.074 A 
ATOM     58  C   UNL     1      -9.454  13.982   3.280  1.00  0.00     0.029 A 
ATOM     59  N   UNL     1     -10.097  12.049   2.390  1.00  0.00    -0.354 N 
ATOM     60  N   UNL     1     -12.056  10.221   1.110  1.00  0.00    -0.248 NA
ATOM     61  C   UNL     1     -14.228   9.743   0.397  1.00  0.00     0.031 C 
ATOM     62  C   UNL     1     -10.820  14.051   3.011  1.00  0.00     0.029 A 
ATOM     63  C   UNL     1     -11.218  12.864   2.413  1.00  0.00     0.049 A 
ATOM     64  H   UNL     1     -10.073  11.132   2.031  1.00  0.00     0.167 HD
ATOM     65  C   UNL     1     -12.858  11.331   1.341  1.00  0.00     0.074 A 
ATOM     66  C   UNL     1     -14.178  10.993   0.843  1.00  0.00     0.031 C 
ATOM     67  C   UNL     1     -12.531  12.516   1.914  1.00  0.00     0.034 A 
BRANCH  54  68
ATOM     68  C   UNL     1      -6.672  12.999   3.867  1.00  0.00     0.023 A 
ATOM     69  C   UNL     1      -6.934  13.460   5.172  1.00  0.00     0.031 A 
ATOM     70  C   UNL     1      -5.526  13.485   3.213  1.00  0.00     0.131 A 
ATOM     71  C   UNL     1      -6.090  14.411   5.761  1.00  0.00     0.055 A 
ATOM     72  C   UNL     1      -4.661  14.396   3.823  1.00  0.00     0.041 A 
ATOM     73  F   UNL     1      -5.231  13.087   1.964  1.00  0.00    -0.206 F 
ATOM     74  C   UNL     1      -4.951  14.875   5.097  1.00  0.00     0.022 A 
BRANCH  71  75
ATOM     75  S   UNL     1      -6.482  15.145   7.373  1.00  0.00     0.124 S 
ATOM     76  O   UNL     1      -5.302  14.788   8.159  1.00  0.00    -0.237 OA
ATOM     77  O   UNL     1      -6.604  16.562   7.041  1.00  0.00    -0.237 OA
ATOM     78  O   UNL     1      -7.717  14.480   7.772  1.00  0.00    -0.744 OA
ENDBRANCH  71  75
ENDBRANCH  54  68
BRANCH  55  79
ATOM     79  C   UNL     1     -13.453   7.011  -0.554  1.00  0.00     0.023 A 
ATOM     80  C   UNL     1     -13.685   5.734  -0.006  1.00  0.00     0.031 A 
ATOM     81  C   UNL     1     -14.015   7.306  -1.806  1.00  0.00     0.131 A 
ATOM     82  C   UNL     1     -14.378   4.772  -0.751  1.00  0.00     0.055 A 
ATOM     83  C   UNL     1     -14.775   6.369  -2.509  1.00  0.00     0.041 A 
ATOM     84  F   UNL     1     -13.800   8.500  -2.380  1.00  0.00    -0.206 F 
ATOM     85  C   UNL     1     -14.940   5.087  -1.992  1.00  0.00     0.022 A 
BRANCH  82  86
ATOM     86  S   UNL     1     -14.423   3.039  -0.213  1.00  0.00     0.124 S 
ATOM     87  O   UNL     1     -15.857   2.792  -0.102  1.00  0.00    -0.237 OA
ATOM     88  O   UNL     1     -13.751   2.366  -1.323  1.00  0.00    -0.237 OA
ATOM     89  O   UNL     1     -13.684   3.048   1.045  1.00  0.00    -0.744 OA
ENDBRANCH  82  86
ENDBRANCH  55  79
BRANCH  67  90
ATOM     90  C   UNL     1     -13.610  13.564   2.059  1.00  0.00     0.023 A 
ATOM     91  C   UNL     1     -13.454  14.819   1.439  1.00  0.00     0.031 A 
ATOM     92  C   UNL     1     -14.695  13.384   2.934  1.00  0.00     0.131 A 
ATOM     93  C   UNL     1     -14.332  15.863   1.751  1.00  0.00     0.055 A 
ATOM     94  C   UNL     1     -15.605  14.410   3.191  1.00  0.00     0.041 A 
ATOM     95  F   UNL     1     -14.882  12.210   3.557  1.00  0.00    -0.206 F 
ATOM     96  C   UNL     1     -15.414  15.662   2.614  1.00  0.00     0.022 A 
BRANCH  93  97
ATOM     97  S   UNL     1     -14.038  17.545   1.138  1.00  0.00     0.124 S 
ATOM     98  O   UNL     1     -15.259  17.809   0.381  1.00  0.00    -0.237 OA
ATOM     99  O   UNL     1     -13.897  18.302   2.378  1.00  0.00    -0.237 OA
ATOM    100  O   UNL     1     -12.825  17.421   0.336  1.00  0.00    -0.744 OA
ENDBRANCH  93  97
ENDBRANCH  67  90
ENDBRANCH  41  42
ENDBRANCH  34  36
ENDBRANCH  33  34
ENDBRANCH  32  33
ENDBRANCH  31  32
ENDBRANCH  30  31
ENDBRANCH  29  30
ENDBRANCH   1  29
TORSDOF 24
