REMARK SMILES CCc1sc(NC(=O)[C@H]2CC(C)=C(C)C[C@H]2C(=O)OCCOCCOCCOCCOC(=O)c2ccc(-c3c4nc(c(-c5cc(S(=O)(=O)[O-])ccc5F)c5ccc([nH]5)c(-c5cc(S(=O)(=O)[O-])ccc5F)c5nc(c(-c6cc(S(=O)(=O)[O-])ccc6F)c6ccc3[nH]6)C=C5)C=C4)cc2)nc1-c1ccccc1
REMARK SMILES IDX 25 1 24 2 23 3 22 4 21 5 20 6 19 7 17 8 18 9 16 10 9 11
REMARK SMILES IDX 10 12 11 13 15 14 12 15 13 16 14 17 7 18 6 19 8 21 5 22 3 23
REMARK SMILES IDX 4 24 98 25 97 26 2 27 1 28 99 29 100 30 104 31 101 32 103 33
REMARK SMILES IDX 102 34 26 35 27 36 28 37 29 38 30 39 31 40 32 41 33 42 34 43
REMARK SMILES IDX 35 44 96 45 36 46 95 47 37 48 38 49 39 50 89 51 40 52 94 53
REMARK SMILES IDX 88 54 90 55 41 56 93 57 87 58 86 59 42 61 74 62 54 63 73 64
REMARK SMILES IDX 55 65 58 66 72 67 91 68 56 69 57 70 71 72 92 73 59 74 43 75
REMARK SMILES IDX 44 76 52 77 45 78 51 79 53 80 50 81 46 82 47 83 48 84 49 85
REMARK SMILES IDX 75 86 76 87 84 88 77 89 83 90 85 91 82 92 78 93 79 94 80 95
REMARK SMILES IDX 81 96 60 97 61 98 69 99 62 100 68 101 70 102 67 103 63 104
REMARK SMILES IDX 64 105 65 106 66 107
REMARK H PARENT 6 20 90 60 58 71
REMARK Flexibility Score: inf
ROOT
ATOM      1  O   UNL     1       2.653  -8.311  -0.133  1.00  0.00    -0.377 OA
ENDROOT
BRANCH   1   2
ATOM      2  C   UNL     1       1.516  -8.932  -0.713  1.00  0.00     0.188 C 
BRANCH   2   3
ATOM      3  C   UNL     1       1.873 -10.087  -1.643  1.00  0.00     0.188 C 
BRANCH   3   4
ATOM      4  O   UNL     1       2.754  -9.785  -2.732  1.00  0.00    -0.376 OA
BRANCH   4   5
ATOM      5  C   UNL     1       3.859  -8.932  -2.455  1.00  0.00     0.202 C 
BRANCH   5   6
ATOM      6  C   UNL     1       3.639  -7.460  -2.884  1.00  0.00     0.261 C 
BRANCH   6   7
ATOM      7  O   UNL     1       2.351  -6.849  -2.605  1.00  0.00    -0.463 OA
BRANCH   7   8
ATOM      8  C   UNL     1       1.359  -7.189  -3.463  1.00  0.00     0.310 C 
ATOM      9  O   UNL     1       1.493  -7.980  -4.396  1.00  0.00    -0.252 OA
BRANCH   8  10
ATOM     10  C   UNL     1       0.083  -6.361  -3.359  1.00  0.00     0.116 C 
ATOM     11  C   UNL     1      -0.704  -6.010  -2.071  1.00  0.00     0.097 C 
ATOM     12  C   UNL     1      -1.607  -4.759  -2.159  1.00  0.00     0.045 C 
ATOM     13  C   UNL     1      -1.190  -3.669  -3.121  1.00  0.00    -0.074 C 
ATOM     14  C   UNL     1       0.268  -5.247  -4.397  1.00  0.00     0.046 C 
ATOM     15  C   UNL     1      -1.752  -2.311  -2.790  1.00  0.00     0.039 C 
ATOM     16  C   UNL     1      -0.308  -3.892  -4.116  1.00  0.00    -0.073 C 
ATOM     17  C   UNL     1       0.259  -2.829  -5.023  1.00  0.00     0.039 C 
BRANCH  11  18
ATOM     18  C   UNL     1      -0.251  -6.321  -0.626  1.00  0.00     0.230 C 
ATOM     19  N   UNL     1       0.631  -5.683   0.171  1.00  0.00    -0.302 N 
ATOM     20  H   UNL     1       0.861  -6.196   0.979  1.00  0.00     0.172 HD
ATOM     21  O   UNL     1      -0.845  -7.263  -0.060  1.00  0.00    -0.274 OA
BRANCH  19  22
ATOM     22  C   UNL     1       1.271  -4.486   0.101  1.00  0.00     0.190 A 
ATOM     23  C   UNL     1       1.543  -2.164  -0.398  1.00  0.00     0.034 A 
ATOM     24  S   UNL     1       1.356  -3.600  -1.319  1.00  0.00    -0.101 S 
ATOM     25  C   UNL     1       2.063  -2.575   0.822  1.00  0.00     0.087 A 
ATOM     26  N   UNL     1       1.849  -3.913   1.133  1.00  0.00    -0.220 NA
BRANCH  23  27
ATOM     27  C   UNL     1       1.266  -0.860  -1.080  1.00  0.00     0.046 C 
ATOM     28  C   UNL     1       1.466   0.416  -0.289  1.00  0.00     0.010 C 
ENDBRANCH  23  27
BRANCH  25  29
ATOM     29  C   UNL     1       2.913  -1.708   1.601  1.00  0.00     0.001 A 
ATOM     30  C   UNL     1       2.407  -0.820   2.553  1.00  0.00     0.010 A 
ATOM     31  C   UNL     1       4.240  -1.605   1.172  1.00  0.00     0.010 A 
ATOM     32  C   UNL     1       3.205   0.242   2.990  1.00  0.00     0.001 A 
ATOM     33  C   UNL     1       5.017  -0.539   1.596  1.00  0.00     0.001 A 
ATOM     34  C   UNL     1       4.499   0.394   2.491  1.00  0.00     0.000 A 
ENDBRANCH  25  29
ENDBRANCH  19  22
ENDBRANCH  11  18
ENDBRANCH   8  10
ENDBRANCH   7   8
ENDBRANCH   6   7
ENDBRANCH   5   6
ENDBRANCH   4   5
ENDBRANCH   3   4
ENDBRANCH   2   3
ENDBRANCH   1   2
BRANCH   1  35
ATOM     35  C   UNL     1       2.959  -8.637   1.212  1.00  0.00     0.188 C 
BRANCH  35  36
ATOM     36  C   UNL     1       2.842 -10.116   1.605  1.00  0.00     0.188 C 
BRANCH  36  37
ATOM     37  O   UNL     1       1.539 -10.640   1.372  1.00  0.00    -0.376 OA
BRANCH  37  38
ATOM     38  C   UNL     1       0.623 -10.699   2.456  1.00  0.00     0.202 C 
BRANCH  38  39
ATOM     39  C   UNL     1       0.098  -9.396   3.094  1.00  0.00     0.261 C 
BRANCH  39  40
ATOM     40  O   UNL     1       1.052  -8.415   3.529  1.00  0.00    -0.460 OA
BRANCH  40  41
ATOM     41  C   UNL     1       1.963  -8.770   4.455  1.00  0.00     0.338 C 
ATOM     42  O   UNL     1       2.057  -9.867   4.995  1.00  0.00    -0.246 OA
BRANCH  41  43
ATOM     43  C   UNL     1       2.966  -7.685   4.555  1.00  0.00     0.060 A 
ATOM     44  C   UNL     1       4.313  -7.985   4.316  1.00  0.00     0.016 A 
ATOM     45  C   UNL     1       2.588  -6.378   4.880  1.00  0.00     0.016 A 
ATOM     46  C   UNL     1       5.289  -6.995   4.449  1.00  0.00     0.010 A 
ATOM     47  C   UNL     1       3.571  -5.391   5.041  1.00  0.00     0.010 A 
ATOM     48  C   UNL     1       4.931  -5.707   4.871  1.00  0.00    -0.014 A 
BRANCH  48  49
ATOM     49  C   UNL     1       5.989  -4.812   5.413  1.00  0.00     0.031 A 
ATOM     50  C   UNL     1       6.242  -4.857   6.900  1.00  0.00     0.074 A 
ATOM     51  C   UNL     1       6.752  -4.031   4.626  1.00  0.00     0.049 A 
ATOM     52  N   UNL     1       7.095  -4.184   7.628  1.00  0.00    -0.248 NA
ATOM     53  C   UNL     1       5.405  -5.794   7.667  1.00  0.00     0.031 C 
ATOM     54  C   UNL     1       6.645  -3.926   3.173  1.00  0.00     0.029 A 
ATOM     55  N   UNL     1       7.777  -3.175   4.950  1.00  0.00    -0.354 N 
ATOM     56  C   UNL     1       6.898  -4.615   8.937  1.00  0.00     0.074 A 
ATOM     57  C   UNL     1       5.811  -5.570   8.905  1.00  0.00     0.031 C 
ATOM     58  C   UNL     1       7.564  -3.046   2.731  1.00  0.00     0.029 A 
ATOM     59  C   UNL     1       8.304  -2.504   3.871  1.00  0.00     0.049 A 
ATOM     60  H   UNL     1       8.105  -3.053   5.871  1.00  0.00     0.167 HD
ATOM     61  C   UNL     1       7.566  -4.258  10.062  1.00  0.00     0.034 A 
ATOM     62  C   UNL     1       9.251  -1.544   3.817  1.00  0.00     0.034 A 
ATOM     63  C   UNL     1       8.625  -3.279  10.084  1.00  0.00     0.049 A 
ATOM     64  C   UNL     1       9.903  -1.076   5.090  1.00  0.00     0.074 A 
ATOM     65  C   UNL     1       9.372  -2.838  11.162  1.00  0.00     0.029 A 
ATOM     66  N   UNL     1       9.075  -2.570   8.976  1.00  0.00    -0.354 N 
ATOM     67  N   UNL     1       9.697  -1.475   6.323  1.00  0.00    -0.248 NA
ATOM     68  C   UNL     1      10.918  -0.024   4.955  1.00  0.00     0.031 C 
ATOM     69  C   UNL     1      10.210  -1.807  10.724  1.00  0.00     0.029 A 
ATOM     70  C   UNL     1      10.061  -1.669   9.353  1.00  0.00     0.049 A 
ATOM     71  H   UNL     1       8.742  -2.689   8.057  1.00  0.00     0.167 HD
ATOM     72  C   UNL     1      10.582  -0.742   7.110  1.00  0.00     0.074 A 
ATOM     73  C   UNL     1      11.320   0.120   6.209  1.00  0.00     0.031 C 
ATOM     74  C   UNL     1      10.776  -0.792   8.453  1.00  0.00     0.034 A 
BRANCH  61  75
ATOM     75  C   UNL     1       7.107  -4.885  11.360  1.00  0.00     0.023 A 
ATOM     76  C   UNL     1       7.144  -6.277  11.567  1.00  0.00     0.031 A 
ATOM     77  C   UNL     1       6.552  -4.087  12.377  1.00  0.00     0.131 A 
ATOM     78  C   UNL     1       6.544  -6.832  12.707  1.00  0.00     0.055 A 
ATOM     79  C   UNL     1       6.046  -4.640  13.555  1.00  0.00     0.041 A 
ATOM     80  F   UNL     1       6.463  -2.756  12.230  1.00  0.00    -0.206 F 
ATOM     81  C   UNL     1       6.019  -6.022  13.716  1.00  0.00     0.022 A 
BRANCH  78  82
ATOM     82  S   UNL     1       6.282  -8.628  12.759  1.00  0.00     0.124 S 
ATOM     83  O   UNL     1       5.520  -8.850  11.533  1.00  0.00    -0.237 OA
ATOM     84  O   UNL     1       7.645  -9.145  12.768  1.00  0.00    -0.237 OA
ATOM     85  O   UNL     1       5.529  -8.828  13.996  1.00  0.00    -0.744 OA
ENDBRANCH  78  82
ENDBRANCH  61  75
BRANCH  62  86
ATOM     86  C   UNL     1       9.577  -0.877   2.527  1.00  0.00     0.023 A 
ATOM     87  C   UNL     1      10.793  -1.070   1.857  1.00  0.00     0.031 A 
ATOM     88  C   UNL     1       8.668   0.042   1.985  1.00  0.00     0.131 A 
ATOM     89  C   UNL     1      11.049  -0.361   0.670  1.00  0.00     0.055 A 
ATOM     90  C   UNL     1       8.884   0.675   0.762  1.00  0.00     0.041 A 
ATOM     91  F   UNL     1       7.559   0.357   2.668  1.00  0.00    -0.206 F 
ATOM     92  C   UNL     1      10.086   0.473   0.095  1.00  0.00     0.022 A 
BRANCH  89  93
ATOM     93  S   UNL     1      12.701  -0.461  -0.074  1.00  0.00     0.124 S 
ATOM     94  O   UNL     1      13.522   0.169   0.953  1.00  0.00    -0.237 OA
ATOM     95  O   UNL     1      12.875  -1.899  -0.245  1.00  0.00    -0.237 OA
ATOM     96  O   UNL     1      12.560   0.299  -1.315  1.00  0.00    -0.744 OA
ENDBRANCH  89  93
ENDBRANCH  62  86
BRANCH  74  97
ATOM     97  C   UNL     1      11.876   0.072   9.020  1.00  0.00     0.023 A 
ATOM     98  C   UNL     1      11.816   1.477   8.988  1.00  0.00     0.031 A 
ATOM     99  C   UNL     1      13.019  -0.527   9.580  1.00  0.00     0.131 A 
ATOM    100  C   UNL     1      12.906   2.232   9.447  1.00  0.00     0.055 A 
ATOM    101  C   UNL     1      14.068   0.231  10.101  1.00  0.00     0.041 A 
ATOM    102  F   UNL     1      13.135  -1.864   9.629  1.00  0.00    -0.206 F 
ATOM    103  C   UNL     1      14.023   1.619  10.022  1.00  0.00     0.022 A 
BRANCH 100 104
ATOM    104  S   UNL     1      12.900   4.026   9.177  1.00  0.00     0.124 S 
ATOM    105  O   UNL     1      12.739   4.113   7.729  1.00  0.00    -0.237 OA
ATOM    106  O   UNL     1      11.755   4.458   9.972  1.00  0.00    -0.237 OA
ATOM    107  O   UNL     1      14.203   4.454   9.682  1.00  0.00    -0.744 OA
ENDBRANCH 100 104
ENDBRANCH  74  97
ENDBRANCH  48  49
ENDBRANCH  41  43
ENDBRANCH  40  41
ENDBRANCH  39  40
ENDBRANCH  38  39
ENDBRANCH  37  38
ENDBRANCH  36  37
ENDBRANCH  35  36
ENDBRANCH   1  35
TORSDOF 27
