REMARK SMILES CCC1(C(=O)NCCc2ccc(C(=O)OCCOCCOCCOCCOC(=O)c3ccc(-c4c5nc(c(-c6cc(S(=O)(=O)[O-])ccc6F)c6ccc([nH]6)c(-c6cc(S(=O)(=O)[O-])ccc6F)c6nc(c(-c7cc(S(=O)(=O)[O-])ccc7F)c7ccc4[nH]7)C=C6)C=C5)cc3)cc2)CCCC1
REMARK SMILES IDX 20 1 19 2 18 3 17 4 16 5 15 6 13 7 14 8 12 9 9 10 10 11
REMARK SMILES IDX 94 12 11 13 93 14 8 15 7 16 6 17 4 18 5 19 3 21 95 22 98 23
REMARK SMILES IDX 96 24 97 25 2 26 1 27 21 28 22 29 23 30 24 31 25 32 26 33
REMARK SMILES IDX 27 34 28 35 29 36 30 37 31 38 92 39 32 40 91 41 33 42 34 43
REMARK SMILES IDX 35 44 85 45 36 46 90 47 84 48 86 49 37 50 89 51 83 52 82 53
REMARK SMILES IDX 38 55 70 56 50 57 69 58 51 59 54 60 68 61 87 62 52 63 53 64
REMARK SMILES IDX 67 66 88 67 55 68 39 69 40 70 48 71 41 72 47 73 49 74 46 75
REMARK SMILES IDX 42 76 43 77 44 78 45 79 71 80 72 81 80 82 73 83 79 84 81 85
REMARK SMILES IDX 78 86 74 87 75 88 76 89 77 90 56 91 57 92 65 93 58 94 64 95
REMARK SMILES IDX 66 96 63 97 59 98 60 99 61 100 62 101
REMARK H PARENT 6 20 86 54 54 65
REMARK Flexibility Score: inf
ROOT
ATOM      1  C   UNL     1       9.827   5.643   0.439  1.00  0.00     0.188 C 
ENDROOT
BRANCH   1   2
ATOM      2  C   UNL     1      10.438   4.633  -0.556  1.00  0.00     0.188 C 
BRANCH   2   3
ATOM      3  O   UNL     1      11.712   5.006  -1.047  1.00  0.00    -0.376 OA
BRANCH   3   4
ATOM      4  C   UNL     1      11.841   5.450  -2.385  1.00  0.00     0.202 C 
BRANCH   4   5
ATOM      5  C   UNL     1      11.025   6.655  -2.886  1.00  0.00     0.261 C 
BRANCH   5   6
ATOM      6  O   UNL     1       9.671   6.729  -2.433  1.00  0.00    -0.460 OA
BRANCH   6   7
ATOM      7  C   UNL     1       8.785   5.920  -3.046  1.00  0.00     0.338 C 
ATOM      8  O   UNL     1       8.994   5.161  -3.976  1.00  0.00    -0.246 OA
BRANCH   7   9
ATOM      9  C   UNL     1       7.564   5.897  -2.218  1.00  0.00     0.060 A 
ATOM     10  C   UNL     1       5.249   5.700  -0.686  1.00  0.00    -0.046 A 
ATOM     11  C   UNL     1       6.035   4.567  -0.921  1.00  0.00     0.004 A 
ATOM     12  C   UNL     1       5.729   6.960  -1.073  1.00  0.00     0.004 A 
ATOM     13  C   UNL     1       7.136   4.650  -1.756  1.00  0.00     0.016 A 
ATOM     14  C   UNL     1       6.907   7.062  -1.817  1.00  0.00     0.016 A 
BRANCH  10  15
ATOM     15  C   UNL     1       3.832   5.529  -0.186  1.00  0.00     0.056 C 
BRANCH  15  16
ATOM     16  C   UNL     1       3.047   4.636  -1.173  1.00  0.00     0.120 C 
BRANCH  16  17
ATOM     17  N   UNL     1       3.158   3.225  -0.845  1.00  0.00    -0.355 N 
ATOM     18  C   UNL     1       2.450   2.419  -0.023  1.00  0.00     0.226 C 
ATOM     19  O   UNL     1       3.109   1.513   0.497  1.00  0.00    -0.274 OA
ATOM     20  H   UNL     1       3.892   2.766  -1.313  1.00  0.00     0.163 HD
BRANCH  18  21
ATOM     21  C   UNL     1       0.936   2.579   0.246  1.00  0.00     0.049 C 
ATOM     22  C   UNL     1       0.107   2.872  -1.019  1.00  0.00     0.017 C 
ATOM     23  C   UNL     1       0.630   3.739   1.210  1.00  0.00     0.017 C 
ATOM     24  C   UNL     1      -0.395   4.311  -0.941  1.00  0.00     0.001 C 
ATOM     25  C   UNL     1       0.042   4.884   0.398  1.00  0.00     0.001 C 
BRANCH  21  26
ATOM     26  C   UNL     1       0.436   1.248   0.901  1.00  0.00     0.013 C 
ATOM     27  C   UNL     1       0.600  -0.013   0.049  1.00  0.00     0.005 C 
ENDBRANCH  21  26
ENDBRANCH  18  21
ENDBRANCH  16  17
ENDBRANCH  15  16
ENDBRANCH  10  15
ENDBRANCH   7   9
ENDBRANCH   6   7
ENDBRANCH   5   6
ENDBRANCH   4   5
ENDBRANCH   3   4
ENDBRANCH   2   3
ENDBRANCH   1   2
BRANCH   1  28
ATOM     28  O   UNL     1      10.385   6.945   0.481  1.00  0.00    -0.377 OA
BRANCH  28  29
ATOM     29  C   UNL     1      11.782   7.105   0.724  1.00  0.00     0.188 C 
BRANCH  29  30
ATOM     30  C   UNL     1      12.660   5.969   1.308  1.00  0.00     0.188 C 
BRANCH  30  31
ATOM     31  O   UNL     1      11.943   4.881   1.868  1.00  0.00    -0.376 OA
BRANCH  31  32
ATOM     32  C   UNL     1      11.943   4.752   3.277  1.00  0.00     0.202 C 
BRANCH  32  33
ATOM     33  C   UNL     1      11.254   5.870   4.072  1.00  0.00     0.261 C 
BRANCH  33  34
ATOM     34  O   UNL     1      11.704   7.206   3.805  1.00  0.00    -0.460 OA
BRANCH  34  35
ATOM     35  C   UNL     1      12.982   7.504   4.125  1.00  0.00     0.338 C 
ATOM     36  O   UNL     1      13.803   6.753   4.629  1.00  0.00    -0.246 OA
BRANCH  35  37
ATOM     37  C   UNL     1      13.279   8.843   3.575  1.00  0.00     0.060 A 
ATOM     38  C   UNL     1      14.291   8.985   2.615  1.00  0.00     0.016 A 
ATOM     39  C   UNL     1      12.538   9.951   3.991  1.00  0.00     0.016 A 
ATOM     40  C   UNL     1      14.585  10.245   2.092  1.00  0.00     0.010 A 
ATOM     41  C   UNL     1      12.851  11.215   3.485  1.00  0.00     0.010 A 
ATOM     42  C   UNL     1      13.898  11.372   2.559  1.00  0.00    -0.014 A 
BRANCH  42  43
ATOM     43  C   UNL     1      14.414  12.731   2.257  1.00  0.00     0.031 A 
ATOM     44  C   UNL     1      15.265  13.407   3.297  1.00  0.00     0.074 A 
ATOM     45  C   UNL     1      14.150  13.346   1.090  1.00  0.00     0.049 A 
ATOM     46  N   UNL     1      15.763  14.615   3.311  1.00  0.00    -0.248 NA
ATOM     47  C   UNL     1      15.589  12.607   4.489  1.00  0.00     0.031 C 
ATOM     48  C   UNL     1      13.387  12.770  -0.016  1.00  0.00     0.029 A 
ATOM     49  N   UNL     1      14.491  14.600   0.647  1.00  0.00    -0.354 N 
ATOM     50  C   UNL     1      16.452  14.724   4.515  1.00  0.00     0.074 A 
ATOM     51  C   UNL     1      16.272  13.473   5.219  1.00  0.00     0.031 C 
ATOM     52  C   UNL     1      13.309  13.676  -1.007  1.00  0.00     0.029 A 
ATOM     53  C   UNL     1      13.974  14.909  -0.589  1.00  0.00     0.049 A 
ATOM     54  H   UNL     1      15.053  15.220   1.166  1.00  0.00     0.167 HD
ATOM     55  C   UNL     1      17.176  15.770   4.985  1.00  0.00     0.034 A 
ATOM     56  C   UNL     1      14.007  16.066  -1.285  1.00  0.00     0.034 A 
ATOM     57  C   UNL     1      17.332  17.015   4.276  1.00  0.00     0.049 A 
ATOM     58  C   UNL     1      14.730  17.256  -0.694  1.00  0.00     0.074 A 
ATOM     59  C   UNL     1      18.048  18.137   4.654  1.00  0.00     0.029 A 
ATOM     60  N   UNL     1      16.750  17.311   3.049  1.00  0.00    -0.354 N 
ATOM     61  N   UNL     1      15.380  17.350   0.445  1.00  0.00    -0.248 NA
ATOM     62  C   UNL     1      14.727  18.494  -1.484  1.00  0.00     0.031 C 
ATOM     63  C   UNL     1      17.829  19.137   3.702  1.00  0.00     0.029 A 
ATOM     64  C   UNL     1      17.058  18.611   2.678  1.00  0.00     0.049 A 
ATOM     65  H   UNL     1      16.199  16.689   2.521  1.00  0.00     0.167 HD
ATOM     66  C   UNL     1      15.895  18.645   0.485  1.00  0.00     0.074 A 
ATOM     67  C   UNL     1      15.489  19.289  -0.747  1.00  0.00     0.031 C 
ATOM     68  C   UNL     1      16.641  19.246   1.448  1.00  0.00     0.034 A 
BRANCH  55  69
ATOM     69  C   UNL     1      17.795  15.624   6.354  1.00  0.00     0.023 A 
ATOM     70  C   UNL     1      18.772  14.651   6.628  1.00  0.00     0.031 A 
ATOM     71  C   UNL     1      17.377  16.452   7.411  1.00  0.00     0.131 A 
ATOM     72  C   UNL     1      19.241  14.480   7.940  1.00  0.00     0.055 A 
ATOM     73  C   UNL     1      17.913  16.336   8.695  1.00  0.00     0.041 A 
ATOM     74  F   UNL     1      16.428  17.381   7.218  1.00  0.00    -0.206 F 
ATOM     75  C   UNL     1      18.840  15.335   8.969  1.00  0.00     0.022 A 
BRANCH  72  76
ATOM     76  S   UNL     1      20.264  13.029   8.312  1.00  0.00     0.124 S 
ATOM     77  O   UNL     1      19.384  11.936   7.905  1.00  0.00    -0.237 OA
ATOM     78  O   UNL     1      21.439  13.248   7.478  1.00  0.00    -0.237 OA
ATOM     79  O   UNL     1      20.492  13.131   9.752  1.00  0.00    -0.744 OA
ENDBRANCH  72  76
ENDBRANCH  55  69
BRANCH  56  80
ATOM     80  C   UNL     1      13.300  16.186  -2.595  1.00  0.00     0.023 A 
ATOM     81  C   UNL     1      13.999  16.482  -3.776  1.00  0.00     0.031 A 
ATOM     82  C   UNL     1      11.899  16.076  -2.672  1.00  0.00     0.131 A 
ATOM     83  C   UNL     1      13.295  16.707  -4.970  1.00  0.00     0.055 A 
ATOM     84  C   UNL     1      11.209  16.239  -3.874  1.00  0.00     0.041 A 
ATOM     85  F   UNL     1      11.177  15.805  -1.573  1.00  0.00    -0.206 F 
ATOM     86  C   UNL     1      11.907  16.571  -5.031  1.00  0.00     0.022 A 
BRANCH  83  87
ATOM     87  S   UNL     1      14.213  17.282  -6.425  1.00  0.00     0.124 S 
ATOM     88  O   UNL     1      14.814  18.514  -5.927  1.00  0.00    -0.237 OA
ATOM     89  O   UNL     1      15.129  16.172  -6.664  1.00  0.00    -0.237 OA
ATOM     90  O   UNL     1      13.172  17.458  -7.436  1.00  0.00    -0.744 OA
ENDBRANCH  83  87
ENDBRANCH  56  80
BRANCH  68  91
ATOM     91  C   UNL     1      17.116  20.656   1.181  1.00  0.00     0.023 A 
ATOM     92  C   UNL     1      16.224  21.736   1.067  1.00  0.00     0.031 A 
ATOM     93  C   UNL     1      18.491  20.920   1.038  1.00  0.00     0.131 A 
ATOM     94  C   UNL     1      16.710  23.016   0.760  1.00  0.00     0.055 A 
ATOM     95  C   UNL     1      18.974  22.208   0.803  1.00  0.00     0.041 A 
ATOM     96  F   UNL     1      19.392  19.929   1.132  1.00  0.00    -0.206 F 
ATOM     97  C   UNL     1      18.081  23.263   0.649  1.00  0.00     0.022 A 
BRANCH  94  98
ATOM     98  S   UNL     1      15.520  24.338   0.403  1.00  0.00     0.124 S 
ATOM     99  O   UNL     1      14.763  23.772  -0.708  1.00  0.00    -0.237 OA
ATOM    100  O   UNL     1      14.801  24.462   1.667  1.00  0.00    -0.237 OA
ATOM    101  O   UNL     1      16.367  25.479   0.059  1.00  0.00    -0.744 OA
ENDBRANCH  94  98
ENDBRANCH  68  91
ENDBRANCH  42  43
ENDBRANCH  35  37
ENDBRANCH  34  35
ENDBRANCH  33  34
ENDBRANCH  32  33
ENDBRANCH  31  32
ENDBRANCH  30  31
ENDBRANCH  29  30
ENDBRANCH  28  29
ENDBRANCH   1  28
TORSDOF 28
