REMARK SMILES C[C@H]1Cc2cc(C(=O)[C@H](Br)CC(=O)OCCOCCOCCOCCOC(=O)c3ccc(-c4c5nc(c(-c6cc(S(=O)(=O)[O-])ccc6F)c6ccc([nH]6)c(-c6cc(S(=O)(=O)[O-])ccc6F)c6nc(c(-c7cc(S(=O)(=O)[O-])ccc7F)c7ccc4[nH]7)C=C6)C=C5)cc3)ccc2O1
REMARK SMILES IDX 20 1 19 2 18 3 17 4 16 5 15 6 14 7 12 8 13 9 11 10 9 11
REMARK SMILES IDX 10 12 7 13 8 14 6 15 1 16 2 17 3 18 95 19 4 20 94 21 5 22
REMARK SMILES IDX 93 23 92 24 21 25 22 26 23 27 24 28 25 29 26 30 27 31 28 32
REMARK SMILES IDX 29 33 30 34 91 35 31 36 90 37 32 38 33 39 34 40 84 41 35 42
REMARK SMILES IDX 89 43 83 44 85 45 36 46 88 47 82 48 81 49 37 51 69 52 49 53
REMARK SMILES IDX 68 54 50 55 53 56 67 57 86 58 51 59 52 60 66 62 87 63 54 64
REMARK SMILES IDX 38 65 39 66 47 67 40 68 46 69 48 70 45 71 41 72 42 73 43 74
REMARK SMILES IDX 44 75 70 76 71 77 79 78 72 79 78 80 80 81 77 82 73 83 74 84
REMARK SMILES IDX 75 85 76 86 55 87 56 88 64 89 57 90 63 91 65 92 62 93 58 94
REMARK SMILES IDX 59 95 60 96 61 97
REMARK H PARENT 85 50 53 61
REMARK Flexibility Score: inf
ROOT
ATOM      1  O   UNL     1      -2.584   8.025  -0.942  1.00  0.00    -0.377 OA
ENDROOT
BRANCH   1   2
ATOM      2  C   UNL     1      -3.896   8.543  -1.004  1.00  0.00     0.188 C 
BRANCH   2   3
ATOM      3  C   UNL     1      -4.724   8.486   0.287  1.00  0.00     0.188 C 
BRANCH   3   4
ATOM      4  O   UNL     1      -4.084   8.584   1.542  1.00  0.00    -0.376 OA
BRANCH   4   5
ATOM      5  C   UNL     1      -3.202   7.561   1.994  1.00  0.00     0.202 C 
BRANCH   5   6
ATOM      6  C   UNL     1      -3.323   6.088   1.566  1.00  0.00     0.261 C 
BRANCH   6   7
ATOM      7  O   UNL     1      -3.493   5.849   0.156  1.00  0.00    -0.463 OA
BRANCH   7   8
ATOM      8  C   UNL     1      -4.605   5.169  -0.193  1.00  0.00     0.307 C 
ATOM      9  O   UNL     1      -5.452   4.778   0.607  1.00  0.00    -0.252 OA
BRANCH   8  10
ATOM     10  C   UNL     1      -4.849   5.019  -1.674  1.00  0.00     0.146 C 
BRANCH  10  11
ATOM     11  C   UNL     1      -3.804   5.331  -2.735  1.00  0.00     0.140 C 
ATOM     12  Br  UNL     1      -2.229   4.186  -2.536  1.00  0.00    -0.080 Br
BRANCH  11  13
ATOM     13  C   UNL     1      -4.420   4.946  -4.081  1.00  0.00     0.177 C 
ATOM     14  O   UNL     1      -4.820   3.793  -4.282  1.00  0.00    -0.293 OA
BRANCH  13  15
ATOM     15  C   UNL     1      -4.657   5.940  -5.183  1.00  0.00     0.019 A 
ATOM     16  C   UNL     1      -5.259   7.473 -10.754  1.00  0.00     0.053 C 
ATOM     17  C   UNL     1      -5.997   7.298  -9.432  1.00  0.00     0.174 C 
ATOM     18  C   UNL     1      -5.789   5.893  -8.845  1.00  0.00     0.084 C 
ATOM     19  O   UNL     1      -5.532   8.303  -8.486  1.00  0.00    -0.490 OA
ATOM     20  C   UNL     1      -5.362   6.244  -7.476  1.00  0.00    -0.001 A 
ATOM     21  C   UNL     1      -5.238   7.609  -7.344  1.00  0.00     0.123 A 
ATOM     22  C   UNL     1      -5.076   5.400  -6.416  1.00  0.00     0.019 A 
ATOM     23  C   UNL     1      -4.832   8.179  -6.151  1.00  0.00     0.047 A 
ATOM     24  C   UNL     1      -4.540   7.337  -5.058  1.00  0.00     0.015 A 
ENDBRANCH  13  15
ENDBRANCH  11  13
ENDBRANCH  10  11
ENDBRANCH   8  10
ENDBRANCH   7   8
ENDBRANCH   6   7
ENDBRANCH   5   6
ENDBRANCH   4   5
ENDBRANCH   3   4
ENDBRANCH   2   3
ENDBRANCH   1   2
BRANCH   1  25
ATOM     25  C   UNL     1      -1.512   8.856  -0.503  1.00  0.00     0.188 C 
BRANCH  25  26
ATOM     26  C   UNL     1      -1.788  10.246   0.103  1.00  0.00     0.188 C 
BRANCH  26  27
ATOM     27  O   UNL     1      -2.768  11.002  -0.596  1.00  0.00    -0.376 OA
BRANCH  27  28
ATOM     28  C   UNL     1      -2.318  11.944  -1.559  1.00  0.00     0.202 C 
BRANCH  28  29
ATOM     29  C   UNL     1      -1.627  11.371  -2.805  1.00  0.00     0.261 C 
BRANCH  29  30
ATOM     30  O   UNL     1      -0.363  10.722  -2.596  1.00  0.00    -0.460 OA
BRANCH  30  31
ATOM     31  C   UNL     1       0.607  11.381  -1.923  1.00  0.00     0.338 C 
ATOM     32  O   UNL     1       0.569  12.530  -1.524  1.00  0.00    -0.246 OA
BRANCH  31  33
ATOM     33  C   UNL     1       1.643  10.387  -1.567  1.00  0.00     0.060 A 
ATOM     34  C   UNL     1       2.214   9.578  -2.552  1.00  0.00     0.016 A 
ATOM     35  C   UNL     1       2.024  10.245  -0.226  1.00  0.00     0.016 A 
ATOM     36  C   UNL     1       3.192   8.646  -2.198  1.00  0.00     0.010 A 
ATOM     37  C   UNL     1       3.000   9.307   0.127  1.00  0.00     0.010 A 
ATOM     38  C   UNL     1       3.609   8.518  -0.860  1.00  0.00    -0.014 A 
BRANCH  38  39
ATOM     39  C   UNL     1       4.823   7.721  -0.545  1.00  0.00     0.031 A 
ATOM     40  C   UNL     1       4.762   6.375   0.106  1.00  0.00     0.074 A 
ATOM     41  C   UNL     1       6.017   8.267  -0.847  1.00  0.00     0.049 A 
ATOM     42  N   UNL     1       5.741   5.539   0.343  1.00  0.00    -0.248 NA
ATOM     43  C   UNL     1       3.446   5.907   0.561  1.00  0.00     0.031 C 
ATOM     44  C   UNL     1       6.194   9.599  -1.427  1.00  0.00     0.029 A 
ATOM     45  N   UNL     1       7.295   7.787  -0.713  1.00  0.00    -0.354 N 
ATOM     46  C   UNL     1       5.165   4.438   0.964  1.00  0.00     0.074 A 
ATOM     47  C   UNL     1       3.754   4.734   1.106  1.00  0.00     0.031 C 
ATOM     48  C   UNL     1       7.500   9.821  -1.620  1.00  0.00     0.029 A 
ATOM     49  C   UNL     1       8.260   8.664  -1.149  1.00  0.00     0.049 A 
ATOM     50  H   UNL     1       7.502   6.899  -0.341  1.00  0.00     0.167 HD
ATOM     51  C   UNL     1       5.765   3.288   1.359  1.00  0.00     0.034 A 
ATOM     52  C   UNL     1       9.604   8.560  -1.175  1.00  0.00     0.034 A 
ATOM     53  C   UNL     1       7.178   3.022   1.211  1.00  0.00     0.049 A 
ATOM     54  C   UNL     1      10.246   7.271  -0.737  1.00  0.00     0.074 A 
ATOM     55  C   UNL     1       7.857   1.850   1.498  1.00  0.00     0.029 A 
ATOM     56  N   UNL     1       8.129   3.928   0.761  1.00  0.00    -0.354 N 
ATOM     57  N   UNL     1       9.672   6.180  -0.289  1.00  0.00    -0.248 NA
ATOM     58  C   UNL     1      11.710   7.184  -0.825  1.00  0.00     0.031 C 
ATOM     59  C   UNL     1       9.221   2.075   1.314  1.00  0.00     0.029 A 
ATOM     60  C   UNL     1       9.392   3.356   0.813  1.00  0.00     0.049 A 
ATOM     61  H   UNL     1       7.935   4.842   0.451  1.00  0.00     0.167 HD
ATOM     62  C   UNL     1      10.701   5.270  -0.060  1.00  0.00     0.074 A 
ATOM     63  C   UNL     1      11.930   5.931  -0.447  1.00  0.00     0.031 C 
ATOM     64  C   UNL     1      10.625   4.006   0.428  1.00  0.00     0.034 A 
BRANCH  51  65
ATOM     65  C   UNL     1       4.923   2.194   1.975  1.00  0.00     0.023 A 
ATOM     66  C   UNL     1       5.209   1.733   3.276  1.00  0.00     0.031 A 
ATOM     67  C   UNL     1       3.966   1.492   1.220  1.00  0.00     0.131 A 
ATOM     68  C   UNL     1       4.579   0.580   3.763  1.00  0.00     0.055 A 
ATOM     69  C   UNL     1       3.307   0.371   1.728  1.00  0.00     0.041 A 
ATOM     70  F   UNL     1       3.666   1.880  -0.030  1.00  0.00    -0.206 F 
ATOM     71  C   UNL     1       3.625  -0.099   2.999  1.00  0.00     0.022 A 
BRANCH  68  72
ATOM     72  S   UNL     1       5.037  -0.136   5.366  1.00  0.00     0.124 S 
ATOM     73  O   UNL     1       3.768  -0.089   6.088  1.00  0.00    -0.237 OA
ATOM     74  O   UNL     1       5.491  -1.471   4.987  1.00  0.00    -0.237 OA
ATOM     75  O   UNL     1       6.070   0.763   5.870  1.00  0.00    -0.744 OA
ENDBRANCH  68  72
ENDBRANCH  51  65
BRANCH  52  76
ATOM     76  C   UNL     1      10.394   9.706  -1.710  1.00  0.00     0.023 A 
ATOM     77  C   UNL     1      10.338  10.966  -1.086  1.00  0.00     0.031 A 
ATOM     78  C   UNL     1      11.082   9.601  -2.930  1.00  0.00     0.131 A 
ATOM     79  C   UNL     1      10.877  12.086  -1.730  1.00  0.00     0.055 A 
ATOM     80  C   UNL     1      11.691  10.707  -3.527  1.00  0.00     0.041 A 
ATOM     81  F   UNL     1      11.148   8.424  -3.571  1.00  0.00    -0.206 F 
ATOM     82  C   UNL     1      11.570  11.962  -2.938  1.00  0.00     0.022 A 
BRANCH  79  83
ATOM     83  S   UNL     1      10.556  13.758  -1.103  1.00  0.00     0.124 S 
ATOM     84  O   UNL     1      11.906  14.273  -0.899  1.00  0.00    -0.237 OA
ATOM     85  O   UNL     1       9.815  14.352  -2.213  1.00  0.00    -0.237 OA
ATOM     86  O   UNL     1       9.777  13.529   0.110  1.00  0.00    -0.744 OA
ENDBRANCH  79  83
ENDBRANCH  52  76
BRANCH  64  87
ATOM     87  C   UNL     1      11.901   3.211   0.598  1.00  0.00     0.023 A 
ATOM     88  C   UNL     1      12.069   1.992  -0.088  1.00  0.00     0.031 A 
ATOM     89  C   UNL     1      12.868   3.570   1.554  1.00  0.00     0.131 A 
ATOM     90  C   UNL     1      13.144   1.151   0.230  1.00  0.00     0.055 A 
ATOM     91  C   UNL     1      13.970   2.756   1.826  1.00  0.00     0.041 A 
ATOM     92  F   UNL     1      12.753   4.716   2.244  1.00  0.00    -0.206 F 
ATOM     93  C   UNL     1      14.101   1.532   1.176  1.00  0.00     0.022 A 
BRANCH  90  94
ATOM     94  S   UNL     1      13.285  -0.507  -0.494  1.00  0.00     0.124 S 
ATOM     95  O   UNL     1      14.576  -0.430  -1.175  1.00  0.00    -0.237 OA
ATOM     96  O   UNL     1      13.254  -1.362   0.689  1.00  0.00    -0.237 OA
ATOM     97  O   UNL     1      12.125  -0.607  -1.373  1.00  0.00    -0.744 OA
ENDBRANCH  90  94
ENDBRANCH  64  87
ENDBRANCH  38  39
ENDBRANCH  31  33
ENDBRANCH  30  31
ENDBRANCH  29  30
ENDBRANCH  28  29
ENDBRANCH  27  28
ENDBRANCH  26  27
ENDBRANCH  25  26
ENDBRANCH   1  25
TORSDOF 26
