REMARK SMILES Cc1nc(CN(CC(=O)OCCOCCOCCOCCOC(=O)c2ccc(-c3c4nc(c(-c5cc(S(=O)(=O)[O-])ccc5F)c5ccc([nH]5)c(-c5cc(S(=O)(=O)[O-])ccc5F)c5nc(c(-c6cc(S(=O)(=O)[O-])ccc6F)c6ccc3[nH]6)C=C5)C=C4)cc2)c2cccc(Cl)c2)sc1C
REMARK SMILES IDX 16 1 15 2 14 3 13 4 12 5 11 6 10 7 8 8 9 9 7 10 6 11 5 12
REMARK SMILES IDX 4 13 1 14 2 15 3 16 96 17 95 18 97 19 88 20 89 21 94 22
REMARK SMILES IDX 90 23 92 24 91 25 93 26 17 27 18 28 19 29 20 30 21 31 22 32
REMARK SMILES IDX 23 33 24 34 25 35 26 36 87 37 27 38 86 39 28 40 29 41 30 42
REMARK SMILES IDX 80 43 31 44 85 45 79 46 81 47 32 48 84 49 78 50 77 51 33 53
REMARK SMILES IDX 65 54 45 55 64 56 46 57 49 58 63 59 82 60 47 61 48 62 62 64
REMARK SMILES IDX 83 65 50 66 34 67 35 68 43 69 36 70 42 71 44 72 41 73 37 74
REMARK SMILES IDX 38 75 39 76 40 77 66 78 67 79 75 80 68 81 74 82 76 83 73 84
REMARK SMILES IDX 69 85 70 86 71 87 72 88 51 89 52 90 60 91 53 92 59 93 61 94
REMARK SMILES IDX 58 95 54 96 55 97 56 98 57 99
REMARK H PARENT 81 52 49 63
REMARK Flexibility Score: inf
ROOT
ATOM      1  O   UNL     1      -4.808   3.591   3.677  1.00  0.00    -0.377 OA
ENDROOT
BRANCH   1   2
ATOM      2  C   UNL     1      -3.618   4.144   3.149  1.00  0.00     0.188 C 
BRANCH   2   3
ATOM      3  C   UNL     1      -3.034   5.458   3.713  1.00  0.00     0.188 C 
BRANCH   3   4
ATOM      4  O   UNL     1      -3.933   6.546   3.650  1.00  0.00    -0.376 OA
BRANCH   4   5
ATOM      5  C   UNL     1      -3.977   7.360   2.494  1.00  0.00     0.202 C 
BRANCH   5   6
ATOM      6  C   UNL     1      -3.696   6.822   1.074  1.00  0.00     0.261 C 
BRANCH   6   7
ATOM      7  O   UNL     1      -2.745   5.745   0.923  1.00  0.00    -0.462 OA
BRANCH   7   8
ATOM      8  C   UNL     1      -1.421   6.031   0.911  1.00  0.00     0.325 C 
ATOM      9  O   UNL     1      -0.981   7.176   0.952  1.00  0.00    -0.250 OA
BRANCH   8  10
ATOM     10  C   UNL     1      -0.507   4.790   0.796  1.00  0.00     0.239 C 
BRANCH  10  11
ATOM     11  N   UNL     1      -1.060   3.472   1.225  1.00  0.00    -0.354 N 
BRANCH  11  12
ATOM     12  C   UNL     1      -1.609   2.633   0.114  1.00  0.00     0.184 C 
BRANCH  12  13
ATOM     13  C   UNL     1      -0.686   1.520  -0.369  1.00  0.00     0.112 A 
ATOM     14  C   UNL     1       2.641   0.214  -0.130  1.00  0.00     0.068 C 
ATOM     15  C   UNL     1       1.175   0.325  -0.344  1.00  0.00     0.051 A 
ATOM     16  N   UNL     1       0.631   1.598  -0.383  1.00  0.00    -0.244 NA
ATOM     17  C   UNL     1       0.254  -0.706  -0.426  1.00  0.00     0.025 A 
ATOM     18  S   UNL     1      -1.312  -0.054  -0.697  1.00  0.00    -0.122 S 
ATOM     19  C   UNL     1       0.461  -2.173  -0.279  1.00  0.00     0.058 C 
ENDBRANCH  12  13
ENDBRANCH  11  12
BRANCH  11  20
ATOM     20  C   UNL     1      -0.715   2.865   2.445  1.00  0.00     0.039 A 
ATOM     21  C   UNL     1      -0.181   3.587   3.526  1.00  0.00     0.026 A 
ATOM     22  C   UNL     1      -0.978   1.503   2.720  1.00  0.00     0.046 A 
ATOM     23  C   UNL     1       0.047   3.003   4.788  1.00  0.00     0.004 A 
ATOM     24  C   UNL     1      -0.693   0.899   3.950  1.00  0.00     0.043 A 
ATOM     25  C   UNL     1      -0.198   1.651   4.998  1.00  0.00     0.020 A 
ATOM     26  Cl  UNL     1      -0.980  -0.787   4.162  1.00  0.00    -0.084 Cl
ENDBRANCH  11  20
ENDBRANCH  10  11
ENDBRANCH   8  10
ENDBRANCH   7   8
ENDBRANCH   6   7
ENDBRANCH   5   6
ENDBRANCH   4   5
ENDBRANCH   3   4
ENDBRANCH   2   3
ENDBRANCH   1   2
BRANCH   1  27
ATOM     27  C   UNL     1      -5.795   4.506   4.078  1.00  0.00     0.188 C 
BRANCH  27  28
ATOM     28  C   UNL     1      -5.738   4.783   5.585  1.00  0.00     0.188 C 
BRANCH  28  29
ATOM     29  O   UNL     1      -4.501   4.684   6.268  1.00  0.00    -0.376 OA
BRANCH  29  30
ATOM     30  C   UNL     1      -3.781   3.471   6.444  1.00  0.00     0.202 C 
BRANCH  30  31
ATOM     31  C   UNL     1      -4.249   2.018   6.226  1.00  0.00     0.261 C 
BRANCH  31  32
ATOM     32  O   UNL     1      -5.431   1.782   5.482  1.00  0.00    -0.460 OA
BRANCH  32  33
ATOM     33  C   UNL     1      -6.568   1.715   6.200  1.00  0.00     0.338 C 
ATOM     34  O   UNL     1      -6.690   1.832   7.407  1.00  0.00    -0.246 OA
BRANCH  33  35
ATOM     35  C   UNL     1      -7.671   1.704   5.227  1.00  0.00     0.060 A 
ATOM     36  C   UNL     1      -8.608   2.741   5.291  1.00  0.00     0.016 A 
ATOM     37  C   UNL     1      -7.740   0.727   4.229  1.00  0.00     0.016 A 
ATOM     38  C   UNL     1      -9.621   2.812   4.347  1.00  0.00     0.010 A 
ATOM     39  C   UNL     1      -8.788   0.767   3.313  1.00  0.00     0.010 A 
ATOM     40  C   UNL     1      -9.741   1.797   3.391  1.00  0.00    -0.014 A 
BRANCH  40  41
ATOM     41  C   UNL     1     -11.022   1.683   2.671  1.00  0.00     0.031 A 
ATOM     42  C   UNL     1     -12.088   0.837   3.303  1.00  0.00     0.074 A 
ATOM     43  C   UNL     1     -11.243   2.366   1.538  1.00  0.00     0.049 A 
ATOM     44  N   UNL     1     -13.301   0.586   2.896  1.00  0.00    -0.248 NA
ATOM     45  C   UNL     1     -11.725   0.186   4.572  1.00  0.00     0.031 C 
ATOM     46  C   UNL     1     -10.281   3.253   0.887  1.00  0.00     0.029 A 
ATOM     47  N   UNL     1     -12.351   2.416   0.736  1.00  0.00    -0.354 N 
ATOM     48  C   UNL     1     -13.849  -0.253   3.860  1.00  0.00     0.074 A 
ATOM     49  C   UNL     1     -12.819  -0.501   4.844  1.00  0.00     0.031 C 
ATOM     50  C   UNL     1     -10.838   3.747  -0.232  1.00  0.00     0.029 A 
ATOM     51  C   UNL     1     -12.178   3.183  -0.389  1.00  0.00     0.049 A 
ATOM     52  H   UNL     1     -13.191   1.947   0.946  1.00  0.00     0.167 HD
ATOM     53  C   UNL     1     -15.104  -0.761   3.917  1.00  0.00     0.034 A 
ATOM     54  C   UNL     1     -13.003   3.376  -1.437  1.00  0.00     0.034 A 
ATOM     55  C   UNL     1     -16.089  -0.525   2.892  1.00  0.00     0.049 A 
ATOM     56  C   UNL     1     -14.362   2.720  -1.411  1.00  0.00     0.074 A 
ATOM     57  C   UNL     1     -17.392  -0.980   2.826  1.00  0.00     0.029 A 
ATOM     58  N   UNL     1     -15.865   0.214   1.734  1.00  0.00    -0.354 N 
ATOM     59  N   UNL     1     -14.887   1.943  -0.489  1.00  0.00    -0.248 NA
ATOM     60  C   UNL     1     -15.241   2.975  -2.556  1.00  0.00     0.031 C 
ATOM     61  C   UNL     1     -17.924  -0.595   1.589  1.00  0.00     0.029 A 
ATOM     62  C   UNL     1     -16.990   0.187   0.924  1.00  0.00     0.049 A 
ATOM     63  H   UNL     1     -15.029   0.687   1.520  1.00  0.00     0.167 HD
ATOM     64  C   UNL     1     -16.170   1.634  -0.934  1.00  0.00     0.074 A 
ATOM     65  C   UNL     1     -16.339   2.323  -2.200  1.00  0.00     0.031 C 
ATOM     66  C   UNL     1     -17.125   0.863  -0.349  1.00  0.00     0.034 A 
BRANCH  53  67
ATOM     67  C   UNL     1     -15.416  -1.681   5.074  1.00  0.00     0.023 A 
ATOM     68  C   UNL     1     -15.325  -1.251   6.412  1.00  0.00     0.031 A 
ATOM     69  C   UNL     1     -15.707  -3.036   4.841  1.00  0.00     0.131 A 
ATOM     70  C   UNL     1     -15.414  -2.185   7.455  1.00  0.00     0.055 A 
ATOM     71  C   UNL     1     -15.895  -3.941   5.888  1.00  0.00     0.041 A 
ATOM     72  F   UNL     1     -15.777  -3.515   3.589  1.00  0.00    -0.206 F 
ATOM     73  C   UNL     1     -15.725  -3.522   7.204  1.00  0.00     0.022 A 
BRANCH  70  74
ATOM     74  S   UNL     1     -14.910  -1.671   9.122  1.00  0.00     0.124 S 
ATOM     75  O   UNL     1     -13.552  -1.186   8.884  1.00  0.00    -0.237 OA
ATOM     76  O   UNL     1     -15.903  -0.655   9.451  1.00  0.00    -0.237 OA
ATOM     77  O   UNL     1     -14.995  -2.904   9.902  1.00  0.00    -0.744 OA
ENDBRANCH  70  74
ENDBRANCH  53  67
BRANCH  54  78
ATOM     78  C   UNL     1     -12.540   4.174  -2.607  1.00  0.00     0.023 A 
ATOM     79  C   UNL     1     -13.136   5.396  -2.951  1.00  0.00     0.031 A 
ATOM     80  C   UNL     1     -11.472   3.713  -3.401  1.00  0.00     0.131 A 
ATOM     81  C   UNL     1     -12.673   6.107  -4.071  1.00  0.00     0.055 A 
ATOM     82  C   UNL     1     -10.986   4.445  -4.485  1.00  0.00     0.041 A 
ATOM     83  F   UNL     1     -10.866   2.550  -3.115  1.00  0.00    -0.206 F 
ATOM     84  C   UNL     1     -11.593   5.648  -4.829  1.00  0.00     0.022 A 
BRANCH  81  85
ATOM     85  S   UNL     1     -13.533   7.628  -4.557  1.00  0.00     0.124 S 
ATOM     86  O   UNL     1     -14.880   7.137  -4.826  1.00  0.00    -0.237 OA
ATOM     87  O   UNL     1     -13.378   8.458  -3.367  1.00  0.00    -0.237 OA
ATOM     88  O   UNL     1     -12.787   8.081  -5.730  1.00  0.00    -0.744 OA
ENDBRANCH  81  85
ENDBRANCH  54  78
BRANCH  66  89
ATOM     89  C   UNL     1     -18.452   0.754  -1.062  1.00  0.00     0.023 A 
ATOM     90  C   UNL     1     -18.575   0.124  -2.312  1.00  0.00     0.031 A 
ATOM     91  C   UNL     1     -19.614   1.288  -0.474  1.00  0.00     0.131 A 
ATOM     92  C   UNL     1     -19.820   0.093  -2.958  1.00  0.00     0.055 A 
ATOM     93  C   UNL     1     -20.862   1.190  -1.088  1.00  0.00     0.041 A 
ATOM     94  F   UNL     1     -19.555   1.906   0.717  1.00  0.00    -0.206 F 
ATOM     95  C   UNL     1     -20.968   0.601  -2.345  1.00  0.00     0.022 A 
BRANCH  92  96
ATOM     96  S   UNL     1     -19.901  -0.526  -4.661  1.00  0.00     0.124 S 
ATOM     97  O   UNL     1     -18.963   0.356  -5.347  1.00  0.00    -0.237 OA
ATOM     98  O   UNL     1     -19.478  -1.914  -4.510  1.00  0.00    -0.237 OA
ATOM     99  O   UNL     1     -21.305  -0.342  -5.026  1.00  0.00    -0.744 OA
ENDBRANCH  92  96
ENDBRANCH  66  89
ENDBRANCH  40  41
ENDBRANCH  33  35
ENDBRANCH  32  33
ENDBRANCH  31  32
ENDBRANCH  30  31
ENDBRANCH  29  30
ENDBRANCH  28  29
ENDBRANCH  27  28
ENDBRANCH   1  27
TORSDOF 27
