REMARK SMILES CCc1ccc2c(c1)C=C(C(=O)OCCOCCOCCOCCOC(=O)c1ccc(-c3c4nc(c(-c5cc(S(=O)(=O)[O-])ccc5F)c5ccc([nH]5)c(-c5cc(S(=O)(=O)[O-])ccc5F)c5nc(c(-c6cc(S(=O)(=O)[O-])ccc6F)c6ccc3[nH]6)C=C5)C=C4)cc1)[C@H](C(F)(F)F)O2
REMARK SMILES IDX 20 1 19 2 18 3 17 4 16 5 15 6 14 7 13 8 11 9 12 10 10 11
REMARK SMILES IDX 3 12 4 13 8 14 5 15 7 16 6 17 9 18 96 19 91 20 2 21 1 22
REMARK SMILES IDX 92 23 93 24 94 25 95 26 21 27 22 28 23 29 24 30 25 31 26 32
REMARK SMILES IDX 27 33 28 34 29 35 90 36 30 37 89 38 31 39 32 40 33 41 83 42
REMARK SMILES IDX 34 43 88 44 82 45 84 46 35 47 87 48 81 49 80 50 36 52 68 53
REMARK SMILES IDX 48 54 67 55 49 56 52 57 66 58 85 59 50 60 51 61 65 63 86 64
REMARK SMILES IDX 53 65 37 66 38 67 46 68 39 69 45 70 47 71 44 72 40 73 41 74
REMARK SMILES IDX 42 75 43 76 69 77 70 78 78 79 71 80 77 81 79 82 76 83 72 84
REMARK SMILES IDX 73 85 74 86 75 87 54 88 55 89 63 90 56 91 62 92 64 93 61 94
REMARK SMILES IDX 57 95 58 96 59 97 60 98
REMARK H PARENT 84 51 52 62
REMARK Flexibility Score: inf
ROOT
ATOM      1  C   UNL     1       7.644   2.101   7.094  1.00  0.00     0.188 C 
ENDROOT
BRANCH   1   2
ATOM      2  O   UNL     1       6.423   2.232   6.364  1.00  0.00    -0.377 OA
BRANCH   2   3
ATOM      3  C   UNL     1       6.030   3.507   5.890  1.00  0.00     0.188 C 
BRANCH   3   4
ATOM      4  C   UNL     1       5.814   4.601   6.953  1.00  0.00     0.188 C 
BRANCH   4   5
ATOM      5  O   UNL     1       6.317   4.262   8.232  1.00  0.00    -0.376 OA
BRANCH   5   6
ATOM      6  C   UNL     1       5.421   3.846   9.246  1.00  0.00     0.202 C 
BRANCH   6   7
ATOM      7  C   UNL     1       4.425   2.705   8.980  1.00  0.00     0.261 C 
BRANCH   7   8
ATOM      8  O   UNL     1       3.780   2.712   7.699  1.00  0.00    -0.460 OA
BRANCH   8   9
ATOM      9  C   UNL     1       2.798   3.613   7.490  1.00  0.00     0.338 C 
ATOM     10  O   UNL     1       2.372   4.418   8.296  1.00  0.00    -0.246 OA
BRANCH   9  11
ATOM     11  C   UNL     1       2.424   3.593   6.059  1.00  0.00     0.087 C 
ATOM     12  C   UNL     1       0.937   1.300   2.069  1.00  0.00    -0.047 A 
ATOM     13  C   UNL     1       0.479   2.528   1.570  1.00  0.00     0.007 A 
ATOM     14  C   UNL     1       1.584   1.270   3.317  1.00  0.00     0.015 A 
ATOM     15  C   UNL     1       0.675   3.705   2.290  1.00  0.00     0.047 A 
ATOM     16  C   UNL     1       1.745   2.444   4.063  1.00  0.00     0.018 A 
ATOM     17  C   UNL     1       1.306   3.660   3.528  1.00  0.00     0.128 A 
ATOM     18  C   UNL     1       2.211   2.414   5.448  1.00  0.00     0.027 C 
ATOM     19  O   UNL     1       1.377   4.841   4.216  1.00  0.00    -0.475 OA
ATOM     20  C   UNL     1       2.377   4.884   5.269  1.00  0.00     0.316 C 
BRANCH  12  21
ATOM     21  C   UNL     1       0.632   0.015   1.335  1.00  0.00     0.032 C 
ATOM     22  C   UNL     1       1.133  -0.012  -0.103  1.00  0.00     0.009 C 
ENDBRANCH  12  21
BRANCH  20  23
ATOM     23  C   UNL     1       2.205   6.216   6.018  1.00  0.00     0.430 C 
ATOM     24  F   UNL     1       3.256   6.489   6.824  1.00  0.00    -0.167 F 
ATOM     25  F   UNL     1       2.160   7.245   5.125  1.00  0.00    -0.167 F 
ATOM     26  F   UNL     1       1.073   6.277   6.745  1.00  0.00    -0.167 F 
ENDBRANCH  20  23
ENDBRANCH   9  11
ENDBRANCH   8   9
ENDBRANCH   7   8
ENDBRANCH   6   7
ENDBRANCH   5   6
ENDBRANCH   4   5
ENDBRANCH   3   4
ENDBRANCH   2   3
ENDBRANCH   1   2
BRANCH   1  27
ATOM     27  C   UNL     1       8.666   3.259   7.239  1.00  0.00     0.188 C 
BRANCH  27  28
ATOM     28  O   UNL     1       8.528   4.311   6.296  1.00  0.00    -0.376 OA
BRANCH  28  29
ATOM     29  C   UNL     1       9.510   4.422   5.282  1.00  0.00     0.202 C 
BRANCH  29  30
ATOM     30  C   UNL     1       9.523   3.298   4.238  1.00  0.00     0.261 C 
BRANCH  30  31
ATOM     31  O   UNL     1       9.672   1.968   4.757  1.00  0.00    -0.460 OA
BRANCH  31  32
ATOM     32  C   UNL     1      10.831   1.694   5.396  1.00  0.00     0.338 C 
ATOM     33  O   UNL     1      11.771   2.456   5.560  1.00  0.00    -0.246 OA
BRANCH  32  34
ATOM     34  C   UNL     1      10.693   0.374   6.042  1.00  0.00     0.060 A 
ATOM     35  C   UNL     1      10.849   0.279   7.431  1.00  0.00     0.016 A 
ATOM     36  C   UNL     1      10.397  -0.760   5.281  1.00  0.00     0.016 A 
ATOM     37  C   UNL     1      10.750  -0.963   8.057  1.00  0.00     0.010 A 
ATOM     38  C   UNL     1      10.318  -2.006   5.909  1.00  0.00     0.010 A 
ATOM     39  C   UNL     1      10.531  -2.118   7.295  1.00  0.00    -0.014 A 
BRANCH  39  40
ATOM     40  C   UNL     1      10.719  -3.449   7.923  1.00  0.00     0.031 A 
ATOM     41  C   UNL     1      12.030  -4.159   7.712  1.00  0.00     0.074 A 
ATOM     42  C   UNL     1       9.769  -3.992   8.704  1.00  0.00     0.049 A 
ATOM     43  N   UNL     1      12.428  -5.322   8.158  1.00  0.00    -0.248 NA
ATOM     44  C   UNL     1      13.023  -3.459   6.883  1.00  0.00     0.031 C 
ATOM     45  C   UNL     1       8.479  -3.378   9.014  1.00  0.00     0.029 A 
ATOM     46  N   UNL     1       9.745  -5.185   9.382  1.00  0.00    -0.354 N 
ATOM     47  C   UNL     1      13.717  -5.495   7.665  1.00  0.00     0.074 A 
ATOM     48  C   UNL     1      14.013  -4.337   6.848  1.00  0.00     0.031 C 
ATOM     49  C   UNL     1       7.789  -4.200   9.824  1.00  0.00     0.029 A 
ATOM     50  C   UNL     1       8.570  -5.413  10.059  1.00  0.00     0.049 A 
ATOM     51  H   UNL     1      10.499  -5.818   9.384  1.00  0.00     0.167 HD
ATOM     52  C   UNL     1      14.579  -6.518   7.884  1.00  0.00     0.034 A 
ATOM     53  C   UNL     1       8.167  -6.487  10.770  1.00  0.00     0.034 A 
ATOM     54  C   UNL     1      14.261  -7.674   8.687  1.00  0.00     0.049 A 
ATOM     55  C   UNL     1       9.113  -7.655  10.929  1.00  0.00     0.074 A 
ATOM     56  C   UNL     1      15.059  -8.766   8.980  1.00  0.00     0.029 A 
ATOM     57  N   UNL     1      13.041  -7.896   9.315  1.00  0.00    -0.354 N 
ATOM     58  N   UNL     1      10.335  -7.803  10.467  1.00  0.00    -0.248 NA
ATOM     59  C   UNL     1       8.629  -8.793  11.720  1.00  0.00     0.031 C 
ATOM     60  C   UNL     1      14.296  -9.684   9.710  1.00  0.00     0.029 A 
ATOM     61  C   UNL     1      13.054  -9.123   9.962  1.00  0.00     0.049 A 
ATOM     62  H   UNL     1      12.278  -7.274   9.302  1.00  0.00     0.167 HD
ATOM     63  C   UNL     1      10.776  -9.035  10.946  1.00  0.00     0.074 A 
ATOM     64  C   UNL     1       9.697  -9.575  11.747  1.00  0.00     0.031 C 
ATOM     65  C   UNL     1      11.966  -9.661  10.748  1.00  0.00     0.034 A 
BRANCH  52  66
ATOM     66  C   UNL     1      15.923  -6.453   7.196  1.00  0.00     0.023 A 
ATOM     67  C   UNL     1      16.851  -5.432   7.469  1.00  0.00     0.031 A 
ATOM     68  C   UNL     1      16.270  -7.412   6.227  1.00  0.00     0.131 A 
ATOM     69  C   UNL     1      18.044  -5.353   6.734  1.00  0.00     0.055 A 
ATOM     70  C   UNL     1      17.496  -7.378   5.561  1.00  0.00     0.041 A 
ATOM     71  F   UNL     1      15.415  -8.395   5.901  1.00  0.00    -0.206 F 
ATOM     72  C   UNL     1      18.386  -6.335   5.801  1.00  0.00     0.022 A 
BRANCH  69  73
ATOM     73  S   UNL     1      19.071  -3.867   6.901  1.00  0.00     0.124 S 
ATOM     74  O   UNL     1      18.130  -2.814   6.525  1.00  0.00    -0.237 OA
ATOM     75  O   UNL     1      19.456  -3.907   8.307  1.00  0.00    -0.237 OA
ATOM     76  O   UNL     1      20.157  -4.091   5.949  1.00  0.00    -0.744 OA
ENDBRANCH  69  73
ENDBRANCH  52  66
BRANCH  53  77
ATOM     77  C   UNL     1       6.798  -6.534  11.363  1.00  0.00     0.023 A 
ATOM     78  C   UNL     1       6.605  -6.640  12.750  1.00  0.00     0.031 A 
ATOM     79  C   UNL     1       5.657  -6.541  10.539  1.00  0.00     0.131 A 
ATOM     80  C   UNL     1       5.310  -6.800  13.267  1.00  0.00     0.055 A 
ATOM     81  C   UNL     1       4.367  -6.638  11.063  1.00  0.00     0.041 A 
ATOM     82  F   UNL     1       5.781  -6.448   9.206  1.00  0.00    -0.206 F 
ATOM     83  C   UNL     1       4.189  -6.784  12.435  1.00  0.00     0.022 A 
BRANCH  80  84
ATOM     84  S   UNL     1       5.116  -7.132  15.040  1.00  0.00     0.124 S 
ATOM     85  O   UNL     1       5.906  -8.347  15.202  1.00  0.00    -0.237 OA
ATOM     86  O   UNL     1       5.670  -5.921  15.637  1.00  0.00    -0.237 OA
ATOM     87  O   UNL     1       3.673  -7.298  15.199  1.00  0.00    -0.744 OA
ENDBRANCH  80  84
ENDBRANCH  53  77
BRANCH  65  88
ATOM     88  C   UNL     1      12.177 -10.979  11.460  1.00  0.00     0.023 A 
ATOM     89  C   UNL     1      11.381 -12.107  11.193  1.00  0.00     0.031 A 
ATOM     90  C   UNL     1      13.169 -11.097  12.452  1.00  0.00     0.131 A 
ATOM     91  C   UNL     1      11.532 -13.270  11.963  1.00  0.00     0.055 A 
ATOM     92  C   UNL     1      13.369 -12.283  13.159  1.00  0.00     0.041 A 
ATOM     93  F   UNL     1      13.960 -10.055  12.756  1.00  0.00    -0.206 F 
ATOM     94  C   UNL     1      12.534 -13.373  12.931  1.00  0.00     0.022 A 
BRANCH  91  95
ATOM     95  S   UNL     1      10.307 -14.596  11.783  1.00  0.00     0.124 S 
ATOM     96  O   UNL     1       9.056 -13.888  12.037  1.00  0.00    -0.237 OA
ATOM     97  O   UNL     1      10.523 -15.036  10.409  1.00  0.00    -0.237 OA
ATOM     98  O   UNL     1      10.692 -15.561  12.812  1.00  0.00    -0.744 OA
ENDBRANCH  91  95
ENDBRANCH  65  88
ENDBRANCH  39  40
ENDBRANCH  32  34
ENDBRANCH  31  32
ENDBRANCH  30  31
ENDBRANCH  29  30
ENDBRANCH  28  29
ENDBRANCH  27  28
ENDBRANCH   1  27
TORSDOF 25
