REMARK SMILES CCN(CC)S(=O)(=O)c1ccc2nc(-c3ccncc3)cc(C(=O)OCCOCCOCCOCCOC(=O)c3ccc(-c4c5nc(c(-c6cc(S(=O)(=O)[O-])ccc6F)c6ccc([nH]6)c(-c6cc(S(=O)(=O)[O-])ccc6F)c6nc(c(-c7cc(S(=O)(=O)[O-])ccc7F)c7ccc4[nH]7)C=C6)C=C5)cc3)c2c1
REMARK SMILES IDX 31 1 30 2 29 3 28 4 27 5 26 6 25 7 23 8 24 9 22 10 9 11
REMARK SMILES IDX 10 12 104 13 11 14 103 15 12 16 13 17 21 18 14 19 6 20 7 21
REMARK SMILES IDX 8 22 3 23 2 24 1 25 4 26 5 27 15 28 16 29 20 30 17 31 19 32
REMARK SMILES IDX 18 33 32 34 33 35 34 36 35 37 36 38 37 39 38 40 39 41 40 42
REMARK SMILES IDX 41 43 102 44 42 45 101 46 43 47 44 48 45 49 95 50 46 51
REMARK SMILES IDX 100 52 94 53 96 54 47 55 99 56 93 57 92 58 48 60 80 61 60 62
REMARK SMILES IDX 79 63 61 64 64 65 78 66 97 67 62 68 63 69 77 71 98 72 65 73
REMARK SMILES IDX 49 74 50 75 58 76 51 77 57 78 59 79 56 80 52 81 53 82 54 83
REMARK SMILES IDX 55 84 81 85 82 86 90 87 83 88 89 89 91 90 88 91 84 92 85 93
REMARK SMILES IDX 86 94 87 95 66 96 67 97 75 98 68 99 74 100 76 101 73 102
REMARK SMILES IDX 69 103 70 104 71 105 72 106
REMARK H PARENT 96 59 64 70
REMARK Flexibility Score: inf
ROOT
ATOM      1  O   UNL     1       0.168   4.761   2.599  1.00  0.00    -0.377 OA
ENDROOT
BRANCH   1   2
ATOM      2  C   UNL     1       0.422   5.799   3.529  1.00  0.00     0.188 C 
BRANCH   2   3
ATOM      3  C   UNL     1       0.841   7.150   2.915  1.00  0.00     0.188 C 
BRANCH   3   4
ATOM      4  O   UNL     1       0.487   7.280   1.551  1.00  0.00    -0.376 OA
BRANCH   4   5
ATOM      5  C   UNL     1       1.454   7.061   0.537  1.00  0.00     0.202 C 
BRANCH   5   6
ATOM      6  C   UNL     1       2.437   5.880   0.570  1.00  0.00     0.261 C 
BRANCH   6   7
ATOM      7  O   UNL     1       2.803   5.394   1.864  1.00  0.00    -0.460 OA
BRANCH   7   8
ATOM      8  C   UNL     1       3.865   5.940   2.481  1.00  0.00     0.338 C 
ATOM      9  O   UNL     1       4.544   6.869   2.077  1.00  0.00    -0.246 OA
BRANCH   8  10
ATOM     10  C   UNL     1       3.952   5.394   3.860  1.00  0.00     0.071 A 
ATOM     11  C   UNL     1       3.527   1.634   3.730  1.00  0.00     0.083 A 
ATOM     12  C   UNL     1       3.802   1.324   5.054  1.00  0.00     0.024 A 
ATOM     13  C   UNL     1       3.582   2.959   3.284  1.00  0.00     0.033 A 
ATOM     14  C   UNL     1       4.028   2.364   5.951  1.00  0.00     0.030 A 
ATOM     15  C   UNL     1       3.846   4.017   4.189  1.00  0.00     0.016 A 
ATOM     16  C   UNL     1       4.021   3.694   5.553  1.00  0.00     0.072 A 
ATOM     17  N   UNL     1       4.182   4.615   6.510  1.00  0.00    -0.248 NA
ATOM     18  C   UNL     1       4.112   6.352   4.865  1.00  0.00     0.045 A 
ATOM     19  C   UNL     1       4.189   5.921   6.174  1.00  0.00     0.072 A 
BRANCH  11  20
ATOM     20  S   UNL     1       3.192   0.336   2.566  1.00  0.00     0.243 S 
ATOM     21  O   UNL     1       3.657  -0.906   3.151  1.00  0.00    -0.207 OA
ATOM     22  O   UNL     1       3.734   0.805   1.311  1.00  0.00    -0.207 OA
BRANCH  20  23
ATOM     23  N   UNL     1       1.483   0.299   2.488  1.00  0.00    -0.198 NA
BRANCH  23  24
ATOM     24  C   UNL     1       0.907  -0.607   1.448  1.00  0.00     0.099 C 
ATOM     25  C   UNL     1       1.356  -0.269   0.048  1.00  0.00     0.022 C 
ENDBRANCH  23  24
BRANCH  23  26
ATOM     26  C   UNL     1       0.716   0.193   3.768  1.00  0.00     0.099 C 
ATOM     27  C   UNL     1       0.833  -1.155   4.462  1.00  0.00     0.022 C 
ENDBRANCH  23  26
ENDBRANCH  20  23
ENDBRANCH  11  20
BRANCH  19  28
ATOM     28  C   UNL     1       4.286   6.845   7.300  1.00  0.00     0.003 A 
ATOM     29  C   UNL     1       5.525   7.127   7.878  1.00  0.00     0.030 A 
ATOM     30  C   UNL     1       3.144   7.436   7.852  1.00  0.00     0.030 A 
ATOM     31  C   UNL     1       5.574   7.989   8.959  1.00  0.00     0.111 A 
ATOM     32  C   UNL     1       3.296   8.283   8.939  1.00  0.00     0.111 A 
ATOM     33  N   UNL     1       4.487   8.579   9.500  1.00  0.00    -0.265 NA
ENDBRANCH  19  28
ENDBRANCH   8  10
ENDBRANCH   7   8
ENDBRANCH   6   7
ENDBRANCH   5   6
ENDBRANCH   4   5
ENDBRANCH   3   4
ENDBRANCH   2   3
ENDBRANCH   1   2
BRANCH   1  34
ATOM     34  C   UNL     1      -0.998   4.827   1.776  1.00  0.00     0.188 C 
BRANCH  34  35
ATOM     35  C   UNL     1      -1.979   6.026   1.795  1.00  0.00     0.188 C 
BRANCH  35  36
ATOM     36  O   UNL     1      -2.053   6.724   3.031  1.00  0.00    -0.376 OA
BRANCH  36  37
ATOM     37  C   UNL     1      -3.237   6.563   3.796  1.00  0.00     0.202 C 
BRANCH  37  38
ATOM     38  C   UNL     1      -3.386   5.193   4.468  1.00  0.00     0.261 C 
BRANCH  38  39
ATOM     39  O   UNL     1      -3.436   4.070   3.575  1.00  0.00    -0.460 OA
BRANCH  39  40
ATOM     40  C   UNL     1      -4.455   4.041   2.684  1.00  0.00     0.338 C 
ATOM     41  O   UNL     1      -5.349   4.858   2.567  1.00  0.00    -0.246 OA
BRANCH  40  42
ATOM     42  C   UNL     1      -4.201   2.925   1.753  1.00  0.00     0.060 A 
ATOM     43  C   UNL     1      -4.089   3.184   0.380  1.00  0.00     0.016 A 
ATOM     44  C   UNL     1      -4.080   1.623   2.242  1.00  0.00     0.016 A 
ATOM     45  C   UNL     1      -3.892   2.129  -0.516  1.00  0.00     0.010 A 
ATOM     46  C   UNL     1      -3.896   0.571   1.344  1.00  0.00     0.010 A 
ATOM     47  C   UNL     1      -3.835   0.813  -0.043  1.00  0.00    -0.014 A 
BRANCH  47  48
ATOM     48  C   UNL     1      -3.933  -0.343  -0.970  1.00  0.00     0.031 A 
ATOM     49  C   UNL     1      -5.259  -1.040  -1.088  1.00  0.00     0.074 A 
ATOM     50  C   UNL     1      -2.890  -0.784  -1.694  1.00  0.00     0.049 A 
ATOM     51  N   UNL     1      -5.552  -2.175  -1.666  1.00  0.00    -0.248 NA
ATOM     52  C   UNL     1      -6.409  -0.349  -0.486  1.00  0.00     0.031 C 
ATOM     53  C   UNL     1      -1.597  -0.120  -1.814  1.00  0.00     0.029 A 
ATOM     54  N   UNL     1      -2.750  -1.931  -2.442  1.00  0.00    -0.354 N 
ATOM     55  C   UNL     1      -6.926  -2.321  -1.524  1.00  0.00     0.074 A 
ATOM     56  C   UNL     1      -7.394  -1.194  -0.745  1.00  0.00     0.031 C 
ATOM     57  C   UNL     1      -0.775  -0.906  -2.534  1.00  0.00     0.029 A 
ATOM     58  C   UNL     1      -1.453  -2.158  -2.840  1.00  0.00     0.049 A 
ATOM     59  H   UNL     1      -3.500  -2.527  -2.668  1.00  0.00     0.167 HD
ATOM     60  C   UNL     1      -7.726  -3.293  -2.025  1.00  0.00     0.034 A 
ATOM     61  C   UNL     1      -0.863  -3.271  -3.322  1.00  0.00     0.034 A 
ATOM     62  C   UNL     1      -7.240  -4.421  -2.779  1.00  0.00     0.049 A 
ATOM     63  C   UNL     1      -1.717  -4.467  -3.647  1.00  0.00     0.074 A 
ATOM     64  C   UNL     1      -7.963  -5.460  -3.338  1.00  0.00     0.029 A 
ATOM     65  N   UNL     1      -5.904  -4.670  -3.065  1.00  0.00    -0.354 N 
ATOM     66  N   UNL     1      -3.012  -4.617  -3.491  1.00  0.00    -0.248 NA
ATOM     67  C   UNL     1      -1.044  -5.623  -4.253  1.00  0.00     0.031 C 
ATOM     68  C   UNL     1      -7.061  -6.377  -3.888  1.00  0.00     0.029 A 
ATOM     69  C   UNL     1      -5.779  -5.867  -3.755  1.00  0.00     0.049 A 
ATOM     70  H   UNL     1      -5.155  -4.083  -2.815  1.00  0.00     0.167 HD
ATOM     71  C   UNL     1      -3.319  -5.849  -4.062  1.00  0.00     0.074 A 
ATOM     72  C   UNL     1      -2.070  -6.417  -4.526  1.00  0.00     0.031 C 
ATOM     73  C   UNL     1      -4.535  -6.429  -4.225  1.00  0.00     0.034 A 
BRANCH  60  74
ATOM     74  C   UNL     1      -9.199  -3.192  -1.723  1.00  0.00     0.023 A 
ATOM     75  C   UNL     1      -9.977  -2.120  -2.196  1.00  0.00     0.031 A 
ATOM     76  C   UNL     1      -9.826  -4.158  -0.919  1.00  0.00     0.131 A 
ATOM     77  C   UNL     1     -11.317  -2.001  -1.800  1.00  0.00     0.055 A 
ATOM     78  C   UNL     1     -11.182  -4.079  -0.597  1.00  0.00     0.041 A 
ATOM     79  F   UNL     1      -9.126  -5.187  -0.415  1.00  0.00    -0.206 F 
ATOM     80  C   UNL     1     -11.932  -2.988  -1.026  1.00  0.00     0.022 A 
BRANCH  77  81
ATOM     81  S   UNL     1     -12.200  -0.464  -2.182  1.00  0.00     0.124 S 
ATOM     82  O   UNL     1     -11.356   0.532  -1.526  1.00  0.00    -0.237 OA
ATOM     83  O   UNL     1     -12.191  -0.448  -3.640  1.00  0.00    -0.237 OA
ATOM     84  O   UNL     1     -13.511  -0.660  -1.567  1.00  0.00    -0.744 OA
ENDBRANCH  77  81
ENDBRANCH  60  74
BRANCH  61  85
ATOM     85  C   UNL     1       0.619  -3.345  -3.458  1.00  0.00     0.023 A 
ATOM     86  C   UNL     1       1.237  -3.442  -4.712  1.00  0.00     0.031 A 
ATOM     87  C   UNL     1       1.436  -3.402  -2.312  1.00  0.00     0.131 A 
ATOM     88  C   UNL     1       2.627  -3.631  -4.792  1.00  0.00     0.055 A 
ATOM     89  C   UNL     1       2.823  -3.537  -2.398  1.00  0.00     0.041 A 
ATOM     90  F   UNL     1       0.889  -3.341  -1.087  1.00  0.00    -0.206 F 
ATOM     91  C   UNL     1       3.425  -3.665  -3.646  1.00  0.00     0.022 A 
BRANCH  88  92
ATOM     92  S   UNL     1       3.365  -3.928  -6.422  1.00  0.00     0.124 S 
ATOM     93  O   UNL     1       2.642  -5.116  -6.862  1.00  0.00    -0.237 OA
ATOM     94  O   UNL     1       3.050  -2.688  -7.125  1.00  0.00    -0.237 OA
ATOM     95  O   UNL     1       4.781  -4.132  -6.124  1.00  0.00    -0.744 OA
ENDBRANCH  88  92
ENDBRANCH  61  85
BRANCH  73  96
ATOM     96  C   UNL     1      -4.593  -7.700  -5.034  1.00  0.00     0.023 A 
ATOM     97  C   UNL     1      -4.034  -8.907  -4.584  1.00  0.00     0.031 A 
ATOM     98  C   UNL     1      -5.233  -7.693  -6.288  1.00  0.00     0.131 A 
ATOM     99  C   UNL     1      -4.088 -10.047  -5.402  1.00  0.00     0.055 A 
ATOM    100  C   UNL     1      -5.337  -8.844  -7.069  1.00  0.00     0.041 A 
ATOM    101  F   UNL     1      -5.778  -6.564  -6.771  1.00  0.00    -0.206 F 
ATOM    102  C   UNL     1      -4.753 -10.028  -6.631  1.00  0.00     0.022 A 
BRANCH  99 103
ATOM    103  S   UNL     1      -3.207 -11.541  -4.874  1.00  0.00     0.124 S 
ATOM    104  O   UNL     1      -1.829 -11.066  -4.789  1.00  0.00    -0.237 OA
ATOM    105  O   UNL     1      -3.853 -11.852  -3.603  1.00  0.00    -0.237 OA
ATOM    106  O   UNL     1      -3.470 -12.494  -5.951  1.00  0.00    -0.744 OA
ENDBRANCH  99 103
ENDBRANCH  73  96
ENDBRANCH  47  48
ENDBRANCH  40  42
ENDBRANCH  39  40
ENDBRANCH  38  39
ENDBRANCH  37  38
ENDBRANCH  36  37
ENDBRANCH  35  36
ENDBRANCH  34  35
ENDBRANCH   1  34
TORSDOF 28
