REMARK SMILES CC1=C(C#N)c2nc(N)c(C#N)c(C)c2/C1=C/c1ccc(-c2ccc(C(=O)OCCOCCOCCOCCOC(=O)c3ccc(-c4c5nc(c(-c6cc(S(=O)(=O)[O-])ccc6F)c6ccc([nH]6)c(-c6cc(S(=O)(=O)[O-])ccc6F)c6nc(c(-c7cc(S(=O)(=O)[O-])ccc7F)c7ccc4[nH]7)C=C6)C=C5)cc3)cc2)o1
REMARK SMILES IDX 34 1 33 2 32 3 31 4 30 5 29 6 28 7 26 8 27 9 25 10 22 11
REMARK SMILES IDX 23 12 107 13 24 14 106 15 21 16 18 17 19 18 108 19 20 20
REMARK SMILES IDX 17 21 1 22 2 23 3 24 16 25 6 26 15 27 7 28 13 29 8 30 10 31
REMARK SMILES IDX 14 32 4 33 5 34 9 35 11 38 12 39 35 40 36 41 37 42 38 43
REMARK SMILES IDX 39 44 40 45 41 46 42 47 43 48 44 49 105 50 45 51 104 52
REMARK SMILES IDX 46 53 47 54 48 55 98 56 49 57 103 58 97 59 99 60 50 61
REMARK SMILES IDX 102 62 96 63 95 64 51 66 83 67 63 68 82 69 64 70 67 71 81 72
REMARK SMILES IDX 100 73 65 74 66 75 80 77 101 78 68 79 52 80 53 81 61 82
REMARK SMILES IDX 54 83 60 84 62 85 59 86 55 87 56 88 57 89 58 90 84 91 85 92
REMARK SMILES IDX 93 93 86 94 92 95 94 96 91 97 87 98 88 99 89 100 90 101
REMARK SMILES IDX 69 102 70 103 78 104 71 105 77 106 79 107 76 108 72 109
REMARK SMILES IDX 73 110 74 111 75 112
REMARK H PARENT 9 36 9 37 99 65 67 76
REMARK Flexibility Score: inf
ROOT
ATOM      1  O   UNL     1      -5.719   7.274   3.546  1.00  0.00    -0.377 OA
ENDROOT
BRANCH   1   2
ATOM      2  C   UNL     1      -4.856   6.368   4.207  1.00  0.00     0.188 C 
BRANCH   2   3
ATOM      3  C   UNL     1      -3.790   6.913   5.184  1.00  0.00     0.188 C 
BRANCH   3   4
ATOM      4  O   UNL     1      -3.996   8.222   5.665  1.00  0.00    -0.376 OA
BRANCH   4   5
ATOM      5  C   UNL     1      -3.447   9.370   5.050  1.00  0.00     0.202 C 
BRANCH   5   6
ATOM      6  C   UNL     1      -3.108   9.496   3.555  1.00  0.00     0.261 C 
BRANCH   6   7
ATOM      7  O   UNL     1      -3.031   8.292   2.799  1.00  0.00    -0.460 OA
BRANCH   7   8
ATOM      8  C   UNL     1      -1.847   7.644   2.828  1.00  0.00     0.338 C 
ATOM      9  O   UNL     1      -0.837   7.981   3.420  1.00  0.00    -0.246 OA
BRANCH   8  10
ATOM     10  C   UNL     1      -2.032   6.318   2.196  1.00  0.00     0.060 A 
ATOM     11  C   UNL     1      -2.206   3.801   0.996  1.00  0.00     0.017 A 
ATOM     12  C   UNL     1      -1.595   3.932   2.246  1.00  0.00     0.013 A 
ATOM     13  C   UNL     1      -2.842   4.914   0.417  1.00  0.00     0.013 A 
ATOM     14  C   UNL     1      -1.488   5.194   2.834  1.00  0.00     0.016 A 
ATOM     15  C   UNL     1      -2.764   6.171   1.017  1.00  0.00     0.016 A 
BRANCH  11  16
ATOM     16  C   UNL     1      -1.986   2.621   0.180  1.00  0.00     0.134 A 
ATOM     17  C   UNL     1      -1.836   0.449  -0.231  1.00  0.00     0.128 A 
ATOM     18  C   UNL     1      -1.434   1.131  -1.374  1.00  0.00     0.051 A 
ATOM     19  O   UNL     1      -2.190   1.387   0.721  1.00  0.00    -0.457 OA
ATOM     20  C   UNL     1      -1.505   2.507  -1.103  1.00  0.00     0.051 A 
BRANCH  17  21
ATOM     21  C   UNL     1      -1.939  -0.957  -0.050  1.00  0.00     0.056 C 
ATOM     22  C   UNL     1       1.158  -0.141   0.091  1.00  0.00     0.046 C 
ATOM     23  C   UNL     1       0.549  -1.504  -0.017  1.00  0.00    -0.023 C 
ATOM     24  C   UNL     1       1.246  -2.664  -0.007  1.00  0.00     0.082 C 
ATOM     25  C   UNL     1      -0.896  -1.808  -0.046  1.00  0.00    -0.008 C 
ATOM     26  C   UNL     1       0.304  -3.775  -0.026  1.00  0.00     0.092 A 
ATOM     27  C   UNL     1      -1.016  -3.292  -0.055  1.00  0.00     0.014 A 
ATOM     28  N   UNL     1       0.672  -5.066  -0.046  1.00  0.00    -0.228 NA
ATOM     29  C   UNL     1      -2.059  -4.216  -0.144  1.00  0.00    -0.019 A 
ATOM     30  C   UNL     1      -0.335  -5.962  -0.105  1.00  0.00     0.142 A 
ATOM     31  C   UNL     1      -1.694  -5.586  -0.168  1.00  0.00     0.098 A 
ATOM     32  C   UNL     1      -3.497  -3.787  -0.239  1.00  0.00     0.046 C 
BRANCH  24  33
ATOM     33  C   UNL     1       2.763  -2.688   0.084  1.00  0.00     0.102 C 
ATOM     34  N   UNL     1       4.022  -2.707   0.158  1.00  0.00    -0.192 NA
ENDBRANCH  24  33
BRANCH  30  35
ATOM     35  N   UNL     1       0.077  -7.277  -0.203  1.00  0.00    -0.383 N 
ATOM     36  H   UNL     1       1.036  -7.497  -0.155  1.00  0.00     0.158 HD
ATOM     37  H   UNL     1      -0.587  -7.994  -0.321  1.00  0.00     0.158 HD
ENDBRANCH  30  35
BRANCH  31  38
ATOM     38  C   UNL     1      -2.690  -6.620  -0.251  1.00  0.00     0.103 C 
ATOM     39  N   UNL     1      -3.488  -7.456  -0.296  1.00  0.00    -0.192 NA
ENDBRANCH  31  38
ENDBRANCH  17  21
ENDBRANCH  11  16
ENDBRANCH   8  10
ENDBRANCH   7   8
ENDBRANCH   6   7
ENDBRANCH   5   6
ENDBRANCH   4   5
ENDBRANCH   3   4
ENDBRANCH   2   3
ENDBRANCH   1   2
BRANCH   1  40
ATOM     40  C   UNL     1      -6.485   8.214   4.292  1.00  0.00     0.188 C 
BRANCH  40  41
ATOM     41  C   UNL     1      -6.735   8.071   5.814  1.00  0.00     0.188 C 
BRANCH  41  42
ATOM     42  O   UNL     1      -6.300   6.852   6.380  1.00  0.00    -0.376 OA
BRANCH  42  43
ATOM     43  C   UNL     1      -7.233   5.835   6.674  1.00  0.00     0.202 C 
BRANCH  43  44
ATOM     44  C   UNL     1      -8.259   5.383   5.624  1.00  0.00     0.261 C 
BRANCH  44  45
ATOM     45  O   UNL     1      -8.844   6.394   4.795  1.00  0.00    -0.460 OA
BRANCH  45  46
ATOM     46  C   UNL     1      -9.781   7.190   5.360  1.00  0.00     0.338 C 
ATOM     47  O   UNL     1     -10.168   7.154   6.513  1.00  0.00    -0.246 OA
BRANCH  46  48
ATOM     48  C   UNL     1     -10.112   8.242   4.373  1.00  0.00     0.060 A 
ATOM     49  C   UNL     1      -9.761   9.573   4.640  1.00  0.00     0.016 A 
ATOM     50  C   UNL     1     -10.732   7.903   3.168  1.00  0.00     0.016 A 
ATOM     51  C   UNL     1     -10.042  10.571   3.707  1.00  0.00     0.010 A 
ATOM     52  C   UNL     1     -11.044   8.910   2.250  1.00  0.00     0.010 A 
ATOM     53  C   UNL     1     -10.724  10.251   2.527  1.00  0.00    -0.014 A 
BRANCH  53  54
ATOM     54  C   UNL     1     -11.289  11.338   1.691  1.00  0.00     0.031 A 
ATOM     55  C   UNL     1     -12.739  11.692   1.877  1.00  0.00     0.074 A 
ATOM     56  C   UNL     1     -10.529  12.025   0.820  1.00  0.00     0.049 A 
ATOM     57  N   UNL     1     -13.467  12.569   1.240  1.00  0.00    -0.248 NA
ATOM     58  C   UNL     1     -13.463  10.952   2.925  1.00  0.00     0.031 C 
ATOM     59  C   UNL     1      -9.099  11.821   0.602  1.00  0.00     0.029 A 
ATOM     60  N   UNL     1     -10.860  13.042  -0.042  1.00  0.00    -0.354 N 
ATOM     61  C   UNL     1     -14.733  12.489   1.809  1.00  0.00     0.074 A 
ATOM     62  C   UNL     1     -14.685  11.447   2.810  1.00  0.00     0.031 C 
ATOM     63  C   UNL     1      -8.672  12.692  -0.330  1.00  0.00     0.029 A 
ATOM     64  C   UNL     1      -9.806  13.486  -0.805  1.00  0.00     0.049 A 
ATOM     65  H   UNL     1     -11.767  13.419  -0.107  1.00  0.00     0.167 HD
ATOM     66  C   UNL     1     -15.832  13.230   1.532  1.00  0.00     0.034 A 
ATOM     67  C   UNL     1      -9.764  14.412  -1.785  1.00  0.00     0.034 A 
ATOM     68  C   UNL     1     -15.869  14.263   0.530  1.00  0.00     0.049 A 
ATOM     69  C   UNL     1     -11.029  15.145  -2.161  1.00  0.00     0.074 A 
ATOM     70  C   UNL     1     -16.932  15.072   0.172  1.00  0.00     0.029 A 
ATOM     71  N   UNL     1     -14.802  14.625  -0.281  1.00  0.00    -0.354 N 
ATOM     72  N   UNL     1     -12.226  15.048  -1.631  1.00  0.00    -0.248 NA
ATOM     73  C   UNL     1     -10.940  16.110  -3.266  1.00  0.00     0.031 C 
ATOM     74  C   UNL     1     -16.533  15.865  -0.906  1.00  0.00     0.029 A 
ATOM     75  C   UNL     1     -15.195  15.615  -1.165  1.00  0.00     0.049 A 
ATOM     76  H   UNL     1     -13.899  14.235  -0.233  1.00  0.00     0.167 HD
ATOM     77  C   UNL     1     -13.025  15.956  -2.321  1.00  0.00     0.074 A 
ATOM     78  C   UNL     1     -12.174  16.596  -3.303  1.00  0.00     0.031 C 
ATOM     79  C   UNL     1     -14.341  16.239  -2.149  1.00  0.00     0.034 A 
BRANCH  66  80
ATOM     80  C   UNL     1     -17.092  12.924   2.298  1.00  0.00     0.023 A 
ATOM     81  C   UNL     1     -17.189  13.160   3.680  1.00  0.00     0.031 A 
ATOM     82  C   UNL     1     -18.217  12.404   1.635  1.00  0.00     0.131 A 
ATOM     83  C   UNL     1     -18.370  12.836   4.362  1.00  0.00     0.055 A 
ATOM     84  C   UNL     1     -19.412  12.148   2.306  1.00  0.00     0.041 A 
ATOM     85  F   UNL     1     -18.172  12.139   0.319  1.00  0.00    -0.206 F 
ATOM     86  C   UNL     1     -19.491  12.355   3.680  1.00  0.00     0.022 A 
BRANCH  83  87
ATOM     87  S   UNL     1     -18.390  12.964   6.170  1.00  0.00     0.124 S 
ATOM     88  O   UNL     1     -17.354  12.005   6.545  1.00  0.00    -0.237 OA
ATOM     89  O   UNL     1     -18.070  14.370   6.391  1.00  0.00    -0.237 OA
ATOM     90  O   UNL     1     -19.752  12.571   6.526  1.00  0.00    -0.744 OA
ENDBRANCH  83  87
ENDBRANCH  66  80
BRANCH  67  91
ATOM     91  C   UNL     1      -8.481  14.688  -2.490  1.00  0.00     0.023 A 
ATOM     92  C   UNL     1      -7.830  15.923  -2.347  1.00  0.00     0.031 A 
ATOM     93  C   UNL     1      -7.878  13.713  -3.306  1.00  0.00     0.131 A 
ATOM     94  C   UNL     1      -6.618  16.155  -3.016  1.00  0.00     0.055 A 
ATOM     95  C   UNL     1      -6.654  13.934  -3.937  1.00  0.00     0.041 A 
ATOM     96  F   UNL     1      -8.461  12.516  -3.475  1.00  0.00    -0.206 F 
ATOM     97  C   UNL     1      -6.017  15.164  -3.796  1.00  0.00     0.022 A 
BRANCH  94  98
ATOM     98  S   UNL     1      -5.837  17.785  -2.864  1.00  0.00     0.124 S 
ATOM     99  O   UNL     1      -6.825  18.648  -3.501  1.00  0.00    -0.237 OA
ATOM    100  O   UNL     1      -5.699  17.923  -1.418  1.00  0.00    -0.237 OA
ATOM    101  O   UNL     1      -4.580  17.628  -3.594  1.00  0.00    -0.744 OA
ENDBRANCH  94  98
ENDBRANCH  67  91
BRANCH  79 102
ATOM    102  C   UNL     1     -14.956  17.303  -3.022  1.00  0.00     0.023 A 
ATOM    103  C   UNL     1     -15.169  17.095  -4.395  1.00  0.00     0.031 A 
ATOM    104  C   UNL     1     -15.409  18.509  -2.456  1.00  0.00     0.131 A 
ATOM    105  C   UNL     1     -15.800  18.087  -5.161  1.00  0.00     0.055 A 
ATOM    106  C   UNL     1     -16.082  19.469  -3.212  1.00  0.00     0.041 A 
ATOM    107  F   UNL     1     -15.236  18.757  -1.147  1.00  0.00    -0.206 F 
ATOM    108  C   UNL     1     -16.276  19.263  -4.575  1.00  0.00     0.022 A 
BRANCH 105 109
ATOM    109  S   UNL     1     -15.962  17.834  -6.949  1.00  0.00     0.124 S 
ATOM    110  O   UNL     1     -14.566  17.776  -7.373  1.00  0.00    -0.237 OA
ATOM    111  O   UNL     1     -16.703  16.580  -7.024  1.00  0.00    -0.237 OA
ATOM    112  O   UNL     1     -16.698  19.015  -7.398  1.00  0.00    -0.744 OA
ENDBRANCH 105 109
ENDBRANCH  79 102
ENDBRANCH  53  54
ENDBRANCH  46  48
ENDBRANCH  45  46
ENDBRANCH  44  45
ENDBRANCH  43  44
ENDBRANCH  42  43
ENDBRANCH  41  42
ENDBRANCH  40  41
ENDBRANCH   1  40
TORSDOF 28
