REMARK SMILES CCn1ccc([C@@H](C)NC(=O)[C@H](C)n2ccc(C(=O)OCCOCCOCCOCCOC(=O)c3ccc(-c4c5nc(c(-c6cc(S(=O)(=O)[O-])ccc6F)c6ccc([nH]6)c(-c6cc(S(=O)(=O)[O-])ccc6F)c6nc(c(-c7cc(S(=O)(=O)[O-])ccc7F)c7ccc4[nH]7)C=C6)C=C5)cc3)n2)n1
REMARK SMILES IDX 25 1 24 2 23 3 22 4 21 5 20 6 18 7 19 8 17 9 14 10 15 11
REMARK SMILES IDX 98 12 16 13 12 14 13 15 10 16 9 17 11 19 7 20 8 21 6 22 3 23
REMARK SMILES IDX 4 24 99 25 5 26 2 27 1 28 26 29 27 30 28 31 29 32 30 33
REMARK SMILES IDX 31 34 32 35 33 36 34 37 35 38 36 39 97 40 37 41 96 42 38 43
REMARK SMILES IDX 39 44 40 45 90 46 41 47 95 48 89 49 91 50 42 51 94 52 88 53
REMARK SMILES IDX 87 54 43 56 75 57 55 58 74 59 56 60 59 61 73 62 92 63 57 64
REMARK SMILES IDX 58 65 72 67 93 68 60 69 44 70 45 71 53 72 46 73 52 74 54 75
REMARK SMILES IDX 51 76 47 77 48 78 49 79 50 80 76 81 77 82 85 83 78 84 84 85
REMARK SMILES IDX 86 86 83 87 79 88 80 89 81 90 82 91 61 92 62 93 70 94 63 95
REMARK SMILES IDX 69 96 71 97 68 98 64 99 65 100 66 101 67 102
REMARK H PARENT 9 18 91 55 59 66
REMARK Flexibility Score: inf
ROOT
ATOM      1  C   UNL     1      -2.493  -6.608  -3.932  1.00  0.00     0.188 C 
ENDROOT
BRANCH   1   2
ATOM      2  C   UNL     1      -3.497  -7.760  -3.703  1.00  0.00     0.188 C 
BRANCH   2   3
ATOM      3  O   UNL     1      -4.902  -7.584  -3.837  1.00  0.00    -0.376 OA
BRANCH   3   4
ATOM      4  C   UNL     1      -5.579  -6.416  -3.406  1.00  0.00     0.202 C 
BRANCH   4   5
ATOM      5  C   UNL     1      -5.306  -5.729  -2.057  1.00  0.00     0.261 C 
BRANCH   5   6
ATOM      6  O   UNL     1      -4.026  -5.943  -1.470  1.00  0.00    -0.458 OA
BRANCH   6   7
ATOM      7  C   UNL     1      -3.898  -7.047  -0.688  1.00  0.00     0.358 C 
ATOM      8  O   UNL     1      -4.828  -7.789  -0.365  1.00  0.00    -0.244 OA
BRANCH   7   9
ATOM      9  C   UNL     1      -2.491  -7.364  -0.410  1.00  0.00     0.170 A 
ATOM     10  N   UNL     1      -0.409  -7.102  -0.008  1.00  0.00    -0.260 N 
ATOM     11  C   UNL     1      -0.558  -8.448  -0.198  1.00  0.00     0.110 A 
ATOM     12  N   UNL     1      -1.555  -6.421  -0.197  1.00  0.00    -0.165 NA
ATOM     13  C   UNL     1      -1.898  -8.655  -0.418  1.00  0.00     0.057 A 
BRANCH  10  14
ATOM     14  C   UNL     1       0.802  -6.425   0.456  1.00  0.00     0.193 C 
ATOM     15  C   UNL     1       1.848  -6.323  -0.652  1.00  0.00     0.044 C 
BRANCH  14  16
ATOM     16  C   UNL     1       0.485  -5.060   1.067  1.00  0.00     0.245 C 
ATOM     17  N   UNL     1      -0.162  -4.983   2.270  1.00  0.00    -0.346 N 
ATOM     18  H   UNL     1      -0.421  -4.076   2.552  1.00  0.00     0.164 HD
ATOM     19  O   UNL     1       0.824  -3.999   0.536  1.00  0.00    -0.273 OA
BRANCH  17  20
ATOM     20  C   UNL     1      -0.522  -6.051   3.196  1.00  0.00     0.130 C 
ATOM     21  C   UNL     1      -2.034  -6.224   3.310  1.00  0.00     0.038 C 
BRANCH  20  22
ATOM     22  C   UNL     1       0.108  -5.718   4.521  1.00  0.00     0.084 A 
ATOM     23  N   UNL     1       1.442  -5.850   6.162  1.00  0.00    -0.273 N 
ATOM     24  C   UNL     1       0.690  -4.744   6.426  1.00  0.00     0.109 A 
ATOM     25  N   UNL     1       1.097  -6.474   5.020  1.00  0.00    -0.176 NA
ATOM     26  C   UNL     1      -0.187  -4.625   5.376  1.00  0.00     0.047 A 
BRANCH  23  27
ATOM     27  C   UNL     1       2.513  -6.385   6.979  1.00  0.00     0.141 C 
ATOM     28  C   UNL     1       3.885  -6.054   6.422  1.00  0.00     0.029 C 
ENDBRANCH  23  27
ENDBRANCH  20  22
ENDBRANCH  17  20
ENDBRANCH  14  16
ENDBRANCH  10  14
ENDBRANCH   7   9
ENDBRANCH   6   7
ENDBRANCH   5   6
ENDBRANCH   4   5
ENDBRANCH   3   4
ENDBRANCH   2   3
ENDBRANCH   1   2
BRANCH   1  29
ATOM     29  O   UNL     1      -3.107  -5.347  -4.120  1.00  0.00    -0.377 OA
BRANCH  29  30
ATOM     30  C   UNL     1      -3.353  -4.956  -5.469  1.00  0.00     0.188 C 
BRANCH  30  31
ATOM     31  C   UNL     1      -3.892  -6.007  -6.475  1.00  0.00     0.188 C 
BRANCH  31  32
ATOM     32  O   UNL     1      -3.334  -7.309  -6.337  1.00  0.00    -0.376 OA
BRANCH  32  33
ATOM     33  C   UNL     1      -2.484  -7.858  -7.330  1.00  0.00     0.202 C 
BRANCH  33  34
ATOM     34  C   UNL     1      -1.067  -7.299  -7.378  1.00  0.00     0.261 C 
BRANCH  34  35
ATOM     35  O   UNL     1      -1.028  -5.891  -7.259  1.00  0.00    -0.460 OA
BRANCH  35  36
ATOM     36  C   UNL     1      -1.550  -5.220  -8.297  1.00  0.00     0.338 C 
ATOM     37  O   UNL     1      -2.207  -5.689  -9.226  1.00  0.00    -0.246 OA
BRANCH  36  38
ATOM     38  C   UNL     1      -1.107  -3.834  -8.207  1.00  0.00     0.060 A 
ATOM     39  C   UNL     1      -1.508  -3.003  -9.251  1.00  0.00     0.016 A 
ATOM     40  C   UNL     1      -0.003  -3.551  -7.385  1.00  0.00     0.016 A 
ATOM     41  C   UNL     1      -0.603  -2.075  -9.690  1.00  0.00     0.010 A 
ATOM     42  C   UNL     1       0.915  -2.654  -7.848  1.00  0.00     0.010 A 
ATOM     43  C   UNL     1       0.642  -2.019  -9.054  1.00  0.00    -0.014 A 
BRANCH  43  44
ATOM     44  C   UNL     1       1.670  -1.222  -9.666  1.00  0.00     0.031 A 
ATOM     45  C   UNL     1       1.509   0.205  -9.353  1.00  0.00     0.074 A 
ATOM     46  C   UNL     1       2.689  -1.774 -10.347  1.00  0.00     0.049 A 
ATOM     47  N   UNL     1       1.076   1.135 -10.134  1.00  0.00    -0.248 NA
ATOM     48  C   UNL     1       1.597   0.595  -7.936  1.00  0.00     0.031 C 
ATOM     49  C   UNL     1       3.066  -3.186 -10.443  1.00  0.00     0.029 A 
ATOM     50  N   UNL     1       3.683  -1.146 -11.020  1.00  0.00    -0.354 N 
ATOM     51  C   UNL     1       1.098   2.284  -9.359  1.00  0.00     0.074 A 
ATOM     52  C   UNL     1       1.137   1.844  -7.994  1.00  0.00     0.031 C 
ATOM     53  C   UNL     1       4.328  -3.273 -10.928  1.00  0.00     0.029 A 
ATOM     54  C   UNL     1       4.789  -1.941 -11.288  1.00  0.00     0.049 A 
ATOM     55  H   UNL     1       3.625  -0.203 -11.297  1.00  0.00     0.167 HD
ATOM     56  C   UNL     1       1.412   3.486  -9.910  1.00  0.00     0.034 A 
ATOM     57  C   UNL     1       6.015  -1.496 -11.677  1.00  0.00     0.034 A 
ATOM     58  C   UNL     1       1.251   3.450 -11.349  1.00  0.00     0.049 A 
ATOM     59  C   UNL     1       5.813  -0.130 -12.237  1.00  0.00     0.074 A 
ATOM     60  C   UNL     1       0.192   3.156 -12.188  1.00  0.00     0.029 A 
ATOM     61  N   UNL     1       2.382   3.333 -12.128  1.00  0.00    -0.354 N 
ATOM     62  N   UNL     1       5.116   0.107 -13.318  1.00  0.00    -0.248 NA
ATOM     63  C   UNL     1       5.942   1.005 -11.332  1.00  0.00     0.031 C 
ATOM     64  C   UNL     1       0.763   2.413 -13.262  1.00  0.00     0.029 A 
ATOM     65  C   UNL     1       2.146   2.358 -13.069  1.00  0.00     0.049 A 
ATOM     66  H   UNL     1       3.212   3.855 -12.029  1.00  0.00     0.167 HD
ATOM     67  C   UNL     1       4.380   1.251 -13.035  1.00  0.00     0.074 A 
ATOM     68  C   UNL     1       4.998   1.809 -11.834  1.00  0.00     0.031 C 
ATOM     69  C   UNL     1       3.166   1.481 -13.620  1.00  0.00     0.034 A 
BRANCH  56  70
ATOM     70  C   UNL     1       2.233   4.538  -9.199  1.00  0.00     0.023 A 
ATOM     71  C   UNL     1       2.483   5.725  -9.906  1.00  0.00     0.031 A 
ATOM     72  C   UNL     1       2.998   4.357  -8.020  1.00  0.00     0.131 A 
ATOM     73  C   UNL     1       3.508   6.599  -9.509  1.00  0.00     0.055 A 
ATOM     74  C   UNL     1       3.968   5.264  -7.590  1.00  0.00     0.041 A 
ATOM     75  F   UNL     1       2.932   3.260  -7.258  1.00  0.00    -0.206 F 
ATOM     76  C   UNL     1       4.253   6.378  -8.355  1.00  0.00     0.022 A 
BRANCH  73  77
ATOM     77  S   UNL     1       3.970   7.935 -10.635  1.00  0.00     0.124 S 
ATOM     78  O   UNL     1       4.199   7.204 -11.877  1.00  0.00    -0.237 OA
ATOM     79  O   UNL     1       2.783   8.781 -10.594  1.00  0.00    -0.237 OA
ATOM     80  O   UNL     1       5.164   8.501 -10.014  1.00  0.00    -0.744 OA
ENDBRANCH  73  77
ENDBRANCH  56  70
BRANCH  57  81
ATOM     81  C   UNL     1       7.333  -2.017 -11.208  1.00  0.00     0.023 A 
ATOM     82  C   UNL     1       8.545  -1.756 -11.883  1.00  0.00     0.031 A 
ATOM     83  C   UNL     1       7.441  -2.608  -9.927  1.00  0.00     0.131 A 
ATOM     84  C   UNL     1       9.784  -2.090 -11.280  1.00  0.00     0.055 A 
ATOM     85  C   UNL     1       8.665  -2.941  -9.342  1.00  0.00     0.041 A 
ATOM     86  F   UNL     1       6.360  -2.809  -9.158  1.00  0.00    -0.206 F 
ATOM     87  C   UNL     1       9.844  -2.675 -10.014  1.00  0.00     0.022 A 
BRANCH  84  88
ATOM     88  S   UNL     1      11.357  -1.688 -12.110  1.00  0.00     0.124 S 
ATOM     89  O   UNL     1      11.335  -2.579 -13.264  1.00  0.00    -0.237 OA
ATOM     90  O   UNL     1      11.210  -0.263 -12.387  1.00  0.00    -0.237 OA
ATOM     91  O   UNL     1      12.368  -2.013 -11.103  1.00  0.00    -0.744 OA
ENDBRANCH  84  88
ENDBRANCH  57  81
BRANCH  69  92
ATOM     92  C   UNL     1       2.756   0.628 -14.806  1.00  0.00     0.023 A 
ATOM     93  C   UNL     1       2.586  -0.776 -14.781  1.00  0.00     0.031 A 
ATOM     94  C   UNL     1       2.378   1.309 -15.978  1.00  0.00     0.131 A 
ATOM     95  C   UNL     1       2.054  -1.441 -15.906  1.00  0.00     0.055 A 
ATOM     96  C   UNL     1       1.833   0.650 -17.079  1.00  0.00     0.041 A 
ATOM     97  F   UNL     1       2.490   2.646 -16.053  1.00  0.00    -0.206 F 
ATOM     98  C   UNL     1       1.671  -0.729 -17.048  1.00  0.00     0.022 A 
BRANCH  95  99
ATOM     99  S   UNL     1       1.845  -3.253 -15.911  1.00  0.00     0.124 S 
ATOM    100  O   UNL     1       3.146  -3.746 -15.476  1.00  0.00    -0.237 OA
ATOM    101  O   UNL     1       0.740  -3.446 -14.975  1.00  0.00    -0.237 OA
ATOM    102  O   UNL     1       1.516  -3.555 -17.306  1.00  0.00    -0.744 OA
ENDBRANCH  95  99
ENDBRANCH  69  92
ENDBRANCH  43  44
ENDBRANCH  36  38
ENDBRANCH  35  36
ENDBRANCH  34  35
ENDBRANCH  33  34
ENDBRANCH  32  33
ENDBRANCH  31  32
ENDBRANCH  30  31
ENDBRANCH  29  30
ENDBRANCH   1  29
TORSDOF 28
