REMARK SMILES NC(=O)CC[C@@H](NC(=O)Nc1ccc(Cl)c(Cl)c1)C(=O)OCCOCCOCCOCCOC(=O)c1ccc(-c2c3nc(c(-c4cc(S(=O)(=O)[O-])ccc4F)c4ccc([nH]4)c(-c4cc(S(=O)(=O)[O-])ccc4F)c4nc(c(-c5cc(S(=O)(=O)[O-])ccc5F)c5ccc2[nH]5)C=C4)C=C3)cc1
REMARK SMILES IDX 27 1 26 2 25 3 24 4 23 5 22 6 21 7 19 8 20 9 6 10 5 11 4 12
REMARK SMILES IDX 2 13 1 14 3 17 7 18 8 19 9 21 10 22 11 24 12 25 18 26 13 27
REMARK SMILES IDX 16 28 14 29 17 30 15 31 28 32 29 33 30 34 31 35 32 36 33 37
REMARK SMILES IDX 34 38 35 39 36 40 37 41 98 42 38 43 97 44 39 45 40 46 41 47
REMARK SMILES IDX 91 48 42 49 96 50 90 51 92 52 43 53 95 54 89 55 88 56 44 58
REMARK SMILES IDX 76 59 56 60 75 61 57 62 60 63 74 64 93 65 58 66 59 67 73 69
REMARK SMILES IDX 94 70 61 71 45 72 46 73 54 74 47 75 53 76 55 77 52 78 48 79
REMARK SMILES IDX 49 80 50 81 51 82 77 83 78 84 86 85 79 86 85 87 87 88 84 89
REMARK SMILES IDX 80 90 81 91 82 92 83 93 62 94 63 95 71 96 64 97 70 98 72 99
REMARK SMILES IDX 69 100 65 101 66 102 67 103 68 104
REMARK H PARENT 1 15 1 16 7 20 10 23 92 57 60 68
REMARK Flexibility Score: inf
ROOT
ATOM      1  O   UNL     1       2.059   5.809   1.035  1.00  0.00    -0.377 OA
ENDROOT
BRANCH   1   2
ATOM      2  C   UNL     1       1.936   4.620   1.785  1.00  0.00     0.188 C 
BRANCH   2   3
ATOM      3  C   UNL     1       3.198   4.153   2.519  1.00  0.00     0.188 C 
BRANCH   3   4
ATOM      4  O   UNL     1       4.180   5.155   2.741  1.00  0.00    -0.376 OA
BRANCH   4   5
ATOM      5  C   UNL     1       5.352   5.150   1.929  1.00  0.00     0.202 C 
BRANCH   5   6
ATOM      6  C   UNL     1       5.169   5.367   0.420  1.00  0.00     0.261 C 
BRANCH   6   7
ATOM      7  O   UNL     1       4.330   4.355  -0.147  1.00  0.00    -0.462 OA
BRANCH   7   8
ATOM      8  C   UNL     1       4.934   3.163  -0.378  1.00  0.00     0.328 C 
ATOM      9  O   UNL     1       6.145   2.996  -0.310  1.00  0.00    -0.250 OA
BRANCH   8  10
ATOM     10  C   UNL     1       3.864   2.047  -0.534  1.00  0.00     0.194 C 
BRANCH  10  11
ATOM     11  C   UNL     1       2.763   2.540  -1.504  1.00  0.00     0.047 C 
BRANCH  11  12
ATOM     12  C   UNL     1       1.711   1.531  -1.955  1.00  0.00     0.102 C 
BRANCH  12  13
ATOM     13  C   UNL     1       0.827   1.038  -0.836  1.00  0.00     0.217 C 
ATOM     14  N   UNL     1       1.266  -0.083  -0.201  1.00  0.00    -0.370 N 
ATOM     15  H   UNL     1       0.743  -0.466   0.540  1.00  0.00     0.159 HD
ATOM     16  H   UNL     1       2.107  -0.511  -0.482  1.00  0.00     0.159 HD
ATOM     17  O   UNL     1      -0.215   1.585  -0.499  1.00  0.00    -0.275 OA
ENDBRANCH  12  13
ENDBRANCH  11  12
ENDBRANCH  10  11
BRANCH  10  18
ATOM     18  N   UNL     1       4.494   0.808  -0.997  1.00  0.00    -0.324 N 
ATOM     19  C   UNL     1       5.521   0.094  -0.477  1.00  0.00     0.319 C 
ATOM     20  H   UNL     1       4.106   0.432  -1.820  1.00  0.00     0.166 HD
ATOM     21  O   UNL     1       6.042  -0.749  -1.209  1.00  0.00    -0.248 OA
ATOM     22  N   UNL     1       6.112   0.425   0.693  1.00  0.00    -0.308 N 
ATOM     23  H   UNL     1       7.095   0.395   0.656  1.00  0.00     0.171 HD
BRANCH  22  24
ATOM     24  C   UNL     1       5.613   0.803   1.945  1.00  0.00     0.044 A 
ATOM     25  C   UNL     1       4.358   0.411   2.405  1.00  0.00     0.028 A 
ATOM     26  C   UNL     1       6.451   1.551   2.784  1.00  0.00     0.048 A 
ATOM     27  C   UNL     1       3.926   0.803   3.678  1.00  0.00     0.024 A 
ATOM     28  C   UNL     1       6.010   1.972   4.044  1.00  0.00     0.061 A 
ATOM     29  C   UNL     1       4.742   1.598   4.492  1.00  0.00     0.059 A 
ATOM     30  Cl  UNL     1       7.064   2.977   4.974  1.00  0.00    -0.083 Cl
ATOM     31  Cl  UNL     1       4.113   2.094   6.022  1.00  0.00    -0.083 Cl
ENDBRANCH  22  24
ENDBRANCH  10  18
ENDBRANCH   8  10
ENDBRANCH   7   8
ENDBRANCH   6   7
ENDBRANCH   5   6
ENDBRANCH   4   5
ENDBRANCH   3   4
ENDBRANCH   2   3
ENDBRANCH   1   2
BRANCH   1  32
ATOM     32  C   UNL     1       2.416   7.007   1.721  1.00  0.00     0.188 C 
BRANCH  32  33
ATOM     33  C   UNL     1       2.212   7.166   3.243  1.00  0.00     0.188 C 
BRANCH  33  34
ATOM     34  O   UNL     1       1.111   6.442   3.770  1.00  0.00    -0.376 OA
BRANCH  34  35
ATOM     35  C   UNL     1      -0.064   7.205   4.011  1.00  0.00     0.202 C 
BRANCH  35  36
ATOM     36  C   UNL     1      -0.805   7.651   2.744  1.00  0.00     0.261 C 
BRANCH  36  37
ATOM     37  O   UNL     1      -0.121   8.595   1.898  1.00  0.00    -0.460 OA
BRANCH  37  38
ATOM     38  C   UNL     1       0.389   9.726   2.439  1.00  0.00     0.338 C 
ATOM     39  O   UNL     1       0.213  10.134   3.573  1.00  0.00    -0.246 OA
BRANCH  38  40
ATOM     40  C   UNL     1       1.419  10.238   1.496  1.00  0.00     0.060 A 
ATOM     41  C   UNL     1       2.706  10.527   1.981  1.00  0.00     0.016 A 
ATOM     42  C   UNL     1       1.151  10.335   0.127  1.00  0.00     0.016 A 
ATOM     43  C   UNL     1       3.710  10.960   1.107  1.00  0.00     0.010 A 
ATOM     44  C   UNL     1       2.144  10.796  -0.742  1.00  0.00     0.010 A 
ATOM     45  C   UNL     1       3.410  11.161  -0.248  1.00  0.00    -0.014 A 
BRANCH  45  46
ATOM     46  C   UNL     1       4.220  12.114  -1.054  1.00  0.00     0.031 A 
ATOM     47  C   UNL     1       3.802  13.561  -0.977  1.00  0.00     0.074 A 
ATOM     48  C   UNL     1       5.238  11.744  -1.851  1.00  0.00     0.049 A 
ATOM     49  N   UNL     1       4.179  14.584  -1.695  1.00  0.00    -0.248 NA
ATOM     50  C   UNL     1       2.797  13.883   0.050  1.00  0.00     0.031 C 
ATOM     51  C   UNL     1       5.793  10.398  -1.959  1.00  0.00     0.029 A 
ATOM     52  N   UNL     1       5.979  12.486  -2.741  1.00  0.00    -0.354 N 
ATOM     53  C   UNL     1       3.448  15.666  -1.213  1.00  0.00     0.074 A 
ATOM     54  C   UNL     1       2.580  15.165  -0.173  1.00  0.00     0.031 C 
ATOM     55  C   UNL     1       6.779  10.407  -2.877  1.00  0.00     0.029 A 
ATOM     56  C   UNL     1       6.888  11.745  -3.461  1.00  0.00     0.049 A 
ATOM     57  H   UNL     1       5.869  13.458  -2.852  1.00  0.00     0.167 HD
ATOM     58  C   UNL     1       3.492  16.963  -1.598  1.00  0.00     0.034 A 
ATOM     59  C   UNL     1       7.682  12.106  -4.493  1.00  0.00     0.034 A 
ATOM     60  C   UNL     1       4.326  17.442  -2.666  1.00  0.00     0.049 A 
ATOM     61  C   UNL     1       7.619  13.531  -5.008  1.00  0.00     0.074 A 
ATOM     62  C   UNL     1       4.426  18.723  -3.177  1.00  0.00     0.029 A 
ATOM     63  N   UNL     1       5.196  16.647  -3.401  1.00  0.00    -0.354 N 
ATOM     64  N   UNL     1       6.899  14.539  -4.572  1.00  0.00    -0.248 NA
ATOM     65  C   UNL     1       8.471  13.863  -6.161  1.00  0.00     0.031 C 
ATOM     66  C   UNL     1       5.304  18.689  -4.264  1.00  0.00     0.029 A 
ATOM     67  C   UNL     1       5.818  17.406  -4.377  1.00  0.00     0.049 A 
ATOM     68  H   UNL     1       5.347  15.686  -3.251  1.00  0.00     0.167 HD
ATOM     69  C   UNL     1       7.250  15.633  -5.364  1.00  0.00     0.074 A 
ATOM     70  C   UNL     1       8.235  15.159  -6.313  1.00  0.00     0.031 C 
ATOM     71  C   UNL     1       6.812  16.916  -5.302  1.00  0.00     0.034 A 
BRANCH  58  72
ATOM     72  C   UNL     1       2.550  17.910  -0.897  1.00  0.00     0.023 A 
ATOM     73  C   UNL     1       2.641  18.145   0.486  1.00  0.00     0.031 A 
ATOM     74  C   UNL     1       1.488  18.505  -1.599  1.00  0.00     0.131 A 
ATOM     75  C   UNL     1       1.632  18.868   1.139  1.00  0.00     0.055 A 
ATOM     76  C   UNL     1       0.540  19.304  -0.958  1.00  0.00     0.041 A 
ATOM     77  F   UNL     1       1.331  18.289  -2.915  1.00  0.00    -0.206 F 
ATOM     78  C   UNL     1       0.597  19.472   0.423  1.00  0.00     0.022 A 
BRANCH  75  79
ATOM     79  S   UNL     1       1.589  18.841   2.953  1.00  0.00     0.124 S 
ATOM     80  O   UNL     1       1.492  17.409   3.224  1.00  0.00    -0.237 OA
ATOM     81  O   UNL     1       2.854  19.475   3.308  1.00  0.00    -0.237 OA
ATOM     82  O   UNL     1       0.391  19.612   3.278  1.00  0.00    -0.744 OA
ENDBRANCH  75  79
ENDBRANCH  58  72
BRANCH  59  83
ATOM     83  C   UNL     1       8.575  11.109  -5.158  1.00  0.00     0.023 A 
ATOM     84  C   UNL     1       9.971  11.272  -5.154  1.00  0.00     0.031 A 
ATOM     85  C   UNL     1       8.045  10.019  -5.871  1.00  0.00     0.131 A 
ATOM     86  C   UNL     1      10.784  10.386  -5.881  1.00  0.00     0.055 A 
ATOM     87  C   UNL     1       8.861   9.111  -6.551  1.00  0.00     0.041 A 
ATOM     88  F   UNL     1       6.718   9.819  -5.919  1.00  0.00    -0.206 F 
ATOM     89  C   UNL     1      10.239   9.300  -6.568  1.00  0.00     0.022 A 
BRANCH  86  90
ATOM     90  S   UNL     1      12.564  10.725  -5.988  1.00  0.00     0.124 S 
ATOM     91  O   UNL     1      12.577  12.038  -6.623  1.00  0.00    -0.237 OA
ATOM     92  O   UNL     1      12.965  10.684  -4.586  1.00  0.00    -0.237 OA
ATOM     93  O   UNL     1      13.070   9.628  -6.811  1.00  0.00    -0.744 OA
ENDBRANCH  86  90
ENDBRANCH  59  83
BRANCH  71  94
ATOM     94  C   UNL     1       7.455  17.927  -6.219  1.00  0.00     0.023 A 
ATOM     95  C   UNL     1       7.221  17.943  -7.604  1.00  0.00     0.031 A 
ATOM     96  C   UNL     1       8.270  18.935  -5.670  1.00  0.00     0.131 A 
ATOM     97  C   UNL     1       7.819  18.935  -8.398  1.00  0.00     0.055 A 
ATOM     98  C   UNL     1       8.820  19.946  -6.457  1.00  0.00     0.041 A 
ATOM     99  F   UNL     1       8.521  18.966  -4.351  1.00  0.00    -0.206 F 
ATOM    100  C   UNL     1       8.600  19.947  -7.830  1.00  0.00     0.022 A 
BRANCH  97 101
ATOM    101  S   UNL     1       7.595  18.871 -10.197  1.00  0.00     0.124 S 
ATOM    102  O   UNL     1       8.207  17.590 -10.534  1.00  0.00    -0.237 OA
ATOM    103  O   UNL     1       6.144  18.941 -10.336  1.00  0.00    -0.237 OA
ATOM    104  O   UNL     1       8.318  20.048 -10.675  1.00  0.00    -0.744 OA
ENDBRANCH  97 101
ENDBRANCH  71  94
ENDBRANCH  45  46
ENDBRANCH  38  40
ENDBRANCH  37  38
ENDBRANCH  36  37
ENDBRANCH  35  36
ENDBRANCH  34  35
ENDBRANCH  33  34
ENDBRANCH  32  33
ENDBRANCH   1  32
TORSDOF 28
