REMARK SMILES CC[C@@H](C)CN(C)C(=O)NC(=O)CCC(=O)OCCOCCOCCOCCOC(=O)c1ccc(-c2c3nc(c(-c4cc(S(=O)(=O)[O-])ccc4F)c4ccc([nH]4)c(-c4cc(S(=O)(=O)[O-])ccc4F)c4nc(c(-c5cc(S(=O)(=O)[O-])ccc5F)c5ccc2[nH]5)C=C4)C=C3)cc1
REMARK SMILES IDX 21 1 20 2 19 3 18 4 17 5 15 6 16 7 14 8 13 9 11 10 8 11 9 12
REMARK SMILES IDX 10 13 12 15 6 16 7 17 5 18 3 19 4 20 2 21 1 22 22 23 23 24
REMARK SMILES IDX 24 25 25 26 26 27 27 28 28 29 29 30 30 31 31 32 32 33 33 34
REMARK SMILES IDX 94 35 34 36 93 37 35 38 36 39 37 40 87 41 38 42 92 43 86 44
REMARK SMILES IDX 88 45 39 46 91 47 85 48 84 49 40 51 72 52 52 53 71 54 53 55
REMARK SMILES IDX 56 56 70 57 89 58 54 59 55 60 69 62 90 63 57 64 41 65 42 66
REMARK SMILES IDX 50 67 43 68 49 69 51 70 48 71 44 72 45 73 46 74 47 75 73 76
REMARK SMILES IDX 74 77 82 78 75 79 81 80 83 81 80 82 76 83 77 84 78 85 79 86
REMARK SMILES IDX 58 87 59 88 67 89 60 90 66 91 68 92 65 93 61 94 62 95 63 96
REMARK SMILES IDX 64 97
REMARK H PARENT 10 14 88 50 56 61
REMARK Flexibility Score: inf
ROOT
ATOM      1  C   UNL     1      -0.607   0.769  -3.648  1.00  0.00     0.188 C 
ENDROOT
BRANCH   1   2
ATOM      2  O   UNL     1       0.357   1.074  -2.641  1.00  0.00    -0.376 OA
BRANCH   2   3
ATOM      3  C   UNL     1       0.406   2.196  -1.737  1.00  0.00     0.202 C 
BRANCH   3   4
ATOM      4  C   UNL     1       1.940   2.453  -1.218  1.00  0.00     0.261 C 
BRANCH   4   5
ATOM      5  O   UNL     1       2.966   3.007  -2.130  1.00  0.00    -0.463 OA
BRANCH   5   6
ATOM      6  C   UNL     1       4.068   2.249  -2.402  1.00  0.00     0.306 C 
ATOM      7  O   UNL     1       4.339   1.189  -1.838  1.00  0.00    -0.252 OA
BRANCH   6   8
ATOM      8  C   UNL     1       5.064   2.817  -3.417  1.00  0.00     0.132 C 
BRANCH   8   9
ATOM      9  C   UNL     1       4.763   3.479  -4.753  1.00  0.00     0.112 C 
BRANCH   9  10
ATOM     10  C   UNL     1       3.434   4.103  -5.008  1.00  0.00     0.228 C 
ATOM     11  C   UNL     1       2.021   2.359  -4.499  1.00  0.00     0.323 C 
ATOM     12  O   UNL     1       1.214   2.954  -3.808  1.00  0.00    -0.248 OA
ATOM     13  N   UNL     1       2.463   3.244  -5.424  1.00  0.00    -0.278 N 
ATOM     14  H   UNL     1       2.105   3.264  -6.341  1.00  0.00     0.174 HD
ATOM     15  O   UNL     1       3.248   5.315  -4.943  1.00  0.00    -0.275 OA
BRANCH  11  16
ATOM     16  N   UNL     1       2.443   1.020  -4.541  1.00  0.00    -0.327 N 
ATOM     17  C   UNL     1       2.821   0.614  -5.894  1.00  0.00     0.148 C 
BRANCH  16  18
ATOM     18  C   UNL     1       2.266  -0.279  -3.654  1.00  0.00     0.124 C 
BRANCH  18  19
ATOM     19  C   UNL     1       2.021  -0.994  -2.139  1.00  0.00     0.005 C 
ATOM     20  C   UNL     1       1.483  -2.417  -2.528  1.00  0.00     0.009 C 
BRANCH  19  21
ATOM     21  C   UNL     1       1.105  -0.711  -0.880  1.00  0.00     0.002 C 
ATOM     22  C   UNL     1       1.599  -1.361   0.430  1.00  0.00     0.004 C 
ENDBRANCH  19  21
ENDBRANCH  18  19
ENDBRANCH  16  18
ENDBRANCH  11  16
ENDBRANCH   9  10
ENDBRANCH   8   9
ENDBRANCH   6   8
ENDBRANCH   5   6
ENDBRANCH   4   5
ENDBRANCH   3   4
ENDBRANCH   2   3
ENDBRANCH   1   2
BRANCH   1  23
ATOM     23  C   UNL     1      -0.998   1.787  -4.739  1.00  0.00     0.188 C 
BRANCH  23  24
ATOM     24  O   UNL     1      -1.875   2.815  -4.312  1.00  0.00    -0.377 OA
BRANCH  24  25
ATOM     25  C   UNL     1      -2.788   2.391  -3.311  1.00  0.00     0.188 C 
BRANCH  25  26
ATOM     26  C   UNL     1      -3.756   1.254  -3.718  1.00  0.00     0.188 C 
BRANCH  26  27
ATOM     27  O   UNL     1      -3.365   0.541  -4.884  1.00  0.00    -0.376 OA
BRANCH  27  28
ATOM     28  C   UNL     1      -3.966   0.864  -6.134  1.00  0.00     0.202 C 
BRANCH  28  29
ATOM     29  C   UNL     1      -4.109   2.306  -6.674  1.00  0.00     0.261 C 
BRANCH  29  30
ATOM     30  O   UNL     1      -4.243   3.372  -5.737  1.00  0.00    -0.460 OA
BRANCH  30  31
ATOM     31  C   UNL     1      -5.451   3.496  -5.129  1.00  0.00     0.338 C 
ATOM     32  O   UNL     1      -6.411   2.799  -5.297  1.00  0.00    -0.246 OA
BRANCH  31  33
ATOM     33  C   UNL     1      -5.274   4.478  -4.024  1.00  0.00     0.060 A 
ATOM     34  C   UNL     1      -5.663   4.077  -2.738  1.00  0.00     0.016 A 
ATOM     35  C   UNL     1      -4.650   5.715  -4.224  1.00  0.00     0.016 A 
ATOM     36  C   UNL     1      -5.451   4.922  -1.655  1.00  0.00     0.010 A 
ATOM     37  C   UNL     1      -4.496   6.592  -3.145  1.00  0.00     0.010 A 
ATOM     38  C   UNL     1      -4.941   6.209  -1.868  1.00  0.00    -0.014 A 
BRANCH  38  39
ATOM     39  C   UNL     1      -5.252   7.219  -0.830  1.00  0.00     0.031 A 
ATOM     40  C   UNL     1      -6.605   7.874  -0.927  1.00  0.00     0.074 A 
ATOM     41  C   UNL     1      -4.447   7.435   0.223  1.00  0.00     0.049 A 
ATOM     42  N   UNL     1      -7.213   8.667  -0.087  1.00  0.00    -0.248 NA
ATOM     43  C   UNL     1      -7.389   7.566  -2.137  1.00  0.00     0.031 C 
ATOM     44  C   UNL     1      -3.144   6.808   0.439  1.00  0.00     0.029 A 
ATOM     45  N   UNL     1      -4.627   8.229   1.326  1.00  0.00    -0.354 N 
ATOM     46  C   UNL     1      -8.456   8.930  -0.654  1.00  0.00     0.074 A 
ATOM     47  C   UNL     1      -8.497   8.255  -1.929  1.00  0.00     0.031 C 
ATOM     48  C   UNL     1      -2.643   7.240   1.611  1.00  0.00     0.029 A 
ATOM     49  C   UNL     1      -3.580   8.186   2.217  1.00  0.00     0.049 A 
ATOM     50  H   UNL     1      -5.430   8.780   1.467  1.00  0.00     0.167 HD
ATOM     51  C   UNL     1      -9.478   9.659  -0.149  1.00  0.00     0.034 A 
ATOM     52  C   UNL     1      -3.408   8.844   3.382  1.00  0.00     0.034 A 
ATOM     53  C   UNL     1      -9.398  10.364   1.103  1.00  0.00     0.049 A 
ATOM     54  C   UNL     1      -4.522   9.741   3.874  1.00  0.00     0.074 A 
ATOM     55  C   UNL     1     -10.350  11.165   1.705  1.00  0.00     0.029 A 
ATOM     56  N   UNL     1      -8.287  10.368   1.939  1.00  0.00    -0.354 N 
ATOM     57  N   UNL     1      -5.700   9.977   3.336  1.00  0.00    -0.248 NA
ATOM     58  C   UNL     1      -4.291  10.442   5.142  1.00  0.00     0.031 C 
ATOM     59  C   UNL     1      -9.787  11.715   2.862  1.00  0.00     0.029 A 
ATOM     60  C   UNL     1      -8.518  11.184   3.034  1.00  0.00     0.049 A 
ATOM     61  H   UNL     1      -7.457   9.864   1.776  1.00  0.00     0.167 HD
ATOM     62  C   UNL     1      -6.358  10.831   4.219  1.00  0.00     0.074 A 
ATOM     63  C   UNL     1      -5.457  11.039   5.335  1.00  0.00     0.031 C 
ATOM     64  C   UNL     1      -7.593  11.394   4.124  1.00  0.00     0.034 A 
BRANCH  51  65
ATOM     65  C   UNL     1     -10.720   9.780  -0.999  1.00  0.00     0.023 A 
ATOM     66  C   UNL     1     -11.509   8.661  -1.327  1.00  0.00     0.031 A 
ATOM     67  C   UNL     1     -11.083  11.023  -1.544  1.00  0.00     0.131 A 
ATOM     68  C   UNL     1     -12.577   8.797  -2.227  1.00  0.00     0.055 A 
ATOM     69  C   UNL     1     -12.196  11.166  -2.374  1.00  0.00     0.041 A 
ATOM     70  F   UNL     1     -10.347  12.118  -1.298  1.00  0.00    -0.206 F 
ATOM     71  C   UNL     1     -12.942  10.048  -2.731  1.00  0.00     0.022 A 
BRANCH  68  72
ATOM     72  S   UNL     1     -13.389   7.299  -2.850  1.00  0.00     0.124 S 
ATOM     73  O   UNL     1     -12.271   6.595  -3.475  1.00  0.00    -0.237 OA
ATOM     74  O   UNL     1     -13.922   6.698  -1.633  1.00  0.00    -0.237 OA
ATOM     75  O   UNL     1     -14.390   7.813  -3.783  1.00  0.00    -0.744 OA
ENDBRANCH  68  72
ENDBRANCH  51  65
BRANCH  52  76
ATOM     76  C   UNL     1      -2.135   8.717   4.152  1.00  0.00     0.023 A 
ATOM     77  C   UNL     1      -2.113   8.217   5.465  1.00  0.00     0.031 A 
ATOM     78  C   UNL     1      -0.921   9.172   3.605  1.00  0.00     0.131 A 
ATOM     79  C   UNL     1      -0.917   8.233   6.203  1.00  0.00     0.055 A 
ATOM     80  C   UNL     1       0.277   9.132   4.322  1.00  0.00     0.041 A 
ATOM     81  F   UNL     1      -0.882   9.669   2.358  1.00  0.00    -0.206 F 
ATOM     82  C   UNL     1       0.280   8.674   5.635  1.00  0.00     0.022 A 
BRANCH  79  83
ATOM     83  S   UNL     1      -0.965   7.760   7.955  1.00  0.00     0.124 S 
ATOM     84  O   UNL     1      -1.936   8.705   8.492  1.00  0.00    -0.237 OA
ATOM     85  O   UNL     1      -1.397   6.368   7.880  1.00  0.00    -0.237 OA
ATOM     86  O   UNL     1       0.413   7.959   8.399  1.00  0.00    -0.744 OA
ENDBRANCH  79  83
ENDBRANCH  52  76
BRANCH  64  87
ATOM     87  C   UNL     1      -8.039  12.257   5.283  1.00  0.00     0.023 A 
ATOM     88  C   UNL     1      -7.358  13.436   5.631  1.00  0.00     0.031 A 
ATOM     89  C   UNL     1      -9.133  11.869   6.077  1.00  0.00     0.131 A 
ATOM     90  C   UNL     1      -7.715  14.132   6.795  1.00  0.00     0.055 A 
ATOM     91  C   UNL     1      -9.537  12.613   7.186  1.00  0.00     0.041 A 
ATOM     92  F   UNL     1      -9.824  10.753   5.795  1.00  0.00    -0.206 F 
ATOM     93  C   UNL     1      -8.812  13.739   7.564  1.00  0.00     0.022 A 
BRANCH  90  94
ATOM     94  S   UNL     1      -6.628  15.464   7.374  1.00  0.00     0.124 S 
ATOM     95  O   UNL     1      -5.338  14.788   7.455  1.00  0.00    -0.237 OA
ATOM     96  O   UNL     1      -6.762  16.458   6.314  1.00  0.00    -0.237 OA
ATOM     97  O   UNL     1      -7.210  15.845   8.660  1.00  0.00    -0.744 OA
ENDBRANCH  90  94
ENDBRANCH  64  87
ENDBRANCH  38  39
ENDBRANCH  31  33
ENDBRANCH  30  31
ENDBRANCH  29  30
ENDBRANCH  28  29
ENDBRANCH  27  28
ENDBRANCH  26  27
ENDBRANCH  25  26
ENDBRANCH  24  25
ENDBRANCH  23  24
ENDBRANCH   1  23
TORSDOF 29
