REMARK SMILES Cc1nc2sc3c(c2c2nc(CCC(=O)OCCOCCOCCOCCOC(=O)c4ccc(-c5c6nc(c(-c7cc(S(=O)(=O)[O-])ccc7F)c7ccc([nH]7)c(-c7cc(S(=O)(=O)[O-])ccc7F)c7nc(c(-c8cc(S(=O)(=O)[O-])ccc8F)c8ccc5[nH]8)C=C7)C=C6)cc4)nn12)[C@@H](C)CCC3
REMARK SMILES IDX 23 1 22 2 21 3 20 4 19 5 18 6 17 7 16 8 14 9 15 10 13 11
REMARK SMILES IDX 12 12 11 13 1 14 2 15 3 16 95 17 4 18 9 19 94 20 5 21 8 22
REMARK SMILES IDX 10 23 6 24 7 25 100 26 96 27 99 28 97 29 98 30 24 31 25 32
REMARK SMILES IDX 26 33 27 34 28 35 29 36 30 37 31 38 32 39 93 40 33 41 92 42
REMARK SMILES IDX 34 43 35 44 36 45 86 46 37 47 91 48 85 49 87 50 38 51 90 52
REMARK SMILES IDX 84 53 83 54 39 56 71 57 51 58 70 59 52 60 55 61 69 62 88 63
REMARK SMILES IDX 53 64 54 65 68 67 89 68 56 69 40 70 41 71 49 72 42 73 48 74
REMARK SMILES IDX 50 75 47 76 43 77 44 78 45 79 46 80 72 81 73 82 81 83 74 84
REMARK SMILES IDX 80 85 82 86 79 87 75 88 76 89 77 90 78 91 57 92 58 93 66 94
REMARK SMILES IDX 59 95 65 96 67 97 64 98 60 99 61 100 62 101 63 102
REMARK H PARENT 87 55 55 66
REMARK Flexibility Score: inf
ROOT
ATOM      1  C   UNL     1      -2.244   4.226  -5.091  1.00  0.00     0.188 C 
ENDROOT
BRANCH   1   2
ATOM      2  O   UNL     1      -1.742   4.925  -3.965  1.00  0.00    -0.377 OA
BRANCH   2   3
ATOM      3  C   UNL     1      -1.257   6.244  -4.116  1.00  0.00     0.188 C 
BRANCH   3   4
ATOM      4  C   UNL     1      -0.341   6.705  -5.263  1.00  0.00     0.188 C 
BRANCH   4   5
ATOM      5  O   UNL     1      -0.575   6.296  -6.596  1.00  0.00    -0.376 OA
BRANCH   5   6
ATOM      6  C   UNL     1       0.195   5.250  -7.177  1.00  0.00     0.202 C 
BRANCH   6   7
ATOM      7  C   UNL     1       1.637   5.048  -6.710  1.00  0.00     0.261 C 
BRANCH   7   8
ATOM      8  O   UNL     1       1.720   4.631  -5.324  1.00  0.00    -0.463 OA
BRANCH   8   9
ATOM      9  C   UNL     1       2.673   5.251  -4.592  1.00  0.00     0.306 C 
ATOM     10  O   UNL     1       3.473   6.058  -5.062  1.00  0.00    -0.252 OA
BRANCH   9  11
ATOM     11  C   UNL     1       2.730   4.896  -3.124  1.00  0.00     0.131 C 
BRANCH  11  12
ATOM     12  C   UNL     1       1.518   4.394  -2.359  1.00  0.00     0.091 C 
BRANCH  12  13
ATOM     13  C   UNL     1       1.144   2.967  -2.534  1.00  0.00     0.152 A 
ATOM     14  C   UNL     1       0.985  -0.328  -0.046  1.00  0.00     0.090 C 
ATOM     15  C   UNL     1       0.491  -0.251  -1.456  1.00  0.00     0.131 A 
ATOM     16  N   UNL     1      -0.036  -1.274  -2.077  1.00  0.00    -0.222 NA
ATOM     17  N   UNL     1       0.659   0.995  -2.069  1.00  0.00    -0.199 N 
ATOM     18  C   UNL     1      -0.418  -1.055  -3.379  1.00  0.00     0.129 A 
ATOM     19  C   UNL     1       0.266   1.244  -3.356  1.00  0.00     0.168 A 
ATOM     20  N   UNL     1       1.260   2.079  -1.530  1.00  0.00    -0.150 NA
ATOM     21  S   UNL     1      -1.079  -2.310  -4.329  1.00  0.00    -0.120 S 
ATOM     22  C   UNL     1      -0.323   0.118  -4.119  1.00  0.00     0.060 A 
ATOM     23  N   UNL     1       0.541   2.486  -3.669  1.00  0.00    -0.211 NA
ATOM     24  C   UNL     1      -1.218  -1.297  -5.693  1.00  0.00     0.011 A 
ATOM     25  C   UNL     1      -0.767  -0.006  -5.470  1.00  0.00    -0.018 A 
ATOM     26  C   UNL     1      -1.746  -1.814  -6.996  1.00  0.00     0.047 C 
ATOM     27  C   UNL     1      -0.805   1.035  -6.564  1.00  0.00     0.018 C 
ATOM     28  C   UNL     1      -2.240  -0.651  -7.862  1.00  0.00     0.006 C 
ATOM     29  C   UNL     1       0.524   1.760  -6.725  1.00  0.00     0.013 C 
ATOM     30  C   UNL     1      -1.180   0.446  -7.944  1.00  0.00     0.008 C 
ENDBRANCH  12  13
ENDBRANCH  11  12
ENDBRANCH   9  11
ENDBRANCH   8   9
ENDBRANCH   7   8
ENDBRANCH   6   7
ENDBRANCH   5   6
ENDBRANCH   4   5
ENDBRANCH   3   4
ENDBRANCH   2   3
ENDBRANCH   1   2
BRANCH   1  31
ATOM     31  C   UNL     1      -3.169   4.923  -6.110  1.00  0.00     0.188 C 
BRANCH  31  32
ATOM     32  O   UNL     1      -3.265   6.329  -5.970  1.00  0.00    -0.376 OA
BRANCH  32  33
ATOM     33  C   UNL     1      -4.313   6.914  -5.207  1.00  0.00     0.202 C 
BRANCH  33  34
ATOM     34  C   UNL     1      -4.677   6.371  -3.822  1.00  0.00     0.261 C 
BRANCH  34  35
ATOM     35  O   UNL     1      -4.724   4.963  -3.716  1.00  0.00    -0.460 OA
BRANCH  35  36
ATOM     36  C   UNL     1      -5.674   4.357  -4.437  1.00  0.00     0.338 C 
ATOM     37  O   UNL     1      -6.354   4.854  -5.335  1.00  0.00    -0.246 OA
BRANCH  36  38
ATOM     38  C   UNL     1      -5.849   3.008  -3.911  1.00  0.00     0.060 A 
ATOM     39  C   UNL     1      -6.752   2.196  -4.593  1.00  0.00     0.016 A 
ATOM     40  C   UNL     1      -5.455   2.762  -2.586  1.00  0.00     0.016 A 
ATOM     41  C   UNL     1      -7.501   1.322  -3.847  1.00  0.00     0.010 A 
ATOM     42  C   UNL     1      -6.224   1.913  -1.838  1.00  0.00     0.010 A 
ATOM     43  C   UNL     1      -7.302   1.293  -2.462  1.00  0.00    -0.014 A 
BRANCH  43  44
ATOM     44  C   UNL     1      -8.206   0.501  -1.662  1.00  0.00     0.031 A 
ATOM     45  C   UNL     1      -7.896  -0.934  -1.791  1.00  0.00     0.074 A 
ATOM     46  C   UNL     1      -9.125   1.066  -0.855  1.00  0.00     0.049 A 
ATOM     47  N   UNL     1      -8.579  -1.827  -2.423  1.00  0.00    -0.248 NA
ATOM     48  C   UNL     1      -6.549  -1.386  -1.390  1.00  0.00     0.031 C 
ATOM     49  C   UNL     1      -9.285   2.492  -0.544  1.00  0.00     0.029 A 
ATOM     50  N   UNL     1     -10.056   0.479  -0.054  1.00  0.00    -0.354 N 
ATOM     51  C   UNL     1      -7.881  -3.010  -2.225  1.00  0.00     0.074 A 
ATOM     52  C   UNL     1      -6.548  -2.641  -1.840  1.00  0.00     0.031 C 
ATOM     53  C   UNL     1     -10.083   2.629   0.541  1.00  0.00     0.029 A 
ATOM     54  C   UNL     1     -10.593   1.321   0.920  1.00  0.00     0.049 A 
ATOM     55  H   UNL     1     -10.328  -0.462  -0.154  1.00  0.00     0.167 HD
ATOM     56  C   UNL     1      -8.557  -4.171  -2.025  1.00  0.00     0.034 A 
ATOM     57  C   UNL     1     -11.354   0.944   1.984  1.00  0.00     0.034 A 
ATOM     58  C   UNL     1      -9.930  -4.046  -2.447  1.00  0.00     0.049 A 
ATOM     59  C   UNL     1     -11.959  -0.359   1.617  1.00  0.00     0.074 A 
ATOM     60  C   UNL     1     -10.588  -3.937  -3.653  1.00  0.00     0.029 A 
ATOM     61  N   UNL     1     -10.779  -3.577  -1.475  1.00  0.00    -0.354 N 
ATOM     62  N   UNL     1     -12.803  -0.500   0.632  1.00  0.00    -0.248 NA
ATOM     63  C   UNL     1     -11.326  -1.591   2.074  1.00  0.00     0.031 C 
ATOM     64  C   UNL     1     -11.766  -3.177  -3.392  1.00  0.00     0.029 A 
ATOM     65  C   UNL     1     -11.828  -2.889  -2.028  1.00  0.00     0.049 A 
ATOM     66  H   UNL     1     -10.651  -3.716  -0.509  1.00  0.00     0.167 HD
ATOM     67  C   UNL     1     -12.487  -1.725   0.075  1.00  0.00     0.074 A 
ATOM     68  C   UNL     1     -11.704  -2.417   1.093  1.00  0.00     0.031 C 
ATOM     69  C   UNL     1     -12.616  -1.934  -1.267  1.00  0.00     0.034 A 
BRANCH  56  70
ATOM     70  C   UNL     1      -8.129  -5.215  -1.019  1.00  0.00     0.023 A 
ATOM     71  C   UNL     1      -8.813  -6.442  -1.009  1.00  0.00     0.031 A 
ATOM     72  C   UNL     1      -7.290  -4.966   0.096  1.00  0.00     0.131 A 
ATOM     73  C   UNL     1      -8.669  -7.335   0.069  1.00  0.00     0.055 A 
ATOM     74  C   UNL     1      -7.103  -5.880   1.132  1.00  0.00     0.041 A 
ATOM     75  F   UNL     1      -6.689  -3.788   0.302  1.00  0.00    -0.206 F 
ATOM     76  C   UNL     1      -7.809  -7.067   1.133  1.00  0.00     0.022 A 
BRANCH  73  77
ATOM     77  S   UNL     1      -9.709  -8.816   0.122  1.00  0.00     0.124 S 
ATOM     78  O   UNL     1     -11.050  -8.242   0.138  1.00  0.00    -0.237 OA
ATOM     79  O   UNL     1      -9.316  -9.505  -1.102  1.00  0.00    -0.237 OA
ATOM     80  O   UNL     1      -9.299  -9.473   1.361  1.00  0.00    -0.744 OA
ENDBRANCH  73  77
ENDBRANCH  56  70
BRANCH  57  81
ATOM     81  C   UNL     1     -11.344   1.461   3.384  1.00  0.00     0.023 A 
ATOM     82  C   UNL     1     -12.335   1.095   4.326  1.00  0.00     0.031 A 
ATOM     83  C   UNL     1     -10.194   2.097   3.900  1.00  0.00     0.131 A 
ATOM     84  C   UNL     1     -12.140   1.337   5.707  1.00  0.00     0.055 A 
ATOM     85  C   UNL     1     -10.007   2.335   5.266  1.00  0.00     0.041 A 
ATOM     86  F   UNL     1      -9.164   2.427   3.107  1.00  0.00    -0.206 F 
ATOM     87  C   UNL     1     -10.973   1.940   6.178  1.00  0.00     0.022 A 
BRANCH  84  88
ATOM     88  S   UNL     1     -13.350   0.747   6.939  1.00  0.00     0.124 S 
ATOM     89  O   UNL     1     -14.409   1.744   6.829  1.00  0.00    -0.237 OA
ATOM     90  O   UNL     1     -13.668  -0.592   6.457  1.00  0.00    -0.237 OA
ATOM     91  O   UNL     1     -12.599   0.781   8.195  1.00  0.00    -0.744 OA
ENDBRANCH  84  88
ENDBRANCH  57  81
BRANCH  69  92
ATOM     92  C   UNL     1     -13.572  -1.045  -2.026  1.00  0.00     0.023 A 
ATOM     93  C   UNL     1     -13.407   0.339  -2.261  1.00  0.00     0.031 A 
ATOM     94  C   UNL     1     -14.681  -1.684  -2.607  1.00  0.00     0.131 A 
ATOM     95  C   UNL     1     -14.343   1.025  -3.063  1.00  0.00     0.055 A 
ATOM     96  C   UNL     1     -15.589  -1.007  -3.414  1.00  0.00     0.041 A 
ATOM     97  F   UNL     1     -14.876  -3.001  -2.425  1.00  0.00    -0.206 F 
ATOM     98  C   UNL     1     -15.425   0.352  -3.644  1.00  0.00     0.022 A 
BRANCH  95  99
ATOM     99  S   UNL     1     -14.168   2.813  -3.380  1.00  0.00     0.124 S 
ATOM    100  O   UNL     1     -14.136   3.389  -2.040  1.00  0.00    -0.237 OA
ATOM    101  O   UNL     1     -12.924   2.882  -4.139  1.00  0.00    -0.237 OA
ATOM    102  O   UNL     1     -15.368   3.143  -4.153  1.00  0.00    -0.744 OA
ENDBRANCH  95  99
ENDBRANCH  69  92
ENDBRANCH  43  44
ENDBRANCH  36  38
ENDBRANCH  35  36
ENDBRANCH  34  35
ENDBRANCH  33  34
ENDBRANCH  32  33
ENDBRANCH  31  32
ENDBRANCH   1  31
TORSDOF 25
