REMARK SMILES N#CC1=C(N)N2C(=O)[C@@H](CC(=O)OCCOCCOCCOCCOC(=O)c3ccc(-c4c5nc(c(-c6cc(S(=O)(=O)[O-])ccc6F)c6ccc([nH]6)c(-c6cc(S(=O)(=O)[O-])ccc6F)c6nc(c(-c7cc(S(=O)(=O)[O-])ccc7F)c7ccc4[nH]7)C=C6)C=C5)cc3)SC2=C(C#N)[C@H]1c1ccc(Cl)cc1
REMARK SMILES IDX 20 1 19 2 18 3 17 4 16 5 15 6 14 7 13 8 11 9 12 10 10 11
REMARK SMILES IDX 9 12 3 13 4 14 96 15 6 16 93 17 7 18 92 19 8 20 91 21 2 22
REMARK SMILES IDX 1 23 5 24 97 27 98 28 103 29 99 30 102 31 100 32 101 33
REMARK SMILES IDX 94 34 95 35 21 36 22 37 23 38 24 39 25 40 26 41 27 42 28 43
REMARK SMILES IDX 29 44 90 45 30 46 89 47 31 48 32 49 33 50 83 51 34 52 88 53
REMARK SMILES IDX 82 54 84 55 35 56 87 57 81 58 80 59 36 61 68 62 48 63 67 64
REMARK SMILES IDX 49 65 52 66 66 67 85 68 50 69 51 70 65 72 86 73 53 74 37 75
REMARK SMILES IDX 38 76 46 77 39 78 45 79 47 80 44 81 40 82 41 83 42 84 43 85
REMARK SMILES IDX 69 86 70 87 78 88 71 89 77 90 79 91 76 92 72 93 73 94 74 95
REMARK SMILES IDX 75 96 54 97 55 98 63 99 56 100 62 101 64 102 61 103 57 104
REMARK SMILES IDX 58 105 59 106 60 107
REMARK H PARENT 5 25 5 26 84 60 52 71
REMARK Flexibility Score: inf
ROOT
ATOM      1  C   UNL     1       4.711  -4.145  -1.149  1.00  0.00     0.188 C 
ENDROOT
BRANCH   1   2
ATOM      2  O   UNL     1       5.511  -3.002  -1.430  1.00  0.00    -0.377 OA
BRANCH   2   3
ATOM      3  C   UNL     1       5.303  -2.161  -2.538  1.00  0.00     0.188 C 
BRANCH   3   4
ATOM      4  C   UNL     1       6.241  -2.358  -3.726  1.00  0.00     0.188 C 
BRANCH   4   5
ATOM      5  O   UNL     1       6.180  -3.603  -4.393  1.00  0.00    -0.376 OA
BRANCH   5   6
ATOM      6  C   UNL     1       6.684  -4.757  -3.724  1.00  0.00     0.202 C 
BRANCH   6   7
ATOM      7  C   UNL     1       7.988  -4.666  -2.904  1.00  0.00     0.261 C 
BRANCH   7   8
ATOM      8  O   UNL     1       7.945  -3.712  -1.807  1.00  0.00    -0.463 OA
BRANCH   8   9
ATOM      9  C   UNL     1       9.025  -2.906  -1.667  1.00  0.00     0.307 C 
ATOM     10  O   UNL     1      10.065  -3.052  -2.306  1.00  0.00    -0.252 OA
BRANCH   9  11
ATOM     11  C   UNL     1       8.772  -1.617  -0.894  1.00  0.00     0.147 C 
BRANCH  11  12
ATOM     12  C   UNL     1       8.262  -1.539   0.548  1.00  0.00     0.154 C 
ATOM     13  C   UNL     1       3.745   0.003   0.093  1.00  0.00     0.083 C 
ATOM     14  C   UNL     1       4.518  -0.940   0.724  1.00  0.00     0.126 C 
ATOM     15  C   UNL     1       4.411   1.333  -0.323  1.00  0.00     0.107 C 
ATOM     16  N   UNL     1       5.925  -0.855   0.663  1.00  0.00    -0.258 N 
ATOM     17  C   UNL     1       5.801   1.494   0.293  1.00  0.00     0.073 C 
ATOM     18  C   UNL     1       6.818  -1.937   0.864  1.00  0.00     0.247 C 
ATOM     19  C   UNL     1       6.500   0.388   0.591  1.00  0.00     0.099 C 
ATOM     20  O   UNL     1       6.523  -3.055   1.279  1.00  0.00    -0.273 OA
ATOM     21  S   UNL     1       8.197   0.299   0.962  1.00  0.00    -0.093 SA
BRANCH  13  22
ATOM     22  C   UNL     1       2.225   0.003   0.093  1.00  0.00     0.100 C 
ATOM     23  N   UNL     1       0.964   0.003   0.093  1.00  0.00    -0.193 NA
ENDBRANCH  13  22
BRANCH  14  24
ATOM     24  N   UNL     1       4.016  -1.981   1.459  1.00  0.00    -0.384 N 
ATOM     25  H   UNL     1       3.042  -2.099   1.543  1.00  0.00     0.158 HD
ATOM     26  H   UNL     1       4.628  -2.611   1.903  1.00  0.00     0.158 HD
ENDBRANCH  14  24
BRANCH  15  27
ATOM     27  C   UNL     1       4.434   1.568  -1.846  1.00  0.00    -0.034 A 
ATOM     28  C   UNL     1       5.636   1.640  -2.586  1.00  0.00     0.006 A 
ATOM     29  C   UNL     1       3.231   1.775  -2.542  1.00  0.00     0.006 A 
ATOM     30  C   UNL     1       5.635   1.911  -3.956  1.00  0.00     0.021 A 
ATOM     31  C   UNL     1       3.230   2.023  -3.919  1.00  0.00     0.021 A 
ATOM     32  C   UNL     1       4.430   2.095  -4.619  1.00  0.00     0.041 A 
ATOM     33  Cl  UNL     1       4.428   2.426  -6.305  1.00  0.00    -0.084 Cl
ENDBRANCH  15  27
BRANCH  17  34
ATOM     34  C   UNL     1       6.345   2.800   0.432  1.00  0.00     0.098 C 
ATOM     35  N   UNL     1       6.765   3.882   0.543  1.00  0.00    -0.193 NA
ENDBRANCH  17  34
ENDBRANCH  11  12
ENDBRANCH   9  11
ENDBRANCH   8   9
ENDBRANCH   7   8
ENDBRANCH   6   7
ENDBRANCH   5   6
ENDBRANCH   4   5
ENDBRANCH   3   4
ENDBRANCH   2   3
ENDBRANCH   1   2
BRANCH   1  36
ATOM     36  C   UNL     1       3.480  -4.529  -1.990  1.00  0.00     0.188 C 
BRANCH  36  37
ATOM     37  O   UNL     1       2.450  -3.594  -2.289  1.00  0.00    -0.376 OA
BRANCH  37  38
ATOM     38  C   UNL     1       2.144  -2.604  -1.329  1.00  0.00     0.202 C 
BRANCH  38  39
ATOM     39  C   UNL     1       1.260  -2.992  -0.146  1.00  0.00     0.261 C 
BRANCH  39  40
ATOM     40  O   UNL     1       1.888  -4.001   0.623  1.00  0.00    -0.460 OA
BRANCH  40  41
ATOM     41  C   UNL     1       1.193  -5.148   0.561  1.00  0.00     0.338 C 
ATOM     42  O   UNL     1       0.136  -5.366   0.000  1.00  0.00    -0.246 OA
BRANCH  41  43
ATOM     43  C   UNL     1       2.051  -6.186   1.091  1.00  0.00     0.060 A 
ATOM     44  C   UNL     1       2.286  -7.245   0.216  1.00  0.00     0.016 A 
ATOM     45  C   UNL     1       2.507  -6.164   2.412  1.00  0.00     0.016 A 
ATOM     46  C   UNL     1       2.878  -8.377   0.703  1.00  0.00     0.010 A 
ATOM     47  C   UNL     1       3.092  -7.316   2.909  1.00  0.00     0.010 A 
ATOM     48  C   UNL     1       3.187  -8.435   2.067  1.00  0.00    -0.014 A 
BRANCH  48  49
ATOM     49  C   UNL     1       3.317  -9.780   2.626  1.00  0.00     0.031 A 
ATOM     50  C   UNL     1       2.111 -10.380   3.285  1.00  0.00     0.074 A 
ATOM     51  C   UNL     1       4.434 -10.469   2.365  1.00  0.00     0.049 A 
ATOM     52  N   UNL     1       1.970 -11.561   3.818  1.00  0.00    -0.248 NA
ATOM     53  C   UNL     1       0.898  -9.542   3.348  1.00  0.00     0.031 C 
ATOM     54  C   UNL     1       5.585  -9.950   1.622  1.00  0.00     0.029 A 
ATOM     55  N   UNL     1       4.769 -11.752   2.669  1.00  0.00    -0.354 N 
ATOM     56  C   UNL     1       0.662 -11.603   4.289  1.00  0.00     0.074 A 
ATOM     57  C   UNL     1       0.061 -10.320   4.015  1.00  0.00     0.031 C 
ATOM     58  C   UNL     1       6.508 -10.918   1.530  1.00  0.00     0.029 A 
ATOM     59  C   UNL     1       6.033 -12.087   2.260  1.00  0.00     0.049 A 
ATOM     60  H   UNL     1       4.166 -12.375   3.134  1.00  0.00     0.167 HD
ATOM     61  C   UNL     1       0.033 -12.638   4.891  1.00  0.00     0.034 A 
ATOM     62  C   UNL     1       6.730 -13.209   2.502  1.00  0.00     0.034 A 
ATOM     63  C   UNL     1       0.686 -13.897   5.140  1.00  0.00     0.049 A 
ATOM     64  C   UNL     1       6.044 -14.302   3.279  1.00  0.00     0.074 A 
ATOM     65  C   UNL     1       0.178 -15.025   5.754  1.00  0.00     0.029 A 
ATOM     66  N   UNL     1       2.001 -14.187   4.790  1.00  0.00    -0.354 N 
ATOM     67  N   UNL     1       4.818 -14.332   3.756  1.00  0.00    -0.248 NA
ATOM     68  C   UNL     1       6.825 -15.512   3.539  1.00  0.00     0.031 C 
ATOM     69  C   UNL     1       1.210 -15.960   5.858  1.00  0.00     0.029 A 
ATOM     70  C   UNL     1       2.333 -15.462   5.212  1.00  0.00     0.049 A 
ATOM     71  H   UNL     1       2.606 -13.575   4.311  1.00  0.00     0.167 HD
ATOM     72  C   UNL     1       4.672 -15.582   4.346  1.00  0.00     0.074 A 
ATOM     73  C   UNL     1       5.929 -16.278   4.143  1.00  0.00     0.031 C 
ATOM     74  C   UNL     1       3.603 -16.115   4.994  1.00  0.00     0.034 A 
BRANCH  61  75
ATOM     75  C   UNL     1      -1.378 -12.421   5.374  1.00  0.00     0.023 A 
ATOM     76  C   UNL     1      -2.439 -12.149   4.493  1.00  0.00     0.031 A 
ATOM     77  C   UNL     1      -1.663 -12.469   6.750  1.00  0.00     0.131 A 
ATOM     78  C   UNL     1      -3.721 -11.884   5.002  1.00  0.00     0.055 A 
ATOM     79  C   UNL     1      -2.955 -12.287   7.244  1.00  0.00     0.041 A 
ATOM     80  F   UNL     1      -0.683 -12.684   7.643  1.00  0.00    -0.206 F 
ATOM     81  C   UNL     1      -3.992 -11.982   6.369  1.00  0.00     0.022 A 
BRANCH  78  82
ATOM     82  S   UNL     1      -4.998 -11.273   3.868  1.00  0.00     0.124 S 
ATOM     83  O   UNL     1      -4.379 -10.052   3.358  1.00  0.00    -0.237 OA
ATOM     84  O   UNL     1      -5.127 -12.371   2.917  1.00  0.00    -0.237 OA
ATOM     85  O   UNL     1      -6.154 -11.061   4.737  1.00  0.00    -0.744 OA
ENDBRANCH  78  82
ENDBRANCH  61  75
BRANCH  62  86
ATOM     86  C   UNL     1       8.145 -13.319   2.063  1.00  0.00     0.023 A 
ATOM     87  C   UNL     1       8.551 -14.336   1.192  1.00  0.00     0.031 A 
ATOM     88  C   UNL     1       9.124 -12.431   2.548  1.00  0.00     0.131 A 
ATOM     89  C   UNL     1       9.910 -14.488   0.888  1.00  0.00     0.055 A 
ATOM     90  C   UNL     1      10.465 -12.539   2.181  1.00  0.00     0.041 A 
ATOM     91  F   UNL     1       8.789 -11.435   3.383  1.00  0.00    -0.206 F 
ATOM     92  C   UNL     1      10.868 -13.587   1.360  1.00  0.00     0.022 A 
BRANCH  89  93
ATOM     93  S   UNL     1      10.421 -15.965  -0.027  1.00  0.00     0.124 S 
ATOM     94  O   UNL     1       9.879 -17.030   0.809  1.00  0.00    -0.237 OA
ATOM     95  O   UNL     1       9.767 -15.763  -1.315  1.00  0.00    -0.237 OA
ATOM     96  O   UNL     1      11.879 -15.864  -0.045  1.00  0.00    -0.744 OA
ENDBRANCH  89  93
ENDBRANCH  62  86
BRANCH  74  97
ATOM     97  C   UNL     1       3.744 -17.536   5.475  1.00  0.00     0.023 A 
ATOM     98  C   UNL     1       4.674 -17.892   6.465  1.00  0.00     0.031 A 
ATOM     99  C   UNL     1       2.938 -18.549   4.924  1.00  0.00     0.131 A 
ATOM    100  C   UNL     1       4.828 -19.238   6.821  1.00  0.00     0.055 A 
ATOM    101  C   UNL     1       3.036 -19.873   5.346  1.00  0.00     0.041 A 
ATOM    102  F   UNL     1       2.037 -18.264   3.971  1.00  0.00    -0.206 F 
ATOM    103  C   UNL     1       3.997 -20.227   6.288  1.00  0.00     0.022 A 
BRANCH 100 104
ATOM    104  S   UNL     1       6.215 -19.693   7.894  1.00  0.00     0.124 S 
ATOM    105  O   UNL     1       7.359 -19.199   7.134  1.00  0.00    -0.237 OA
ATOM    106  O   UNL     1       5.909 -18.972   9.125  1.00  0.00    -0.237 OA
ATOM    107  O   UNL     1       6.113 -21.148   7.986  1.00  0.00    -0.744 OA
ENDBRANCH 100 104
ENDBRANCH  74  97
ENDBRANCH  48  49
ENDBRANCH  41  43
ENDBRANCH  40  41
ENDBRANCH  39  40
ENDBRANCH  38  39
ENDBRANCH  37  38
ENDBRANCH  36  37
ENDBRANCH   1  36
TORSDOF 28
