REMARK SMILES CCCC(=O)/C(=C/NC(N)=O)C(=O)OCCOCCOCCOCCOC(=O)c1ccc(-c2c3nc(c(-c4cc(S(=O)(=O)[O-])ccc4F)c4ccc([nH]4)c(-c4cc(S(=O)(=O)[O-])ccc4F)c4nc(c(-c5cc(S(=O)(=O)[O-])ccc5F)c5ccc2[nH]5)C=C4)C=C3)cc1
REMARK SMILES IDX 20 1 19 2 18 3 17 4 16 5 15 6 14 7 12 8 13 9 6 10 7 11 4 12
REMARK SMILES IDX 5 13 3 14 2 15 1 16 8 17 9 18 10 20 11 21 21 24 22 25 23 26
REMARK SMILES IDX 24 27 25 28 26 29 27 30 28 31 29 32 30 33 91 34 31 35 90 36
REMARK SMILES IDX 32 37 33 38 34 39 84 40 35 41 89 42 83 43 85 44 36 45 88 46
REMARK SMILES IDX 82 47 81 48 37 50 69 51 49 52 68 53 50 54 53 55 67 56 86 57
REMARK SMILES IDX 51 58 52 59 66 61 87 62 54 63 38 64 39 65 47 66 40 67 46 68
REMARK SMILES IDX 48 69 45 70 41 71 42 72 43 73 44 74 70 75 71 76 79 77 72 78
REMARK SMILES IDX 78 79 80 80 77 81 73 82 74 83 75 84 76 85 55 86 56 87 64 88
REMARK SMILES IDX 57 89 63 90 65 91 62 92 58 93 59 94 60 95 61 96
REMARK H PARENT 8 19 10 22 10 23 85 49 53 60
REMARK Flexibility Score: inf
ROOT
ATOM      1  O   UNL     1      -0.955   0.528  -4.195  1.00  0.00    -0.377 OA
ENDROOT
BRANCH   1   2
ATOM      2  C   UNL     1      -1.320   1.458  -3.190  1.00  0.00     0.188 C 
BRANCH   2   3
ATOM      3  C   UNL     1      -1.442   2.908  -3.688  1.00  0.00     0.188 C 
BRANCH   3   4
ATOM      4  O   UNL     1      -1.380   3.023  -5.111  1.00  0.00    -0.376 OA
BRANCH   4   5
ATOM      5  C   UNL     1      -0.186   3.592  -5.634  1.00  0.00     0.202 C 
BRANCH   5   6
ATOM      6  C   UNL     1       1.029   2.657  -5.659  1.00  0.00     0.261 C 
BRANCH   6   7
ATOM      7  O   UNL     1       1.400   2.107  -4.384  1.00  0.00    -0.460 OA
BRANCH   7   8
ATOM      8  C   UNL     1       1.892   2.948  -3.444  1.00  0.00     0.343 C 
ATOM      9  O   UNL     1       2.133   4.133  -3.611  1.00  0.00    -0.246 OA
BRANCH   8  10
ATOM     10  C   UNL     1       2.048   2.223  -2.153  1.00  0.00     0.119 C 
ATOM     11  C   UNL     1       2.591   0.994  -2.091  1.00  0.00     0.106 C 
BRANCH  10  12
ATOM     12  C   UNL     1       1.474   2.844  -0.912  1.00  0.00     0.171 C 
ATOM     13  O   UNL     1       0.725   3.821  -1.010  1.00  0.00    -0.294 OA
BRANCH  12  14
ATOM     14  C   UNL     1       1.696   2.231   0.466  1.00  0.00     0.081 C 
BRANCH  14  15
ATOM     15  C   UNL     1       0.556   1.314   0.923  1.00  0.00     0.005 C 
ATOM     16  C   UNL     1       0.675  -0.127   0.447  1.00  0.00     0.004 C 
ENDBRANCH  14  15
ENDBRANCH  12  14
ENDBRANCH  10  12
BRANCH  11  17
ATOM     17  N   UNL     1       2.905   0.185  -3.159  1.00  0.00    -0.314 N 
ATOM     18  C   UNL     1       3.358  -1.100  -3.000  1.00  0.00     0.316 C 
ATOM     19  H   UNL     1       2.800   0.541  -4.071  1.00  0.00     0.171 HD
ATOM     20  N   UNL     1       3.402  -1.803  -4.156  1.00  0.00    -0.351 N 
ATOM     21  O   UNL     1       3.677  -1.605  -1.930  1.00  0.00    -0.249 OA
ATOM     22  H   UNL     1       3.140  -1.375  -5.003  1.00  0.00     0.161 HD
ATOM     23  H   UNL     1       3.696  -2.743  -4.150  1.00  0.00     0.161 HD
ENDBRANCH  11  17
ENDBRANCH   8  10
ENDBRANCH   7   8
ENDBRANCH   6   7
ENDBRANCH   5   6
ENDBRANCH   4   5
ENDBRANCH   3   4
ENDBRANCH   2   3
ENDBRANCH   1   2
BRANCH   1  24
ATOM     24  C   UNL     1      -1.951   0.115  -5.130  1.00  0.00     0.188 C 
BRANCH  24  25
ATOM     25  C   UNL     1      -3.315   0.832  -5.247  1.00  0.00     0.188 C 
BRANCH  25  26
ATOM     26  O   UNL     1      -3.930   1.129  -3.995  1.00  0.00    -0.376 OA
BRANCH  26  27
ATOM     27  C   UNL     1      -5.060   0.341  -3.643  1.00  0.00     0.202 C 
BRANCH  27  28
ATOM     28  C   UNL     1      -4.699  -1.060  -3.138  1.00  0.00     0.261 C 
BRANCH  28  29
ATOM     29  O   UNL     1      -4.111  -1.926  -4.121  1.00  0.00    -0.460 OA
BRANCH  29  30
ATOM     30  C   UNL     1      -4.833  -2.193  -5.232  1.00  0.00     0.338 C 
ATOM     31  O   UNL     1      -5.967  -1.825  -5.481  1.00  0.00    -0.246 OA
BRANCH  30  32
ATOM     32  C   UNL     1      -3.927  -2.859  -6.187  1.00  0.00     0.060 A 
ATOM     33  C   UNL     1      -3.695  -2.270  -7.437  1.00  0.00     0.016 A 
ATOM     34  C   UNL     1      -3.278  -4.041  -5.824  1.00  0.00     0.016 A 
ATOM     35  C   UNL     1      -2.807  -2.871  -8.332  1.00  0.00     0.010 A 
ATOM     36  C   UNL     1      -2.408  -4.649  -6.728  1.00  0.00     0.010 A 
ATOM     37  C   UNL     1      -2.177  -4.075  -7.990  1.00  0.00    -0.014 A 
BRANCH  37  38
ATOM     38  C   UNL     1      -1.375  -4.825  -8.984  1.00  0.00     0.031 A 
ATOM     39  C   UNL     1      -2.042  -5.924  -9.761  1.00  0.00     0.074 A 
ATOM     40  C   UNL     1      -0.066  -4.568  -9.151  1.00  0.00     0.049 A 
ATOM     41  N   UNL     1      -1.518  -6.799 -10.578  1.00  0.00    -0.248 NA
ATOM     42  C   UNL     1      -3.496  -6.054  -9.583  1.00  0.00     0.031 C 
ATOM     43  C   UNL     1       0.677  -3.500  -8.483  1.00  0.00     0.029 A 
ATOM     44  N   UNL     1       0.877  -5.205  -9.919  1.00  0.00    -0.354 N 
ATOM     45  C   UNL     1      -2.577  -7.588 -11.013  1.00  0.00     0.074 A 
ATOM     46  C   UNL     1      -3.766  -7.103 -10.345  1.00  0.00     0.031 C 
ATOM     47  C   UNL     1       1.969  -3.574  -8.851  1.00  0.00     0.029 A 
ATOM     48  C   UNL     1       2.152  -4.721  -9.741  1.00  0.00     0.049 A 
ATOM     49  H   UNL     1       0.661  -5.939 -10.538  1.00  0.00     0.167 HD
ATOM     50  C   UNL     1      -2.556  -8.620 -11.891  1.00  0.00     0.034 A 
ATOM     51  C   UNL     1       3.332  -5.178 -10.207  1.00  0.00     0.034 A 
ATOM     52  C   UNL     1      -1.358  -9.108 -12.526  1.00  0.00     0.049 A 
ATOM     53  C   UNL     1       3.346  -6.406 -11.089  1.00  0.00     0.074 A 
ATOM     54  C   UNL     1      -1.227 -10.127 -13.453  1.00  0.00     0.029 A 
ATOM     55  N   UNL     1      -0.078  -8.629 -12.280  1.00  0.00    -0.354 N 
ATOM     56  N   UNL     1       2.336  -7.130 -11.514  1.00  0.00    -0.248 NA
ATOM     57  C   UNL     1       4.659  -6.880 -11.547  1.00  0.00     0.031 C 
ATOM     58  C   UNL     1       0.136 -10.315 -13.708  1.00  0.00     0.029 A 
ATOM     59  C   UNL     1       0.853  -9.363 -12.998  1.00  0.00     0.049 A 
ATOM     60  H   UNL     1       0.138  -7.877 -11.681  1.00  0.00     0.167 HD
ATOM     61  C   UNL     1       2.893  -8.132 -12.306  1.00  0.00     0.074 A 
ATOM     62  C   UNL     1       4.324  -7.909 -12.312  1.00  0.00     0.031 C 
ATOM     63  C   UNL     1       2.279  -9.143 -12.973  1.00  0.00     0.034 A 
BRANCH  50  64
ATOM     64  C   UNL     1      -3.863  -9.320 -12.162  1.00  0.00     0.023 A 
ATOM     65  C   UNL     1      -4.933  -8.668 -12.800  1.00  0.00     0.031 A 
ATOM     66  C   UNL     1      -4.053 -10.650 -11.749  1.00  0.00     0.131 A 
ATOM     67  C   UNL     1      -6.164  -9.324 -12.947  1.00  0.00     0.055 A 
ATOM     68  C   UNL     1      -5.257 -11.323 -11.964  1.00  0.00     0.041 A 
ATOM     69  F   UNL     1      -3.074 -11.314 -11.114  1.00  0.00    -0.206 F 
ATOM     70  C   UNL     1      -6.326 -10.655 -12.554  1.00  0.00     0.022 A 
BRANCH  67  71
ATOM     71  S   UNL     1      -7.589  -8.370 -13.536  1.00  0.00     0.124 S 
ATOM     72  O   UNL     1      -7.669  -7.309 -12.534  1.00  0.00    -0.237 OA
ATOM     73  O   UNL     1      -7.165  -7.959 -14.869  1.00  0.00    -0.237 OA
ATOM     74  O   UNL     1      -8.686  -9.335 -13.499  1.00  0.00    -0.744 OA
ENDBRANCH  67  71
ENDBRANCH  50  64
BRANCH  51  75
ATOM     75  C   UNL     1       4.611  -4.527  -9.801  1.00  0.00     0.023 A 
ATOM     76  C   UNL     1       5.446  -3.915 -10.749  1.00  0.00     0.031 A 
ATOM     77  C   UNL     1       5.049  -4.564  -8.464  1.00  0.00     0.131 A 
ATOM     78  C   UNL     1       6.694  -3.406 -10.357  1.00  0.00     0.055 A 
ATOM     79  C   UNL     1       6.269  -4.013  -8.070  1.00  0.00     0.041 A 
ATOM     80  F   UNL     1       4.288  -5.133  -7.516  1.00  0.00    -0.206 F 
ATOM     81  C   UNL     1       7.106  -3.440  -9.022  1.00  0.00     0.022 A 
BRANCH  78  82
ATOM     82  S   UNL     1       7.811  -2.765 -11.634  1.00  0.00     0.124 S 
ATOM     83  O   UNL     1       7.976  -3.930 -12.495  1.00  0.00    -0.237 OA
ATOM     84  O   UNL     1       7.032  -1.662 -12.187  1.00  0.00    -0.237 OA
ATOM     85  O   UNL     1       8.998  -2.370 -10.880  1.00  0.00    -0.744 OA
ENDBRANCH  78  82
ENDBRANCH  51  75
BRANCH  63  86
ATOM     86  C   UNL     1       3.156 -10.067 -13.783  1.00  0.00     0.023 A 
ATOM     87  C   UNL     1       4.055 -10.956 -13.168  1.00  0.00     0.031 A 
ATOM     88  C   UNL     1       3.086 -10.062 -15.188  1.00  0.00     0.131 A 
ATOM     89  C   UNL     1       4.880 -11.773 -13.958  1.00  0.00     0.055 A 
ATOM     90  C   UNL     1       3.869 -10.916 -15.966  1.00  0.00     0.041 A 
ATOM     91  F   UNL     1       2.246  -9.231 -15.826  1.00  0.00    -0.206 F 
ATOM     92  C   UNL     1       4.779 -11.771 -15.352  1.00  0.00     0.022 A 
BRANCH  89  93
ATOM     93  S   UNL     1       6.138 -12.792 -13.141  1.00  0.00     0.124 S 
ATOM     94  O   UNL     1       6.964 -11.784 -12.483  1.00  0.00    -0.237 OA
ATOM     95  O   UNL     1       5.336 -13.633 -12.259  1.00  0.00    -0.237 OA
ATOM     96  O   UNL     1       6.782 -13.495 -14.249  1.00  0.00    -0.744 OA
ENDBRANCH  89  93
ENDBRANCH  63  86
ENDBRANCH  37  38
ENDBRANCH  30  32
ENDBRANCH  29  30
ENDBRANCH  28  29
ENDBRANCH  27  28
ENDBRANCH  26  27
ENDBRANCH  25  26
ENDBRANCH  24  25
ENDBRANCH   1  24
TORSDOF 27
