REMARK SMILES O=C(OCCOCCOCCOCCOC(=O)c1ccc(-c2c3nc(c(-c4cc(S(=O)(=O)[O-])ccc4F)c4ccc([nH]4)c(-c4cc(S(=O)(=O)[O-])ccc4F)c4nc(c(-c5cc(S(=O)(=O)[O-])ccc5F)c5ccc2[nH]5)C=C4)C=C3)cc1)C1=Cc2cc(S(F)(F)(F)(F)F)ccc2O[C@@H]1C(F)(F)F
REMARK SMILES IDX 10 1 9 2 8 3 7 4 6 5 5 6 4 7 3 8 2 9 1 10 81 11 82 12 96 13
REMARK SMILES IDX 83 14 95 15 84 16 94 17 85 18 93 19 92 20 97 21 98 22 99 23
REMARK SMILES IDX 100 24 86 25 87 26 88 27 89 28 90 29 91 30 11 31 12 32 13 33
REMARK SMILES IDX 14 34 15 35 16 36 17 37 18 38 19 39 80 40 20 41 79 42 21 43
REMARK SMILES IDX 22 44 23 45 73 46 24 47 78 48 72 49 74 50 25 51 77 52 71 53
REMARK SMILES IDX 70 54 26 56 58 57 38 58 57 59 39 60 42 61 56 62 75 63 40 64
REMARK SMILES IDX 41 65 55 67 76 68 43 69 27 70 28 71 36 72 29 73 35 74 37 75
REMARK SMILES IDX 34 76 30 77 31 78 32 79 33 80 59 81 60 82 68 83 61 84 67 85
REMARK SMILES IDX 69 86 66 87 62 88 63 89 64 90 65 91 44 92 45 93 53 94 46 95
REMARK SMILES IDX 52 96 54 97 51 98 47 99 48 100 49 101 50 102
REMARK H PARENT 74 55 42 66
REMARK Flexibility Score: inf
ROOT
ATOM      1  C   UNL     1       4.374  -1.088   2.470  1.00  0.00     0.188 C 
ENDROOT
BRANCH   1   2
ATOM      2  O   UNL     1       2.954  -1.088   2.470  1.00  0.00    -0.377 OA
BRANCH   2   3
ATOM      3  C   UNL     1       2.481  -1.971   1.464  1.00  0.00     0.188 C 
BRANCH   3   4
ATOM      4  C   UNL     1       2.987  -1.510   0.107  1.00  0.00     0.188 C 
BRANCH   4   5
ATOM      5  O   UNL     1       4.407  -1.510   0.107  1.00  0.00    -0.376 OA
BRANCH   5   6
ATOM      6  C   UNL     1       4.881  -0.627   1.113  1.00  0.00     0.202 C 
BRANCH   6   7
ATOM      7  C   UNL     1       4.374   0.778   0.834  1.00  0.00     0.261 C 
BRANCH   7   8
ATOM      8  O   UNL     1       2.954   0.778   0.834  1.00  0.00    -0.460 OA
BRANCH   8   9
ATOM      9  C   UNL     1       2.244  -0.032  -0.091  1.00  0.00     0.338 C 
ATOM     10  O   UNL     1       0.973  -0.032  -0.091  1.00  0.00    -0.246 OA
BRANCH   9  11
ATOM     11  C   UNL     1       3.004  -0.900  -1.081  1.00  0.00     0.087 C 
ATOM     12  C   UNL     1       4.364  -0.900  -1.081  1.00  0.00     0.027 C 
ATOM     13  C   UNL     1       2.244  -1.768  -2.070  1.00  0.00     0.316 C 
ATOM     14  C   UNL     1       5.124  -0.032  -0.091  1.00  0.00     0.019 A 
ATOM     15  O   UNL     1       3.424  -0.600   1.470  1.00  0.00    -0.475 OA
ATOM     16  C   UNL     1       6.285   0.634  -0.447  1.00  0.00     0.036 A 
ATOM     17  C   UNL     1       4.696  -0.046   1.166  1.00  0.00     0.128 A 
ATOM     18  C   UNL     1       7.086   1.019   0.654  1.00  0.00     0.107 A 
ATOM     19  C   UNL     1       5.473   0.470   2.175  1.00  0.00     0.048 A 
ATOM     20  C   UNL     1       6.660   1.091   1.902  1.00  0.00     0.028 A 
BRANCH  13  21
ATOM     21  C   UNL     1       2.611  -3.227  -1.852  1.00  0.00     0.430 C 
ATOM     22  F   UNL     1       2.290  -3.583  -0.611  1.00  0.00    -0.167 F 
ATOM     23  F   UNL     1       1.946  -3.986  -2.718  1.00  0.00    -0.167 F 
ATOM     24  F   UNL     1       3.919  -3.387  -2.034  1.00  0.00    -0.167 F 
ENDBRANCH  13  21
BRANCH  18  25
ATOM     25  S   UNL     1       8.816   1.442   0.329  1.00  0.00     0.310 S 
ATOM     26  F   UNL     1       9.170   1.458   1.875  1.00  0.00    -0.094 F 
ATOM     27  F   UNL     1       8.437   2.965   0.471  1.00  0.00    -0.094 F 
ATOM     28  F   UNL     1      10.300   1.809   0.048  1.00  0.00    -0.094 F 
ATOM     29  F   UNL     1       9.203  -0.089   0.330  1.00  0.00    -0.094 F 
ATOM     30  F   UNL     1       7.336   1.053   0.726  1.00  0.00    -0.094 F 
ENDBRANCH  18  25
ENDBRANCH   9  11
ENDBRANCH   8   9
ENDBRANCH   7   8
ENDBRANCH   6   7
ENDBRANCH   5   6
ENDBRANCH   4   5
ENDBRANCH   3   4
ENDBRANCH   2   3
ENDBRANCH   1   2
BRANCH   1  31
ATOM     31  C   UNL     1       4.881  -2.494   2.750  1.00  0.00     0.188 C 
BRANCH  31  32
ATOM     32  O   UNL     1       4.407  -3.376   1.743  1.00  0.00    -0.376 OA
BRANCH  32  33
ATOM     33  C   UNL     1       2.987  -3.376   1.743  1.00  0.00     0.202 C 
BRANCH  33  34
ATOM     34  C   UNL     1       2.481  -3.837   3.100  1.00  0.00     0.261 C 
BRANCH  34  35
ATOM     35  O   UNL     1       2.954  -2.955   4.106  1.00  0.00    -0.460 OA
BRANCH  35  36
ATOM     36  C   UNL     1       4.350  -2.784   4.302  1.00  0.00     0.338 C 
ATOM     37  O   UNL     1       5.176  -3.421   3.575  1.00  0.00    -0.246 OA
BRANCH  36  38
ATOM     38  C   UNL     1       4.857  -1.839   5.379  1.00  0.00     0.060 A 
ATOM     39  C   UNL     1       5.993  -1.075   5.173  1.00  0.00     0.016 A 
ATOM     40  C   UNL     1       4.275  -1.902   6.572  1.00  0.00     0.016 A 
ATOM     41  C   UNL     1       6.614  -0.637   6.367  1.00  0.00     0.010 A 
ATOM     42  C   UNL     1       4.872  -1.334   7.671  1.00  0.00     0.010 A 
ATOM     43  C   UNL     1       6.028  -0.614   7.551  1.00  0.00    -0.014 A 
BRANCH  43  44
ATOM     44  C   UNL     1       6.608   0.170   8.716  1.00  0.00     0.031 A 
ATOM     45  C   UNL     1       6.936  -0.587   9.843  1.00  0.00     0.074 A 
ATOM     46  C   UNL     1       6.916   1.512   8.569  1.00  0.00     0.049 A 
ATOM     47  N   UNL     1       7.606  -0.187  10.925  1.00  0.00    -0.248 NA
ATOM     48  C   UNL     1       6.579  -2.003  10.016  1.00  0.00     0.031 C 
ATOM     49  C   UNL     1       6.597   2.280   7.433  1.00  0.00     0.029 A 
ATOM     50  N   UNL     1       7.567   2.333   9.463  1.00  0.00    -0.354 N 
ATOM     51  C   UNL     1       7.741  -1.200  11.783  1.00  0.00     0.074 A 
ATOM     52  C   UNL     1       7.077  -2.381  11.214  1.00  0.00     0.031 C 
ATOM     53  C   UNL     1       7.038   3.548   7.643  1.00  0.00     0.029 A 
ATOM     54  C   UNL     1       7.642   3.594   8.914  1.00  0.00     0.049 A 
ATOM     55  H   UNL     1       7.918   2.064  10.343  1.00  0.00     0.167 HD
ATOM     56  C   UNL     1       8.393  -1.186  13.017  1.00  0.00     0.034 A 
ATOM     57  C   UNL     1       8.198   4.732   9.476  1.00  0.00     0.034 A 
ATOM     58  C   UNL     1       8.988  -0.058  13.559  1.00  0.00     0.049 A 
ATOM     59  C   UNL     1       8.800   4.761  10.736  1.00  0.00     0.074 A 
ATOM     60  C   UNL     1       9.656  -0.029  14.798  1.00  0.00     0.029 A 
ATOM     61  N   UNL     1       9.041   1.209  13.021  1.00  0.00    -0.354 N 
ATOM     62  N   UNL     1       8.969   3.739  11.576  1.00  0.00    -0.248 NA
ATOM     63  C   UNL     1       9.364   5.968  11.354  1.00  0.00     0.031 C 
ATOM     64  C   UNL     1      10.098   1.240  15.009  1.00  0.00     0.029 A 
ATOM     65  C   UNL     1       9.712   2.024  13.905  1.00  0.00     0.049 A 
ATOM     66  H   UNL     1       8.664   1.484  12.154  1.00  0.00     0.167 HD
ATOM     67  C   UNL     1       9.604   4.149  12.677  1.00  0.00     0.074 A 
ATOM     68  C   UNL     1       9.860   5.590  12.553  1.00  0.00     0.031 C 
ATOM     69  C   UNL     1       9.982   3.378  13.777  1.00  0.00     0.034 A 
BRANCH  56  70
ATOM     70  C   UNL     1       8.454  -2.481  13.811  1.00  0.00     0.023 A 
ATOM     71  C   UNL     1       9.050  -3.614  13.281  1.00  0.00     0.031 A 
ATOM     72  C   UNL     1       7.903  -2.493  15.019  1.00  0.00     0.131 A 
ATOM     73  C   UNL     1       8.756  -4.802  13.993  1.00  0.00     0.055 A 
ATOM     74  C   UNL     1       7.770  -3.670  15.715  1.00  0.00     0.041 A 
ATOM     75  F   UNL     1       7.475  -1.355  15.559  1.00  0.00    -0.206 F 
ATOM     76  C   UNL     1       8.283  -4.839  15.225  1.00  0.00     0.022 A 
BRANCH  73  77
ATOM     77  S   UNL     1       9.048  -6.379  13.155  1.00  0.00     0.124 S 
ATOM     78  O   UNL     1       8.195  -6.449  11.887  1.00  0.00    -0.237 OA
ATOM     79  O   UNL     1      10.528  -6.491  12.781  1.00  0.00    -0.237 OA
ATOM     80  O   UNL     1       8.625  -7.666  14.199  1.00  0.00    -0.744 OA
ENDBRANCH  73  77
ENDBRANCH  56  70
BRANCH  57  81
ATOM     81  C   UNL     1       8.152   6.023   8.674  1.00  0.00     0.023 A 
ATOM     82  C   UNL     1       9.353   6.624   8.338  1.00  0.00     0.031 A 
ATOM     83  C   UNL     1       6.990   6.550   8.304  1.00  0.00     0.131 A 
ATOM     84  C   UNL     1       9.216   7.946   7.851  1.00  0.00     0.055 A 
ATOM     85  C   UNL     1       6.942   7.787   7.709  1.00  0.00     0.041 A 
ATOM     86  F   UNL     1       5.864   5.873   8.511  1.00  0.00    -0.206 F 
ATOM     87  C   UNL     1       8.089   8.465   7.402  1.00  0.00     0.022 A 
BRANCH  84  88
ATOM     88  S   UNL     1      10.690   8.997   7.843  1.00  0.00     0.124 S 
ATOM     89  O   UNL     1      11.216   9.148   9.272  1.00  0.00    -0.237 OA
ATOM     90  O   UNL     1      11.769   8.356   6.967  1.00  0.00    -0.237 OA
ATOM     91  O   UNL     1      10.288  10.537   7.217  1.00  0.00    -0.744 OA
ENDBRANCH  84  88
ENDBRANCH  57  81
BRANCH  69  92
ATOM     92  C   UNL     1      10.737   4.065  14.904  1.00  0.00     0.023 A 
ATOM     93  C   UNL     1      10.226   5.194  15.522  1.00  0.00     0.031 A 
ATOM     94  C   UNL     1      11.951   3.611  15.193  1.00  0.00     0.131 A 
ATOM     95  C   UNL     1      11.193   5.949  16.227  1.00  0.00     0.055 A 
ATOM     96  C   UNL     1      12.795   4.336  15.999  1.00  0.00     0.041 A 
ATOM     97  F   UNL     1      12.354   2.444  14.697  1.00  0.00    -0.206 F 
ATOM     98  C   UNL     1      12.376   5.492  16.596  1.00  0.00     0.022 A 
BRANCH  95  99
ATOM     99  S   UNL     1      10.780   7.659  16.653  1.00  0.00     0.124 S 
ATOM    100  O   UNL     1      10.507   8.452  15.372  1.00  0.00    -0.237 OA
ATOM    101  O   UNL     1       9.532   7.677  17.539  1.00  0.00    -0.237 OA
ATOM    102  O   UNL     1      12.088   8.368  17.495  1.00  0.00    -0.744 OA
ENDBRANCH  95  99
ENDBRANCH  69  92
ENDBRANCH  43  44
ENDBRANCH  36  38
ENDBRANCH  35  36
ENDBRANCH  34  35
ENDBRANCH  33  34
ENDBRANCH  32  33
ENDBRANCH  31  32
ENDBRANCH   1  31
TORSDOF 25
