REMARK SMILES C[C@@H]1CN(S(=O)(=O)[C@@H](C)C(=O)OCCOCCOCCOCCOC(=O)c2ccc(-c3c4nc(c(-c5cc(S(=O)(=O)[O-])ccc5F)c5ccc([nH]5)c(-c5cc(S(=O)(=O)[O-])ccc5F)c5nc(c(-c6cc(S(=O)(=O)[O-])ccc6F)c6ccc3[nH]6)C=C5)C=C4)cc2)CC[C@@H]1[NH3+]
REMARK SMILES IDX 18 1 17 2 16 3 15 4 14 5 13 6 12 7 10 8 11 9 8 10 9 11 5 12
REMARK SMILES IDX 6 13 7 14 4 15 1 16 2 17 3 18 92 19 91 20 90 21 93 22 19 26
REMARK SMILES IDX 20 27 21 28 22 29 23 30 24 31 25 32 26 33 27 34 28 35 89 36
REMARK SMILES IDX 29 37 88 38 30 39 31 40 32 41 82 42 33 43 87 44 81 45 83 46
REMARK SMILES IDX 34 47 86 48 80 49 79 50 35 52 67 53 47 54 66 55 48 56 51 57
REMARK SMILES IDX 65 58 84 59 49 60 50 61 64 63 85 64 52 65 36 66 37 67 45 68
REMARK SMILES IDX 38 69 44 70 46 71 43 72 39 73 40 74 41 75 42 76 68 77 69 78
REMARK SMILES IDX 77 79 70 80 76 81 78 82 75 83 71 84 72 85 73 86 74 87 53 88
REMARK SMILES IDX 54 89 62 90 55 91 61 92 63 93 60 94 56 95 57 96 58 97 59 98
REMARK H PARENT 93 23 93 24 93 25 83 51 51 62
REMARK Flexibility Score: inf
ROOT
ATOM      1  O   UNL     1       1.749   0.401  -4.523  1.00  0.00    -0.377 OA
ENDROOT
BRANCH   1   2
ATOM      2  C   UNL     1       2.820   1.036  -5.191  1.00  0.00     0.188 C 
BRANCH   2   3
ATOM      3  C   UNL     1       3.668   0.113  -6.067  1.00  0.00     0.188 C 
BRANCH   3   4
ATOM      4  O   UNL     1       3.423  -1.286  -6.095  1.00  0.00    -0.376 OA
BRANCH   4   5
ATOM      5  C   UNL     1       2.869  -1.959  -4.973  1.00  0.00     0.202 C 
BRANCH   5   6
ATOM      6  C   UNL     1       3.591  -1.903  -3.610  1.00  0.00     0.261 C 
BRANCH   6   7
ATOM      7  O   UNL     1       3.656  -0.630  -2.912  1.00  0.00    -0.462 OA
BRANCH   7   8
ATOM      8  C   UNL     1       4.830   0.030  -2.886  1.00  0.00     0.325 C 
ATOM      9  O   UNL     1       5.812  -0.368  -3.518  1.00  0.00    -0.251 OA
BRANCH   8  10
ATOM     10  C   UNL     1       4.978   1.178  -1.926  1.00  0.00     0.230 C 
ATOM     11  C   UNL     1       5.567   0.707  -0.609  1.00  0.00     0.039 C 
BRANCH  10  12
ATOM     12  S   UNL     1       3.809   2.523  -1.744  1.00  0.00     0.227 S 
ATOM     13  O   UNL     1       3.406   3.030  -3.040  1.00  0.00    -0.211 OA
ATOM     14  O   UNL     1       4.470   3.469  -0.855  1.00  0.00    -0.211 OA
BRANCH  12  15
ATOM     15  N   UNL     1       2.386   2.070  -0.909  1.00  0.00    -0.200 NA
ATOM     16  C   UNL     1       0.801  -0.121   0.481  1.00  0.00     0.015 C 
ATOM     17  C   UNL     1       0.318   0.661  -0.752  1.00  0.00     0.059 C 
ATOM     18  C   UNL     1       1.502   1.106  -1.616  1.00  0.00     0.111 C 
ATOM     19  C   UNL     1      -0.537   1.898  -0.443  1.00  0.00     0.186 C 
ATOM     20  C   UNL     1       0.311   2.974   0.240  1.00  0.00     0.082 C 
ATOM     21  C   UNL     1       1.565   3.305  -0.571  1.00  0.00     0.108 C 
BRANCH  19  22
ATOM     22  N   UNL     1      -1.726   1.605   0.357  1.00  0.00    -0.355 N 
ATOM     23  H   UNL     1      -1.442   1.255   1.272  1.00  0.00     0.344 HD
ATOM     24  H   UNL     1      -2.289   0.899  -0.117  1.00  0.00     0.344 HD
ATOM     25  H   UNL     1      -2.275   2.456   0.473  1.00  0.00     0.344 HD
ENDBRANCH  19  22
ENDBRANCH  12  15
ENDBRANCH  10  12
ENDBRANCH   8  10
ENDBRANCH   7   8
ENDBRANCH   6   7
ENDBRANCH   5   6
ENDBRANCH   4   5
ENDBRANCH   3   4
ENDBRANCH   2   3
ENDBRANCH   1   2
BRANCH   1  26
ATOM     26  C   UNL     1       0.442   0.577  -5.041  1.00  0.00     0.188 C 
BRANCH  26  27
ATOM     27  C   UNL     1       0.297   0.552  -6.563  1.00  0.00     0.188 C 
BRANCH  27  28
ATOM     28  O   UNL     1       1.084   1.554  -7.197  1.00  0.00    -0.376 OA
BRANCH  28  29
ATOM     29  C   UNL     1       0.478   2.811  -7.473  1.00  0.00     0.202 C 
BRANCH  29  30
ATOM     30  C   UNL     1       0.033   3.705  -6.298  1.00  0.00     0.261 C 
BRANCH  30  31
ATOM     31  O   UNL     1      -0.969   3.201  -5.392  1.00  0.00    -0.460 OA
BRANCH  31  32
ATOM     32  C   UNL     1      -2.119   2.711  -5.893  1.00  0.00     0.338 C 
ATOM     33  O   UNL     1      -2.452   2.690  -7.069  1.00  0.00    -0.246 OA
BRANCH  32  34
ATOM     34  C   UNL     1      -2.841   2.016  -4.803  1.00  0.00     0.060 A 
ATOM     35  C   UNL     1      -3.119   0.650  -4.936  1.00  0.00     0.016 A 
ATOM     36  C   UNL     1      -3.279   2.713  -3.674  1.00  0.00     0.016 A 
ATOM     37  C   UNL     1      -3.883  -0.010  -3.969  1.00  0.00     0.010 A 
ATOM     38  C   UNL     1      -4.060   2.054  -2.715  1.00  0.00     0.010 A 
ATOM     39  C   UNL     1      -4.403   0.699  -2.878  1.00  0.00    -0.014 A 
BRANCH  39  40
ATOM     40  C   UNL     1      -5.472   0.086  -2.042  1.00  0.00     0.031 A 
ATOM     41  C   UNL     1      -6.903   0.488  -2.305  1.00  0.00     0.074 A 
ATOM     42  C   UNL     1      -5.199  -0.842  -1.105  1.00  0.00     0.049 A 
ATOM     43  N   UNL     1      -7.997   0.139  -1.679  1.00  0.00    -0.248 NA
ATOM     44  C   UNL     1      -7.123   1.411  -3.430  1.00  0.00     0.031 C 
ATOM     45  C   UNL     1      -3.872  -1.377  -0.804  1.00  0.00     0.029 A 
ATOM     46  N   UNL     1      -6.031  -1.502  -0.233  1.00  0.00    -0.354 N 
ATOM     47  C   UNL     1      -9.035   0.797  -2.333  1.00  0.00     0.074 A 
ATOM     48  C   UNL     1      -8.431   1.604  -3.372  1.00  0.00     0.031 C 
ATOM     49  C   UNL     1      -3.981  -2.278   0.190  1.00  0.00     0.029 A 
ATOM     50  C   UNL     1      -5.375  -2.356   0.624  1.00  0.00     0.049 A 
ATOM     51  H   UNL     1      -7.008  -1.376  -0.223  1.00  0.00     0.167 HD
ATOM     52  C   UNL     1     -10.370   0.725  -2.104  1.00  0.00     0.034 A 
ATOM     53  C   UNL     1      -5.843  -3.094   1.653  1.00  0.00     0.034 A 
ATOM     54  C   UNL     1     -10.964  -0.073  -1.060  1.00  0.00     0.049 A 
ATOM     55  C   UNL     1      -7.325  -3.062   1.971  1.00  0.00     0.074 A 
ATOM     56  C   UNL     1     -12.303  -0.204  -0.732  1.00  0.00     0.029 A 
ATOM     57  N   UNL     1     -10.259  -0.872  -0.170  1.00  0.00    -0.354 N 
ATOM     58  N   UNL     1      -8.292  -2.422   1.353  1.00  0.00    -0.248 NA
ATOM     59  C   UNL     1      -7.776  -3.862   3.118  1.00  0.00     0.031 C 
ATOM     60  C   UNL     1     -12.400  -1.019   0.401  1.00  0.00     0.029 A 
ATOM     61  C   UNL     1     -11.132  -1.474   0.723  1.00  0.00     0.049 A 
ATOM     62  H   UNL     1      -9.282  -0.994  -0.173  1.00  0.00     0.167 HD
ATOM     63  C   UNL     1      -9.468  -2.786   2.009  1.00  0.00     0.074 A 
ATOM     64  C   UNL     1      -9.090  -3.707   3.059  1.00  0.00     0.031 C 
ATOM     65  C   UNL     1     -10.747  -2.399   1.763  1.00  0.00     0.034 A 
BRANCH  52  66
ATOM     66  C   UNL     1     -11.272   1.568  -2.973  1.00  0.00     0.023 A 
ATOM     67  C   UNL     1     -11.377   1.350  -4.358  1.00  0.00     0.031 A 
ATOM     68  C   UNL     1     -12.025   2.615  -2.413  1.00  0.00     0.131 A 
ATOM     69  C   UNL     1     -12.163   2.206  -5.144  1.00  0.00     0.055 A 
ATOM     70  C   UNL     1     -12.871   3.410  -3.188  1.00  0.00     0.041 A 
ATOM     71  F   UNL     1     -11.946   2.888  -1.101  1.00  0.00    -0.206 F 
ATOM     72  C   UNL     1     -12.934   3.217  -4.565  1.00  0.00     0.022 A 
BRANCH  69  73
ATOM     73  S   UNL     1     -12.053   2.069  -6.949  1.00  0.00     0.124 S 
ATOM     74  O   UNL     1     -10.630   2.310  -7.175  1.00  0.00    -0.237 OA
ATOM     75  O   UNL     1     -12.517   0.708  -7.192  1.00  0.00    -0.237 OA
ATOM     76  O   UNL     1     -12.940   3.127  -7.428  1.00  0.00    -0.744 OA
ENDBRANCH  69  73
ENDBRANCH  52  66
BRANCH  53  77
ATOM     77  C   UNL     1      -4.917  -3.905   2.501  1.00  0.00     0.023 A 
ATOM     78  C   UNL     1      -5.079  -5.295   2.628  1.00  0.00     0.031 A 
ATOM     79  C   UNL     1      -3.920  -3.289   3.279  1.00  0.00     0.131 A 
ATOM     80  C   UNL     1      -4.309  -6.009   3.560  1.00  0.00     0.055 A 
ATOM     81  C   UNL     1      -3.109  -4.015   4.154  1.00  0.00     0.041 A 
ATOM     82  F   UNL     1      -3.721  -1.963   3.203  1.00  0.00    -0.206 F 
ATOM     83  C   UNL     1      -3.315  -5.381   4.313  1.00  0.00     0.022 A 
BRANCH  80  84
ATOM     84  S   UNL     1      -4.714  -7.751   3.867  1.00  0.00     0.124 S 
ATOM     85  O   UNL     1      -6.117  -7.662   4.255  1.00  0.00    -0.237 OA
ATOM     86  O   UNL     1      -4.444  -8.356   2.567  1.00  0.00    -0.237 OA
ATOM     87  O   UNL     1      -3.792  -8.132   4.934  1.00  0.00    -0.744 OA
ENDBRANCH  80  84
ENDBRANCH  53  77
BRANCH  65  88
ATOM     88  C   UNL     1     -11.839  -3.031   2.596  1.00  0.00     0.023 A 
ATOM     89  C   UNL     1     -11.937  -2.824   3.983  1.00  0.00     0.031 A 
ATOM     90  C   UNL     1     -12.794  -3.866   1.987  1.00  0.00     0.131 A 
ATOM     91  C   UNL     1     -12.924  -3.494   4.723  1.00  0.00     0.055 A 
ATOM     92  C   UNL     1     -13.818  -4.473   2.717  1.00  0.00     0.041 A 
ATOM     93  F   UNL     1     -12.751  -4.104   0.666  1.00  0.00    -0.206 F 
ATOM     94  C   UNL     1     -13.877  -4.301   4.097  1.00  0.00     0.022 A 
BRANCH  91  95
ATOM     95  S   UNL     1     -12.878  -3.388   6.534  1.00  0.00     0.124 S 
ATOM     96  O   UNL     1     -11.537  -3.882   6.832  1.00  0.00    -0.237 OA
ATOM     97  O   UNL     1     -13.099  -1.964   6.768  1.00  0.00    -0.237 OA
ATOM     98  O   UNL     1     -13.970  -4.262   6.957  1.00  0.00    -0.744 OA
ENDBRANCH  91  95
ENDBRANCH  65  88
ENDBRANCH  39  40
ENDBRANCH  32  34
ENDBRANCH  31  32
ENDBRANCH  30  31
ENDBRANCH  29  30
ENDBRANCH  28  29
ENDBRANCH  27  28
ENDBRANCH  26  27
ENDBRANCH   1  26
TORSDOF 26
