REMARK SMILES C[C@@H](CNC(=O)N(C)CC(C)(C)O)C(=O)OCCOCCOCCOCCOC(=O)c1ccc(-c2c3nc(c(-c4cc(S(=O)(=O)[O-])ccc4F)c4ccc([nH]4)c(-c4cc(S(=O)(=O)[O-])ccc4F)c4nc(c(-c5cc(S(=O)(=O)[O-])ccc5F)c5ccc2[nH]5)C=C4)C=C3)cc1
REMARK SMILES IDX 20 1 19 2 18 3 17 4 16 5 14 6 15 7 2 8 1 9 3 10 4 11 5 12
REMARK SMILES IDX 6 14 7 15 8 16 9 17 10 18 11 19 12 20 13 21 21 23 22 24
REMARK SMILES IDX 23 25 24 26 25 27 26 28 27 29 28 30 29 31 30 32 31 33 32 34
REMARK SMILES IDX 93 35 33 36 92 37 34 38 35 39 36 40 86 41 37 42 91 43 85 44
REMARK SMILES IDX 87 45 38 46 90 47 84 48 83 49 39 51 71 52 51 53 70 54 52 55
REMARK SMILES IDX 55 56 69 57 88 58 53 59 54 60 68 62 89 63 56 64 40 65 41 66
REMARK SMILES IDX 49 67 42 68 48 69 50 70 47 71 43 72 44 73 45 74 46 75 72 76
REMARK SMILES IDX 73 77 81 78 74 79 80 80 82 81 79 82 75 83 76 84 77 85 78 86
REMARK SMILES IDX 57 87 58 88 66 89 59 90 65 91 67 92 64 93 60 94 61 95 62 96
REMARK SMILES IDX 63 97
REMARK H PARENT 4 13 13 22 87 50 55 61
REMARK Flexibility Score: inf
ROOT
ATOM      1  C   UNL     1      -2.295  -2.266   0.566  1.00  0.00     0.188 C 
ENDROOT
BRANCH   1   2
ATOM      2  O   UNL     1      -3.543  -1.800   1.046  1.00  0.00    -0.376 OA
BRANCH   2   3
ATOM      3  C   UNL     1      -3.751  -0.443   1.406  1.00  0.00     0.202 C 
BRANCH   3   4
ATOM      4  C   UNL     1      -2.710   0.390   2.168  1.00  0.00     0.261 C 
BRANCH   4   5
ATOM      5  O   UNL     1      -1.380   0.432   1.629  1.00  0.00    -0.463 OA
BRANCH   5   6
ATOM      6  C   UNL     1      -0.428  -0.298   2.255  1.00  0.00     0.310 C 
ATOM      7  O   UNL     1      -0.649  -1.109   3.150  1.00  0.00    -0.252 OA
BRANCH   6   8
ATOM      8  C   UNL     1       0.991   0.033   1.803  1.00  0.00     0.115 C 
ATOM      9  C   UNL     1       1.174   0.492   0.349  1.00  0.00     0.022 C 
BRANCH   8  10
ATOM     10  C   UNL     1       1.574   1.079   2.755  1.00  0.00     0.132 C 
BRANCH  10  11
ATOM     11  N   UNL     1       0.800   2.297   2.703  1.00  0.00    -0.337 N 
ATOM     12  C   UNL     1      -0.320   2.735   3.297  1.00  0.00     0.317 C 
ATOM     13  H   UNL     1       1.184   2.962   2.087  1.00  0.00     0.165 HD
ATOM     14  O   UNL     1      -0.917   3.611   2.663  1.00  0.00    -0.249 OA
BRANCH  12  15
ATOM     15  N   UNL     1      -0.747   2.320   4.521  1.00  0.00    -0.325 N 
ATOM     16  C   UNL     1      -0.333   1.185   5.334  1.00  0.00     0.148 C 
BRANCH  15  17
ATOM     17  C   UNL     1      -1.676   3.232   5.206  1.00  0.00     0.155 C 
BRANCH  17  18
ATOM     18  C   UNL     1      -0.992   4.504   5.795  1.00  0.00     0.077 C 
ATOM     19  C   UNL     1      -0.578   5.525   4.728  1.00  0.00     0.043 C 
ATOM     20  C   UNL     1      -1.956   5.173   6.777  1.00  0.00     0.043 C 
BRANCH  18  21
ATOM     21  O   UNL     1       0.167   4.121   6.557  1.00  0.00    -0.389 OA
ATOM     22  H   UNL     1       0.810   3.689   5.972  1.00  0.00     0.211 HD
ENDBRANCH  18  21
ENDBRANCH  17  18
ENDBRANCH  15  17
ENDBRANCH  12  15
ENDBRANCH  10  11
ENDBRANCH   8  10
ENDBRANCH   6   8
ENDBRANCH   5   6
ENDBRANCH   4   5
ENDBRANCH   3   4
ENDBRANCH   2   3
ENDBRANCH   1   2
BRANCH   1  23
ATOM     23  C   UNL     1      -1.515  -1.512  -0.523  1.00  0.00     0.188 C 
BRANCH  23  24
ATOM     24  O   UNL     1      -1.964  -0.210  -0.831  1.00  0.00    -0.377 OA
BRANCH  24  25
ATOM     25  C   UNL     1      -2.999  -0.052  -1.794  1.00  0.00     0.188 C 
BRANCH  25  26
ATOM     26  C   UNL     1      -3.921  -1.244  -2.107  1.00  0.00     0.188 C 
BRANCH  26  27
ATOM     27  O   UNL     1      -3.247  -2.485  -2.268  1.00  0.00    -0.376 OA
BRANCH  27  28
ATOM     28  C   UNL     1      -2.843  -2.885  -3.569  1.00  0.00     0.202 C 
BRANCH  28  29
ATOM     29  C   UNL     1      -1.860  -1.988  -4.339  1.00  0.00     0.261 C 
BRANCH  29  30
ATOM     30  O   UNL     1      -2.299  -0.654  -4.642  1.00  0.00    -0.460 OA
BRANCH  30  31
ATOM     31  C   UNL     1      -3.473  -0.503  -5.298  1.00  0.00     0.338 C 
ATOM     32  O   UNL     1      -4.175  -1.382  -5.745  1.00  0.00    -0.246 OA
BRANCH  31  33
ATOM     33  C   UNL     1      -3.857   0.925  -5.196  1.00  0.00     0.060 A 
ATOM     34  C   UNL     1      -5.057   1.258  -4.555  1.00  0.00     0.016 A 
ATOM     35  C   UNL     1      -3.038   1.925  -5.724  1.00  0.00     0.016 A 
ATOM     36  C   UNL     1      -5.455   2.593  -4.464  1.00  0.00     0.010 A 
ATOM     37  C   UNL     1      -3.451   3.259  -5.655  1.00  0.00     0.010 A 
ATOM     38  C   UNL     1      -4.674   3.598  -5.050  1.00  0.00    -0.014 A 
BRANCH  38  39
ATOM     39  C   UNL     1      -5.221   4.972  -5.185  1.00  0.00     0.031 A 
ATOM     40  C   UNL     1      -5.832   5.372  -6.501  1.00  0.00     0.074 A 
ATOM     41  C   UNL     1      -5.200   5.838  -4.155  1.00  0.00     0.049 A 
ATOM     42  N   UNL     1      -6.308   6.529  -6.880  1.00  0.00    -0.248 NA
ATOM     43  C   UNL     1      -5.914   4.322  -7.529  1.00  0.00     0.031 C 
ATOM     44  C   UNL     1      -4.691   5.546  -2.816  1.00  0.00     0.029 A 
ATOM     45  N   UNL     1      -5.613   7.147  -4.078  1.00  0.00    -0.354 N 
ATOM     46  C   UNL     1      -6.739   6.351  -8.191  1.00  0.00     0.074 A 
ATOM     47  C   UNL     1      -6.440   4.981  -8.550  1.00  0.00     0.031 C 
ATOM     48  C   UNL     1      -4.809   6.648  -2.055  1.00  0.00     0.029 A 
ATOM     49  C   UNL     1      -5.355   7.738  -2.862  1.00  0.00     0.049 A 
ATOM     50  H   UNL     1      -6.051   7.617  -4.824  1.00  0.00     0.167 HD
ATOM     51  C   UNL     1      -7.331   7.248  -9.016  1.00  0.00     0.034 A 
ATOM     52  C   UNL     1      -5.509   9.018  -2.462  1.00  0.00     0.034 A 
ATOM     53  C   UNL     1      -7.613   8.613  -8.645  1.00  0.00     0.049 A 
ATOM     54  C   UNL     1      -6.076  10.026  -3.439  1.00  0.00     0.074 A 
ATOM     55  C   UNL     1      -8.225   9.599  -9.399  1.00  0.00     0.029 A 
ATOM     56  N   UNL     1      -7.290   9.191  -7.425  1.00  0.00    -0.354 N 
ATOM     57  N   UNL     1      -6.489   9.843  -4.674  1.00  0.00    -0.248 NA
ATOM     58  C   UNL     1      -6.203  11.411  -2.967  1.00  0.00     0.031 C 
ATOM     59  C   UNL     1      -8.192  10.791  -8.671  1.00  0.00     0.029 A 
ATOM     60  C   UNL     1      -7.649  10.530  -7.423  1.00  0.00     0.049 A 
ATOM     61  H   UNL     1      -6.867   8.719  -6.671  1.00  0.00     0.167 HD
ATOM     62  C   UNL     1      -6.956  11.083  -5.107  1.00  0.00     0.074 A 
ATOM     63  C   UNL     1      -6.793  11.998  -3.997  1.00  0.00     0.031 C 
ATOM     64  C   UNL     1      -7.476  11.435  -6.311  1.00  0.00     0.034 A 
BRANCH  51  65
ATOM     65  C   UNL     1      -7.658   6.801 -10.420  1.00  0.00     0.023 A 
ATOM     66  C   UNL     1      -8.611   5.802 -10.682  1.00  0.00     0.031 A 
ATOM     67  C   UNL     1      -7.006   7.394 -11.516  1.00  0.00     0.131 A 
ATOM     68  C   UNL     1      -8.848   5.392 -12.003  1.00  0.00     0.055 A 
ATOM     69  C   UNL     1      -7.302   7.036 -12.832  1.00  0.00     0.041 A 
ATOM     70  F   UNL     1      -6.066   8.334 -11.325  1.00  0.00    -0.206 F 
ATOM     71  C   UNL     1      -8.221   6.022 -13.081  1.00  0.00     0.022 A 
BRANCH  68  72
ATOM     72  S   UNL     1      -9.898   3.941 -12.289  1.00  0.00     0.124 S 
ATOM     73  O   UNL     1      -9.181   2.907 -11.547  1.00  0.00    -0.237 OA
ATOM     74  O   UNL     1     -11.177   4.361 -11.726  1.00  0.00    -0.237 OA
ATOM     75  O   UNL     1      -9.877   3.783 -13.742  1.00  0.00    -0.744 OA
ENDBRANCH  68  72
ENDBRANCH  51  65
BRANCH  52  76
ATOM     76  C   UNL     1      -5.070   9.454  -1.102  1.00  0.00     0.023 A 
ATOM     77  C   UNL     1      -5.974  10.028  -0.193  1.00  0.00     0.031 A 
ATOM     78  C   UNL     1      -3.716   9.391  -0.726  1.00  0.00     0.131 A 
ATOM     79  C   UNL     1      -5.505  10.573   1.014  1.00  0.00     0.055 A 
ATOM     80  C   UNL     1      -3.265   9.869   0.506  1.00  0.00     0.041 A 
ATOM     81  F   UNL     1      -2.802   8.867  -1.560  1.00  0.00    -0.206 F 
ATOM     82  C   UNL     1      -4.160  10.482   1.377  1.00  0.00     0.022 A 
BRANCH  79  83
ATOM     83  S   UNL     1      -6.658  11.522   2.045  1.00  0.00     0.124 S 
ATOM     84  O   UNL     1      -7.120  12.541   1.110  1.00  0.00    -0.237 OA
ATOM     85  O   UNL     1      -7.635  10.506   2.421  1.00  0.00    -0.237 OA
ATOM     86  O   UNL     1      -5.817  12.009   3.136  1.00  0.00    -0.744 OA
ENDBRANCH  79  83
ENDBRANCH  52  76
BRANCH  64  87
ATOM     87  C   UNL     1      -7.956  12.860  -6.470  1.00  0.00     0.023 A 
ATOM     88  C   UNL     1      -7.073  13.953  -6.419  1.00  0.00     0.031 A 
ATOM     89  C   UNL     1      -9.323  13.126  -6.670  1.00  0.00     0.131 A 
ATOM     90  C   UNL     1      -7.574  15.261  -6.503  1.00  0.00     0.055 A 
ATOM     91  C   UNL     1      -9.806  14.426  -6.826  1.00  0.00     0.041 A 
ATOM     92  F   UNL     1     -10.215  12.124  -6.724  1.00  0.00    -0.206 F 
ATOM     93  C   UNL     1      -8.931  15.504  -6.728  1.00  0.00     0.022 A 
BRANCH  90  94
ATOM     94  S   UNL     1      -6.441  16.648  -6.210  1.00  0.00     0.124 S 
ATOM     95  O   UNL     1      -5.944  16.355  -4.870  1.00  0.00    -0.237 OA
ATOM     96  O   UNL     1      -5.476  16.498  -7.295  1.00  0.00    -0.237 OA
ATOM     97  O   UNL     1      -7.305  17.823  -6.308  1.00  0.00    -0.744 OA
ENDBRANCH  90  94
ENDBRANCH  64  87
ENDBRANCH  38  39
ENDBRANCH  31  33
ENDBRANCH  30  31
ENDBRANCH  29  30
ENDBRANCH  28  29
ENDBRANCH  27  28
ENDBRANCH  26  27
ENDBRANCH  25  26
ENDBRANCH  24  25
ENDBRANCH  23  24
ENDBRANCH   1  23
TORSDOF 29
