REMARK SMILES C[C@H]([NH2+]Cc1ccccc1F)C(=O)OCCOCCOCCOCCOC(=O)c1ccc(-c2c3nc(c(-c4cc(S(=O)(=O)[O-])ccc4F)c4ccc([nH]4)c(-c4cc(S(=O)(=O)[O-])ccc4F)c4nc(c(-c5cc(S(=O)(=O)[O-])ccc5F)c5ccc2[nH]5)C=C4)C=C3)cc1
REMARK SMILES IDX 20 1 19 2 18 3 17 4 16 5 15 6 14 7 12 8 13 9 2 10 1 11 3 12
REMARK SMILES IDX 4 15 5 16 6 17 10 18 7 19 9 20 11 21 8 22 21 23 22 24 23 25
REMARK SMILES IDX 24 26 25 27 26 28 27 29 28 30 29 31 30 32 91 33 31 34 90 35
REMARK SMILES IDX 32 36 33 37 34 38 84 39 35 40 89 41 83 42 85 43 36 44 88 45
REMARK SMILES IDX 82 46 81 47 37 49 69 50 49 51 68 52 50 53 53 54 67 55 86 56
REMARK SMILES IDX 51 57 52 58 66 60 87 61 54 62 38 63 39 64 47 65 40 66 46 67
REMARK SMILES IDX 48 68 45 69 41 70 42 71 43 72 44 73 70 74 71 75 79 76 72 77
REMARK SMILES IDX 78 78 80 79 77 80 73 81 74 82 75 83 76 84 55 85 56 86 64 87
REMARK SMILES IDX 57 88 63 89 65 90 62 91 58 92 59 93 60 94 61 95
REMARK H PARENT 3 13 3 14 85 48 53 59
REMARK Flexibility Score: inf
ROOT
ATOM      1  O   UNL     1      -2.001   0.343   0.810  1.00  0.00    -0.377 OA
ENDROOT
BRANCH   1   2
ATOM      2  C   UNL     1      -1.259   1.278   0.057  1.00  0.00     0.188 C 
BRANCH   2   3
ATOM      3  C   UNL     1      -1.756   1.475  -1.385  1.00  0.00     0.188 C 
BRANCH   3   4
ATOM      4  O   UNL     1      -3.036   1.018  -1.806  1.00  0.00    -0.376 OA
BRANCH   4   5
ATOM      5  C   UNL     1      -3.554  -0.232  -1.373  1.00  0.00     0.202 C 
BRANCH   5   6
ATOM      6  C   UNL     1      -2.732  -1.531  -1.448  1.00  0.00     0.261 C 
BRANCH   6   7
ATOM      7  O   UNL     1      -1.342  -1.435  -1.099  1.00  0.00    -0.459 OA
BRANCH   7   8
ATOM      8  C   UNL     1      -0.482  -1.375  -2.142  1.00  0.00     0.364 C 
ATOM      9  O   UNL     1      -0.822  -1.465  -3.321  1.00  0.00    -0.245 OA
BRANCH   8  10
ATOM     10  C   UNL     1       0.995  -1.175  -1.753  1.00  0.00     0.290 C 
ATOM     11  C   UNL     1       1.751  -2.437  -2.150  1.00  0.00     0.088 C 
BRANCH  10  12
ATOM     12  N   UNL     1       1.250  -0.781  -0.342  1.00  0.00    -0.331 N 
ATOM     13  H   UNL     1       1.050  -1.578   0.263  1.00  0.00     0.347 HD
ATOM     14  H   UNL     1       0.645   0.010  -0.121  1.00  0.00     0.347 HD
BRANCH  12  15
ATOM     15  C   UNL     1       2.636  -0.363  -0.131  1.00  0.00     0.301 C 
BRANCH  15  16
ATOM     16  C   UNL     1       2.954   0.141   1.257  1.00  0.00     0.042 A 
ATOM     17  C   UNL     1       2.515   1.396   1.710  1.00  0.00     0.012 A 
ATOM     18  C   UNL     1       3.810  -0.593   2.087  1.00  0.00     0.132 A 
ATOM     19  C   UNL     1       2.956   1.904   2.940  1.00  0.00     0.001 A 
ATOM     20  C   UNL     1       4.250  -0.095   3.312  1.00  0.00     0.040 A 
ATOM     21  F   UNL     1       4.265  -1.790   1.687  1.00  0.00    -0.206 F 
ATOM     22  C   UNL     1       3.830   1.163   3.737  1.00  0.00     0.003 A 
ENDBRANCH  15  16
ENDBRANCH  12  15
ENDBRANCH  10  12
ENDBRANCH   8  10
ENDBRANCH   7   8
ENDBRANCH   6   7
ENDBRANCH   5   6
ENDBRANCH   4   5
ENDBRANCH   3   4
ENDBRANCH   2   3
ENDBRANCH   1   2
BRANCH   1  23
ATOM     23  C   UNL     1      -2.925   0.877   1.750  1.00  0.00     0.188 C 
BRANCH  23  24
ATOM     24  C   UNL     1      -3.747   2.113   1.324  1.00  0.00     0.188 C 
BRANCH  24  25
ATOM     25  O   UNL     1      -2.970   3.185   0.800  1.00  0.00    -0.376 OA
BRANCH  25  26
ATOM     26  C   UNL     1      -2.616   4.251   1.671  1.00  0.00     0.202 C 
BRANCH  26  27
ATOM     27  C   UNL     1      -1.637   3.942   2.820  1.00  0.00     0.261 C 
BRANCH  27  28
ATOM     28  O   UNL     1      -2.046   2.935   3.756  1.00  0.00    -0.460 OA
BRANCH  28  29
ATOM     29  C   UNL     1      -3.216   3.132   4.396  1.00  0.00     0.338 C 
ATOM     30  O   UNL     1      -3.924   4.126   4.323  1.00  0.00    -0.246 OA
BRANCH  29  31
ATOM     31  C   UNL     1      -3.624   1.869   5.045  1.00  0.00     0.060 A 
ATOM     32  C   UNL     1      -4.894   1.354   4.753  1.00  0.00     0.016 A 
ATOM     33  C   UNL     1      -2.790   1.218   5.958  1.00  0.00     0.016 A 
ATOM     34  C   UNL     1      -5.368   0.239   5.439  1.00  0.00     0.010 A 
ATOM     35  C   UNL     1      -3.275   0.111   6.662  1.00  0.00     0.010 A 
ATOM     36  C   UNL     1      -4.590  -0.342   6.449  1.00  0.00    -0.014 A 
BRANCH  36  37
ATOM     37  C   UNL     1      -5.267  -1.207   7.448  1.00  0.00     0.031 A 
ATOM     38  C   UNL     1      -5.709  -0.569   8.742  1.00  0.00     0.074 A 
ATOM     39  C   UNL     1      -5.582  -2.487   7.180  1.00  0.00     0.049 A 
ATOM     40  N   UNL     1      -6.341  -1.099   9.755  1.00  0.00    -0.248 NA
ATOM     41  C   UNL     1      -5.401   0.863   8.912  1.00  0.00     0.031 C 
ATOM     42  C   UNL     1      -5.271  -3.191   5.937  1.00  0.00     0.029 A 
ATOM     43  N   UNL     1      -6.252  -3.418   7.934  1.00  0.00    -0.354 N 
ATOM     44  C   UNL     1      -6.507  -0.069  10.676  1.00  0.00     0.074 A 
ATOM     45  C   UNL     1      -5.873   1.105  10.124  1.00  0.00     0.031 C 
ATOM     46  C   UNL     1      -5.760  -4.441   6.011  1.00  0.00     0.029 A 
ATOM     47  C   UNL     1      -6.388  -4.640   7.317  1.00  0.00     0.049 A 
ATOM     48  H   UNL     1      -6.603  -3.229   8.835  1.00  0.00     0.167 HD
ATOM     49  C   UNL     1      -7.150  -0.095  11.866  1.00  0.00     0.034 A 
ATOM     50  C   UNL     1      -6.941  -5.788   7.762  1.00  0.00     0.034 A 
ATOM     51  C   UNL     1      -7.795  -1.263  12.400  1.00  0.00     0.049 A 
ATOM     52  C   UNL     1      -7.558  -5.822   9.140  1.00  0.00     0.074 A 
ATOM     53  C   UNL     1      -8.486  -1.388  13.592  1.00  0.00     0.029 A 
ATOM     54  N   UNL     1      -7.826  -2.504  11.784  1.00  0.00    -0.354 N 
ATOM     55  N   UNL     1      -7.692  -4.844  10.005  1.00  0.00    -0.248 NA
ATOM     56  C   UNL     1      -8.093  -7.111   9.605  1.00  0.00     0.031 C 
ATOM     57  C   UNL     1      -8.873  -2.723  13.730  1.00  0.00     0.029 A 
ATOM     58  C   UNL     1      -8.488  -3.412  12.590  1.00  0.00     0.049 A 
ATOM     59  H   UNL     1      -7.436  -2.709  10.903  1.00  0.00     0.167 HD
ATOM     60  C   UNL     1      -8.339  -5.396  11.108  1.00  0.00     0.074 A 
ATOM     61  C   UNL     1      -8.577  -6.790  10.798  1.00  0.00     0.031 C 
ATOM     62  C   UNL     1      -8.707  -4.801  12.270  1.00  0.00     0.034 A 
BRANCH  49  63
ATOM     63  C   UNL     1      -7.166   1.165  12.687  1.00  0.00     0.023 A 
ATOM     64  C   UNL     1      -7.914   2.288  12.299  1.00  0.00     0.031 A 
ATOM     65  C   UNL     1      -6.457   1.224  13.900  1.00  0.00     0.131 A 
ATOM     66  C   UNL     1      -7.917   3.435  13.106  1.00  0.00     0.055 A 
ATOM     67  C   UNL     1      -6.511   2.346  14.727  1.00  0.00     0.041 A 
ATOM     68  F   UNL     1      -5.709   0.184  14.304  1.00  0.00    -0.206 F 
ATOM     69  C   UNL     1      -7.241   3.462  14.329  1.00  0.00     0.022 A 
BRANCH  66  70
ATOM     70  S   UNL     1      -8.770   4.919  12.508  1.00  0.00     0.124 S 
ATOM     71  O   UNL     1      -7.976   5.258  11.329  1.00  0.00    -0.237 OA
ATOM     72  O   UNL     1     -10.118   4.428  12.250  1.00  0.00    -0.237 OA
ATOM     73  O   UNL     1      -8.650   5.855  13.623  1.00  0.00    -0.744 OA
ENDBRANCH  66  70
ENDBRANCH  49  63
BRANCH  50  74
ATOM     74  C   UNL     1      -6.901  -7.014   6.915  1.00  0.00     0.023 A 
ATOM     75  C   UNL     1      -8.074  -7.588   6.402  1.00  0.00     0.031 A 
ATOM     76  C   UNL     1      -5.675  -7.640   6.618  1.00  0.00     0.131 A 
ATOM     77  C   UNL     1      -8.000  -8.763   5.636  1.00  0.00     0.055 A 
ATOM     78  C   UNL     1      -5.603  -8.784   5.822  1.00  0.00     0.041 A 
ATOM     79  F   UNL     1      -4.524  -7.133   7.088  1.00  0.00    -0.206 F 
ATOM     80  C   UNL     1      -6.772  -9.355   5.330  1.00  0.00     0.022 A 
BRANCH  77  81
ATOM     81  S   UNL     1      -9.541  -9.534   5.067  1.00  0.00     0.124 S 
ATOM     82  O   UNL     1     -10.173  -9.899   6.330  1.00  0.00    -0.237 OA
ATOM     83  O   UNL     1     -10.169  -8.448   4.324  1.00  0.00    -0.237 OA
ATOM     84  O   UNL     1      -9.079 -10.656   4.253  1.00  0.00    -0.744 OA
ENDBRANCH  77  81
ENDBRANCH  50  74
BRANCH  62  85
ATOM     85  C   UNL     1      -9.415  -5.635  13.303  1.00  0.00     0.023 A 
ATOM     86  C   UNL     1      -8.722  -6.583  14.072  1.00  0.00     0.031 A 
ATOM     87  C   UNL     1     -10.770  -5.397  13.596  1.00  0.00     0.131 A 
ATOM     88  C   UNL     1      -9.389  -7.266  15.099  1.00  0.00     0.055 A 
ATOM     89  C   UNL     1     -11.417  -6.049  14.646  1.00  0.00     0.041 A 
ATOM     90  F   UNL     1     -11.471  -4.492  12.895  1.00  0.00    -0.206 F 
ATOM     91  C   UNL     1     -10.726  -6.990  15.404  1.00  0.00     0.022 A 
BRANCH  88  92
ATOM     92  S   UNL     1      -8.486  -8.527  16.038  1.00  0.00     0.124 S 
ATOM     93  O   UNL     1      -8.237  -9.541  15.019  1.00  0.00    -0.237 OA
ATOM     94  O   UNL     1      -7.315  -7.795  16.507  1.00  0.00    -0.237 OA
ATOM     95  O   UNL     1      -9.430  -8.917  17.084  1.00  0.00    -0.744 OA
ENDBRANCH  88  92
ENDBRANCH  62  85
ENDBRANCH  36  37
ENDBRANCH  29  31
ENDBRANCH  28  29
ENDBRANCH  27  28
ENDBRANCH  26  27
ENDBRANCH  25  26
ENDBRANCH  24  25
ENDBRANCH  23  24
ENDBRANCH   1  23
TORSDOF 26
