REMARK SMILES Cc1ccccc1OCCN1C(=O)CC[C@H](C(=O)OCCOCCOCCOCCOC(=O)c2ccc(-c3c4nc(c(-c5cc(S(=O)(=O)[O-])ccc5F)c5ccc([nH]5)c(-c5cc(S(=O)(=O)[O-])ccc5F)c5nc(c(-c6cc(S(=O)(=O)[O-])ccc6F)c6ccc3[nH]6)C=C5)C=C4)cc2)[C@@H]1c1ccco1
REMARK SMILES IDX 24 1 23 2 22 3 21 4 20 5 19 6 17 7 18 8 16 9 11 10 12 11
REMARK SMILES IDX 97 12 13 13 14 14 15 15 10 16 9 17 8 18 7 19 1 20 2 21 3 22
REMARK SMILES IDX 4 23 6 24 5 25 98 26 99 27 102 28 100 29 101 30 25 31 26 32
REMARK SMILES IDX 27 33 28 34 29 35 30 36 31 37 32 38 33 39 34 40 35 41 96 42
REMARK SMILES IDX 36 43 95 44 37 45 38 46 39 47 89 48 40 49 94 50 88 51 90 52
REMARK SMILES IDX 41 53 93 54 87 55 86 56 42 58 74 59 54 60 73 61 55 62 58 63
REMARK SMILES IDX 72 64 91 65 56 66 57 67 71 69 92 70 59 71 43 72 44 73 52 74
REMARK SMILES IDX 45 75 51 76 53 77 50 78 46 79 47 80 48 81 49 82 75 83 76 84
REMARK SMILES IDX 84 85 77 86 83 87 85 88 82 89 78 90 79 91 80 92 81 93 60 94
REMARK SMILES IDX 61 95 69 96 62 97 68 98 70 99 67 100 63 101 64 102 65 103
REMARK SMILES IDX 66 104
REMARK H PARENT 90 57 58 68
REMARK Flexibility Score: inf
ROOT
ATOM      1  C   UNL     1       1.514  -4.261   1.526  1.00  0.00     0.188 C 
ENDROOT
BRANCH   1   2
ATOM      2  C   UNL     1       2.716  -4.348   0.223  1.00  0.00     0.188 C 
BRANCH   2   3
ATOM      3  O   UNL     1       3.898  -3.551  -0.072  1.00  0.00    -0.376 OA
BRANCH   3   4
ATOM      4  C   UNL     1       5.249  -3.467   0.489  1.00  0.00     0.202 C 
BRANCH   4   5
ATOM      5  C   UNL     1       5.606  -2.344   1.382  1.00  0.00     0.261 C 
BRANCH   5   6
ATOM      6  O   UNL     1       5.377  -1.089   0.843  1.00  0.00    -0.463 OA
BRANCH   6   7
ATOM      7  C   UNL     1       4.359  -1.072  -0.027  1.00  0.00     0.311 C 
ATOM      8  O   UNL     1       4.498  -1.316  -1.218  1.00  0.00    -0.252 OA
BRANCH   7   9
ATOM      9  C   UNL     1       3.114  -0.475   0.567  1.00  0.00     0.130 C 
ATOM     10  N   UNL     1       2.240   1.565   1.450  1.00  0.00    -0.328 N 
ATOM     11  C   UNL     1       1.068   1.058   1.976  1.00  0.00     0.223 C 
ATOM     12  C   UNL     1       3.455   0.783   1.300  1.00  0.00     0.166 C 
ATOM     13  O   UNL     1       0.187   1.772   2.455  1.00  0.00    -0.275 OA
ATOM     14  C   UNL     1       0.880  -0.427   1.912  1.00  0.00     0.101 C 
ATOM     15  C   UNL     1       1.856  -1.171   1.030  1.00  0.00     0.028 C 
BRANCH  10  16
ATOM     16  C   UNL     1       2.314   2.956   1.106  1.00  0.00     0.162 C 
BRANCH  16  17
ATOM     17  C   UNL     1       1.892   3.232  -0.346  1.00  0.00     0.251 C 
BRANCH  17  18
ATOM     18  O   UNL     1       0.520   2.990  -0.669  1.00  0.00    -0.491 OA
BRANCH  18  19
ATOM     19  C   UNL     1       0.017   1.737  -0.898  1.00  0.00     0.122 A 
ATOM     20  C   UNL     1       1.905   0.714  -2.326  1.00  0.00     0.048 C 
ATOM     21  C   UNL     1       0.587   0.665  -1.600  1.00  0.00    -0.009 A 
ATOM     22  C   UNL     1      -0.135  -0.556  -1.669  1.00  0.00     0.007 A 
ATOM     23  C   UNL     1      -1.397  -0.707  -1.090  1.00  0.00     0.001 A 
ATOM     24  C   UNL     1      -1.283   1.584  -0.374  1.00  0.00     0.047 A 
ATOM     25  C   UNL     1      -1.983   0.377  -0.458  1.00  0.00     0.004 A 
ENDBRANCH  18  19
ENDBRANCH  17  18
ENDBRANCH  16  17
ENDBRANCH  10  16
BRANCH  12  26
ATOM     26  C   UNL     1       4.169   0.725   2.628  1.00  0.00     0.127 A 
ATOM     27  C   UNL     1       5.510   0.742   2.976  1.00  0.00     0.048 A 
ATOM     28  O   UNL     1       3.421   0.815   3.770  1.00  0.00    -0.467 OA
ATOM     29  C   UNL     1       5.582   0.828   4.382  1.00  0.00     0.042 A 
ATOM     30  C   UNL     1       4.282   0.897   4.815  1.00  0.00     0.195 A 
ENDBRANCH  12  26
ENDBRANCH   7   9
ENDBRANCH   6   7
ENDBRANCH   5   6
ENDBRANCH   4   5
ENDBRANCH   3   4
ENDBRANCH   2   3
ENDBRANCH   1   2
BRANCH   1  31
ATOM     31  O   UNL     1       1.403  -5.124   3.162  1.00  0.00    -0.377 OA
BRANCH  31  32
ATOM     32  C   UNL     1       0.687  -6.967   3.559  1.00  0.00     0.188 C 
BRANCH  32  33
ATOM     33  C   UNL     1       0.847  -8.176   2.162  1.00  0.00     0.188 C 
BRANCH  33  34
ATOM     34  O   UNL     1       0.392  -8.028   0.818  1.00  0.00    -0.376 OA
BRANCH  34  35
ATOM     35  C   UNL     1      -0.693  -8.901   0.617  1.00  0.00     0.202 C 
BRANCH  35  36
ATOM     36  C   UNL     1      -1.008  -9.822   1.875  1.00  0.00     0.261 C 
BRANCH  36  37
ATOM     37  O   UNL     1       0.211 -10.818   2.562  1.00  0.00    -0.460 OA
BRANCH  37  38
ATOM     38  C   UNL     1       1.467 -10.656   3.346  1.00  0.00     0.338 C 
ATOM     39  O   UNL     1       1.434 -10.872   4.560  1.00  0.00    -0.246 OA
BRANCH  38  40
ATOM     40  C   UNL     1       2.941 -10.124   2.732  1.00  0.00     0.060 A 
ATOM     41  C   UNL     1       3.941  -9.509   3.539  1.00  0.00     0.016 A 
ATOM     42  C   UNL     1       3.194  -9.899   1.374  1.00  0.00     0.016 A 
ATOM     43  C   UNL     1       4.917  -8.499   3.026  1.00  0.00     0.010 A 
ATOM     44  C   UNL     1       3.982  -8.729   0.935  1.00  0.00     0.010 A 
ATOM     45  C   UNL     1       4.694  -7.847   1.803  1.00  0.00    -0.014 A 
BRANCH  45  46
ATOM     46  C   UNL     1       4.839  -6.165   1.406  1.00  0.00     0.031 A 
ATOM     47  C   UNL     1       5.517  -6.109  -0.179  1.00  0.00     0.074 A 
ATOM     48  C   UNL     1       4.354  -4.993   2.242  1.00  0.00     0.049 A 
ATOM     49  N   UNL     1       5.595  -5.103  -1.010  1.00  0.00    -0.248 NA
ATOM     50  C   UNL     1       6.315  -7.184  -0.778  1.00  0.00     0.031 C 
ATOM     51  C   UNL     1       3.743  -3.404   2.347  1.00  0.00     0.029 A 
ATOM     52  N   UNL     1       4.030  -4.957   3.527  1.00  0.00    -0.354 N 
ATOM     53  C   UNL     1       6.765  -5.107  -1.749  1.00  0.00     0.074 A 
ATOM     54  C   UNL     1       6.996  -6.550  -1.762  1.00  0.00     0.031 C 
ATOM     55  C   UNL     1       3.390  -2.823   3.521  1.00  0.00     0.029 A 
ATOM     56  C   UNL     1       3.635  -3.906   4.331  1.00  0.00     0.049 A 
ATOM     57  H   UNL     1       4.079  -5.827   3.986  1.00  0.00     0.167 HD
ATOM     58  C   UNL     1       7.700  -4.054  -1.915  1.00  0.00     0.034 A 
ATOM     59  C   UNL     1       3.600  -4.196   5.600  1.00  0.00     0.034 A 
ATOM     60  C   UNL     1       7.860  -2.857  -0.909  1.00  0.00     0.049 A 
ATOM     61  C   UNL     1       5.344  -3.559   5.181  1.00  0.00     0.074 A 
ATOM     62  C   UNL     1       7.566  -1.485  -0.968  1.00  0.00     0.029 A 
ATOM     63  N   UNL     1       8.399  -2.981   0.415  1.00  0.00    -0.354 N 
ATOM     64  N   UNL     1       6.019  -3.280   3.990  1.00  0.00    -0.248 NA
ATOM     65  C   UNL     1       6.253  -3.032   6.218  1.00  0.00     0.031 C 
ATOM     66  C   UNL     1       7.838  -0.847   0.324  1.00  0.00     0.029 A 
ATOM     67  C   UNL     1       8.109  -1.857   1.288  1.00  0.00     0.049 A 
ATOM     68  H   UNL     1       8.920  -3.763   0.708  1.00  0.00     0.167 HD
ATOM     69  C   UNL     1       7.257  -2.514   4.034  1.00  0.00     0.074 A 
ATOM     70  C   UNL     1       7.317  -2.491   5.545  1.00  0.00     0.031 C 
ATOM     71  C   UNL     1       8.177  -1.936   2.957  1.00  0.00     0.034 A 
BRANCH  58  72
ATOM     72  C   UNL     1       8.257  -3.832  -3.369  1.00  0.00     0.023 A 
ATOM     73  C   UNL     1       8.450  -2.515  -3.874  1.00  0.00     0.031 A 
ATOM     74  C   UNL     1       8.574  -4.838  -4.300  1.00  0.00     0.131 A 
ATOM     75  C   UNL     1       8.878  -2.241  -5.193  1.00  0.00     0.055 A 
ATOM     76  C   UNL     1       9.004  -4.572  -5.618  1.00  0.00     0.041 A 
ATOM     77  F   UNL     1       8.527  -6.135  -3.983  1.00  0.00    -0.206 F 
ATOM     78  C   UNL     1       9.153  -3.271  -6.076  1.00  0.00     0.022 A 
BRANCH  75  79
ATOM     79  S   UNL     1       9.062  -0.509  -5.733  1.00  0.00     0.124 S 
ATOM     80  O   UNL     1       7.702   0.004  -5.612  1.00  0.00    -0.237 OA
ATOM     81  O   UNL     1      10.034   0.016  -4.780  1.00  0.00    -0.237 OA
ATOM     82  O   UNL     1       9.554  -0.630  -7.106  1.00  0.00    -0.744 OA
ENDBRANCH  75  79
ENDBRANCH  58  72
BRANCH  59  83
ATOM     83  C   UNL     1       2.240  -5.435   5.116  1.00  0.00     0.023 A 
ATOM     84  C   UNL     1       0.558  -4.919   4.981  1.00  0.00     0.031 A 
ATOM     85  C   UNL     1       2.689  -6.510   3.803  1.00  0.00     0.131 A 
ATOM     86  C   UNL     1      -0.497  -5.117   3.539  1.00  0.00     0.055 A 
ATOM     87  C   UNL     1       1.927  -6.435   2.114  1.00  0.00     0.041 A 
ATOM     88  F   UNL     1       3.854  -7.043   4.142  1.00  0.00    -0.206 F 
ATOM     89  C   UNL     1       0.127  -5.887   2.040  1.00  0.00     0.022 A 
BRANCH  86  90
ATOM     90  S   UNL     1      -2.285  -5.006   3.651  1.00  0.00     0.124 S 
ATOM     91  O   UNL     1      -2.508  -4.566   5.023  1.00  0.00    -0.237 OA
ATOM     92  O   UNL     1      -2.587  -4.047   2.597  1.00  0.00    -0.237 OA
ATOM     93  O   UNL     1      -2.692  -6.386   3.370  1.00  0.00    -0.744 OA
ENDBRANCH  86  90
ENDBRANCH  59  83
BRANCH  71  94
ATOM     94  C   UNL     1       9.526  -1.297   3.304  1.00  0.00     0.023 A 
ATOM     95  C   UNL     1       9.796  -0.811   4.563  1.00  0.00     0.031 A 
ATOM     96  C   UNL     1      10.609  -1.203   2.373  1.00  0.00     0.131 A 
ATOM     97  C   UNL     1      11.115  -0.580   4.960  1.00  0.00     0.055 A 
ATOM     98  C   UNL     1      11.897  -0.817   2.730  1.00  0.00     0.041 A 
ATOM     99  F   UNL     1      10.498  -1.506   1.072  1.00  0.00    -0.206 F 
ATOM    100  C   UNL     1      12.176  -0.574   4.058  1.00  0.00     0.022 A 
BRANCH  97 101
ATOM    101  S   UNL     1      11.373  -0.442   6.732  1.00  0.00     0.124 S 
ATOM    102  O   UNL     1      10.452   0.634   7.086  1.00  0.00    -0.237 OA
ATOM    103  O   UNL     1      10.983  -1.776   7.185  1.00  0.00    -0.237 OA
ATOM    104  O   UNL     1      12.792  -0.128   6.847  1.00  0.00    -0.744 OA
ENDBRANCH  97 101
ENDBRANCH  71  94
ENDBRANCH  45  46
ENDBRANCH  38  40
ENDBRANCH  37  38
ENDBRANCH  36  37
ENDBRANCH  35  36
ENDBRANCH  34  35
ENDBRANCH  33  34
ENDBRANCH  32  33
ENDBRANCH  31  32
ENDBRANCH   1  31
TORSDOF 28
