REMARK SMILES Cc1ccc(N)c(SCCOc2ccccc2C(=O)OCCOCCOCCOCCOC(=O)c2ccc(-c3c4nc(c(-c5cc(S(=O)(=O)[O-])ccc5F)c5ccc([nH]5)c(-c5cc(S(=O)(=O)[O-])ccc5F)c5nc(c(-c6cc(S(=O)(=O)[O-])ccc6F)c6ccc3[nH]6)C=C5)C=C4)cc2)c1
REMARK SMILES IDX 24 1 23 2 22 3 21 4 20 5 18 6 19 7 17 8 12 9 13 10 14 11
REMARK SMILES IDX 16 12 15 13 11 14 10 15 9 16 8 17 7 18 1 19 2 20 3 21 98 22
REMARK SMILES IDX 4 23 5 24 6 25 25 28 26 29 27 30 28 31 29 32 30 33 31 34
REMARK SMILES IDX 32 35 33 36 34 37 35 38 36 39 97 40 37 41 96 42 38 43 39 44
REMARK SMILES IDX 40 45 90 46 41 47 95 48 89 49 91 50 42 51 94 52 88 53 87 54
REMARK SMILES IDX 43 56 75 57 55 58 74 59 56 60 59 61 73 62 92 63 57 64 58 65
REMARK SMILES IDX 72 67 93 68 60 69 44 70 45 71 53 72 46 73 52 74 54 75 51 76
REMARK SMILES IDX 47 77 48 78 49 79 50 80 76 81 77 82 85 83 78 84 84 85 86 86
REMARK SMILES IDX 83 87 79 88 80 89 81 90 82 91 61 92 62 93 70 94 63 95 69 96
REMARK SMILES IDX 71 97 68 98 64 99 65 100 66 101 67 102
REMARK H PARENT 6 26 6 27 91 55 59 66
REMARK Flexibility Score: inf
ROOT
ATOM      1  C   UNL     1       1.367   2.930   2.898  1.00  0.00     0.188 C 
ENDROOT
BRANCH   1   2
ATOM      2  O   UNL     1       1.921   3.978   2.093  1.00  0.00    -0.376 OA
BRANCH   2   3
ATOM      3  C   UNL     1       1.153   5.151   1.847  1.00  0.00     0.202 C 
BRANCH   3   4
ATOM      4  C   UNL     1       0.674   5.292   0.383  1.00  0.00     0.261 C 
BRANCH   4   5
ATOM      5  O   UNL     1      -0.373   4.425  -0.136  1.00  0.00    -0.460 OA
BRANCH   5   6
ATOM      6  C   UNL     1       0.039   3.168  -0.459  1.00  0.00     0.342 C 
ATOM      7  O   UNL     1       1.050   2.695   0.013  1.00  0.00    -0.246 OA
BRANCH   6   8
ATOM      8  C   UNL     1      -0.757   2.488  -1.565  1.00  0.00     0.102 A 
ATOM      9  C   UNL     1      -1.072   3.284  -2.623  1.00  0.00     0.133 A 
ATOM     10  C   UNL     1      -1.999   2.872  -3.599  1.00  0.00     0.047 A 
ATOM     11  C   UNL     1      -2.289   1.514  -3.742  1.00  0.00     0.004 A 
ATOM     12  C   UNL     1      -0.762   1.145  -1.972  1.00  0.00     0.019 A 
ATOM     13  C   UNL     1      -1.535   0.631  -3.012  1.00  0.00     0.001 A 
BRANCH   9  14
ATOM     14  O   UNL     1      -0.075   4.196  -2.939  1.00  0.00    -0.492 OA
BRANCH  14  15
ATOM     15  C   UNL     1       1.177   3.502  -3.316  1.00  0.00     0.241 C 
BRANCH  15  16
ATOM     16  C   UNL     1       2.252   2.928  -2.253  1.00  0.00     0.116 C 
BRANCH  16  17
ATOM     17  S   UNL     1       2.750   0.999  -1.866  1.00  0.00    -0.120 SA
BRANCH  17  18
ATOM     18  C   UNL     1       2.125  -0.019  -0.376  1.00  0.00     0.031 A 
ATOM     19  C   UNL     1      -1.363  -1.026   0.852  1.00  0.00     0.044 C 
ATOM     20  C   UNL     1       0.134  -1.122   0.673  1.00  0.00    -0.050 A 
ATOM     21  C   UNL     1       0.807  -2.320   0.748  1.00  0.00     0.005 A 
ATOM     22  C   UNL     1       0.851   0.002   0.215  1.00  0.00     0.020 A 
ATOM     23  C   UNL     1       2.169  -2.335   0.438  1.00  0.00     0.027 A 
ATOM     24  C   UNL     1       2.844  -1.195  -0.076  1.00  0.00     0.045 A 
BRANCH  24  25
ATOM     25  N   UNL     1       4.199  -1.329  -0.402  1.00  0.00    -0.398 N 
ATOM     26  H   UNL     1       4.678  -2.160  -0.181  1.00  0.00     0.156 HD
ATOM     27  H   UNL     1       4.672  -0.592  -0.851  1.00  0.00     0.156 HD
ENDBRANCH  24  25
ENDBRANCH  17  18
ENDBRANCH  16  17
ENDBRANCH  15  16
ENDBRANCH  14  15
ENDBRANCH   9  14
ENDBRANCH   6   8
ENDBRANCH   5   6
ENDBRANCH   4   5
ENDBRANCH   3   4
ENDBRANCH   2   3
ENDBRANCH   1   2
BRANCH   1  28
ATOM     28  C   UNL     1      -0.103   2.518   2.711  1.00  0.00     0.188 C 
BRANCH  28  29
ATOM     29  O   UNL     1      -0.992   3.605   2.562  1.00  0.00    -0.377 OA
BRANCH  29  30
ATOM     30  C   UNL     1      -1.560   4.173   3.728  1.00  0.00     0.188 C 
BRANCH  30  31
ATOM     31  C   UNL     1      -0.779   4.087   5.048  1.00  0.00     0.188 C 
BRANCH  31  32
ATOM     32  O   UNL     1      -0.547   2.745   5.475  1.00  0.00    -0.376 OA
BRANCH  32  33
ATOM     33  C   UNL     1      -1.495   2.193   6.387  1.00  0.00     0.202 C 
BRANCH  33  34
ATOM     34  C   UNL     1      -2.854   1.796   5.781  1.00  0.00     0.261 C 
BRANCH  34  35
ATOM     35  O   UNL     1      -3.723   2.866   5.359  1.00  0.00    -0.460 OA
BRANCH  35  36
ATOM     36  C   UNL     1      -3.919   3.919   6.185  1.00  0.00     0.338 C 
ATOM     37  O   UNL     1      -3.593   3.996   7.351  1.00  0.00    -0.246 OA
BRANCH  36  38
ATOM     38  C   UNL     1      -4.365   5.070   5.358  1.00  0.00     0.060 A 
ATOM     39  C   UNL     1      -3.683   6.288   5.495  1.00  0.00     0.016 A 
ATOM     40  C   UNL     1      -5.406   4.951   4.432  1.00  0.00     0.016 A 
ATOM     41  C   UNL     1      -4.067   7.399   4.741  1.00  0.00     0.010 A 
ATOM     42  C   UNL     1      -5.814   6.073   3.702  1.00  0.00     0.010 A 
ATOM     43  C   UNL     1      -5.172   7.311   3.884  1.00  0.00    -0.014 A 
BRANCH  43  44
ATOM     44  C   UNL     1      -5.826   8.560   3.417  1.00  0.00     0.031 A 
ATOM     45  C   UNL     1      -6.897   9.147   4.299  1.00  0.00     0.074 A 
ATOM     46  C   UNL     1      -5.476   9.174   2.272  1.00  0.00     0.049 A 
ATOM     47  N   UNL     1      -7.650  10.199   4.113  1.00  0.00    -0.248 NA
ATOM     48  C   UNL     1      -7.151   8.441   5.566  1.00  0.00     0.031 C 
ATOM     49  C   UNL     1      -4.420   8.735   1.363  1.00  0.00     0.029 A 
ATOM     50  N   UNL     1      -5.986  10.303   1.678  1.00  0.00    -0.354 N 
ATOM     51  C   UNL     1      -8.460  10.285   5.241  1.00  0.00     0.074 A 
ATOM     52  C   UNL     1      -8.133   9.157   6.085  1.00  0.00     0.031 C 
ATOM     53  C   UNL     1      -4.371   9.579   0.315  1.00  0.00     0.029 A 
ATOM     54  C   UNL     1      -5.414  10.595   0.461  1.00  0.00     0.049 A 
ATOM     55  H   UNL     1      -6.694  10.852   2.085  1.00  0.00     0.167 HD
ATOM     56  C   UNL     1      -9.391  11.220   5.549  1.00  0.00     0.034 A 
ATOM     57  C   UNL     1      -5.720  11.554  -0.438  1.00  0.00     0.034 A 
ATOM     58  C   UNL     1      -9.735  12.319   4.684  1.00  0.00     0.049 A 
ATOM     59  C   UNL     1      -6.843  12.520  -0.127  1.00  0.00     0.074 A 
ATOM     60  C   UNL     1     -10.663  13.322   4.892  1.00  0.00     0.029 A 
ATOM     61  N   UNL     1      -9.178  12.545   3.432  1.00  0.00    -0.354 N 
ATOM     62  N   UNL     1      -7.597  12.597   0.947  1.00  0.00    -0.248 NA
ATOM     63  C   UNL     1      -7.154  13.528  -1.150  1.00  0.00     0.031 C 
ATOM     64  C   UNL     1     -10.720  14.111   3.737  1.00  0.00     0.029 A 
ATOM     65  C   UNL     1      -9.771  13.649   2.840  1.00  0.00     0.049 A 
ATOM     66  H   UNL     1      -8.466  12.000   3.024  1.00  0.00     0.167 HD
ATOM     67  C   UNL     1      -8.451  13.678   0.736  1.00  0.00     0.074 A 
ATOM     68  C   UNL     1      -8.109  14.230  -0.558  1.00  0.00     0.031 C 
ATOM     69  C   UNL     1      -9.427  14.176   1.540  1.00  0.00     0.034 A 
BRANCH  56  70
ATOM     70  C   UNL     1     -10.136  11.042   6.848  1.00  0.00     0.023 A 
ATOM     71  C   UNL     1      -9.483  11.114   8.092  1.00  0.00     0.031 A 
ATOM     72  C   UNL     1     -11.509  10.741   6.841  1.00  0.00     0.131 A 
ATOM     73  C   UNL     1     -10.186  10.816   9.269  1.00  0.00     0.055 A 
ATOM     74  C   UNL     1     -12.221  10.523   8.021  1.00  0.00     0.041 A 
ATOM     75  F   UNL     1     -12.178  10.630   5.682  1.00  0.00    -0.206 F 
ATOM     76  C   UNL     1     -11.556  10.545   9.244  1.00  0.00     0.022 A 
BRANCH  73  77
ATOM     77  S   UNL     1      -9.254  10.642  10.816  1.00  0.00     0.124 S 
ATOM     78  O   UNL     1      -8.319   9.572  10.478  1.00  0.00    -0.237 OA
ATOM     79  O   UNL     1      -8.673  11.969  10.985  1.00  0.00    -0.237 OA
ATOM     80  O   UNL     1     -10.278  10.280  11.793  1.00  0.00    -0.744 OA
ENDBRANCH  73  77
ENDBRANCH  56  70
BRANCH  57  81
ATOM     81  C   UNL     1      -5.007  11.628  -1.748  1.00  0.00     0.023 A 
ATOM     82  C   UNL     1      -4.245  12.753  -2.103  1.00  0.00     0.031 A 
ATOM     83  C   UNL     1      -5.141  10.598  -2.697  1.00  0.00     0.131 A 
ATOM     84  C   UNL     1      -3.685  12.842  -3.389  1.00  0.00     0.055 A 
ATOM     85  C   UNL     1      -4.539  10.669  -3.955  1.00  0.00     0.041 A 
ATOM     86  F   UNL     1      -5.866   9.504  -2.414  1.00  0.00    -0.206 F 
ATOM     87  C   UNL     1      -3.816  11.802  -4.311  1.00  0.00     0.022 A 
BRANCH  84  88
ATOM     88  S   UNL     1      -2.851  14.380  -3.872  1.00  0.00     0.124 S 
ATOM     89  O   UNL     1      -3.919  15.360  -3.710  1.00  0.00    -0.237 OA
ATOM     90  O   UNL     1      -1.762  14.452  -2.904  1.00  0.00    -0.237 OA
ATOM     91  O   UNL     1      -2.440  14.127  -5.251  1.00  0.00    -0.744 OA
ENDBRANCH  84  88
ENDBRANCH  57  81
BRANCH  69  92
ATOM     92  C   UNL     1     -10.164  15.401   1.054  1.00  0.00     0.023 A 
ATOM     93  C   UNL     1     -11.017  15.358  -0.063  1.00  0.00     0.031 A 
ATOM     94  C   UNL     1     -10.010  16.629   1.722  1.00  0.00     0.131 A 
ATOM     95  C   UNL     1     -11.643  16.532  -0.509  1.00  0.00     0.055 A 
ATOM     96  C   UNL     1     -10.681  17.780   1.309  1.00  0.00     0.041 A 
ATOM     97  F   UNL     1      -9.208  16.728   2.794  1.00  0.00    -0.206 F 
ATOM     98  C   UNL     1     -11.494  17.739   0.180  1.00  0.00     0.022 A 
BRANCH  95  99
ATOM     99  S   UNL     1     -12.590  16.482  -2.055  1.00  0.00     0.124 S 
ATOM    100  O   UNL     1     -11.582  16.042  -3.015  1.00  0.00    -0.237 OA
ATOM    101  O   UNL     1     -13.641  15.518  -1.747  1.00  0.00    -0.237 OA
ATOM    102  O   UNL     1     -13.045  17.861  -2.224  1.00  0.00    -0.744 OA
ENDBRANCH  95  99
ENDBRANCH  69  92
ENDBRANCH  43  44
ENDBRANCH  36  38
ENDBRANCH  35  36
ENDBRANCH  34  35
ENDBRANCH  33  34
ENDBRANCH  32  33
ENDBRANCH  31  32
ENDBRANCH  30  31
ENDBRANCH  29  30
ENDBRANCH  28  29
ENDBRANCH   1  28
TORSDOF 29
