REMARK SMILES Cc1cc(S(F)(F)(F)(F)F)cc2c1O[C@H](C(F)(F)F)C(C(=O)OCCOCCOCCOCCOC(=O)c1ccc(-c3c4nc(c(-c5cc(S(=O)(=O)[O-])ccc5F)c5ccc([nH]5)c(-c5cc(S(=O)(=O)[O-])ccc5F)c5nc(c(-c6cc(S(=O)(=O)[O-])ccc6F)c6ccc3[nH]6)C=C5)C=C4)cc1)=C2
REMARK SMILES IDX 30 1 29 2 28 3 27 4 26 5 25 6 24 7 23 8 21 9 22 10 20 11
REMARK SMILES IDX 1 12 2 13 3 14 13 15 4 16 12 17 14 18 11 19 101 20 15 21
REMARK SMILES IDX 5 22 6 23 7 24 8 25 9 26 10 27 16 28 17 29 18 30 19 31 31 32
REMARK SMILES IDX 32 33 33 34 34 35 35 36 36 37 37 38 38 39 39 40 100 41 40 42
REMARK SMILES IDX 99 43 41 44 42 45 43 46 93 47 44 48 98 49 92 50 94 51 45 52
REMARK SMILES IDX 97 53 91 54 90 55 46 57 78 58 58 59 77 60 59 61 62 62 76 63
REMARK SMILES IDX 95 64 60 65 61 66 75 68 96 69 63 70 47 71 48 72 56 73 49 74
REMARK SMILES IDX 55 75 57 76 54 77 50 78 51 79 52 80 53 81 79 82 80 83 88 84
REMARK SMILES IDX 81 85 87 86 89 87 86 88 82 89 83 90 84 91 85 92 64 93 65 94
REMARK SMILES IDX 73 95 66 96 72 97 74 98 71 99 67 100 68 101 69 102 70 103
REMARK H PARENT 94 56 62 67
REMARK Flexibility Score: inf
ROOT
ATOM      1  C   UNL     1      -2.257  -7.850  -2.914  1.00  0.00     0.188 C 
ENDROOT
BRANCH   1   2
ATOM      2  O   UNL     1      -2.131  -6.568  -2.316  1.00  0.00    -0.377 OA
BRANCH   2   3
ATOM      3  C   UNL     1      -2.520  -5.571  -3.248  1.00  0.00     0.188 C 
BRANCH   3   4
ATOM      4  C   UNL     1      -1.627  -5.647  -4.476  1.00  0.00     0.188 C 
BRANCH   4   5
ATOM      5  O   UNL     1      -1.753  -6.929  -5.074  1.00  0.00    -0.376 OA
BRANCH   5   6
ATOM      6  C   UNL     1      -1.363  -7.927  -4.141  1.00  0.00     0.202 C 
BRANCH   6   7
ATOM      7  C   UNL     1       0.083  -7.699  -3.731  1.00  0.00     0.261 C 
BRANCH   7   8
ATOM      8  O   UNL     1       0.209  -6.418  -3.133  1.00  0.00    -0.460 OA
BRANCH   8   9
ATOM      9  C   UNL     1      -0.125  -5.253  -3.873  1.00  0.00     0.338 C 
ATOM     10  O   UNL     1      -0.536  -5.357  -5.071  1.00  0.00    -0.246 OA
BRANCH   9  11
ATOM     11  C   UNL     1       0.010  -3.881  -3.233  1.00  0.00     0.087 C 
ATOM     12  C   UNL     1       0.901   0.016  -0.007  1.00  0.00     0.048 C 
ATOM     13  C   UNL     1       0.395  -0.122  -1.433  1.00  0.00    -0.007 A 
ATOM     14  C   UNL     1       0.066   0.997  -2.166  1.00  0.00     0.031 A 
ATOM     15  C   UNL     1       0.274  -1.383  -2.016  1.00  0.00     0.130 A 
ATOM     16  C   UNL     1      -0.389   0.880  -3.474  1.00  0.00     0.108 A 
ATOM     17  C   UNL     1      -0.184  -1.497  -3.348  1.00  0.00     0.019 A 
ATOM     18  O   UNL     1       0.608  -2.613  -1.287  1.00  0.00    -0.475 OA
ATOM     19  C   UNL     1      -0.509  -0.345  -4.067  1.00  0.00     0.036 A 
ATOM     20  C   UNL     1      -0.302  -2.832  -3.935  1.00  0.00     0.027 C 
ATOM     21  C   UNL     1       0.464  -3.799  -1.917  1.00  0.00     0.316 C 
BRANCH  16  22
ATOM     22  S   UNL     1      -0.826   2.369  -4.404  1.00  0.00     0.310 S 
ATOM     23  F   UNL     1      -2.326   2.533  -3.916  1.00  0.00    -0.094 F 
ATOM     24  F   UNL     1      -1.382   1.509  -5.601  1.00  0.00    -0.094 F 
ATOM     25  F   UNL     1      -1.014   3.679  -5.221  1.00  0.00    -0.094 F 
ATOM     26  F   UNL     1      -0.400   3.225  -3.146  1.00  0.00    -0.094 F 
ATOM     27  F   UNL     1      -0.738   1.059  -3.524  1.00  0.00    -0.094 F 
ENDBRANCH  16  22
BRANCH  21  28
ATOM     28  C   UNL     1       1.903  -4.274  -2.041  1.00  0.00     0.430 C 
ATOM     29  F   UNL     1       2.460  -4.322  -0.834  1.00  0.00    -0.167 F 
ATOM     30  F   UNL     1       1.923  -5.487  -2.587  1.00  0.00    -0.167 F 
ATOM     31  F   UNL     1       2.584  -3.430  -2.811  1.00  0.00    -0.167 F 
ENDBRANCH  21  28
ENDBRANCH   9  11
ENDBRANCH   8   9
ENDBRANCH   7   8
ENDBRANCH   6   7
ENDBRANCH   5   6
ENDBRANCH   4   5
ENDBRANCH   3   4
ENDBRANCH   2   3
ENDBRANCH   1   2
BRANCH   1  32
ATOM     32  C   UNL     1      -3.702  -8.077  -3.325  1.00  0.00     0.188 C 
BRANCH  32  33
ATOM     33  O   UNL     1      -4.092  -7.080  -4.257  1.00  0.00    -0.376 OA
BRANCH  33  34
ATOM     34  C   UNL     1      -3.966  -5.798  -3.659  1.00  0.00     0.202 C 
BRANCH  34  35
ATOM     35  C   UNL     1      -4.859  -5.721  -2.432  1.00  0.00     0.261 C 
BRANCH  35  36
ATOM     36  O   UNL     1      -4.470  -6.719  -1.500  1.00  0.00    -0.460 OA
BRANCH  36  37
ATOM     37  C   UNL     1      -4.510  -8.090  -1.868  1.00  0.00     0.338 C 
ATOM     38  O   UNL     1      -4.895  -8.424  -3.033  1.00  0.00    -0.246 OA
BRANCH  37  39
ATOM     39  C   UNL     1      -4.093  -9.158  -0.870  1.00  0.00     0.060 A 
ATOM     40  C   UNL     1      -3.127 -10.111  -1.175  1.00  0.00     0.016 A 
ATOM     41  C   UNL     1      -4.527  -9.082   0.370  1.00  0.00     0.016 A 
ATOM     42  C   UNL     1      -2.329 -10.567  -0.102  1.00  0.00     0.010 A 
ATOM     43  C   UNL     1      -4.035  -9.946   1.354  1.00  0.00     0.010 A 
ATOM     44  C   UNL     1      -2.961 -10.675   1.135  1.00  0.00    -0.014 A 
BRANCH  44  45
ATOM     45  C   UNL     1      -2.424 -11.611   2.205  1.00  0.00     0.031 A 
ATOM     46  C   UNL     1      -3.207 -12.652   2.708  1.00  0.00     0.074 A 
ATOM     47  C   UNL     1      -1.081 -11.443   2.496  1.00  0.00     0.049 A 
ATOM     48  N   UNL     1      -2.818 -13.653   3.498  1.00  0.00    -0.248 NA
ATOM     49  C   UNL     1      -4.641 -12.813   2.428  1.00  0.00     0.031 C 
ATOM     50  C   UNL     1      -0.282 -10.400   1.987  1.00  0.00     0.029 A 
ATOM     51  N   UNL     1      -0.288 -12.223   3.307  1.00  0.00    -0.354 N 
ATOM     52  C   UNL     1      -3.847 -14.465   3.753  1.00  0.00     0.074 A 
ATOM     53  C   UNL     1      -5.035 -13.933   3.073  1.00  0.00     0.031 C 
ATOM     54  C   UNL     1       0.971 -10.544   2.492  1.00  0.00     0.029 A 
ATOM     55  C   UNL     1       0.977 -11.678   3.325  1.00  0.00     0.049 A 
ATOM     56  H   UNL     1      -0.575 -13.031   3.791  1.00  0.00     0.167 HD
ATOM     57  C   UNL     1      -3.840 -15.629   4.524  1.00  0.00     0.034 A 
ATOM     58  C   UNL     1       2.086 -12.129   4.024  1.00  0.00     0.034 A 
ATOM     59  C   UNL     1      -2.720 -16.104   5.187  1.00  0.00     0.049 A 
ATOM     60  C   UNL     1       2.079 -13.261   4.842  1.00  0.00     0.074 A 
ATOM     61  C   UNL     1      -2.693 -17.280   5.962  1.00  0.00     0.029 A 
ATOM     62  N   UNL     1      -1.461 -15.545   5.225  1.00  0.00    -0.354 N 
ATOM     63  N   UNL     1       1.061 -14.095   5.064  1.00  0.00    -0.248 NA
ATOM     64  C   UNL     1       3.238 -13.730   5.612  1.00  0.00     0.031 C 
ATOM     65  C   UNL     1      -1.439 -17.423   6.468  1.00  0.00     0.029 A 
ATOM     66  C   UNL     1      -0.662 -16.339   6.018  1.00  0.00     0.049 A 
ATOM     67  H   UNL     1      -1.181 -14.721   4.765  1.00  0.00     0.167 HD
ATOM     68  C   UNL     1       1.439 -15.073   5.889  1.00  0.00     0.074 A 
ATOM     69  C   UNL     1       2.844 -14.849   6.259  1.00  0.00     0.031 C 
ATOM     70  C   UNL     1       0.672 -16.146   6.344  1.00  0.00     0.034 A 
BRANCH  57  71
ATOM     71  C   UNL     1      -5.132 -16.420   4.641  1.00  0.00     0.023 A 
ATOM     72  C   UNL     1      -5.712 -16.628   5.898  1.00  0.00     0.031 A 
ATOM     73  C   UNL     1      -5.694 -16.902   3.553  1.00  0.00     0.131 A 
ATOM     74  C   UNL     1      -6.676 -17.509   6.057  1.00  0.00     0.055 A 
ATOM     75  C   UNL     1      -6.877 -17.627   3.684  1.00  0.00     0.041 A 
ATOM     76  F   UNL     1      -5.146 -16.701   2.357  1.00  0.00    -0.206 F 
ATOM     77  C   UNL     1      -7.110 -18.221   4.944  1.00  0.00     0.022 A 
BRANCH  74  78
ATOM     78  S   UNL     1      -7.418 -17.788   7.684  1.00  0.00     0.124 S 
ATOM     79  O   UNL     1      -8.915 -17.477   7.622  1.00  0.00    -0.237 OA
ATOM     80  O   UNL     1      -7.217 -19.249   8.093  1.00  0.00    -0.237 OA
ATOM     81  O   UNL     1      -6.671 -16.767   8.834  1.00  0.00    -0.744 OA
ENDBRANCH  74  78
ENDBRANCH  57  71
BRANCH  58  82
ATOM     82  C   UNL     1       3.383 -11.348   3.893  1.00  0.00     0.023 A 
ATOM     83  C   UNL     1       3.429 -10.004   4.278  1.00  0.00     0.031 A 
ATOM     84  C   UNL     1       4.453 -11.949   3.417  1.00  0.00     0.131 A 
ATOM     85  C   UNL     1       4.450  -9.243   3.946  1.00  0.00     0.055 A 
ATOM     86  C   UNL     1       5.631 -11.213   3.304  1.00  0.00     0.041 A 
ATOM     87  F   UNL     1       4.411 -13.228   3.054  1.00  0.00    -0.206 F 
ATOM     88  C   UNL     1       5.486  -9.810   3.212  1.00  0.00     0.022 A 
BRANCH  85  89
ATOM     89  S   UNL     1       4.506  -7.501   4.434  1.00  0.00     0.124 S 
ATOM     90  O   UNL     1       5.740  -7.254   5.305  1.00  0.00    -0.237 OA
ATOM     91  O   UNL     1       4.580  -6.623   3.183  1.00  0.00    -0.237 OA
ATOM     92  O   UNL     1       3.096  -7.112   5.321  1.00  0.00    -0.744 OA
ENDBRANCH  85  89
ENDBRANCH  58  82
BRANCH  70  93
ATOM     93  C   UNL     1       1.338 -17.166   7.254  1.00  0.00     0.023 A 
ATOM     94  C   UNL     1       1.457 -18.525   6.945  1.00  0.00     0.031 A 
ATOM     95  C   UNL     1       1.913 -16.666   8.328  1.00  0.00     0.131 A 
ATOM     96  C   UNL     1       1.921 -19.379   7.833  1.00  0.00     0.055 A 
ATOM     97  C   UNL     1       2.639 -17.526   9.150  1.00  0.00     0.041 A 
ATOM     98  F   UNL     1       1.803 -15.373   8.620  1.00  0.00    -0.206 F 
ATOM     99  C   UNL     1       2.298 -18.895   9.081  1.00  0.00     0.022 A 
BRANCH  96 100
ATOM    100  S   UNL     1       2.064 -21.140   7.439  1.00  0.00     0.124 S 
ATOM    101  O   UNL     1       3.526 -21.573   7.564  1.00  0.00    -0.237 OA
ATOM    102  O   UNL     1       1.206 -21.952   8.412  1.00  0.00    -0.237 OA
ATOM    103  O   UNL     1       1.524 -21.412   5.839  1.00  0.00    -0.744 OA
ENDBRANCH  96 100
ENDBRANCH  70  93
ENDBRANCH  44  45
ENDBRANCH  37  39
ENDBRANCH  36  37
ENDBRANCH  35  36
ENDBRANCH  34  35
ENDBRANCH  33  34
ENDBRANCH  32  33
ENDBRANCH   1  32
TORSDOF 25
