REMARK SMILES O=C(OCCOCCOCCOCCOC(=O)[C@H]1[C@H]2CC[C@H](CC2)[C@@H]1C(=O)Nc1sc2c(c1C(=O)N1CCCCC1)CCCC2)c1ccc(-c2c3nc(c(-c4cc(S(=O)(=O)[O-])ccc4F)c4ccc([nH]4)c(-c4cc(S(=O)(=O)[O-])ccc4F)c4nc(c(-c5cc(S(=O)(=O)[O-])ccc5F)c5ccc2[nH]5)C=C4)C=C3)cc1
REMARK SMILES IDX 9 1 8 2 7 3 6 4 5 5 4 6 3 7 2 8 1 9 46 10 47 11 108 12 48 13
REMARK SMILES IDX 107 14 49 15 50 16 51 17 101 18 52 19 106 20 100 21 102 22
REMARK SMILES IDX 53 23 105 24 99 25 98 26 54 28 86 29 66 30 85 31 67 32 70 33
REMARK SMILES IDX 84 34 103 35 68 36 69 37 83 39 104 40 71 41 55 42 56 43
REMARK SMILES IDX 64 44 57 45 63 46 65 47 62 48 58 49 59 50 60 51 61 52 87 53
REMARK SMILES IDX 88 54 96 55 89 56 95 57 97 58 94 59 90 60 91 61 92 62 93 63
REMARK SMILES IDX 72 64 73 65 81 66 74 67 80 68 82 69 79 70 75 71 76 72 77 73
REMARK SMILES IDX 78 74 10 75 11 76 12 77 13 78 14 79 15 80 16 81 17 82 18 83
REMARK SMILES IDX 19 84 25 85 24 86 20 87 22 88 23 89 21 90 26 91 27 92 28 93
REMARK SMILES IDX 29 95 30 96 33 97 31 98 32 99 45 100 42 101 44 102 43 103
REMARK SMILES IDX 34 104 35 105 36 106 37 107 41 108 38 109 40 110 39 111
REMARK H PARENT 102 27 70 38 28 94
REMARK Flexibility Score: inf
ROOT
ATOM      1  O   UNL     1       2.924   3.730   0.964  1.00  0.00    -0.377 OA
ENDROOT
BRANCH   1   2
ATOM      2  C   UNL     1       2.016   2.631   0.866  1.00  0.00     0.188 C 
BRANCH   2   3
ATOM      3  C   UNL     1       2.366   1.618  -0.227  1.00  0.00     0.188 C 
BRANCH   3   4
ATOM      4  O   UNL     1       3.597   0.993   0.098  1.00  0.00    -0.376 OA
BRANCH   4   5
ATOM      5  C   UNL     1       4.478   0.574  -0.931  1.00  0.00     0.202 C 
BRANCH   5   6
ATOM      6  C   UNL     1       3.928  -0.469  -1.895  1.00  0.00     0.261 C 
BRANCH   6   7
ATOM      7  O   UNL     1       2.534  -0.794  -1.709  1.00  0.00    -0.460 OA
BRANCH   7   8
ATOM      8  C   UNL     1       1.976  -1.675  -0.841  1.00  0.00     0.338 C 
ATOM      9  O   UNL     1       0.772  -1.919  -0.913  1.00  0.00    -0.246 OA
BRANCH   8  10
ATOM     10  C   UNL     1       2.785  -2.398   0.166  1.00  0.00     0.060 A 
ATOM     11  C   UNL     1       3.713  -1.766   0.978  1.00  0.00     0.016 A 
ATOM     12  C   UNL     1       2.536  -3.753   0.394  1.00  0.00     0.016 A 
ATOM     13  C   UNL     1       4.582  -2.473   1.775  1.00  0.00     0.010 A 
ATOM     14  C   UNL     1       3.292  -4.455   1.341  1.00  0.00     0.010 A 
ATOM     15  C   UNL     1       4.369  -3.826   1.986  1.00  0.00    -0.014 A 
BRANCH  15  16
ATOM     16  C   UNL     1       5.380  -4.551   2.782  1.00  0.00     0.031 A 
ATOM     17  C   UNL     1       6.191  -5.602   2.085  1.00  0.00     0.074 A 
ATOM     18  C   UNL     1       5.683  -4.133   4.028  1.00  0.00     0.049 A 
ATOM     19  N   UNL     1       7.061  -6.437   2.578  1.00  0.00    -0.248 NA
ATOM     20  C   UNL     1       5.994  -5.727   0.630  1.00  0.00     0.031 C 
ATOM     21  C   UNL     1       5.050  -3.002   4.722  1.00  0.00     0.029 A 
ATOM     22  N   UNL     1       6.631  -4.565   4.916  1.00  0.00    -0.354 N 
ATOM     23  C   UNL     1       7.482  -7.213   1.504  1.00  0.00     0.074 A 
ATOM     24  C   UNL     1       6.757  -6.766   0.338  1.00  0.00     0.031 C 
ATOM     25  C   UNL     1       5.670  -2.796   5.893  1.00  0.00     0.029 A 
ATOM     26  C   UNL     1       6.646  -3.855   6.097  1.00  0.00     0.049 A 
ATOM     27  H   UNL     1       7.245  -5.311   4.728  1.00  0.00     0.167 HD
ATOM     28  C   UNL     1       8.395  -8.212   1.506  1.00  0.00     0.034 A 
ATOM     29  C   UNL     1       7.328  -4.083   7.236  1.00  0.00     0.034 A 
ATOM     30  C   UNL     1       9.095  -8.611   2.698  1.00  0.00     0.049 A 
ATOM     31  C   UNL     1       8.244  -5.281   7.248  1.00  0.00     0.074 A 
ATOM     32  C   UNL     1       9.954  -9.676   2.889  1.00  0.00     0.029 A 
ATOM     33  N   UNL     1       9.017  -7.936   3.914  1.00  0.00    -0.354 N 
ATOM     34  N   UNL     1       8.533  -6.108   6.267  1.00  0.00    -0.248 NA
ATOM     35  C   UNL     1       8.912  -5.588   8.515  1.00  0.00     0.031 C 
ATOM     36  C   UNL     1      10.349  -9.676   4.232  1.00  0.00     0.029 A 
ATOM     37  C   UNL     1       9.800  -8.568   4.862  1.00  0.00     0.049 A 
ATOM     38  H   UNL     1       8.481  -7.126   4.074  1.00  0.00     0.167 HD
ATOM     39  C   UNL     1       9.425  -7.031   6.799  1.00  0.00     0.074 A 
ATOM     40  C   UNL     1       9.658  -6.626   8.173  1.00  0.00     0.031 C 
ATOM     41  C   UNL     1       9.992  -8.124   6.223  1.00  0.00     0.034 A 
BRANCH  28  42
ATOM     42  C   UNL     1       8.581  -8.969   0.216  1.00  0.00     0.023 A 
ATOM     43  C   UNL     1       9.109  -8.359  -0.937  1.00  0.00     0.031 A 
ATOM     44  C   UNL     1       8.122 -10.293   0.109  1.00  0.00     0.131 A 
ATOM     45  C   UNL     1       9.093  -9.047  -2.161  1.00  0.00     0.055 A 
ATOM     46  C   UNL     1       8.182 -10.999  -1.094  1.00  0.00     0.041 A 
ATOM     47  F   UNL     1       7.573 -10.913   1.165  1.00  0.00    -0.206 F 
ATOM     48  C   UNL     1       8.656 -10.372  -2.242  1.00  0.00     0.022 A 
BRANCH  45  49
ATOM     49  S   UNL     1       9.511  -8.139  -3.676  1.00  0.00     0.124 S 
ATOM     50  O   UNL     1       8.453  -7.130  -3.714  1.00  0.00    -0.237 OA
ATOM     51  O   UNL     1      10.852  -7.647  -3.393  1.00  0.00    -0.237 OA
ATOM     52  O   UNL     1       9.427  -9.158  -4.721  1.00  0.00    -0.744 OA
ENDBRANCH  45  49
ENDBRANCH  28  42
BRANCH  29  53
ATOM     53  C   UNL     1       7.091  -3.262   8.464  1.00  0.00     0.023 A 
ATOM     54  C   UNL     1       8.144  -2.617   9.133  1.00  0.00     0.031 A 
ATOM     55  C   UNL     1       5.808  -3.176   9.040  1.00  0.00     0.131 A 
ATOM     56  C   UNL     1       7.907  -1.971  10.360  1.00  0.00     0.055 A 
ATOM     57  C   UNL     1       5.564  -2.473  10.221  1.00  0.00     0.041 A 
ATOM     58  F   UNL     1       4.758  -3.781   8.461  1.00  0.00    -0.206 F 
ATOM     59  C   UNL     1       6.623  -1.882  10.900  1.00  0.00     0.022 A 
BRANCH  56  60
ATOM     60  S   UNL     1       9.328  -1.361  11.310  1.00  0.00     0.124 S 
ATOM     61  O   UNL     1      10.164  -2.552  11.395  1.00  0.00    -0.237 OA
ATOM     62  O   UNL     1       9.825  -0.288  10.455  1.00  0.00    -0.237 OA
ATOM     63  O   UNL     1       8.732  -0.926  12.572  1.00  0.00    -0.744 OA
ENDBRANCH  56  60
ENDBRANCH  29  53
BRANCH  41  64
ATOM     64  C   UNL     1      10.939  -8.911   7.088  1.00  0.00     0.023 A 
ATOM     65  C   UNL     1      10.486  -9.605   8.223  1.00  0.00     0.031 A 
ATOM     66  C   UNL     1      12.311  -8.940   6.789  1.00  0.00     0.131 A 
ATOM     67  C   UNL     1      11.412 -10.235   9.063  1.00  0.00     0.055 A 
ATOM     68  C   UNL     1      13.217  -9.633   7.589  1.00  0.00     0.041 A 
ATOM     69  F   UNL     1      12.791  -8.290   5.716  1.00  0.00    -0.206 F 
ATOM     70  C   UNL     1      12.771 -10.271   8.744  1.00  0.00     0.022 A 
BRANCH  67  71
ATOM     71  S   UNL     1      10.826 -10.898  10.645  1.00  0.00     0.124 S 
ATOM     72  O   UNL     1      10.240  -9.716  11.270  1.00  0.00    -0.237 OA
ATOM     73  O   UNL     1       9.885 -11.929  10.222  1.00  0.00    -0.237 OA
ATOM     74  O   UNL     1      12.046 -11.395  11.279  1.00  0.00    -0.744 OA
ENDBRANCH  67  71
ENDBRANCH  41  64
ENDBRANCH  15  16
ENDBRANCH   8  10
ENDBRANCH   7   8
ENDBRANCH   6   7
ENDBRANCH   5   6
ENDBRANCH   4   5
ENDBRANCH   3   4
ENDBRANCH   2   3
ENDBRANCH   1   2
BRANCH   1  75
ATOM     75  C   UNL     1       4.308   3.381   0.977  1.00  0.00     0.188 C 
BRANCH  75  76
ATOM     76  C   UNL     1       4.869   2.599   2.185  1.00  0.00     0.188 C 
BRANCH  76  77
ATOM     77  O   UNL     1       3.903   1.800   2.860  1.00  0.00    -0.376 OA
BRANCH  77  78
ATOM     78  C   UNL     1       3.655   2.161   4.217  1.00  0.00     0.202 C 
BRANCH  78  79
ATOM     79  C   UNL     1       2.903   3.487   4.446  1.00  0.00     0.261 C 
BRANCH  79  80
ATOM     80  O   UNL     1       3.330   4.574   3.605  1.00  0.00    -0.463 OA
BRANCH  80  81
ATOM     81  C   UNL     1       4.413   5.287   3.981  1.00  0.00     0.310 C 
ATOM     82  O   UNL     1       4.962   5.178   5.085  1.00  0.00    -0.252 OA
BRANCH  81  83
ATOM     83  C   UNL     1       4.903   6.188   2.846  1.00  0.00     0.115 C 
ATOM     84  C   UNL     1       4.370   7.627   2.993  1.00  0.00     0.004 C 
ATOM     85  C   UNL     1       6.462   6.175   2.753  1.00  0.00     0.096 C 
ATOM     86  C   UNL     1       4.901   8.258   4.285  1.00  0.00     0.005 C 
ATOM     87  C   UNL     1       4.910   8.439   1.799  1.00  0.00     0.005 C 
ATOM     88  C   UNL     1       6.975   7.618   3.000  1.00  0.00     0.002 C 
ATOM     89  C   UNL     1       6.425   8.092   4.359  1.00  0.00     0.005 C 
ATOM     90  C   UNL     1       6.438   8.560   1.903  1.00  0.00     0.005 C 
BRANCH  85  91
ATOM     91  C   UNL     1       7.074   5.681   1.418  1.00  0.00     0.229 C 
ATOM     92  O   UNL     1       6.462   5.815   0.353  1.00  0.00    -0.274 OA
ATOM     93  N   UNL     1       8.392   5.299   1.342  1.00  0.00    -0.317 N 
ATOM     94  H   UNL     1       8.784   5.323   0.440  1.00  0.00     0.170 HD
BRANCH  93  95
ATOM     95  C   UNL     1       9.248   4.888   2.346  1.00  0.00     0.108 A 
ATOM     96  S   UNL     1       8.645   3.824   3.524  1.00  0.00    -0.122 S 
ATOM     97  C   UNL     1      10.624   5.102   2.455  1.00  0.00     0.078 A 
ATOM     98  C   UNL     1      10.056   3.956   4.434  1.00  0.00     0.011 A 
ATOM     99  C   UNL     1      11.075   4.594   3.749  1.00  0.00    -0.019 A 
ATOM    100  C   UNL     1      10.142   3.392   5.820  1.00  0.00     0.047 C 
ATOM    101  C   UNL     1      12.420   4.747   4.393  1.00  0.00     0.037 C 
ATOM    102  C   UNL     1      11.311   4.037   6.570  1.00  0.00     0.006 C 
ATOM    103  C   UNL     1      12.578   3.993   5.720  1.00  0.00     0.005 C 
BRANCH  97 104
ATOM    104  C   UNL     1      11.355   5.880   1.427  1.00  0.00     0.257 C 
ATOM    105  O   UNL     1      10.828   6.171   0.345  1.00  0.00    -0.269 OA
ATOM    106  N   UNL     1      12.586   6.427   1.777  1.00  0.00    -0.339 N 
ATOM    107  C   UNL     1      12.754   7.853   1.549  1.00  0.00     0.120 C 
ATOM    108  C   UNL     1      13.814   5.664   1.577  1.00  0.00     0.120 C 
ATOM    109  C   UNL     1      13.747   8.415   2.557  1.00  0.00     0.022 C 
ATOM    110  C   UNL     1      14.928   6.162   2.507  1.00  0.00     0.022 C 
ATOM    111  C   UNL     1      15.089   7.685   2.479  1.00  0.00     0.004 C 
ENDBRANCH  97 104
ENDBRANCH  93  95
ENDBRANCH  85  91
ENDBRANCH  81  83
ENDBRANCH  80  81
ENDBRANCH  79  80
ENDBRANCH  78  79
ENDBRANCH  77  78
ENDBRANCH  76  77
ENDBRANCH  75  76
ENDBRANCH   1  75
TORSDOF 26
