REMARK SMILES O=C(OCCOCCOCCOCCOC(=O)[C@@H]1CCCN1S(=O)(=O)c1ccc2c3c(cccc13)C(=O)N2)c1ccc(-c2c3nc(c(-c4cc(S(=O)(=O)[O-])ccc4F)c4ccc([nH]4)c(-c4cc(S(=O)(=O)[O-])ccc4F)c4nc(c(-c5cc(S(=O)(=O)[O-])ccc5F)c5ccc2[nH]5)C=C4)C=C3)cc1
REMARK SMILES IDX 8 1 7 2 6 3 5 4 4 5 3 6 2 7 1 8 39 9 40 10 101 11 41 12
REMARK SMILES IDX 100 13 42 14 43 15 44 16 94 17 45 18 99 19 93 20 95 21 46 22
REMARK SMILES IDX 98 23 92 24 91 25 47 27 79 28 59 29 78 30 60 31 63 32 77 33
REMARK SMILES IDX 96 34 61 35 62 36 76 38 97 39 64 40 48 41 49 42 57 43 50 44
REMARK SMILES IDX 56 45 58 46 55 47 51 48 52 49 53 50 54 51 80 52 81 53 89 54
REMARK SMILES IDX 82 55 88 56 90 57 87 58 83 59 84 60 85 61 86 62 65 63 66 64
REMARK SMILES IDX 74 65 67 66 73 67 75 68 72 69 68 70 69 71 70 72 71 73 9 74
REMARK SMILES IDX 10 75 11 76 12 77 13 78 14 79 15 80 16 81 17 82 18 83 19 84
REMARK SMILES IDX 22 85 20 86 21 87 23 88 24 89 25 90 26 91 27 92 35 93 28 94
REMARK SMILES IDX 30 95 34 96 29 97 31 98 33 99 38 100 32 101 36 102 37 104
REMARK H PARENT 95 26 63 37 38 103
REMARK Flexibility Score: inf
ROOT
ATOM      1  C   UNL     1       1.580   1.114  -1.729  1.00  0.00     0.188 C 
ENDROOT
BRANCH   1   2
ATOM      2  C   UNL     1       2.109   0.522  -0.439  1.00  0.00     0.188 C 
BRANCH   2   3
ATOM      3  O   UNL     1       3.520   0.325  -0.416  1.00  0.00    -0.376 OA
BRANCH   3   4
ATOM      4  C   UNL     1       4.060  -0.803  -1.091  1.00  0.00     0.202 C 
BRANCH   4   5
ATOM      5  C   UNL     1       4.365  -1.966  -0.157  1.00  0.00     0.261 C 
BRANCH   5   6
ATOM      6  O   UNL     1       3.220  -2.366   0.607  1.00  0.00    -0.460 OA
BRANCH   6   7
ATOM      7  C   UNL     1       2.643  -1.756   1.669  1.00  0.00     0.338 C 
ATOM      8  O   UNL     1       1.563  -2.211   2.049  1.00  0.00    -0.246 OA
BRANCH   7   9
ATOM      9  C   UNL     1       3.177  -0.542   2.390  1.00  0.00     0.060 A 
ATOM     10  C   UNL     1       4.340   0.175   2.082  1.00  0.00     0.016 A 
ATOM     11  C   UNL     1       2.389  -0.060   3.455  1.00  0.00     0.016 A 
ATOM     12  C   UNL     1       4.689   1.340   2.754  1.00  0.00     0.010 A 
ATOM     13  C   UNL     1       2.790   1.041   4.217  1.00  0.00     0.010 A 
ATOM     14  C   UNL     1       3.970   1.708   3.885  1.00  0.00    -0.014 A 
BRANCH  14  15
ATOM     15  C   UNL     1       4.719   2.472   4.894  1.00  0.00     0.031 A 
ATOM     16  C   UNL     1       5.728   1.690   5.690  1.00  0.00     0.074 A 
ATOM     17  C   UNL     1       4.601   3.802   5.006  1.00  0.00     0.049 A 
ATOM     18  N   UNL     1       6.604   2.114   6.556  1.00  0.00    -0.248 NA
ATOM     19  C   UNL     1       5.791   0.235   5.439  1.00  0.00     0.031 C 
ATOM     20  C   UNL     1       3.728   4.646   4.195  1.00  0.00     0.029 A 
ATOM     21  N   UNL     1       5.234   4.673   5.851  1.00  0.00    -0.354 N 
ATOM     22  C   UNL     1       7.333   0.990   6.923  1.00  0.00     0.074 A 
ATOM     23  C   UNL     1       6.806  -0.137   6.198  1.00  0.00     0.031 C 
ATOM     24  C   UNL     1       3.862   5.920   4.602  1.00  0.00     0.029 A 
ATOM     25  C   UNL     1       4.810   5.971   5.717  1.00  0.00     0.049 A 
ATOM     26  H   UNL     1       5.927   4.396   6.492  1.00  0.00     0.167 HD
ATOM     27  C   UNL     1       8.348   0.906   7.805  1.00  0.00     0.034 A 
ATOM     28  C   UNL     1       5.141   7.063   6.436  1.00  0.00     0.034 A 
ATOM     29  C   UNL     1       8.798   2.023   8.581  1.00  0.00     0.049 A 
ATOM     30  C   UNL     1       6.185   6.920   7.517  1.00  0.00     0.074 A 
ATOM     31  C   UNL     1       9.767   2.044   9.562  1.00  0.00     0.029 A 
ATOM     32  N   UNL     1       8.288   3.309   8.478  1.00  0.00    -0.354 N 
ATOM     33  N   UNL     1       6.873   5.855   7.863  1.00  0.00    -0.248 NA
ATOM     34  C   UNL     1       6.510   8.119   8.301  1.00  0.00     0.031 C 
ATOM     35  C   UNL     1       9.795   3.329  10.103  1.00  0.00     0.029 A 
ATOM     36  C   UNL     1       8.907   4.130   9.398  1.00  0.00     0.049 A 
ATOM     37  H   UNL     1       7.590   3.593   7.844  1.00  0.00     0.167 HD
ATOM     38  C   UNL     1       7.736   6.263   8.875  1.00  0.00     0.074 A 
ATOM     39  C   UNL     1       7.487   7.675   9.083  1.00  0.00     0.031 C 
ATOM     40  C   UNL     1       8.655   5.541   9.565  1.00  0.00     0.034 A 
BRANCH  27  41
ATOM     41  C   UNL     1       8.986  -0.432   8.028  1.00  0.00     0.023 A 
ATOM     42  C   UNL     1       8.824  -1.078   9.264  1.00  0.00     0.031 A 
ATOM     43  C   UNL     1       9.813  -1.028   7.060  1.00  0.00     0.131 A 
ATOM     44  C   UNL     1       9.523  -2.259   9.525  1.00  0.00     0.055 A 
ATOM     45  C   UNL     1      10.479  -2.228   7.311  1.00  0.00     0.041 A 
ATOM     46  F   UNL     1       9.967  -0.462   5.852  1.00  0.00    -0.206 F 
ATOM     47  C   UNL     1      10.347  -2.840   8.555  1.00  0.00     0.022 A 
BRANCH  44  48
ATOM     48  S   UNL     1       9.415  -3.059  11.146  1.00  0.00     0.124 S 
ATOM     49  O   UNL     1       9.069  -4.432  10.784  1.00  0.00    -0.237 OA
ATOM     50  O   UNL     1      10.765  -2.871  11.666  1.00  0.00    -0.237 OA
ATOM     51  O   UNL     1       8.361  -2.319  11.832  1.00  0.00    -0.744 OA
ENDBRANCH  44  48
ENDBRANCH  27  41
BRANCH  28  52
ATOM     52  C   UNL     1       4.483   8.363   6.130  1.00  0.00     0.023 A 
ATOM     53  C   UNL     1       3.090   8.506   6.268  1.00  0.00     0.031 A 
ATOM     54  C   UNL     1       5.211   9.445   5.610  1.00  0.00     0.131 A 
ATOM     55  C   UNL     1       2.461   9.678   5.829  1.00  0.00     0.055 A 
ATOM     56  C   UNL     1       4.588  10.636   5.232  1.00  0.00     0.041 A 
ATOM     57  F   UNL     1       6.540   9.352   5.455  1.00  0.00    -0.206 F 
ATOM     58  C   UNL     1       3.203  10.752   5.327  1.00  0.00     0.022 A 
BRANCH  55  59
ATOM     59  S   UNL     1       0.652   9.803   5.801  1.00  0.00     0.124 S 
ATOM     60  O   UNL     1       0.416  11.046   6.531  1.00  0.00    -0.237 OA
ATOM     61  O   UNL     1       0.384   9.853   4.366  1.00  0.00    -0.237 OA
ATOM     62  O   UNL     1       0.211   8.586   6.474  1.00  0.00    -0.744 OA
ENDBRANCH  55  59
ENDBRANCH  28  52
BRANCH  40  63
ATOM     63  C   UNL     1       9.506   6.240  10.592  1.00  0.00     0.023 A 
ATOM     64  C   UNL     1      10.902   6.284  10.410  1.00  0.00     0.031 A 
ATOM     65  C   UNL     1       8.975   6.678  11.815  1.00  0.00     0.131 A 
ATOM     66  C   UNL     1      11.726   6.706  11.457  1.00  0.00     0.055 A 
ATOM     67  C   UNL     1       9.799   7.148  12.838  1.00  0.00     0.041 A 
ATOM     68  F   UNL     1       7.652   6.637  12.038  1.00  0.00    -0.206 F 
ATOM     69  C   UNL     1      11.181   7.147  12.667  1.00  0.00     0.022 A 
BRANCH  66  70
ATOM     70  S   UNL     1      13.531   6.606  11.319  1.00  0.00     0.124 S 
ATOM     71  O   UNL     1      13.929   7.991  11.561  1.00  0.00    -0.237 OA
ATOM     72  O   UNL     1      13.868   5.665  12.383  1.00  0.00    -0.237 OA
ATOM     73  O   UNL     1      13.756   6.126   9.960  1.00  0.00    -0.744 OA
ENDBRANCH  66  70
ENDBRANCH  40  63
ENDBRANCH  14  15
ENDBRANCH   7   9
ENDBRANCH   6   7
ENDBRANCH   5   6
ENDBRANCH   4   5
ENDBRANCH   3   4
ENDBRANCH   2   3
ENDBRANCH   1   2
BRANCH   1  74
ATOM     74  O   UNL     1       2.455   0.893  -2.803  1.00  0.00    -0.377 OA
BRANCH  74  75
ATOM     75  C   UNL     1       3.612   1.707  -2.851  1.00  0.00     0.188 C 
BRANCH  75  76
ATOM     76  C   UNL     1       4.160   2.640  -1.747  1.00  0.00     0.188 C 
BRANCH  76  77
ATOM     77  O   UNL     1       3.325   3.490  -0.993  1.00  0.00    -0.376 OA
BRANCH  77  78
ATOM     78  C   UNL     1       2.453   4.472  -1.510  1.00  0.00     0.202 C 
BRANCH  78  79
ATOM     79  C   UNL     1       2.477   5.020  -2.953  1.00  0.00     0.261 C 
BRANCH  79  80
ATOM     80  O   UNL     1       3.329   4.314  -3.869  1.00  0.00    -0.462 OA
BRANCH  80  81
ATOM     81  C   UNL     1       4.116   5.024  -4.711  1.00  0.00     0.324 C 
ATOM     82  O   UNL     1       4.057   6.244  -4.824  1.00  0.00    -0.250 OA
BRANCH  81  83
ATOM     83  C   UNL     1       5.099   4.184  -5.507  1.00  0.00     0.183 C 
ATOM     84  C   UNL     1       5.009   2.660  -5.566  1.00  0.00     0.034 C 
ATOM     85  N   UNL     1       6.583   4.433  -5.427  1.00  0.00    -0.184 NA
ATOM     86  C   UNL     1       6.067   2.317  -6.592  1.00  0.00     0.019 C 
ATOM     87  C   UNL     1       7.176   3.335  -6.317  1.00  0.00     0.103 C 
BRANCH  85  88
ATOM     88  S   UNL     1       7.437   4.472  -3.914  1.00  0.00     0.244 S 
ATOM     89  O   UNL     1       7.032   3.285  -3.188  1.00  0.00    -0.207 OA
ATOM     90  O   UNL     1       8.827   4.609  -4.301  1.00  0.00    -0.207 OA
BRANCH  88  91
ATOM     91  C   UNL     1       6.998   5.893  -2.909  1.00  0.00     0.090 A 
ATOM     92  C   UNL     1       5.731   5.885  -2.284  1.00  0.00     0.024 A 
ATOM     93  C   UNL     1       7.935   6.899  -2.512  1.00  0.00     0.005 A 
ATOM     94  C   UNL     1       5.266   6.869  -1.397  1.00  0.00     0.028 A 
ATOM     95  C   UNL     1       7.434   7.850  -1.655  1.00  0.00     0.019 A 
ATOM     96  C   UNL     1       9.315   7.082  -2.793  1.00  0.00     0.010 A 
ATOM     97  C   UNL     1       6.166   7.862  -1.123  1.00  0.00     0.050 A 
ATOM     98  C   UNL     1       8.113   8.931  -1.116  1.00  0.00     0.050 A 
ATOM     99  C   UNL     1      10.048   8.160  -2.249  1.00  0.00     0.002 A 
ATOM    100  N   UNL     1       6.050   8.957  -0.295  1.00  0.00    -0.321 N 
ATOM    101  C   UNL     1       9.456   9.116  -1.412  1.00  0.00     0.014 A 
ATOM    102  C   UNL     1       7.233   9.703  -0.251  1.00  0.00     0.256 C 
ATOM    103  H   UNL     1       5.234   9.188   0.205  1.00  0.00     0.170 HD
ATOM    104  O   UNL     1       7.386  10.737   0.370  1.00  0.00    -0.269 OA
ENDBRANCH  88  91
ENDBRANCH  85  88
ENDBRANCH  81  83
ENDBRANCH  80  81
ENDBRANCH  79  80
ENDBRANCH  78  79
ENDBRANCH  77  78
ENDBRANCH  76  77
ENDBRANCH  75  76
ENDBRANCH  74  75
ENDBRANCH   1  74
TORSDOF 25
