REMARK SMILES CC(C)C[C@H](Nc1ncnc2scc(-c3ccccc3)c12)C(=O)OCCOCCOCCOCCOC(=O)c1ccc(-c2c3nc(c(-c4cc(S(=O)(=O)[O-])ccc4F)c4ccc([nH]4)c(-c4cc(S(=O)(=O)[O-])ccc4F)c4nc(c(-c5cc(S(=O)(=O)[O-])ccc5F)c5ccc2[nH]5)C=C4)C=C3)cc1
REMARK SMILES IDX 30 1 29 2 28 3 27 4 26 5 25 6 24 7 22 8 23 9 5 10 4 11 2 12
REMARK SMILES IDX 1 13 3 14 6 15 7 17 8 18 21 19 9 20 11 21 14 22 10 23 12 24
REMARK SMILES IDX 13 25 15 26 16 27 20 28 17 29 19 30 18 31 31 32 32 33 33 34
REMARK SMILES IDX 34 35 35 36 36 37 37 38 38 39 39 40 40 41 101 42 41 43
REMARK SMILES IDX 100 44 42 45 43 46 44 47 94 48 45 49 99 50 93 51 95 52 46 53
REMARK SMILES IDX 98 54 92 55 91 56 47 58 79 59 59 60 78 61 60 62 63 63 77 64
REMARK SMILES IDX 96 65 61 66 62 67 76 69 97 70 64 71 48 72 49 73 57 74 50 75
REMARK SMILES IDX 56 76 58 77 55 78 51 79 52 80 53 81 54 82 80 83 81 84 89 85
REMARK SMILES IDX 82 86 88 87 90 88 87 89 83 90 84 91 85 92 86 93 65 94 66 95
REMARK SMILES IDX 74 96 67 97 73 98 75 99 72 100 68 101 69 102 70 103 71 104
REMARK H PARENT 6 16 95 57 63 68
REMARK Flexibility Score: inf
ROOT
ATOM      1  O   UNL     1      -2.938  -0.572  -2.293  1.00  0.00    -0.377 OA
ENDROOT
BRANCH   1   2
ATOM      2  C   UNL     1      -2.395  -0.649  -0.719  1.00  0.00     0.188 C 
BRANCH   2   3
ATOM      3  C   UNL     1      -3.199  -0.278   0.688  1.00  0.00     0.188 C 
BRANCH   3   4
ATOM      4  O   UNL     1      -4.586   0.015   0.884  1.00  0.00    -0.376 OA
BRANCH   4   5
ATOM      5  C   UNL     1      -5.239   1.294   0.896  1.00  0.00     0.202 C 
BRANCH   5   6
ATOM      6  C   UNL     1      -4.768   2.519   0.106  1.00  0.00     0.261 C 
BRANCH   6   7
ATOM      7  O   UNL     1      -3.461   2.409  -0.425  1.00  0.00    -0.462 OA
BRANCH   7   8
ATOM      8  C   UNL     1      -2.452   2.534   0.471  1.00  0.00     0.328 C 
ATOM      9  O   UNL     1      -2.612   2.735   1.670  1.00  0.00    -0.250 OA
BRANCH   8  10
ATOM     10  C   UNL     1      -1.089   2.393  -0.222  1.00  0.00     0.191 C 
BRANCH  10  11
ATOM     11  C   UNL     1      -0.385   3.717   0.001  1.00  0.00     0.040 C 
BRANCH  11  12
ATOM     12  C   UNL     1      -1.070   4.893  -0.725  1.00  0.00    -0.015 C 
ATOM     13  C   UNL     1      -2.170   5.551   0.116  1.00  0.00     0.007 C 
ATOM     14  C   UNL     1      -0.000   5.910  -1.090  1.00  0.00     0.007 C 
ENDBRANCH  11  12
ENDBRANCH  10  11
BRANCH  10  15
ATOM     15  N   UNL     1      -1.240   2.018  -1.633  1.00  0.00    -0.356 N 
ATOM     16  H   UNL     1      -2.121   1.654  -1.877  1.00  0.00     0.163 HD
BRANCH  15  17
ATOM     17  C   UNL     1      -0.342   2.098  -2.659  1.00  0.00     0.139 A 
ATOM     18  N   UNL     1       0.929   2.464  -2.397  1.00  0.00    -0.219 NA
ATOM     19  C   UNL     1      -0.731   1.873  -4.006  1.00  0.00     0.062 A 
ATOM     20  C   UNL     1       1.770   2.668  -3.417  1.00  0.00     0.225 A 
ATOM     21  C   UNL     1       0.244   2.159  -4.953  1.00  0.00     0.129 A 
ATOM     22  C   UNL     1      -1.944   1.337  -4.647  1.00  0.00     0.006 A 
ATOM     23  N   UNL     1       1.508   2.557  -4.717  1.00  0.00    -0.225 NA
ATOM     24  S   UNL     1      -0.295   1.929  -6.551  1.00  0.00    -0.123 S 
ATOM     25  C   UNL     1      -1.805   1.318  -6.024  1.00  0.00     0.076 A 
BRANCH  22  26
ATOM     26  C   UNL     1      -2.896   0.404  -4.006  1.00  0.00    -0.017 A 
ATOM     27  C   UNL     1      -2.276  -1.246  -4.052  1.00  0.00     0.009 A 
ATOM     28  C   UNL     1      -4.100   0.898  -2.795  1.00  0.00     0.009 A 
ATOM     29  C   UNL     1      -2.733  -2.457  -2.854  1.00  0.00     0.001 A 
ATOM     30  C   UNL     1      -4.646  -0.311  -1.572  1.00  0.00     0.001 A 
ATOM     31  C   UNL     1      -3.918  -2.026  -1.578  1.00  0.00     0.000 A 
ENDBRANCH  22  26
ENDBRANCH  15  17
ENDBRANCH  10  15
ENDBRANCH   8  10
ENDBRANCH   7   8
ENDBRANCH   6   7
ENDBRANCH   5   6
ENDBRANCH   4   5
ENDBRANCH   3   4
ENDBRANCH   2   3
ENDBRANCH   1   2
BRANCH   1  32
ATOM     32  C   UNL     1      -4.511  -1.238  -3.357  1.00  0.00     0.188 C 
BRANCH  32  33
ATOM     33  C   UNL     1      -6.098  -1.843  -2.647  1.00  0.00     0.188 C 
BRANCH  33  34
ATOM     34  O   UNL     1      -6.234  -2.667  -1.472  1.00  0.00    -0.376 OA
BRANCH  34  35
ATOM     35  C   UNL     1      -5.936  -4.066  -1.425  1.00  0.00     0.202 C 
BRANCH  35  36
ATOM     36  C   UNL     1      -5.098  -4.805  -2.495  1.00  0.00     0.261 C 
BRANCH  36  37
ATOM     37  O   UNL     1      -5.112  -4.265  -3.829  1.00  0.00    -0.460 OA
BRANCH  37  38
ATOM     38  C   UNL     1      -6.305  -4.301  -4.477  1.00  0.00     0.338 C 
ATOM     39  O   UNL     1      -7.297  -4.882  -4.071  1.00  0.00    -0.246 OA
BRANCH  38  40
ATOM     40  C   UNL     1      -6.322  -3.245  -5.553  1.00  0.00     0.060 A 
ATOM     41  C   UNL     1      -7.403  -2.341  -5.549  1.00  0.00     0.016 A 
ATOM     42  C   UNL     1      -5.268  -3.021  -6.441  1.00  0.00     0.016 A 
ATOM     43  C   UNL     1      -7.424  -1.218  -6.381  1.00  0.00     0.010 A 
ATOM     44  C   UNL     1      -5.337  -1.942  -7.352  1.00  0.00     0.010 A 
ATOM     45  C   UNL     1      -6.426  -1.041  -7.342  1.00  0.00    -0.014 A 
BRANCH  45  46
ATOM     46  C   UNL     1      -6.729  -0.144  -8.503  1.00  0.00     0.031 A 
ATOM     47  C   UNL     1      -7.399  -0.786  -9.697  1.00  0.00     0.074 A 
ATOM     48  C   UNL     1      -6.548   1.194  -8.503  1.00  0.00     0.049 A 
ATOM     49  N   UNL     1      -7.744  -0.263 -10.846  1.00  0.00    -0.248 NA
ATOM     50  C   UNL     1      -7.735  -2.214  -9.564  1.00  0.00     0.031 C 
ATOM     51  C   UNL     1      -6.034   1.988  -7.389  1.00  0.00     0.029 A 
ATOM     52  N   UNL     1      -6.787   2.130  -9.491  1.00  0.00    -0.354 N 
ATOM     53  C   UNL     1      -8.309  -1.302 -11.580  1.00  0.00     0.074 A 
ATOM     54  C   UNL     1      -8.260  -2.483 -10.748  1.00  0.00     0.031 C 
ATOM     55  C   UNL     1      -5.974   3.281  -7.765  1.00  0.00     0.029 A 
ATOM     56  C   UNL     1      -6.397   3.412  -9.163  1.00  0.00     0.049 A 
ATOM     57  H   UNL     1      -7.199   1.901 -10.355  1.00  0.00     0.167 HD
ATOM     58  C   UNL     1      -8.816  -1.281 -12.835  1.00  0.00     0.034 A 
ATOM     59  C   UNL     1      -6.343   4.544  -9.907  1.00  0.00     0.034 A 
ATOM     60  C   UNL     1      -8.877  -0.107 -13.666  1.00  0.00     0.049 A 
ATOM     61  C   UNL     1      -6.796   4.511 -11.359  1.00  0.00     0.074 A 
ATOM     62  C   UNL     1      -9.400   0.006 -14.943  1.00  0.00     0.029 A 
ATOM     63  N   UNL     1      -8.384   1.142 -13.326  1.00  0.00    -0.354 N 
ATOM     64  N   UNL     1      -7.328   3.519 -12.037  1.00  0.00    -0.248 NA
ATOM     65  C   UNL     1      -6.635   5.745 -12.148  1.00  0.00     0.031 C 
ATOM     66  C   UNL     1      -9.120   1.289 -15.418  1.00  0.00     0.029 A 
ATOM     67  C   UNL     1      -8.529   2.012 -14.396  1.00  0.00     0.049 A 
ATOM     68  H   UNL     1      -7.989   1.377 -12.455  1.00  0.00     0.167 HD
ATOM     69  C   UNL     1      -7.588   4.024 -13.314  1.00  0.00     0.074 A 
ATOM     70  C   UNL     1      -7.178   5.409 -13.309  1.00  0.00     0.031 C 
ATOM     71  C   UNL     1      -8.119   3.395 -14.394  1.00  0.00     0.034 A 
BRANCH  58  72
ATOM     72  C   UNL     1      -9.264  -2.591 -13.435  1.00  0.00     0.023 A 
ATOM     73  C   UNL     1     -10.369  -3.307 -12.949  1.00  0.00     0.031 A 
ATOM     74  C   UNL     1      -8.567  -3.116 -14.540  1.00  0.00     0.131 A 
ATOM     75  C   UNL     1     -10.718  -4.531 -13.541  1.00  0.00     0.055 A 
ATOM     76  C   UNL     1      -8.970  -4.289 -15.175  1.00  0.00     0.041 A 
ATOM     77  F   UNL     1      -7.483  -2.488 -15.024  1.00  0.00    -0.206 F 
ATOM     78  C   UNL     1     -10.047  -5.009 -14.670  1.00  0.00     0.022 A 
BRANCH  75  79
ATOM     79  S   UNL     1     -11.979  -5.556 -12.738  1.00  0.00     0.124 S 
ATOM     80  O   UNL     1     -11.405  -5.742 -11.407  1.00  0.00    -0.237 OA
ATOM     81  O   UNL     1     -13.165  -4.712 -12.809  1.00  0.00    -0.237 OA
ATOM     82  O   UNL     1     -12.018  -6.761 -13.564  1.00  0.00    -0.744 OA
ENDBRANCH  75  79
ENDBRANCH  58  72
BRANCH  59  83
ATOM     83  C   UNL     1      -5.738   5.807  -9.361  1.00  0.00     0.023 A 
ATOM     84  C   UNL     1      -6.437   7.028  -9.360  1.00  0.00     0.031 A 
ATOM     85  C   UNL     1      -4.388   5.834  -8.961  1.00  0.00     0.131 A 
ATOM     86  C   UNL     1      -5.769   8.224  -9.035  1.00  0.00     0.055 A 
ATOM     87  C   UNL     1      -3.752   7.012  -8.563  1.00  0.00     0.041 A 
ATOM     88  F   UNL     1      -3.654   4.710  -8.970  1.00  0.00    -0.206 F 
ATOM     89  C   UNL     1      -4.437   8.220  -8.617  1.00  0.00     0.022 A 
BRANCH  86  90
ATOM     90  S   UNL     1      -6.616   9.807  -9.317  1.00  0.00     0.124 S 
ATOM     91  O   UNL     1      -6.942   9.718 -10.735  1.00  0.00    -0.237 OA
ATOM     92  O   UNL     1      -7.740   9.718  -8.392  1.00  0.00    -0.237 OA
ATOM     93  O   UNL     1      -5.603  10.802  -8.970  1.00  0.00    -0.744 OA
ENDBRANCH  86  90
ENDBRANCH  59  83
BRANCH  71  94
ATOM     94  C   UNL     1      -8.337   4.200 -15.656  1.00  0.00     0.023 A 
ATOM     95  C   UNL     1      -7.266   4.720 -16.404  1.00  0.00     0.031 A 
ATOM     96  C   UNL     1      -9.642   4.414 -16.141  1.00  0.00     0.131 A 
ATOM     97  C   UNL     1      -7.520   5.458 -17.571  1.00  0.00     0.055 A 
ATOM     98  C   UNL     1      -9.884   5.090 -17.338  1.00  0.00     0.041 A 
ATOM     99  F   UNL     1     -10.706   3.947 -15.468  1.00  0.00    -0.206 F 
ATOM    100  C   UNL     1      -8.819   5.625 -18.056  1.00  0.00     0.022 A 
BRANCH  97 101
ATOM    101  S   UNL     1      -6.132   6.273 -18.410  1.00  0.00     0.124 S 
ATOM    102  O   UNL     1      -5.616   7.146 -17.361  1.00  0.00    -0.237 OA
ATOM    103  O   UNL     1      -5.282   5.146 -18.777  1.00  0.00    -0.237 OA
ATOM    104  O   UNL     1      -6.766   6.961 -19.533  1.00  0.00    -0.744 OA
ENDBRANCH  97 101
ENDBRANCH  71  94
ENDBRANCH  45  46
ENDBRANCH  38  40
ENDBRANCH  37  38
ENDBRANCH  36  37
ENDBRANCH  35  36
ENDBRANCH  34  35
ENDBRANCH  33  34
ENDBRANCH  32  33
ENDBRANCH   1  32
TORSDOF 28
