REMARK SMILES O=C(OCCOCCOCCOCCOC(=O)c1cncc(Nc2ccc(Cl)cc2C(F)(F)F)n1)c1ccc(-c2c3nc(c(-c4cc(S(=O)(=O)[O-])ccc4F)c4ccc([nH]4)c(-c4cc(S(=O)(=O)[O-])ccc4F)c4nc(c(-c5cc(S(=O)(=O)[O-])ccc5F)c5ccc2[nH]5)C=C4)C=C3)cc1
REMARK SMILES IDX 9 1 8 2 7 3 6 4 5 5 4 6 3 7 2 8 1 9 36 10 37 11 98 12 38 13
REMARK SMILES IDX 97 14 39 15 40 16 41 17 91 18 42 19 96 20 90 21 92 22 43 23
REMARK SMILES IDX 95 24 89 25 88 26 44 28 76 29 56 30 75 31 57 32 60 33 74 34
REMARK SMILES IDX 93 35 58 36 59 37 73 39 94 40 61 41 45 42 46 43 54 44 47 45
REMARK SMILES IDX 53 46 55 47 52 48 48 49 49 50 50 51 51 52 77 53 78 54 86 55
REMARK SMILES IDX 79 56 85 57 87 58 84 59 80 60 81 61 82 62 83 63 62 64 63 65
REMARK SMILES IDX 71 66 64 67 70 68 72 69 69 70 65 71 66 72 67 73 68 74 10 75
REMARK SMILES IDX 11 76 12 77 13 78 14 79 15 80 16 81 17 82 18 83 19 84 35 85
REMARK SMILES IDX 20 86 22 87 21 88 23 89 24 91 25 92 30 93 26 94 29 95 27 96
REMARK SMILES IDX 28 97 31 98 32 99 33 100 34 101
REMARK H PARENT 92 27 60 38 23 90
REMARK Flexibility Score: inf
ROOT
ATOM      1  O   UNL     1       2.596  -3.564   1.593  1.00  0.00    -0.377 OA
ENDROOT
BRANCH   1   2
ATOM      2  C   UNL     1       1.934  -2.560   0.824  1.00  0.00     0.188 C 
BRANCH   2   3
ATOM      3  C   UNL     1       2.341  -1.127   1.167  1.00  0.00     0.188 C 
BRANCH   3   4
ATOM      4  O   UNL     1       3.678  -0.878   0.725  1.00  0.00    -0.376 OA
BRANCH   4   5
ATOM      5  C   UNL     1       4.445  -0.007   1.556  1.00  0.00     0.202 C 
BRANCH   5   6
ATOM      6  C   UNL     1       4.276   1.478   1.227  1.00  0.00     0.261 C 
BRANCH   6   7
ATOM      7  O   UNL     1       2.909   1.798   0.929  1.00  0.00    -0.460 OA
BRANCH   7   8
ATOM      8  C   UNL     1       2.319   1.842  -0.293  1.00  0.00     0.338 C 
ATOM      9  O   UNL     1       1.126   2.141  -0.348  1.00  0.00    -0.246 OA
BRANCH   8  10
ATOM     10  C   UNL     1       3.030   1.569  -1.584  1.00  0.00     0.060 A 
ATOM     11  C   UNL     1       4.159   0.760  -1.742  1.00  0.00     0.016 A 
ATOM     12  C   UNL     1       2.471   2.140  -2.741  1.00  0.00     0.016 A 
ATOM     13  C   UNL     1       4.775   0.599  -2.976  1.00  0.00     0.010 A 
ATOM     14  C   UNL     1       3.064   1.958  -3.995  1.00  0.00     0.010 A 
ATOM     15  C   UNL     1       4.245   1.217  -4.103  1.00  0.00    -0.014 A 
BRANCH  15  16
ATOM     16  C   UNL     1       5.059   1.229  -5.332  1.00  0.00     0.031 A 
ATOM     17  C   UNL     1       5.824   2.481  -5.644  1.00  0.00     0.074 A 
ATOM     18  C   UNL     1       5.207   0.109  -6.060  1.00  0.00     0.049 A 
ATOM     19  N   UNL     1       6.555   2.774  -6.684  1.00  0.00    -0.248 NA
ATOM     20  C   UNL     1       5.758   3.547  -4.630  1.00  0.00     0.031 C 
ATOM     21  C   UNL     1       4.605  -1.187  -5.740  1.00  0.00     0.029 A 
ATOM     22  N   UNL     1       5.922  -0.127  -7.203  1.00  0.00    -0.354 N 
ATOM     23  C   UNL     1       7.014   4.068  -6.464  1.00  0.00     0.074 A 
ATOM     24  C   UNL     1       6.466   4.506  -5.200  1.00  0.00     0.031 C 
ATOM     25  C   UNL     1       4.981  -2.083  -6.667  1.00  0.00     0.029 A 
ATOM     26  C   UNL     1       5.788  -1.410  -7.679  1.00  0.00     0.049 A 
ATOM     27  H   UNL     1       6.479   0.556  -7.642  1.00  0.00     0.167 HD
ATOM     28  C   UNL     1       7.814   4.819  -7.259  1.00  0.00     0.034 A 
ATOM     29  C   UNL     1       6.231  -1.953  -8.830  1.00  0.00     0.034 A 
ATOM     30  C   UNL     1       8.315   4.343  -8.523  1.00  0.00     0.049 A 
ATOM     31  C   UNL     1       7.027  -1.067  -9.757  1.00  0.00     0.074 A 
ATOM     32  C   UNL     1       9.060   5.014  -9.474  1.00  0.00     0.029 A 
ATOM     33  N   UNL     1       8.104   3.057  -9.015  1.00  0.00    -0.354 N 
ATOM     34  N   UNL     1       7.391   0.187  -9.589  1.00  0.00    -0.248 NA
ATOM     35  C   UNL     1       7.464  -1.656 -11.026  1.00  0.00     0.031 C 
ATOM     36  C   UNL     1       9.246   4.155 -10.564  1.00  0.00     0.029 A 
ATOM     37  C   UNL     1       8.681   2.923 -10.266  1.00  0.00     0.049 A 
ATOM     38  H   UNL     1       7.615   2.346  -8.542  1.00  0.00     0.167 HD
ATOM     39  C   UNL     1       8.109   0.533 -10.728  1.00  0.00     0.074 A 
ATOM     40  C   UNL     1       8.147  -0.654 -11.563  1.00  0.00     0.031 C 
ATOM     41  C   UNL     1       8.682   1.718 -11.066  1.00  0.00     0.034 A 
BRANCH  28  42
ATOM     42  C   UNL     1       8.069   6.239  -6.814  1.00  0.00     0.023 A 
ATOM     43  C   UNL     1       8.750   6.535  -5.618  1.00  0.00     0.031 A 
ATOM     44  C   UNL     1       7.505   7.310  -7.530  1.00  0.00     0.131 A 
ATOM     45  C   UNL     1       8.760   7.850  -5.125  1.00  0.00     0.055 A 
ATOM     46  C   UNL     1       7.594   8.628  -7.077  1.00  0.00     0.041 A 
ATOM     47  F   UNL     1       6.815   7.089  -8.660  1.00  0.00    -0.206 F 
ATOM     48  C   UNL     1       8.205   8.902  -5.857  1.00  0.00     0.022 A 
BRANCH  45  49
ATOM     49  S   UNL     1       9.336   8.136  -3.426  1.00  0.00     0.124 S 
ATOM     50  O   UNL     1       8.427   7.287  -2.659  1.00  0.00    -0.237 OA
ATOM     51  O   UNL     1      10.724   7.695  -3.485  1.00  0.00    -0.237 OA
ATOM     52  O   UNL     1       9.144   9.572  -3.236  1.00  0.00    -0.744 OA
ENDBRANCH  45  49
ENDBRANCH  28  42
BRANCH  29  53
ATOM     53  C   UNL     1       5.861  -3.351  -9.204  1.00  0.00     0.023 A 
ATOM     54  C   UNL     1       6.831  -4.345  -9.414  1.00  0.00     0.031 A 
ATOM     55  C   UNL     1       4.511  -3.707  -9.392  1.00  0.00     0.131 A 
ATOM     56  C   UNL     1       6.439  -5.631  -9.825  1.00  0.00     0.055 A 
ATOM     57  C   UNL     1       4.124  -5.000  -9.748  1.00  0.00     0.041 A 
ATOM     58  F   UNL     1       3.538  -2.798  -9.216  1.00  0.00    -0.206 F 
ATOM     59  C   UNL     1       5.093  -5.969  -9.978  1.00  0.00     0.022 A 
BRANCH  56  60
ATOM     60  S   UNL     1       7.723  -6.847 -10.236  1.00  0.00     0.124 S 
ATOM     61  O   UNL     1       8.476  -6.148 -11.271  1.00  0.00    -0.237 OA
ATOM     62  O   UNL     1       8.399  -7.019  -8.955  1.00  0.00    -0.237 OA
ATOM     63  O   UNL     1       6.960  -8.006 -10.696  1.00  0.00    -0.744 OA
ENDBRANCH  56  60
ENDBRANCH  29  53
BRANCH  41  64
ATOM     64  C   UNL     1       9.418   1.758 -12.379  1.00  0.00     0.023 A 
ATOM     65  C   UNL     1       8.738   1.683 -13.605  1.00  0.00     0.031 A 
ATOM     66  C   UNL     1      10.819   1.878 -12.398  1.00  0.00     0.131 A 
ATOM     67  C   UNL     1       9.464   1.677 -14.803  1.00  0.00     0.055 A 
ATOM     68  C   UNL     1      11.532   1.930 -13.595  1.00  0.00     0.041 A 
ATOM     69  F   UNL     1      11.514   1.954 -11.251  1.00  0.00    -0.206 F 
ATOM     70  C   UNL     1      10.855   1.818 -14.807  1.00  0.00     0.022 A 
BRANCH  67  71
ATOM     71  S   UNL     1       8.574   1.402 -16.358  1.00  0.00     0.124 S 
ATOM     72  O   UNL     1       7.976   0.089 -16.136  1.00  0.00    -0.237 OA
ATOM     73  O   UNL     1       7.646   2.527 -16.391  1.00  0.00    -0.237 OA
ATOM     74  O   UNL     1       9.629   1.440 -17.369  1.00  0.00    -0.744 OA
ENDBRANCH  67  71
ENDBRANCH  41  64
ENDBRANCH  15  16
ENDBRANCH   8  10
ENDBRANCH   7   8
ENDBRANCH   6   7
ENDBRANCH   5   6
ENDBRANCH   4   5
ENDBRANCH   3   4
ENDBRANCH   2   3
ENDBRANCH   1   2
BRANCH   1  75
ATOM     75  C   UNL     1       4.017  -3.490   1.637  1.00  0.00     0.188 C 
BRANCH  75  76
ATOM     76  C   UNL     1       4.810  -3.606   0.318  1.00  0.00     0.188 C 
BRANCH  76  77
ATOM     77  O   UNL     1       4.009  -3.807  -0.839  1.00  0.00    -0.376 OA
BRANCH  77  78
ATOM     78  C   UNL     1       4.082  -5.109  -1.412  1.00  0.00     0.202 C 
BRANCH  78  79
ATOM     79  C   UNL     1       3.237  -6.147  -0.665  1.00  0.00     0.261 C 
BRANCH  79  80
ATOM     80  O   UNL     1       3.643  -6.386   0.695  1.00  0.00    -0.458 OA
BRANCH  80  81
ATOM     81  C   UNL     1       4.876  -6.899   0.919  1.00  0.00     0.358 C 
ATOM     82  O   UNL     1       5.670  -7.302   0.089  1.00  0.00    -0.244 OA
BRANCH  81  83
ATOM     83  C   UNL     1       5.129  -6.756   2.371  1.00  0.00     0.169 A 
ATOM     84  C   UNL     1       4.244  -7.336   3.265  1.00  0.00     0.147 A 
ATOM     85  N   UNL     1       6.118  -5.890   2.758  1.00  0.00    -0.220 NA
ATOM     86  N   UNL     1       4.310  -7.102   4.595  1.00  0.00    -0.258 NA
ATOM     87  C   UNL     1       6.163  -5.600   4.076  1.00  0.00     0.149 A 
ATOM     88  C   UNL     1       5.268  -6.214   4.965  1.00  0.00     0.158 A 
BRANCH  87  89
ATOM     89  N   UNL     1       7.073  -4.622   4.509  1.00  0.00    -0.338 N 
ATOM     90  H   UNL     1       7.341  -3.947   3.844  1.00  0.00     0.168 HD
BRANCH  89  91
ATOM     91  C   UNL     1       7.641  -4.501   5.787  1.00  0.00     0.052 A 
ATOM     92  C   UNL     1       8.281  -5.628   6.338  1.00  0.00     0.028 A 
ATOM     93  C   UNL     1       7.631  -3.300   6.517  1.00  0.00     0.080 A 
ATOM     94  C   UNL     1       8.815  -5.605   7.626  1.00  0.00     0.022 A 
ATOM     95  C   UNL     1       8.156  -3.297   7.830  1.00  0.00     0.035 A 
ATOM     96  C   UNL     1       8.730  -4.442   8.377  1.00  0.00     0.041 A 
ATOM     97  Cl  UNL     1       9.329  -4.420   9.988  1.00  0.00    -0.084 Cl
BRANCH  93  98
ATOM     98  C   UNL     1       7.004  -2.022   6.017  1.00  0.00     0.418 C 
ATOM     99  F   UNL     1       5.761  -1.823   6.540  1.00  0.00    -0.166 F 
ATOM    100  F   UNL     1       7.728  -0.921   6.377  1.00  0.00    -0.166 F 
ATOM    101  F   UNL     1       6.866  -1.935   4.666  1.00  0.00    -0.166 F 
ENDBRANCH  93  98
ENDBRANCH  89  91
ENDBRANCH  87  89
ENDBRANCH  81  83
ENDBRANCH  80  81
ENDBRANCH  79  80
ENDBRANCH  78  79
ENDBRANCH  77  78
ENDBRANCH  76  77
ENDBRANCH  75  76
ENDBRANCH   1  75
TORSDOF 26
