REMARK SMILES O=C(OCCOCCOCCOCCOC(=O)c1ccn(-c2cc(-c3ccncc3)nc(-c3ccccc3F)n2)n1)c1ccc(-c2c3nc(c(-c4cc(S(=O)(=O)[O-])ccc4F)c4ccc([nH]4)c(-c4cc(S(=O)(=O)[O-])ccc4F)c4nc(c(-c5cc(S(=O)(=O)[O-])ccc5F)c5ccc2[nH]5)C=C4)C=C3)cc1
REMARK SMILES IDX 8 1 7 2 6 3 5 4 4 5 3 6 2 7 1 8 42 9 43 10 104 11 44 12
REMARK SMILES IDX 103 13 45 14 46 15 47 16 97 17 48 18 102 19 96 20 98 21
REMARK SMILES IDX 49 22 101 23 95 24 94 25 50 27 82 28 62 29 81 30 63 31 66 32
REMARK SMILES IDX 80 33 99 34 64 35 65 36 79 38 100 39 67 40 51 41 52 42 60 43
REMARK SMILES IDX 53 44 59 45 61 46 58 47 54 48 55 49 56 50 57 51 83 52 84 53
REMARK SMILES IDX 92 54 85 55 91 56 93 57 90 58 86 59 87 60 88 61 89 62 68 63
REMARK SMILES IDX 69 64 77 65 70 66 76 67 78 68 75 69 71 70 72 71 73 72 74 73
REMARK SMILES IDX 9 74 10 75 11 76 12 77 13 78 14 79 15 80 16 81 17 82 18 83
REMARK SMILES IDX 19 84 41 85 20 86 21 87 22 88 23 89 40 90 24 91 32 92 31 93
REMARK SMILES IDX 25 94 26 95 30 96 27 97 29 98 28 99 33 100 34 101 38 102
REMARK SMILES IDX 35 103 37 104 39 105 36 106
REMARK H PARENT 98 26 66 37
REMARK Flexibility Score: inf
ROOT
ATOM      1  C   UNL     1       2.204   0.478   1.856  1.00  0.00     0.188 C 
ENDROOT
BRANCH   1   2
ATOM      2  C   UNL     1       2.936  -0.765   1.316  1.00  0.00     0.188 C 
BRANCH   2   3
ATOM      3  O   UNL     1       4.312  -0.759   0.990  1.00  0.00    -0.376 OA
BRANCH   3   4
ATOM      4  C   UNL     1       5.012   0.078   0.093  1.00  0.00     0.202 C 
BRANCH   4   5
ATOM      5  C   UNL     1       4.419   0.938  -1.023  1.00  0.00     0.261 C 
BRANCH   5   6
ATOM      6  O   UNL     1       3.055   1.299  -0.901  1.00  0.00    -0.460 OA
BRANCH   6   7
ATOM      7  C   UNL     1       1.953   0.670  -1.354  1.00  0.00     0.338 C 
ATOM      8  O   UNL     1       0.868   1.217  -1.150  1.00  0.00    -0.246 OA
BRANCH   7   9
ATOM      9  C   UNL     1       1.940  -0.692  -1.960  1.00  0.00     0.060 A 
ATOM     10  C   UNL     1       3.022  -1.370  -2.521  1.00  0.00     0.016 A 
ATOM     11  C   UNL     1       0.674  -1.312  -1.981  1.00  0.00     0.016 A 
ATOM     12  C   UNL     1       2.809  -2.527  -3.254  1.00  0.00     0.010 A 
ATOM     13  C   UNL     1       0.461  -2.483  -2.687  1.00  0.00     0.010 A 
ATOM     14  C   UNL     1       1.517  -3.031  -3.397  1.00  0.00    -0.014 A 
BRANCH  14  15
ATOM     15  C   UNL     1       1.325  -4.144  -4.311  1.00  0.00     0.031 A 
ATOM     16  C   UNL     1       2.089  -5.370  -3.980  1.00  0.00     0.074 A 
ATOM     17  C   UNL     1       0.525  -4.066  -5.394  1.00  0.00     0.049 A 
ATOM     18  N   UNL     1       3.098  -5.855  -4.622  1.00  0.00    -0.248 NA
ATOM     19  C   UNL     1       1.795  -6.057  -2.716  1.00  0.00     0.031 C 
ATOM     20  C   UNL     1      -0.408  -3.002  -5.771  1.00  0.00     0.029 A 
ATOM     21  N   UNL     1       0.341  -4.992  -6.374  1.00  0.00    -0.354 N 
ATOM     22  C   UNL     1       3.443  -7.032  -3.969  1.00  0.00     0.074 A 
ATOM     23  C   UNL     1       2.709  -7.029  -2.729  1.00  0.00     0.031 C 
ATOM     24  C   UNL     1      -1.207  -3.438  -6.772  1.00  0.00     0.029 A 
ATOM     25  C   UNL     1      -0.747  -4.747  -7.203  1.00  0.00     0.049 A 
ATOM     26  H   UNL     1       0.932  -5.772  -6.487  1.00  0.00     0.167 HD
ATOM     27  C   UNL     1       4.159  -8.005  -4.596  1.00  0.00     0.034 A 
ATOM     28  C   UNL     1      -1.243  -5.572  -8.164  1.00  0.00     0.034 A 
ATOM     29  C   UNL     1       4.843  -7.492  -5.759  1.00  0.00     0.049 A 
ATOM     30  C   UNL     1      -0.113  -6.429  -8.600  1.00  0.00     0.074 A 
ATOM     31  C   UNL     1       5.815  -6.530  -5.963  1.00  0.00     0.029 A 
ATOM     32  N   UNL     1       4.279  -7.707  -6.995  1.00  0.00    -0.354 N 
ATOM     33  N   UNL     1       0.940  -5.960  -9.210  1.00  0.00    -0.248 NA
ATOM     34  C   UNL     1       0.073  -7.711  -7.939  1.00  0.00     0.031 C 
ATOM     35  C   UNL     1       5.428  -5.866  -7.165  1.00  0.00     0.029 A 
ATOM     36  C   UNL     1       4.289  -6.503  -7.661  1.00  0.00     0.049 A 
ATOM     37  H   UNL     1       3.933  -8.562  -7.339  1.00  0.00     0.167 HD
ATOM     38  C   UNL     1       2.009  -6.636  -8.647  1.00  0.00     0.074 A 
ATOM     39  C   UNL     1       1.409  -7.768  -7.940  1.00  0.00     0.031 C 
ATOM     40  C   UNL     1       3.251  -6.071  -8.578  1.00  0.00     0.034 A 
BRANCH  27  41
ATOM     41  C   UNL     1       3.986  -9.482  -4.345  1.00  0.00     0.023 A 
ATOM     42  C   UNL     1       4.874 -10.375  -4.975  1.00  0.00     0.031 A 
ATOM     43  C   UNL     1       2.837 -10.060  -3.758  1.00  0.00     0.131 A 
ATOM     44  C   UNL     1       4.576 -11.747  -5.059  1.00  0.00     0.055 A 
ATOM     45  C   UNL     1       2.574 -11.431  -3.795  1.00  0.00     0.041 A 
ATOM     46  F   UNL     1       1.864  -9.324  -3.207  1.00  0.00    -0.206 F 
ATOM     47  C   UNL     1       3.432 -12.281  -4.471  1.00  0.00     0.022 A 
BRANCH  44  48
ATOM     48  S   UNL     1       5.637 -12.807  -6.077  1.00  0.00     0.124 S 
ATOM     49  O   UNL     1       5.571 -12.139  -7.372  1.00  0.00    -0.237 OA
ATOM     50  O   UNL     1       6.912 -12.722  -5.373  1.00  0.00    -0.237 OA
ATOM     51  O   UNL     1       4.978 -14.109  -6.013  1.00  0.00    -0.744 OA
ENDBRANCH  44  48
ENDBRANCH  27  41
BRANCH  28  52
ATOM     52  C   UNL     1      -2.672  -5.905  -8.422  1.00  0.00     0.023 A 
ATOM     53  C   UNL     1      -3.075  -6.650  -9.553  1.00  0.00     0.031 A 
ATOM     54  C   UNL     1      -3.640  -5.726  -7.409  1.00  0.00     0.131 A 
ATOM     55  C   UNL     1      -4.380  -7.191  -9.627  1.00  0.00     0.055 A 
ATOM     56  C   UNL     1      -4.928  -6.261  -7.488  1.00  0.00     0.041 A 
ATOM     57  F   UNL     1      -3.341  -5.101  -6.259  1.00  0.00    -0.206 F 
ATOM     58  C   UNL     1      -5.299  -7.010  -8.592  1.00  0.00     0.022 A 
BRANCH  55  59
ATOM     59  S   UNL     1      -4.866  -8.259 -11.023  1.00  0.00     0.124 S 
ATOM     60  O   UNL     1      -5.145  -7.283 -12.071  1.00  0.00    -0.237 OA
ATOM     61  O   UNL     1      -3.687  -9.095 -11.213  1.00  0.00    -0.237 OA
ATOM     62  O   UNL     1      -6.041  -8.967 -10.512  1.00  0.00    -0.744 OA
ENDBRANCH  55  59
ENDBRANCH  28  52
BRANCH  40  63
ATOM     63  C   UNL     1       3.498  -4.792  -9.357  1.00  0.00     0.023 A 
ATOM     64  C   UNL     1       2.791  -3.580  -9.169  1.00  0.00     0.031 A 
ATOM     65  C   UNL     1       4.577  -4.781 -10.257  1.00  0.00     0.131 A 
ATOM     66  C   UNL     1       3.167  -2.424  -9.885  1.00  0.00     0.055 A 
ATOM     67  C   UNL     1       4.957  -3.631 -10.949  1.00  0.00     0.041 A 
ATOM     68  F   UNL     1       5.308  -5.890 -10.456  1.00  0.00    -0.206 F 
ATOM     69  C   UNL     1       4.249  -2.449 -10.771  1.00  0.00     0.022 A 
BRANCH  66  70
ATOM     70  S   UNL     1       2.256  -0.858  -9.669  1.00  0.00     0.124 S 
ATOM     71  O   UNL     1       0.872  -1.232  -9.932  1.00  0.00    -0.237 OA
ATOM     72  O   UNL     1       2.571  -0.493  -8.290  1.00  0.00    -0.237 OA
ATOM     73  O   UNL     1       2.849   0.025 -10.677  1.00  0.00    -0.744 OA
ENDBRANCH  66  70
ENDBRANCH  40  63
ENDBRANCH  14  15
ENDBRANCH   7   9
ENDBRANCH   6   7
ENDBRANCH   5   6
ENDBRANCH   4   5
ENDBRANCH   3   4
ENDBRANCH   2   3
ENDBRANCH   1   2
BRANCH   1  74
ATOM     74  O   UNL     1       2.719   1.051   3.047  1.00  0.00    -0.377 OA
BRANCH  74  75
ATOM     75  C   UNL     1       4.039   1.536   2.922  1.00  0.00     0.188 C 
BRANCH  75  76
ATOM     76  C   UNL     1       5.112   0.649   3.591  1.00  0.00     0.188 C 
BRANCH  76  77
ATOM     77  O   UNL     1       4.781  -0.548   4.288  1.00  0.00    -0.376 OA
BRANCH  77  78
ATOM     78  C   UNL     1       3.538  -0.694   4.951  1.00  0.00     0.202 C 
BRANCH  78  79
ATOM     79  C   UNL     1       3.139   0.306   6.046  1.00  0.00     0.261 C 
BRANCH  79  80
ATOM     80  O   UNL     1       3.423   1.681   5.760  1.00  0.00    -0.458 OA
BRANCH  80  81
ATOM     81  C   UNL     1       4.569   2.184   6.309  1.00  0.00     0.358 C 
ATOM     82  O   UNL     1       5.272   1.605   7.119  1.00  0.00    -0.244 OA
BRANCH  81  83
ATOM     83  C   UNL     1       4.880   3.524   5.782  1.00  0.00     0.170 A 
ATOM     84  C   UNL     1       4.309   4.748   6.202  1.00  0.00     0.058 A 
ATOM     85  N   UNL     1       5.779   3.724   4.791  1.00  0.00    -0.159 NA
ATOM     86  C   UNL     1       5.014   5.718   5.532  1.00  0.00     0.118 A 
ATOM     87  N   UNL     1       5.873   5.067   4.681  1.00  0.00    -0.222 N 
BRANCH  87  88
ATOM     88  C   UNL     1       6.852   5.686   3.865  1.00  0.00     0.158 A 
ATOM     89  C   UNL     1       6.777   5.546   2.491  1.00  0.00     0.078 A 
ATOM     90  N   UNL     1       7.771   6.449   4.494  1.00  0.00    -0.209 NA
ATOM     91  C   UNL     1       7.699   6.282   1.769  1.00  0.00     0.077 A 
ATOM     92  C   UNL     1       8.681   7.035   3.705  1.00  0.00     0.165 A 
ATOM     93  N   UNL     1       8.681   6.992   2.365  1.00  0.00    -0.228 NA
BRANCH  91  94
ATOM     94  C   UNL     1       7.659   6.428   0.306  1.00  0.00     0.003 A 
ATOM     95  C   UNL     1       6.545   6.980  -0.342  1.00  0.00     0.030 A 
ATOM     96  C   UNL     1       8.775   6.113  -0.478  1.00  0.00     0.030 A 
ATOM     97  C   UNL     1       6.598   7.188  -1.712  1.00  0.00     0.111 A 
ATOM     98  C   UNL     1       8.730   6.348  -1.843  1.00  0.00     0.111 A 
ATOM     99  N   UNL     1       7.666   6.882  -2.476  1.00  0.00    -0.265 NA
ENDBRANCH  91  94
BRANCH  92 100
ATOM    100  C   UNL     1       9.800   7.688   4.363  1.00  0.00     0.055 A 
ATOM    101  C   UNL     1      10.741   6.938   5.094  1.00  0.00     0.015 A 
ATOM    102  C   UNL     1       9.971   9.072   4.296  1.00  0.00     0.134 A 
ATOM    103  C   UNL     1      11.818   7.562   5.730  1.00  0.00     0.001 A 
ATOM    104  C   UNL     1      11.039   9.702   4.934  1.00  0.00     0.040 A 
ATOM    105  F   UNL     1       9.087   9.834   3.634  1.00  0.00    -0.206 F 
ATOM    106  C   UNL     1      11.965   8.946   5.651  1.00  0.00     0.003 A 
ENDBRANCH  92 100
ENDBRANCH  87  88
ENDBRANCH  81  83
ENDBRANCH  80  81
ENDBRANCH  79  80
ENDBRANCH  78  79
ENDBRANCH  77  78
ENDBRANCH  76  77
ENDBRANCH  75  76
ENDBRANCH  74  75
ENDBRANCH   1  74
TORSDOF 26
