REMARK SMILES CCc1cc([C@H]([NH3+])C(=O)OCCOCCOCCOCCOC(=O)c2ccc(-c3c4nc(c(-c5cc(S(=O)(=O)[O-])ccc5F)c5ccc([nH]5)c(-c5cc(S(=O)(=O)[O-])ccc5F)c5nc(c(-c6cc(S(=O)(=O)[O-])ccc6F)c6ccc3[nH]6)C=C5)C=C4)cc2)cc(CC)c1N
REMARK SMILES IDX 17 1 16 2 15 3 14 4 13 5 12 6 11 7 10 8 8 9 9 10 6 11 5 12
REMARK SMILES IDX 3 13 4 14 92 15 89 16 88 17 2 18 1 19 93 20 90 23 91 24 7 25
REMARK SMILES IDX 18 29 19 30 20 31 21 32 22 33 23 34 24 35 25 36 26 37 87 38
REMARK SMILES IDX 27 39 86 40 28 41 29 42 30 43 80 44 31 45 85 46 79 47 81 48
REMARK SMILES IDX 32 49 84 50 78 51 77 52 33 54 65 55 45 56 64 57 46 58 49 59
REMARK SMILES IDX 63 60 82 61 47 62 48 63 62 65 83 66 50 67 34 68 35 69 43 70
REMARK SMILES IDX 36 71 42 72 44 73 41 74 37 75 38 76 39 77 40 78 66 79 67 80
REMARK SMILES IDX 75 81 68 82 74 83 76 84 73 85 69 86 70 87 71 88 72 89 51 90
REMARK SMILES IDX 52 91 60 92 53 93 59 94 61 95 58 96 54 97 55 98 56 99 57 100
REMARK H PARENT 93 21 93 22 7 26 7 27 7 28 81 53 49 64
REMARK Flexibility Score: inf
ROOT
ATOM      1  C   UNL     1      -0.961  -1.495   3.600  1.00  0.00     0.188 C 
ENDROOT
BRANCH   1   2
ATOM      2  O   UNL     1       0.316  -2.067   3.365  1.00  0.00    -0.377 OA
BRANCH   2   3
ATOM      3  C   UNL     1       0.416  -3.467   3.493  1.00  0.00     0.188 C 
BRANCH   3   4
ATOM      4  C   UNL     1       1.005  -3.952   4.828  1.00  0.00     0.188 C 
BRANCH   4   5
ATOM      5  O   UNL     1       1.213  -3.087   5.938  1.00  0.00    -0.376 OA
BRANCH   5   6
ATOM      6  C   UNL     1       1.587  -1.724   5.791  1.00  0.00     0.202 C 
BRANCH   6   7
ATOM      7  C   UNL     1       2.808  -1.293   4.966  1.00  0.00     0.261 C 
BRANCH   7   8
ATOM      8  O   UNL     1       2.930  -1.890   3.674  1.00  0.00    -0.459 OA
BRANCH   8   9
ATOM      9  C   UNL     1       3.685  -3.014   3.627  1.00  0.00     0.369 C 
ATOM     10  O   UNL     1       4.279  -3.489   4.595  1.00  0.00    -0.245 OA
BRANCH   9  11
ATOM     11  C   UNL     1       3.806  -3.625   2.216  1.00  0.00     0.323 C 
BRANCH  11  12
ATOM     12  C   UNL     1       5.119  -3.182   1.651  1.00  0.00     0.021 A 
ATOM     13  C   UNL     1       7.446  -3.650   1.212  1.00  0.00    -0.024 A 
ATOM     14  C   UNL     1       6.159  -4.086   1.532  1.00  0.00     0.016 A 
ATOM     15  C   UNL     1       7.666  -2.268   0.932  1.00  0.00     0.038 A 
ATOM     16  C   UNL     1       6.593  -1.349   1.026  1.00  0.00    -0.024 A 
ATOM     17  C   UNL     1       5.337  -1.829   1.395  1.00  0.00     0.016 A 
BRANCH  13  18
ATOM     18  C   UNL     1       8.582  -4.659   1.204  1.00  0.00     0.034 C 
ATOM     19  C   UNL     1       8.258  -6.069   1.709  1.00  0.00     0.009 C 
ENDBRANCH  13  18
BRANCH  15  20
ATOM     20  N   UNL     1       8.962  -1.818   0.697  1.00  0.00    -0.398 N 
ATOM     21  H   UNL     1       9.703  -2.462   0.633  1.00  0.00     0.156 HD
ATOM     22  H   UNL     1       9.137  -0.854   0.596  1.00  0.00     0.156 HD
ENDBRANCH  15  20
BRANCH  16  23
ATOM     23  C   UNL     1       6.701   0.154   0.847  1.00  0.00     0.034 C 
ATOM     24  C   UNL     1       5.710   0.717  -0.174  1.00  0.00     0.009 C 
ENDBRANCH  16  23
ENDBRANCH  11  12
BRANCH  11  25
ATOM     25  N   UNL     1       2.716  -3.354   1.257  1.00  0.00    -0.342 N 
ATOM     26  H   UNL     1       2.688  -2.356   1.048  1.00  0.00     0.345 HD
ATOM     27  H   UNL     1       1.826  -3.641   1.663  1.00  0.00     0.345 HD
ATOM     28  H   UNL     1       2.882  -3.877   0.397  1.00  0.00     0.345 HD
ENDBRANCH  11  25
ENDBRANCH   9  11
ENDBRANCH   8   9
ENDBRANCH   7   8
ENDBRANCH   6   7
ENDBRANCH   5   6
ENDBRANCH   4   5
ENDBRANCH   3   4
ENDBRANCH   2   3
ENDBRANCH   1   2
BRANCH   1  29
ATOM     29  C   UNL     1      -1.815  -2.107   4.730  1.00  0.00     0.188 C 
BRANCH  29  30
ATOM     30  O   UNL     1      -1.964  -3.520   4.656  1.00  0.00    -0.376 OA
BRANCH  30  31
ATOM     31  C   UNL     1      -3.111  -4.054   4.010  1.00  0.00     0.202 C 
BRANCH  31  32
ATOM     32  C   UNL     1      -3.295  -3.787   2.505  1.00  0.00     0.261 C 
BRANCH  32  33
ATOM     33  O   UNL     1      -3.386  -2.414   2.094  1.00  0.00    -0.460 OA
BRANCH  33  34
ATOM     34  C   UNL     1      -4.325  -1.636   2.673  1.00  0.00     0.338 C 
ATOM     35  O   UNL     1      -5.182  -1.995   3.463  1.00  0.00    -0.246 OA
BRANCH  34  36
ATOM     36  C   UNL     1      -4.001  -0.228   2.355  1.00  0.00     0.060 A 
ATOM     37  C   UNL     1      -3.751   0.665   3.407  1.00  0.00     0.016 A 
ATOM     38  C   UNL     1      -3.924   0.207   1.030  1.00  0.00     0.016 A 
ATOM     39  C   UNL     1      -3.450   2.000   3.137  1.00  0.00     0.010 A 
ATOM     40  C   UNL     1      -3.654   1.553   0.762  1.00  0.00     0.010 A 
ATOM     41  C   UNL     1      -3.444   2.462   1.815  1.00  0.00    -0.014 A 
BRANCH  41  42
ATOM     42  C   UNL     1      -3.427   3.921   1.545  1.00  0.00     0.031 A 
ATOM     43  C   UNL     1      -4.741   4.611   1.299  1.00  0.00     0.074 A 
ATOM     44  C   UNL     1      -2.280   4.623   1.537  1.00  0.00     0.049 A 
ATOM     45  N   UNL     1      -4.981   5.850   0.961  1.00  0.00    -0.248 NA
ATOM     46  C   UNL     1      -5.947   3.783   1.455  1.00  0.00     0.031 C 
ATOM     47  C   UNL     1      -0.954   4.079   1.826  1.00  0.00     0.029 A 
ATOM     48  N   UNL     1      -2.048   5.949   1.265  1.00  0.00    -0.354 N 
ATOM     49  C   UNL     1      -6.365   5.951   0.856  1.00  0.00     0.074 A 
ATOM     50  C   UNL     1      -6.905   4.637   1.132  1.00  0.00     0.031 C 
ATOM     51  C   UNL     1      -0.045   5.061   1.701  1.00  0.00     0.029 A 
ATOM     52  C   UNL     1      -0.715   6.290   1.276  1.00  0.00     0.049 A 
ATOM     53  H   UNL     1      -2.768   6.594   1.080  1.00  0.00     0.167 HD
ATOM     54  C   UNL     1      -7.114   7.040   0.559  1.00  0.00     0.034 A 
ATOM     55  C   UNL     1      -0.108   7.449   0.944  1.00  0.00     0.034 A 
ATOM     56  C   UNL     1      -6.558   8.338   0.268  1.00  0.00     0.049 A 
ATOM     57  C   UNL     1      -0.957   8.620   0.502  1.00  0.00     0.074 A 
ATOM     58  C   UNL     1      -7.224   9.512  -0.037  1.00  0.00     0.029 A 
ATOM     59  N   UNL     1      -5.200   8.632   0.227  1.00  0.00    -0.354 N 
ATOM     60  N   UNL     1      -2.265   8.706   0.404  1.00  0.00    -0.248 NA
ATOM     61  C   UNL     1      -0.247   9.850   0.128  1.00  0.00     0.031 C 
ATOM     62  C   UNL     1      -6.271  10.489  -0.347  1.00  0.00     0.029 A 
ATOM     63  C   UNL     1      -5.009   9.955  -0.142  1.00  0.00     0.049 A 
ATOM     64  H   UNL     1      -4.479   7.993   0.430  1.00  0.00     0.167 HD
ATOM     65  C   UNL     1      -2.531  10.010  -0.012  1.00  0.00     0.074 A 
ATOM     66  C   UNL     1      -1.251  10.676  -0.129  1.00  0.00     0.031 C 
ATOM     67  C   UNL     1      -3.725  10.605  -0.269  1.00  0.00     0.034 A 
BRANCH  54  68
ATOM     68  C   UNL     1      -8.610   6.851   0.473  1.00  0.00     0.023 A 
ATOM     69  C   UNL     1      -9.377   6.471   1.588  1.00  0.00     0.031 A 
ATOM     70  C   UNL     1      -9.275   7.025  -0.754  1.00  0.00     0.131 A 
ATOM     71  C   UNL     1     -10.747   6.209   1.439  1.00  0.00     0.055 A 
ATOM     72  C   UNL     1     -10.653   6.845  -0.877  1.00  0.00     0.041 A 
ATOM     73  F   UNL     1      -8.592   7.359  -1.860  1.00  0.00    -0.206 F 
ATOM     74  C   UNL     1     -11.396   6.420   0.220  1.00  0.00     0.022 A 
BRANCH  71  75
ATOM     75  S   UNL     1     -11.640   5.443   2.820  1.00  0.00     0.124 S 
ATOM     76  O   UNL     1     -10.871   4.218   3.024  1.00  0.00    -0.237 OA
ATOM     77  O   UNL     1     -11.526   6.451   3.867  1.00  0.00    -0.237 OA
ATOM     78  O   UNL     1     -12.986   5.243   2.289  1.00  0.00    -0.744 OA
ENDBRANCH  71  75
ENDBRANCH  54  68
BRANCH  55  79
ATOM     79  C   UNL     1       1.381   7.557   0.955  1.00  0.00     0.023 A 
ATOM     80  C   UNL     1       2.039   8.479   1.785  1.00  0.00     0.031 A 
ATOM     81  C   UNL     1       2.167   6.786   0.079  1.00  0.00     0.131 A 
ATOM     82  C   UNL     1       3.430   8.641   1.687  1.00  0.00     0.055 A 
ATOM     83  C   UNL     1       3.557   6.907   0.029  1.00  0.00     0.041 A 
ATOM     84  F   UNL     1       1.592   5.896  -0.747  1.00  0.00    -0.206 F 
ATOM     85  C   UNL     1       4.195   7.850   0.828  1.00  0.00     0.022 A 
BRANCH  82  86
ATOM     86  S   UNL     1       4.217   9.977   2.629  1.00  0.00     0.124 S 
ATOM     87  O   UNL     1       3.515  11.150   2.123  1.00  0.00    -0.237 OA
ATOM     88  O   UNL     1       3.919   9.594   4.005  1.00  0.00    -0.237 OA
ATOM     89  O   UNL     1       5.625   9.878   2.248  1.00  0.00    -0.744 OA
ENDBRANCH  82  86
ENDBRANCH  55  79
BRANCH  67  90
ATOM     90  C   UNL     1      -3.701  12.065  -0.660  1.00  0.00     0.023 A 
ATOM     91  C   UNL     1      -3.113  12.504  -1.859  1.00  0.00     0.031 A 
ATOM     92  C   UNL     1      -4.274  13.033   0.186  1.00  0.00     0.131 A 
ATOM     93  C   UNL     1      -3.057  13.876  -2.150  1.00  0.00     0.055 A 
ATOM     94  C   UNL     1      -4.278  14.390  -0.143  1.00  0.00     0.041 A 
ATOM     95  F   UNL     1      -4.846  12.675   1.346  1.00  0.00    -0.206 F 
ATOM     96  C   UNL     1      -3.654  14.820  -1.310  1.00  0.00     0.022 A 
BRANCH  93  97
ATOM     97  S   UNL     1      -2.102  14.423  -3.592  1.00  0.00     0.124 S 
ATOM     98  O   UNL     1      -0.776  13.891  -3.296  1.00  0.00    -0.237 OA
ATOM     99  O   UNL     1      -2.812  13.787  -4.697  1.00  0.00    -0.237 OA
ATOM    100  O   UNL     1      -2.211  15.880  -3.543  1.00  0.00    -0.744 OA
ENDBRANCH  93  97
ENDBRANCH  67  90
ENDBRANCH  41  42
ENDBRANCH  34  36
ENDBRANCH  33  34
ENDBRANCH  32  33
ENDBRANCH  31  32
ENDBRANCH  30  31
ENDBRANCH  29  30
ENDBRANCH   1  29
TORSDOF 28
