REMARK SMILES Cc1nn(CC(=O)OCCOCCOCCOCCOC(=O)c2ccc(-c3c4nc(c(-c5cc(S(=O)(=O)[O-])ccc5F)c5ccc([nH]5)c(-c5cc(S(=O)(=O)[O-])ccc5F)c5nc(c(-c6cc(S(=O)(=O)[O-])ccc6F)c6ccc3[nH]6)C=C5)C=C4)cc2)c(C)c1NS(=O)(=O)c1cccc2cccnc12
REMARK SMILES IDX 13 1 12 2 11 3 10 4 9 5 8 6 6 7 7 8 5 9 4 10 1 11 2 12 3 13
REMARK SMILES IDX 88 14 86 15 87 16 89 17 90 19 91 20 92 21 93 22 94 23 102 24
REMARK SMILES IDX 95 25 97 26 101 27 96 28 98 29 100 30 99 31 14 32 15 33
REMARK SMILES IDX 16 34 17 35 18 36 19 37 20 38 21 39 22 40 23 41 24 42 85 43
REMARK SMILES IDX 25 44 84 45 26 46 27 47 28 48 78 49 29 50 83 51 77 52 79 53
REMARK SMILES IDX 30 54 82 55 76 56 75 57 31 59 63 60 43 61 62 62 44 63 47 64
REMARK SMILES IDX 61 65 80 66 45 67 46 68 60 70 81 71 48 72 32 73 33 74 41 75
REMARK SMILES IDX 34 76 40 77 42 78 39 79 35 80 36 81 37 82 38 83 64 84 65 85
REMARK SMILES IDX 73 86 66 87 72 88 74 89 71 90 67 91 68 92 69 93 70 94 49 95
REMARK SMILES IDX 50 96 58 97 51 98 57 99 59 100 56 101 52 102 53 103 54 104
REMARK SMILES IDX 55 105
REMARK H PARENT 89 18 79 58 47 69
REMARK Flexibility Score: inf
ROOT
ATOM      1  C   UNL     1       2.458  -4.067  -2.448  1.00  0.00     0.188 C 
ENDROOT
BRANCH   1   2
ATOM      2  C   UNL     1       2.292  -5.541  -2.882  1.00  0.00     0.188 C 
BRANCH   2   3
ATOM      3  O   UNL     1       3.114  -6.076  -3.913  1.00  0.00    -0.376 OA
BRANCH   3   4
ATOM      4  C   UNL     1       3.470  -5.221  -4.983  1.00  0.00     0.202 C 
BRANCH   4   5
ATOM      5  C   UNL     1       2.334  -4.494  -5.720  1.00  0.00     0.261 C 
BRANCH   5   6
ATOM      6  O   UNL     1       1.370  -3.767  -4.906  1.00  0.00    -0.462 OA
BRANCH   6   7
ATOM      7  C   UNL     1       0.058  -4.113  -4.965  1.00  0.00     0.327 C 
ATOM      8  O   UNL     1      -0.369  -4.939  -5.773  1.00  0.00    -0.250 OA
BRANCH   7   9
ATOM      9  C   UNL     1      -0.863  -3.556  -3.884  1.00  0.00     0.267 C 
BRANCH   9  10
ATOM     10  N   UNL     1      -0.560  -2.260  -3.282  1.00  0.00    -0.256 N 
ATOM     11  C   UNL     1       0.906  -0.422  -0.648  1.00  0.00     0.071 C 
ATOM     12  C   UNL     1       0.269  -0.909  -1.899  1.00  0.00     0.084 A 
ATOM     13  N   UNL     1      -0.057  -2.206  -2.023  1.00  0.00    -0.175 NA
ATOM     14  C   UNL     1      -0.188  -0.151  -3.025  1.00  0.00     0.093 A 
ATOM     15  C   UNL     1      -1.107  -1.024  -3.569  1.00  0.00     0.060 A 
ATOM     16  C   UNL     1      -2.458  -0.847  -4.131  1.00  0.00     0.069 C 
BRANCH  14  17
ATOM     17  N   UNL     1       0.121   1.193  -3.244  1.00  0.00    -0.276 N 
ATOM     18  H   UNL     1       0.577   1.640  -2.494  1.00  0.00     0.180 HD
BRANCH  17  19
ATOM     19  S   UNL     1      -0.161   2.172  -4.582  1.00  0.00     0.264 S 
ATOM     20  O   UNL     1      -1.242   3.051  -4.166  1.00  0.00    -0.201 OA
ATOM     21  O   UNL     1       1.109   2.758  -4.956  1.00  0.00    -0.201 OA
BRANCH  19  22
ATOM     22  C   UNL     1      -0.774   1.260  -5.968  1.00  0.00     0.114 A 
ATOM     23  C   UNL     1      -2.010   1.688  -6.495  1.00  0.00     0.024 A 
ATOM     24  C   UNL     1      -0.123   0.141  -6.481  1.00  0.00     0.091 A 
ATOM     25  C   UNL     1      -2.703   0.906  -7.406  1.00  0.00     0.002 A 
ATOM     26  C   UNL     1      -0.897  -0.690  -7.337  1.00  0.00     0.002 A 
ATOM     27  N   UNL     1       1.160  -0.177  -6.209  1.00  0.00    -0.255 NA
ATOM     28  C   UNL     1      -2.177  -0.322  -7.769  1.00  0.00     0.010 A 
ATOM     29  C   UNL     1      -0.373  -1.903  -7.774  1.00  0.00     0.012 A 
ATOM     30  C   UNL     1       1.690  -1.272  -6.798  1.00  0.00     0.112 A 
ATOM     31  C   UNL     1       0.961  -2.173  -7.553  1.00  0.00     0.021 A 
ENDBRANCH  19  22
ENDBRANCH  17  19
ENDBRANCH  14  17
ENDBRANCH   9  10
ENDBRANCH   7   9
ENDBRANCH   6   7
ENDBRANCH   5   6
ENDBRANCH   4   5
ENDBRANCH   3   4
ENDBRANCH   2   3
ENDBRANCH   1   2
BRANCH   1  32
ATOM     32  O   UNL     1       3.472  -3.314  -3.089  1.00  0.00    -0.377 OA
BRANCH  32  33
ATOM     33  C   UNL     1       4.667  -3.136  -2.345  1.00  0.00     0.188 C 
BRANCH  33  34
ATOM     34  C   UNL     1       5.240  -4.400  -1.673  1.00  0.00     0.188 C 
BRANCH  34  35
ATOM     35  O   UNL     1       4.287  -5.234  -1.022  1.00  0.00    -0.376 OA
BRANCH  35  36
ATOM     36  C   UNL     1       3.982  -5.143   0.362  1.00  0.00     0.202 C 
BRANCH  36  37
ATOM     37  C   UNL     1       3.397  -3.850   0.936  1.00  0.00     0.261 C 
BRANCH  37  38
ATOM     38  O   UNL     1       4.047  -2.669   0.514  1.00  0.00    -0.460 OA
BRANCH  38  39
ATOM     39  C   UNL     1       5.342  -2.592   0.844  1.00  0.00     0.338 C 
ATOM     40  O   UNL     1       6.071  -3.510   1.227  1.00  0.00    -0.246 OA
BRANCH  39  41
ATOM     41  C   UNL     1       5.742  -1.196   0.840  1.00  0.00     0.060 A 
ATOM     42  C   UNL     1       7.081  -0.957   1.130  1.00  0.00     0.016 A 
ATOM     43  C   UNL     1       4.741  -0.223   0.988  1.00  0.00     0.016 A 
ATOM     44  C   UNL     1       7.369   0.169   1.853  1.00  0.00     0.010 A 
ATOM     45  C   UNL     1       5.030   0.894   1.720  1.00  0.00     0.010 A 
ATOM     46  C   UNL     1       6.319   1.022   2.222  1.00  0.00    -0.014 A 
BRANCH  46  47
ATOM     47  C   UNL     1       6.655   2.201   2.979  1.00  0.00     0.031 A 
ATOM     48  C   UNL     1       7.375   3.150   2.117  1.00  0.00     0.074 A 
ATOM     49  C   UNL     1       6.297   2.407   4.258  1.00  0.00     0.049 A 
ATOM     50  N   UNL     1       8.655   3.291   2.046  1.00  0.00    -0.248 NA
ATOM     51  C   UNL     1       6.641   3.759   0.994  1.00  0.00     0.031 C 
ATOM     52  C   UNL     1       5.396   1.602   5.084  1.00  0.00     0.029 A 
ATOM     53  N   UNL     1       6.612   3.449   5.072  1.00  0.00    -0.354 N 
ATOM     54  C   UNL     1       8.839   4.284   1.100  1.00  0.00     0.074 A 
ATOM     55  C   UNL     1       7.652   4.277   0.294  1.00  0.00     0.031 C 
ATOM     56  C   UNL     1       5.069   2.303   6.196  1.00  0.00     0.029 A 
ATOM     57  C   UNL     1       5.829   3.544   6.219  1.00  0.00     0.049 A 
ATOM     58  H   UNL     1       7.335   4.086   4.866  1.00  0.00     0.167 HD
ATOM     59  C   UNL     1       9.736   5.274   1.352  1.00  0.00     0.034 A 
ATOM     60  C   UNL     1       5.778   4.596   7.084  1.00  0.00     0.034 A 
ATOM     61  C   UNL     1      10.689   4.847   2.366  1.00  0.00     0.049 A 
ATOM     62  C   UNL     1       7.060   5.330   6.933  1.00  0.00     0.074 A 
ATOM     63  C   UNL     1      11.541   3.766   2.505  1.00  0.00     0.029 A 
ATOM     64  N   UNL     1      10.550   5.374   3.632  1.00  0.00    -0.354 N 
ATOM     65  N   UNL     1       8.215   4.822   7.264  1.00  0.00    -0.248 NA
ATOM     66  C   UNL     1       7.124   6.425   5.976  1.00  0.00     0.031 C 
ATOM     67  C   UNL     1      11.516   3.438   3.894  1.00  0.00     0.029 A 
ATOM     68  C   UNL     1      10.729   4.380   4.560  1.00  0.00     0.049 A 
ATOM     69  H   UNL     1      10.354   6.316   3.838  1.00  0.00     0.167 HD
ATOM     70  C   UNL     1       9.077   5.195   6.244  1.00  0.00     0.074 A 
ATOM     71  C   UNL     1       8.384   6.281   5.553  1.00  0.00     0.031 C 
ATOM     72  C   UNL     1      10.124   4.391   5.885  1.00  0.00     0.034 A 
BRANCH  59  73
ATOM     73  C   UNL     1       9.435   6.741   1.087  1.00  0.00     0.023 A 
ATOM     74  C   UNL     1      10.418   7.653   1.504  1.00  0.00     0.031 A 
ATOM     75  C   UNL     1       8.177   7.308   0.765  1.00  0.00     0.131 A 
ATOM     76  C   UNL     1      10.095   8.998   1.744  1.00  0.00     0.055 A 
ATOM     77  C   UNL     1       7.880   8.660   0.948  1.00  0.00     0.041 A 
ATOM     78  F   UNL     1       7.133   6.600   0.325  1.00  0.00    -0.206 F 
ATOM     79  C   UNL     1       8.829   9.508   1.480  1.00  0.00     0.022 A 
BRANCH  76  80
ATOM     80  S   UNL     1      11.320  10.016   2.594  1.00  0.00     0.124 S 
ATOM     81  O   UNL     1      11.506   9.259   3.828  1.00  0.00    -0.237 OA
ATOM     82  O   UNL     1      12.431   9.995   1.649  1.00  0.00    -0.237 OA
ATOM     83  O   UNL     1      10.646  11.303   2.738  1.00  0.00    -0.744 OA
ENDBRANCH  76  80
ENDBRANCH  59  73
BRANCH  60  84
ATOM     84  C   UNL     1       4.578   5.172   7.762  1.00  0.00     0.023 A 
ATOM     85  C   UNL     1       4.669   6.113   8.815  1.00  0.00     0.031 A 
ATOM     86  C   UNL     1       3.297   4.991   7.194  1.00  0.00     0.131 A 
ATOM     87  C   UNL     1       3.520   6.825   9.243  1.00  0.00     0.055 A 
ATOM     88  C   UNL     1       2.168   5.695   7.620  1.00  0.00     0.041 A 
ATOM     89  F   UNL     1       3.108   4.186   6.137  1.00  0.00    -0.206 F 
ATOM     90  C   UNL     1       2.277   6.625   8.639  1.00  0.00     0.022 A 
BRANCH  87  91
ATOM     91  S   UNL     1       3.636   8.104  10.540  1.00  0.00     0.124 S 
ATOM     92  O   UNL     1       3.911   7.314  11.734  1.00  0.00    -0.237 OA
ATOM     93  O   UNL     1       4.720   8.950  10.055  1.00  0.00    -0.237 OA
ATOM     94  O   UNL     1       2.315   8.736  10.517  1.00  0.00    -0.744 OA
ENDBRANCH  87  91
ENDBRANCH  60  84
BRANCH  72  95
ATOM     95  C   UNL     1      10.585   3.333   6.875  1.00  0.00     0.023 A 
ATOM     96  C   UNL     1       9.773   2.331   7.456  1.00  0.00     0.031 A 
ATOM     97  C   UNL     1      11.954   3.324   7.200  1.00  0.00     0.131 A 
ATOM     98  C   UNL     1      10.337   1.391   8.343  1.00  0.00     0.055 A 
ATOM     99  C   UNL     1      12.513   2.377   8.057  1.00  0.00     0.041 A 
ATOM    100  F   UNL     1      12.788   4.235   6.671  1.00  0.00    -0.206 F 
ATOM    101  C   UNL     1      11.704   1.413   8.641  1.00  0.00     0.022 A 
BRANCH  98 102
ATOM    102  S   UNL     1       9.299   0.142   9.172  1.00  0.00     0.124 S 
ATOM    103  O   UNL     1       8.130   0.897   9.607  1.00  0.00    -0.237 OA
ATOM    104  O   UNL     1       9.070  -0.832   8.107  1.00  0.00    -0.237 OA
ATOM    105  O   UNL     1      10.152  -0.341  10.261  1.00  0.00    -0.744 OA
ENDBRANCH  98 102
ENDBRANCH  72  95
ENDBRANCH  46  47
ENDBRANCH  39  41
ENDBRANCH  38  39
ENDBRANCH  37  38
ENDBRANCH  36  37
ENDBRANCH  35  36
ENDBRANCH  34  35
ENDBRANCH  33  34
ENDBRANCH  32  33
ENDBRANCH   1  32
TORSDOF 27
