REMARK SMILES C[C@H]1[C@@H](C(=O)OCCOCCOCCOCCOC(=O)c2ccc(-c3c4nc(c(-c5cc(S(=O)(=O)[O-])ccc5F)c5ccc([nH]5)c(-c5cc(S(=O)(=O)[O-])ccc5F)c5nc(c(-c6cc(S(=O)(=O)[O-])ccc6F)c6ccc3[nH]6)C=C5)C=C4)cc2)CC[N@@H+]1CC1(O)CCCC1
REMARK SMILES IDX 12 1 11 2 10 3 9 4 8 5 7 6 6 7 4 8 5 9 3 10 1 11 2 12 86 13
REMARK SMILES IDX 84 14 85 15 87 17 88 18 90 19 93 20 91 21 92 22 89 23 13 25
REMARK SMILES IDX 14 26 15 27 16 28 17 29 18 30 19 31 20 32 21 33 22 34 83 35
REMARK SMILES IDX 23 36 82 37 24 38 25 39 26 40 76 41 27 42 81 43 75 44 77 45
REMARK SMILES IDX 28 46 80 47 74 48 73 49 29 51 61 52 41 53 60 54 42 55 45 56
REMARK SMILES IDX 59 57 78 58 43 59 44 60 58 62 79 63 46 64 30 65 31 66 39 67
REMARK SMILES IDX 32 68 38 69 40 70 37 71 33 72 34 73 35 74 36 75 62 76 63 77
REMARK SMILES IDX 71 78 64 79 70 80 72 81 69 82 65 83 66 84 67 85 68 86 47 87
REMARK SMILES IDX 48 88 56 89 49 90 55 91 57 92 54 93 50 94 51 95 52 96 53 97
REMARK H PARENT 86 16 89 24 77 50 45 61
REMARK Flexibility Score: inf
ROOT
ATOM      1  O   UNL     1       1.119  -0.288  -3.487  1.00  0.00    -0.377 OA
ENDROOT
BRANCH   1   2
ATOM      2  C   UNL     1      -0.021   0.381  -2.977  1.00  0.00     0.188 C 
BRANCH   2   3
ATOM      3  C   UNL     1      -0.467   1.782  -3.438  1.00  0.00     0.188 C 
BRANCH   3   4
ATOM      4  O   UNL     1       0.464   2.436  -4.269  1.00  0.00    -0.376 OA
BRANCH   4   5
ATOM      5  C   UNL     1       1.296   3.431  -3.713  1.00  0.00     0.202 C 
BRANCH   5   6
ATOM      6  C   UNL     1       2.104   3.188  -2.424  1.00  0.00     0.261 C 
BRANCH   6   7
ATOM      7  O   UNL     1       1.608   2.224  -1.482  1.00  0.00    -0.463 OA
BRANCH   7   8
ATOM      8  C   UNL     1       0.738   2.659  -0.551  1.00  0.00     0.315 C 
ATOM      9  O   UNL     1       0.295   3.805  -0.522  1.00  0.00    -0.252 OA
BRANCH   8  10
ATOM     10  C   UNL     1       0.246   1.601   0.429  1.00  0.00     0.162 C 
ATOM     11  C   UNL     1       2.211  -0.128   0.014  1.00  0.00     0.076 C 
ATOM     12  C   UNL     1       0.983   0.302   0.812  1.00  0.00     0.195 C 
ATOM     13  N   UNL     1      -0.031  -0.777   0.836  1.00  0.00    -0.330 N 
ATOM     14  C   UNL     1      -1.206   1.184   0.158  1.00  0.00     0.083 C 
ATOM     15  C   UNL     1      -1.216  -0.335   0.114  1.00  0.00     0.263 C 
ATOM     16  H   UNL     1       0.399  -1.569   0.358  1.00  0.00     0.348 HD
BRANCH  13  17
ATOM     17  C   UNL     1      -0.343  -1.374   2.149  1.00  0.00     0.297 C 
BRANCH  17  18
ATOM     18  C   UNL     1      -1.157  -0.556   3.193  1.00  0.00     0.113 C 
ATOM     19  C   UNL     1      -0.470   0.717   3.686  1.00  0.00     0.041 C 
ATOM     20  C   UNL     1      -1.353  -1.308   4.512  1.00  0.00     0.041 C 
ATOM     21  C   UNL     1      -1.180   1.083   4.979  1.00  0.00     0.003 C 
ATOM     22  C   UNL     1      -1.806  -0.213   5.483  1.00  0.00     0.003 C 
BRANCH  18  23
ATOM     23  O   UNL     1      -2.478  -0.284   2.700  1.00  0.00    -0.384 OA
ATOM     24  H   UNL     1      -2.416   0.195   1.859  1.00  0.00     0.211 HD
ENDBRANCH  18  23
ENDBRANCH  17  18
ENDBRANCH  13  17
ENDBRANCH   8  10
ENDBRANCH   7   8
ENDBRANCH   6   7
ENDBRANCH   5   6
ENDBRANCH   4   5
ENDBRANCH   3   4
ENDBRANCH   2   3
ENDBRANCH   1   2
BRANCH   1  25
ATOM     25  C   UNL     1       1.591   0.051  -4.774  1.00  0.00     0.188 C 
BRANCH  25  26
ATOM     26  C   UNL     1       0.556   0.033  -5.912  1.00  0.00     0.188 C 
BRANCH  26  27
ATOM     27  O   UNL     1      -0.786  -0.133  -5.472  1.00  0.00    -0.376 OA
BRANCH  27  28
ATOM     28  C   UNL     1      -1.366  -1.426  -5.563  1.00  0.00     0.202 C 
BRANCH  28  29
ATOM     29  C   UNL     1      -0.728  -2.616  -4.820  1.00  0.00     0.261 C 
BRANCH  29  30
ATOM     30  O   UNL     1       0.681  -2.813  -4.980  1.00  0.00    -0.460 OA
BRANCH  30  31
ATOM     31  C   UNL     1       1.118  -3.124  -6.222  1.00  0.00     0.338 C 
ATOM     32  O   UNL     1       0.445  -3.255  -7.218  1.00  0.00    -0.246 OA
BRANCH  31  33
ATOM     33  C   UNL     1       2.597  -3.069  -6.190  1.00  0.00     0.060 A 
ATOM     34  C   UNL     1       3.247  -2.139  -7.012  1.00  0.00     0.016 A 
ATOM     35  C   UNL     1       3.330  -3.913  -5.352  1.00  0.00     0.016 A 
ATOM     36  C   UNL     1       4.636  -2.074  -7.024  1.00  0.00     0.010 A 
ATOM     37  C   UNL     1       4.727  -3.877  -5.397  1.00  0.00     0.010 A 
ATOM     38  C   UNL     1       5.381  -2.987  -6.268  1.00  0.00    -0.014 A 
BRANCH  38  39
ATOM     39  C   UNL     1       6.805  -3.180  -6.627  1.00  0.00     0.031 A 
ATOM     40  C   UNL     1       7.128  -4.267  -7.617  1.00  0.00     0.074 A 
ATOM     41  C   UNL     1       7.765  -2.354  -6.176  1.00  0.00     0.049 A 
ATOM     42  N   UNL     1       8.277  -4.607  -8.139  1.00  0.00    -0.248 NA
ATOM     43  C   UNL     1       5.991  -5.078  -8.086  1.00  0.00     0.031 C 
ATOM     44  C   UNL     1       7.553  -1.230  -5.266  1.00  0.00     0.029 A 
ATOM     45  N   UNL     1       9.111  -2.327  -6.439  1.00  0.00    -0.354 N 
ATOM     46  C   UNL     1       8.001  -5.666  -8.998  1.00  0.00     0.074 A 
ATOM     47  C   UNL     1       6.586  -5.942  -8.890  1.00  0.00     0.031 C 
ATOM     48  C   UNL     1       8.732  -0.621  -5.046  1.00  0.00     0.029 A 
ATOM     49  C   UNL     1       9.784  -1.330  -5.773  1.00  0.00     0.049 A 
ATOM     50  H   UNL     1       9.553  -2.962  -7.047  1.00  0.00     0.167 HD
ATOM     51  C   UNL     1       8.849  -6.337  -9.815  1.00  0.00     0.034 A 
ATOM     52  C   UNL     1      11.101  -1.039  -5.746  1.00  0.00     0.034 A 
ATOM     53  C   UNL     1      10.261  -6.058  -9.893  1.00  0.00     0.049 A 
ATOM     54  C   UNL     1      12.045  -1.867  -6.589  1.00  0.00     0.074 A 
ATOM     55  C   UNL     1      11.219  -6.676 -10.676  1.00  0.00     0.029 A 
ATOM     56  N   UNL     1      10.922  -5.087  -9.150  1.00  0.00    -0.354 N 
ATOM     57  N   UNL     1      11.775  -2.866  -7.400  1.00  0.00    -0.248 NA
ATOM     58  C   UNL     1      13.468  -1.516  -6.524  1.00  0.00     0.031 C 
ATOM     59  C   UNL     1      12.467  -6.139 -10.345  1.00  0.00     0.029 A 
ATOM     60  C   UNL     1      12.279  -5.114  -9.430  1.00  0.00     0.049 A 
ATOM     61  H   UNL     1      10.489  -4.469  -8.518  1.00  0.00     0.167 HD
ATOM     62  C   UNL     1      12.992  -3.235  -7.970  1.00  0.00     0.074 A 
ATOM     63  C   UNL     1      13.989  -2.337  -7.423  1.00  0.00     0.031 C 
ATOM     64  C   UNL     1      13.264  -4.219  -8.867  1.00  0.00     0.034 A 
BRANCH  51  65
ATOM     65  C   UNL     1       8.274  -7.472 -10.627  1.00  0.00     0.023 A 
ATOM     66  C   UNL     1       7.283  -7.263 -11.603  1.00  0.00     0.031 A 
ATOM     67  C   UNL     1       8.693  -8.793 -10.389  1.00  0.00     0.131 A 
ATOM     68  C   UNL     1       6.694  -8.361 -12.250  1.00  0.00     0.055 A 
ATOM     69  C   UNL     1       8.165  -9.873 -11.099  1.00  0.00     0.041 A 
ATOM     70  F   UNL     1       9.612  -9.060  -9.448  1.00  0.00    -0.206 F 
ATOM     71  C   UNL     1       7.149  -9.662 -12.025  1.00  0.00     0.022 A 
BRANCH  68  72
ATOM     72  S   UNL     1       5.222  -8.080 -13.273  1.00  0.00     0.124 S 
ATOM     73  O   UNL     1       4.306  -7.473 -12.310  1.00  0.00    -0.237 OA
ATOM     74  O   UNL     1       5.727  -7.199 -14.319  1.00  0.00    -0.237 OA
ATOM     75  O   UNL     1       4.850  -9.423 -13.714  1.00  0.00    -0.744 OA
ENDBRANCH  68  72
ENDBRANCH  51  65
BRANCH  52  76
ATOM     76  C   UNL     1      11.621   0.054  -4.873  1.00  0.00     0.023 A 
ATOM     77  C   UNL     1      12.295   1.163  -5.409  1.00  0.00     0.031 A 
ATOM     78  C   UNL     1      11.513  -0.034  -3.473  1.00  0.00     0.131 A 
ATOM     79  C   UNL     1      12.879   2.110  -4.552  1.00  0.00     0.055 A 
ATOM     80  C   UNL     1      12.043   0.942  -2.626  1.00  0.00     0.041 A 
ATOM     81  F   UNL     1      10.887  -1.076  -2.903  1.00  0.00    -0.206 F 
ATOM     82  C   UNL     1      12.744   2.015  -3.165  1.00  0.00     0.022 A 
BRANCH  79  83
ATOM     83  S   UNL     1      13.911   3.418  -5.273  1.00  0.00     0.124 S 
ATOM     84  O   UNL     1      14.923   2.641  -5.978  1.00  0.00    -0.237 OA
ATOM     85  O   UNL     1      12.952   4.133  -6.108  1.00  0.00    -0.237 OA
ATOM     86  O   UNL     1      14.389   4.155  -4.105  1.00  0.00    -0.744 OA
ENDBRANCH  79  83
ENDBRANCH  52  76
BRANCH  64  87
ATOM     87  C   UNL     1      14.692  -4.335  -9.351  1.00  0.00     0.023 A 
ATOM     88  C   UNL     1      15.750  -4.651  -8.481  1.00  0.00     0.031 A 
ATOM     89  C   UNL     1      15.002  -4.096 -10.703  1.00  0.00     0.131 A 
ATOM     90  C   UNL     1      17.072  -4.637  -8.952  1.00  0.00     0.055 A 
ATOM     91  C   UNL     1      16.310  -4.165 -11.183  1.00  0.00     0.041 A 
ATOM     92  F   UNL     1      14.035  -3.787 -11.582  1.00  0.00    -0.206 F 
ATOM     93  C   UNL     1      17.357  -4.418 -10.302  1.00  0.00     0.022 A 
BRANCH  90  94
ATOM     94  S   UNL     1      18.424  -4.772  -7.750  1.00  0.00     0.124 S 
ATOM     95  O   UNL     1      18.126  -3.675  -6.836  1.00  0.00    -0.237 OA
ATOM     96  O   UNL     1      18.233  -6.117  -7.216  1.00  0.00    -0.237 OA
ATOM     97  O   UNL     1      19.625  -4.594  -8.564  1.00  0.00    -0.744 OA
ENDBRANCH  90  94
ENDBRANCH  64  87
ENDBRANCH  38  39
ENDBRANCH  31  33
ENDBRANCH  30  31
ENDBRANCH  29  30
ENDBRANCH  28  29
ENDBRANCH  27  28
ENDBRANCH  26  27
ENDBRANCH  25  26
ENDBRANCH   1  25
TORSDOF 26
