REMARK SMILES Cc1c(C(=O)OCCOCCOCCOCCOC(=O)c2ccc(-c3c4nc(c(-c5cc(S(=O)(=O)[O-])ccc5F)c5ccc([nH]5)c(-c5cc(S(=O)(=O)[O-])ccc5F)c5nc(c(-c6cc(S(=O)(=O)[O-])ccc6F)c6ccc3[nH]6)C=C5)C=C4)cc2)oc2c1/C(=N/NC(=O)C(c1ccccc1)c1ccccc1)CCC2
REMARK SMILES IDX 12 1 11 2 10 3 9 4 8 5 7 6 6 7 4 8 5 9 3 10 1 11 2 12 86 13
REMARK SMILES IDX 84 14 85 15 87 16 107 17 88 18 105 19 106 20 89 21 90 22
REMARK SMILES IDX 91 24 92 25 93 26 94 27 98 28 95 29 97 30 96 31 99 32 100 33
REMARK SMILES IDX 104 34 101 35 103 36 102 37 13 38 14 39 15 40 16 41 17 42
REMARK SMILES IDX 18 43 19 44 20 45 21 46 22 47 83 48 23 49 82 50 24 51 25 52
REMARK SMILES IDX 26 53 76 54 27 55 81 56 75 57 77 58 28 59 80 60 74 61 73 62
REMARK SMILES IDX 29 64 61 65 41 66 60 67 42 68 45 69 59 70 78 71 43 72 44 73
REMARK SMILES IDX 58 75 79 76 46 77 30 78 31 79 39 80 32 81 38 82 40 83 37 84
REMARK SMILES IDX 33 85 34 86 35 87 36 88 62 89 63 90 71 91 64 92 70 93 72 94
REMARK SMILES IDX 69 95 65 96 66 97 67 98 68 99 47 100 48 101 56 102 49 103
REMARK SMILES IDX 55 104 57 105 54 106 50 107 51 108 52 109 53 110
REMARK H PARENT 89 23 77 63 45 74
REMARK Flexibility Score: inf
ROOT
ATOM      1  O   UNL     1       4.451  -4.499  -0.291  1.00  0.00    -0.377 OA
ENDROOT
BRANCH   1   2
ATOM      2  C   UNL     1       3.651  -3.378   0.087  1.00  0.00     0.188 C 
BRANCH   2   3
ATOM      3  C   UNL     1       3.792  -2.667   1.453  1.00  0.00     0.188 C 
BRANCH   3   4
ATOM      4  O   UNL     1       4.199  -3.549   2.486  1.00  0.00    -0.376 OA
BRANCH   4   5
ATOM      5  C   UNL     1       3.510  -3.545   3.716  1.00  0.00     0.202 C 
BRANCH   5   6
ATOM      6  C   UNL     1       2.274  -4.435   3.659  1.00  0.00     0.261 C 
BRANCH   6   7
ATOM      7  O   UNL     1       1.280  -4.016   2.723  1.00  0.00    -0.457 OA
BRANCH   7   8
ATOM      8  C   UNL     1       0.861  -2.725   2.665  1.00  0.00     0.374 C 
ATOM      9  O   UNL     1       1.037  -1.876   3.535  1.00  0.00    -0.242 OA
BRANCH   8  10
ATOM     10  C   UNL     1       0.347  -2.519   1.334  1.00  0.00     0.215 A 
ATOM     11  C   UNL     1       0.624  -0.022   0.725  1.00  0.00     0.049 C 
ATOM     12  C   UNL     1       0.203  -1.424   0.471  1.00  0.00     0.012 A 
ATOM     13  C   UNL     1      -0.381  -1.963  -0.719  1.00  0.00     0.043 A 
ATOM     14  O   UNL     1       0.041  -3.672   0.674  1.00  0.00    -0.453 OA
ATOM     15  C   UNL     1      -0.305  -3.335  -0.561  1.00  0.00     0.114 A 
ATOM     16  C   UNL     1      -1.012  -1.459  -1.940  1.00  0.00     0.072 C 
ATOM     17  C   UNL     1      -0.623  -4.446  -1.481  1.00  0.00     0.076 C 
ATOM     18  N   UNL     1      -1.023  -0.188  -2.195  1.00  0.00    -0.177 NA
ATOM     19  C   UNL     1      -1.695  -2.572  -2.664  1.00  0.00     0.059 C 
ATOM     20  C   UNL     1      -0.898  -3.851  -2.847  1.00  0.00     0.014 C 
BRANCH  18  21
ATOM     21  N   UNL     1      -1.637   0.560  -3.180  1.00  0.00    -0.246 N 
ATOM     22  C   UNL     1      -2.608   0.519  -4.160  1.00  0.00     0.252 C 
ATOM     23  H   UNL     1      -1.231   1.457  -3.185  1.00  0.00     0.193 HD
ATOM     24  O   UNL     1      -2.837   1.616  -4.707  1.00  0.00    -0.272 OA
BRANCH  22  25
ATOM     25  C   UNL     1      -3.434  -0.713  -4.659  1.00  0.00     0.140 C 
BRANCH  25  26
ATOM     26  C   UNL     1      -2.492  -1.600  -5.556  1.00  0.00    -0.031 A 
ATOM     27  C   UNL     1      -2.758  -2.931  -5.916  1.00  0.00     0.005 A 
ATOM     28  C   UNL     1      -1.206  -1.108  -5.910  1.00  0.00     0.005 A 
ATOM     29  C   UNL     1      -1.727  -3.775  -6.370  1.00  0.00     0.000 A 
ATOM     30  C   UNL     1      -0.183  -1.945  -6.362  1.00  0.00     0.000 A 
ATOM     31  C   UNL     1      -0.432  -3.293  -6.550  1.00  0.00     0.000 A 
ENDBRANCH  25  26
BRANCH  25  32
ATOM     32  C   UNL     1      -4.281  -1.238  -3.449  1.00  0.00    -0.031 A 
ATOM     33  C   UNL     1      -4.576  -0.331  -2.398  1.00  0.00     0.005 A 
ATOM     34  C   UNL     1      -4.716  -2.558  -3.250  1.00  0.00     0.005 A 
ATOM     35  C   UNL     1      -5.006  -0.758  -1.139  1.00  0.00     0.000 A 
ATOM     36  C   UNL     1      -5.167  -2.990  -1.986  1.00  0.00     0.000 A 
ATOM     37  C   UNL     1      -5.255  -2.102  -0.918  1.00  0.00     0.000 A 
ENDBRANCH  25  32
ENDBRANCH  22  25
ENDBRANCH  18  21
ENDBRANCH   8  10
ENDBRANCH   7   8
ENDBRANCH   6   7
ENDBRANCH   5   6
ENDBRANCH   4   5
ENDBRANCH   3   4
ENDBRANCH   2   3
ENDBRANCH   1   2
BRANCH   1  38
ATOM     38  C   UNL     1       5.358  -5.062   0.646  1.00  0.00     0.188 C 
BRANCH  38  39
ATOM     39  C   UNL     1       6.537  -4.159   1.081  1.00  0.00     0.188 C 
BRANCH  39  40
ATOM     40  O   UNL     1       6.349  -2.773   0.827  1.00  0.00    -0.376 OA
BRANCH  40  41
ATOM     41  C   UNL     1       7.016  -2.107  -0.230  1.00  0.00     0.202 C 
BRANCH  41  42
ATOM     42  C   UNL     1       6.751  -2.550  -1.665  1.00  0.00     0.261 C 
BRANCH  42  43
ATOM     43  O   UNL     1       6.738  -3.948  -1.846  1.00  0.00    -0.460 OA
BRANCH  43  44
ATOM     44  C   UNL     1       7.904  -4.565  -1.596  1.00  0.00     0.338 C 
ATOM     45  O   UNL     1       8.905  -4.086  -1.092  1.00  0.00    -0.246 OA
BRANCH  44  46
ATOM     46  C   UNL     1       7.807  -5.920  -2.129  1.00  0.00     0.060 A 
ATOM     47  C   UNL     1       8.901  -6.746  -1.879  1.00  0.00     0.016 A 
ATOM     48  C   UNL     1       6.877  -6.164  -3.152  1.00  0.00     0.016 A 
ATOM     49  C   UNL     1       9.233  -7.650  -2.852  1.00  0.00     0.010 A 
ATOM     50  C   UNL     1       7.228  -7.044  -4.136  1.00  0.00     0.010 A 
ATOM     51  C   UNL     1       8.453  -7.690  -4.013  1.00  0.00    -0.014 A 
BRANCH  51  52
ATOM     52  C   UNL     1       8.950  -8.473  -5.111  1.00  0.00     0.031 A 
ATOM     53  C   UNL     1       8.746  -9.915  -4.917  1.00  0.00     0.074 A 
ATOM     54  C   UNL     1       9.478  -7.912  -6.211  1.00  0.00     0.049 A 
ATOM     55  N   UNL     1       9.647 -10.812  -4.711  1.00  0.00    -0.248 NA
ATOM     56  C   UNL     1       7.364 -10.384  -4.740  1.00  0.00     0.031 C 
ATOM     57  C   UNL     1       9.467  -6.503  -6.609  1.00  0.00     0.029 A 
ATOM     58  N   UNL     1      10.044  -8.534  -7.275  1.00  0.00    -0.354 N 
ATOM     59  C   UNL     1       8.950 -12.006  -4.617  1.00  0.00     0.074 A 
ATOM     60  C   UNL     1       7.569 -11.660  -4.421  1.00  0.00     0.031 C 
ATOM     61  C   UNL     1       9.789  -6.418  -7.920  1.00  0.00     0.029 A 
ATOM     62  C   UNL     1      10.140  -7.742  -8.409  1.00  0.00     0.049 A 
ATOM     63  H   UNL     1      10.360  -9.466  -7.245  1.00  0.00     0.167 HD
ATOM     64  C   UNL     1       9.530 -13.180  -4.978  1.00  0.00     0.034 A 
ATOM     65  C   UNL     1      10.385  -8.181  -9.671  1.00  0.00     0.034 A 
ATOM     66  C   UNL     1      10.971 -13.080  -4.972  1.00  0.00     0.049 A 
ATOM     67  C   UNL     1      11.044  -9.511  -9.549  1.00  0.00     0.074 A 
ATOM     68  C   UNL     1      11.895 -12.715  -4.008  1.00  0.00     0.029 A 
ATOM     69  N   UNL     1      11.632 -12.965  -6.176  1.00  0.00    -0.354 N 
ATOM     70  N   UNL     1      12.227  -9.682  -9.024  1.00  0.00    -0.248 NA
ATOM     71  C   UNL     1      10.201 -10.700  -9.554  1.00  0.00     0.031 C 
ATOM     72  C   UNL     1      12.862 -11.929  -4.702  1.00  0.00     0.029 A 
ATOM     73  C   UNL     1      12.522 -11.921  -6.056  1.00  0.00     0.049 A 
ATOM     74  H   UNL     1      11.494 -13.526  -6.973  1.00  0.00     0.167 HD
ATOM     75  C   UNL     1      12.124 -10.835  -8.258  1.00  0.00     0.074 A 
ATOM     76  C   UNL     1      10.888 -11.473  -8.706  1.00  0.00     0.031 C 
ATOM     77  C   UNL     1      12.888 -11.023  -7.139  1.00  0.00     0.034 A 
BRANCH  64  78
ATOM     78  C   UNL     1       8.770 -14.292  -5.650  1.00  0.00     0.023 A 
ATOM     79  C   UNL     1       9.442 -15.504  -5.865  1.00  0.00     0.031 A 
ATOM     80  C   UNL     1       7.526 -14.146  -6.313  1.00  0.00     0.131 A 
ATOM     81  C   UNL     1       8.912 -16.470  -6.737  1.00  0.00     0.055 A 
ATOM     82  C   UNL     1       6.966 -15.142  -7.113  1.00  0.00     0.041 A 
ATOM     83  F   UNL     1       6.830 -13.002  -6.311  1.00  0.00    -0.206 F 
ATOM     84  C   UNL     1       7.673 -16.305  -7.351  1.00  0.00     0.022 A 
BRANCH  81  85
ATOM     85  S   UNL     1       9.957 -17.874  -7.195  1.00  0.00     0.124 S 
ATOM     86  O   UNL     1      11.167 -17.203  -7.657  1.00  0.00    -0.237 OA
ATOM     87  O   UNL     1      10.061 -18.593  -5.930  1.00  0.00    -0.237 OA
ATOM     88  O   UNL     1       9.181 -18.547  -8.234  1.00  0.00    -0.744 OA
ENDBRANCH  81  85
ENDBRANCH  64  78
BRANCH  65  89
ATOM     89  C   UNL     1       9.753  -7.668 -10.917  1.00  0.00     0.023 A 
ATOM     90  C   UNL     1      10.282  -7.926 -12.197  1.00  0.00     0.031 A 
ATOM     91  C   UNL     1       8.466  -7.082 -10.872  1.00  0.00     0.131 A 
ATOM     92  C   UNL     1       9.539  -7.592 -13.354  1.00  0.00     0.055 A 
ATOM     93  C   UNL     1       7.745  -6.739 -12.016  1.00  0.00     0.041 A 
ATOM     94  F   UNL     1       7.821  -6.899  -9.709  1.00  0.00    -0.206 F 
ATOM     95  C   UNL     1       8.277  -7.000 -13.266  1.00  0.00     0.022 A 
BRANCH  92  96
ATOM     96  S   UNL     1      10.171  -8.021 -15.007  1.00  0.00     0.124 S 
ATOM     97  O   UNL     1      11.299  -7.109 -15.155  1.00  0.00    -0.237 OA
ATOM     98  O   UNL     1      10.493  -9.436 -14.861  1.00  0.00    -0.237 OA
ATOM     99  O   UNL     1       9.036  -7.743 -15.889  1.00  0.00    -0.744 OA
ENDBRANCH  92  96
ENDBRANCH  65  89
BRANCH  77 100
ATOM    100  C   UNL     1      14.059 -10.086  -6.889  1.00  0.00     0.023 A 
ATOM    101  C   UNL     1      13.964  -8.677  -6.811  1.00  0.00     0.031 A 
ATOM    102  C   UNL     1      15.305 -10.666  -6.588  1.00  0.00     0.131 A 
ATOM    103  C   UNL     1      15.092  -7.909  -6.456  1.00  0.00     0.055 A 
ATOM    104  C   UNL     1      16.413  -9.905  -6.213  1.00  0.00     0.041 A 
ATOM    105  F   UNL     1      15.460 -12.001  -6.615  1.00  0.00    -0.206 F 
ATOM    106  C   UNL     1      16.312  -8.521  -6.152  1.00  0.00     0.022 A 
BRANCH 103 107
ATOM    107  S   UNL     1      14.999  -6.089  -6.396  1.00  0.00     0.124 S 
ATOM    108  O   UNL     1      14.324  -5.739  -7.640  1.00  0.00    -0.237 OA
ATOM    109  O   UNL     1      14.245  -5.853  -5.168  1.00  0.00    -0.237 OA
ATOM    110  O   UNL     1      16.404  -5.680  -6.332  1.00  0.00    -0.744 OA
ENDBRANCH 103 107
ENDBRANCH  77 100
ENDBRANCH  51  52
ENDBRANCH  44  46
ENDBRANCH  43  44
ENDBRANCH  42  43
ENDBRANCH  41  42
ENDBRANCH  40  41
ENDBRANCH  39  40
ENDBRANCH  38  39
ENDBRANCH   1  38
TORSDOF 27
