REMARK SMILES O=C(CCCN1C(=O)/C(=C/c2cc(Br)ccc2O)SC1=S)OCCOCCOCCOCCOC(=O)c1ccc(-c2c3nc(c(-c4cc(S(=O)(=O)[O-])ccc4F)c4ccc([nH]4)c(-c4cc(S(=O)(=O)[O-])ccc4F)c4nc(c(-c5cc(S(=O)(=O)[O-])ccc5F)c5ccc2[nH]5)C=C4)C=C3)cc1
REMARK SMILES IDX 27 1 26 2 25 3 24 4 23 5 22 6 2 7 1 8 3 9 4 10 5 11 6 12
REMARK SMILES IDX 7 13 20 14 8 15 9 16 19 17 21 18 10 19 11 20 12 21 17 22
REMARK SMILES IDX 13 23 16 24 14 25 15 26 18 27 28 29 29 30 30 31 31 32 32 33
REMARK SMILES IDX 33 34 34 35 35 36 36 37 37 38 38 39 99 40 39 41 98 42 40 43
REMARK SMILES IDX 41 44 42 45 92 46 43 47 97 48 91 49 93 50 44 51 96 52 90 53
REMARK SMILES IDX 89 54 45 56 77 57 57 58 76 59 58 60 61 61 75 62 94 63 59 64
REMARK SMILES IDX 60 65 74 67 95 68 62 69 46 70 47 71 55 72 48 73 54 74 56 75
REMARK SMILES IDX 53 76 49 77 50 78 51 79 52 80 78 81 79 82 87 83 80 84 86 85
REMARK SMILES IDX 88 86 85 87 81 88 82 89 83 90 84 91 63 92 64 93 72 94 65 95
REMARK SMILES IDX 71 96 73 97 70 98 66 99 67 100 68 101 69 102
REMARK H PARENT 18 28 93 55 61 66
REMARK Flexibility Score: inf
ROOT
ATOM      1  C   UNL     1       1.470   1.518   1.958  1.00  0.00     0.188 C 
ENDROOT
BRANCH   1   2
ATOM      2  C   UNL     1       2.083   0.197   1.474  1.00  0.00     0.188 C 
BRANCH   2   3
ATOM      3  O   UNL     1       3.232   0.252   0.617  1.00  0.00    -0.376 OA
BRANCH   3   4
ATOM      4  C   UNL     1       3.156   1.178  -0.455  1.00  0.00     0.202 C 
BRANCH   4   5
ATOM      5  C   UNL     1       3.349   0.608  -1.857  1.00  0.00     0.261 C 
BRANCH   5   6
ATOM      6  O   UNL     1       2.800  -0.668  -2.215  1.00  0.00    -0.463 OA
BRANCH   6   7
ATOM      7  C   UNL     1       2.442  -1.562  -1.277  1.00  0.00     0.305 C 
ATOM      8  O   UNL     1       1.258  -1.792  -1.042  1.00  0.00    -0.252 OA
BRANCH   7   9
ATOM      9  C   UNL     1       3.556  -2.368  -0.633  1.00  0.00     0.124 C 
BRANCH   9  10
ATOM     10  C   UNL     1       4.813  -2.627  -1.456  1.00  0.00     0.034 C 
BRANCH  10  11
ATOM     11  C   UNL     1       6.002  -1.655  -1.331  1.00  0.00     0.128 C 
BRANCH  11  12
ATOM     12  N   UNL     1       6.476  -1.214  -0.007  1.00  0.00    -0.293 N 
ATOM     13  C   UNL     1       6.747   0.142   0.172  1.00  0.00     0.266 C 
ATOM     14  C   UNL     1       6.940  -2.040   0.998  1.00  0.00     0.148 C 
ATOM     15  O   UNL     1       6.530   1.032  -0.641  1.00  0.00    -0.268 OA
ATOM     16  C   UNL     1       7.434   0.390   1.476  1.00  0.00     0.081 C 
ATOM     17  S   UNL     1       7.601  -1.087   2.327  1.00  0.00    -0.054 SA
ATOM     18  S   UNL     1       6.970  -3.708   1.050  1.00  0.00    -0.052 S 
ATOM     19  C   UNL     1       7.881   1.601   1.843  1.00  0.00     0.033 C 
BRANCH  19  20
ATOM     20  C   UNL     1       8.676   1.920   3.046  1.00  0.00     0.019 A 
ATOM     21  C   UNL     1       8.053   2.424   4.194  1.00  0.00     0.027 A 
ATOM     22  C   UNL     1      10.072   1.784   3.057  1.00  0.00     0.122 A 
ATOM     23  C   UNL     1       8.809   2.794   5.310  1.00  0.00     0.018 A 
ATOM     24  C   UNL     1      10.828   2.143   4.179  1.00  0.00     0.048 A 
ATOM     25  Br  UNL     1       7.963   3.497   6.846  1.00  0.00    -0.051 Br
ATOM     26  C   UNL     1      10.192   2.656   5.307  1.00  0.00     0.019 A 
BRANCH  22  27
ATOM     27  O   UNL     1      10.708   1.304   1.944  1.00  0.00    -0.507 OA
ATOM     28  H   UNL     1      10.210   1.062   1.188  1.00  0.00     0.293 HD
ENDBRANCH  22  27
ENDBRANCH  19  20
ENDBRANCH  11  12
ENDBRANCH  10  11
ENDBRANCH   9  10
ENDBRANCH   7   9
ENDBRANCH   6   7
ENDBRANCH   5   6
ENDBRANCH   4   5
ENDBRANCH   3   4
ENDBRANCH   2   3
ENDBRANCH   1   2
BRANCH   1  29
ATOM     29  O   UNL     1       2.248   2.695   1.873  1.00  0.00    -0.377 OA
BRANCH  29  30
ATOM     30  C   UNL     1       3.591   2.720   2.315  1.00  0.00     0.188 C 
BRANCH  30  31
ATOM     31  C   UNL     1       4.146   1.675   3.283  1.00  0.00     0.188 C 
BRANCH  31  32
ATOM     32  O   UNL     1       3.203   1.142   4.202  1.00  0.00    -0.376 OA
BRANCH  32  33
ATOM     33  C   UNL     1       3.254   1.713   5.507  1.00  0.00     0.202 C 
BRANCH  33  34
ATOM     34  C   UNL     1       2.397   2.978   5.636  1.00  0.00     0.261 C 
BRANCH  34  35
ATOM     35  O   UNL     1       2.855   4.124   4.895  1.00  0.00    -0.460 OA
BRANCH  35  36
ATOM     36  C   UNL     1       4.082   4.608   5.194  1.00  0.00     0.338 C 
ATOM     37  O   UNL     1       4.836   4.176   6.049  1.00  0.00    -0.246 OA
BRANCH  36  38
ATOM     38  C   UNL     1       4.452   5.628   4.186  1.00  0.00     0.060 A 
ATOM     39  C   UNL     1       5.644   5.469   3.464  1.00  0.00     0.016 A 
ATOM     40  C   UNL     1       3.612   6.710   3.923  1.00  0.00     0.016 A 
ATOM     41  C   UNL     1       6.014   6.402   2.492  1.00  0.00     0.010 A 
ATOM     42  C   UNL     1       3.998   7.660   2.974  1.00  0.00     0.010 A 
ATOM     43  C   UNL     1       5.213   7.527   2.276  1.00  0.00    -0.014 A 
BRANCH  43  44
ATOM     44  C   UNL     1       5.744   8.700   1.538  1.00  0.00     0.031 A 
ATOM     45  C   UNL     1       6.336   9.812   2.357  1.00  0.00     0.074 A 
ATOM     46  C   UNL     1       5.684   8.804   0.199  1.00  0.00     0.049 A 
ATOM     47  N   UNL     1       6.641  11.035   2.015  1.00  0.00    -0.248 NA
ATOM     48  C   UNL     1       6.601   9.492   3.768  1.00  0.00     0.031 C 
ATOM     49  C   UNL     1       5.231   7.758  -0.713  1.00  0.00     0.029 A 
ATOM     50  N   UNL     1       5.988   9.863  -0.622  1.00  0.00    -0.354 N 
ATOM     51  C   UNL     1       7.099  11.644   3.178  1.00  0.00     0.074 A 
ATOM     52  C   UNL     1       7.017  10.657   4.233  1.00  0.00     0.031 C 
ATOM     53  C   UNL     1       5.255   8.239  -1.970  1.00  0.00     0.029 A 
ATOM     54  C   UNL     1       5.662   9.644  -1.941  1.00  0.00     0.049 A 
ATOM     55  H   UNL     1       6.400  10.696  -0.299  1.00  0.00     0.167 HD
ATOM     56  C   UNL     1       7.537  12.916   3.350  1.00  0.00     0.034 A 
ATOM     57  C   UNL     1       5.638  10.498  -2.986  1.00  0.00     0.034 A 
ATOM     58  C   UNL     1       7.591  13.885   2.285  1.00  0.00     0.049 A 
ATOM     59  C   UNL     1       6.024  11.944  -2.761  1.00  0.00     0.074 A 
ATOM     60  C   UNL     1       7.988  15.209   2.340  1.00  0.00     0.029 A 
ATOM     61  N   UNL     1       7.222  13.635   0.969  1.00  0.00    -0.354 N 
ATOM     62  N   UNL     1       6.400  12.537  -1.650  1.00  0.00    -0.248 NA
ATOM     63  C   UNL     1       5.974  12.836  -3.928  1.00  0.00     0.031 C 
ATOM     64  C   UNL     1       7.793  15.776   1.076  1.00  0.00     0.029 A 
ATOM     65  C   UNL     1       7.357  14.785   0.209  1.00  0.00     0.049 A 
ATOM     66  H   UNL     1       6.911  12.766   0.626  1.00  0.00     0.167 HD
ATOM     67  C   UNL     1       6.663  13.862  -1.993  1.00  0.00     0.074 A 
ATOM     68  C   UNL     1       6.401  13.981  -3.413  1.00  0.00     0.031 C 
ATOM     69  C   UNL     1       7.093  14.884  -1.209  1.00  0.00     0.034 A 
BRANCH  56  70
ATOM     70  C   UNL     1       7.891  13.329   4.759  1.00  0.00     0.023 A 
ATOM     71  C   UNL     1       8.928  12.707   5.477  1.00  0.00     0.031 A 
ATOM     72  C   UNL     1       7.113  14.291   5.428  1.00  0.00     0.131 A 
ATOM     73  C   UNL     1       9.090  12.977   6.845  1.00  0.00     0.055 A 
ATOM     74  C   UNL     1       7.343  14.625   6.763  1.00  0.00     0.041 A 
ATOM     75  F   UNL     1       6.091  14.898   4.804  1.00  0.00    -0.206 F 
ATOM     76  C   UNL     1       8.322  13.950   7.487  1.00  0.00     0.022 A 
BRANCH  73  77
ATOM     77  S   UNL     1      10.183  11.899   7.814  1.00  0.00     0.124 S 
ATOM     78  O   UNL     1       9.602  10.583   7.557  1.00  0.00    -0.237 OA
ATOM     79  O   UNL     1      11.487  12.150   7.212  1.00  0.00    -0.237 OA
ATOM     80  O   UNL     1      10.020  12.387   9.181  1.00  0.00    -0.744 OA
ENDBRANCH  73  77
ENDBRANCH  56  70
BRANCH  57  81
ATOM     81  C   UNL     1       5.158  10.039  -4.323  1.00  0.00     0.023 A 
ATOM     82  C   UNL     1       6.010  10.013  -5.439  1.00  0.00     0.031 A 
ATOM     83  C   UNL     1       3.818   9.651  -4.509  1.00  0.00     0.131 A 
ATOM     84  C   UNL     1       5.506   9.635  -6.695  1.00  0.00     0.055 A 
ATOM     85  C   UNL     1       3.335   9.230  -5.749  1.00  0.00     0.041 A 
ATOM     86  F   UNL     1       2.958   9.664  -3.478  1.00  0.00    -0.206 F 
ATOM     87  C   UNL     1       4.179   9.229  -6.854  1.00  0.00     0.022 A 
BRANCH  84  88
ATOM     88  S   UNL     1       6.599   9.737  -8.140  1.00  0.00     0.124 S 
ATOM     89  O   UNL     1       6.910  11.161  -8.177  1.00  0.00    -0.237 OA
ATOM     90  O   UNL     1       7.692   8.850  -7.758  1.00  0.00    -0.237 OA
ATOM     91  O   UNL     1       5.761   9.252  -9.235  1.00  0.00    -0.744 OA
ENDBRANCH  84  88
ENDBRANCH  57  81
BRANCH  69  92
ATOM     92  C   UNL     1       7.384  16.205  -1.881  1.00  0.00     0.023 A 
ATOM     93  C   UNL     1       6.367  17.022  -2.403  1.00  0.00     0.031 A 
ATOM     94  C   UNL     1       8.711  16.665  -1.964  1.00  0.00     0.131 A 
ATOM     95  C   UNL     1       6.698  18.242  -3.016  1.00  0.00     0.055 A 
ATOM     96  C   UNL     1       9.029  17.901  -2.526  1.00  0.00     0.041 A 
ATOM     97  F   UNL     1       9.722  15.923  -1.481  1.00  0.00    -0.206 F 
ATOM     98  C   UNL     1       8.021  18.694  -3.064  1.00  0.00     0.022 A 
BRANCH  95  99
ATOM     99  S   UNL     1       5.385  19.210  -3.810  1.00  0.00     0.124 S 
ATOM    100  O   UNL     1       4.884  18.276  -4.813  1.00  0.00    -0.237 OA
ATOM    101  O   UNL     1       4.487  19.492  -2.695  1.00  0.00    -0.237 OA
ATOM    102  O   UNL     1       6.091  20.373  -4.345  1.00  0.00    -0.744 OA
ENDBRANCH  95  99
ENDBRANCH  69  92
ENDBRANCH  43  44
ENDBRANCH  36  38
ENDBRANCH  35  36
ENDBRANCH  34  35
ENDBRANCH  33  34
ENDBRANCH  32  33
ENDBRANCH  31  32
ENDBRANCH  30  31
ENDBRANCH  29  30
ENDBRANCH   1  29
TORSDOF 28
