REMARK SMILES COc1cccc([C@@H]2C[N@@H+](Cc3nccn3C)C[C@H]2C(=O)OCCOCCOCCOCCOC(=O)c2ccc(-c3c4nc(c(-c5cc(S(=O)(=O)[O-])ccc5F)c5ccc([nH]5)c(-c5cc(S(=O)(=O)[O-])ccc5F)c5nc(c(-c6cc(S(=O)(=O)[O-])ccc6F)c6ccc3[nH]6)C=C5)C=C4)cc2)c1
REMARK SMILES IDX 29 1 28 2 27 3 26 4 25 5 24 6 23 7 22 8 20 9 21 10 19 11
REMARK SMILES IDX 8 12 9 13 10 14 18 15 7 17 3 18 4 19 100 20 5 21 6 22 2 23
REMARK SMILES IDX 1 24 11 25 12 26 13 27 16 28 14 29 15 30 17 31 30 32 31 33
REMARK SMILES IDX 32 34 33 35 34 36 35 37 36 38 37 39 38 40 99 41 39 42 98 43
REMARK SMILES IDX 40 44 41 45 42 46 92 47 43 48 97 49 91 50 93 51 44 52 96 53
REMARK SMILES IDX 90 54 89 55 45 57 77 58 57 59 76 60 58 61 61 62 75 63 94 64
REMARK SMILES IDX 59 65 60 66 74 68 95 69 62 70 46 71 47 72 55 73 48 74 54 75
REMARK SMILES IDX 56 76 53 77 49 78 50 79 51 80 52 81 78 82 79 83 87 84 80 85
REMARK SMILES IDX 86 86 88 87 85 88 81 89 82 90 83 91 84 92 63 93 64 94 72 95
REMARK SMILES IDX 65 96 71 97 73 98 70 99 66 100 67 101 68 102 69 103
REMARK H PARENT 10 16 93 56 61 67
REMARK Flexibility Score: inf
ROOT
ATOM      1  C   UNL     1       2.180   7.475  -1.287  1.00  0.00     0.188 C 
ENDROOT
BRANCH   1   2
ATOM      2  O   UNL     1       2.784   6.211  -1.068  1.00  0.00    -0.377 OA
BRANCH   2   3
ATOM      3  C   UNL     1       2.064   5.196  -0.404  1.00  0.00     0.188 C 
BRANCH   3   4
ATOM      4  C   UNL     1       2.090   5.210   1.128  1.00  0.00     0.188 C 
BRANCH   4   5
ATOM      5  O   UNL     1       2.502   6.376   1.811  1.00  0.00    -0.376 OA
BRANCH   5   6
ATOM      6  C   UNL     1       3.772   6.947   1.546  1.00  0.00     0.202 C 
BRANCH   6   7
ATOM      7  C   UNL     1       5.004   6.127   1.114  1.00  0.00     0.261 C 
BRANCH   7   8
ATOM      8  O   UNL     1       4.849   5.140   0.070  1.00  0.00    -0.463 OA
BRANCH   8   9
ATOM      9  C   UNL     1       5.060   3.850   0.411  1.00  0.00     0.315 C 
ATOM     10  O   UNL     1       5.350   3.495   1.553  1.00  0.00    -0.252 OA
BRANCH   9  11
ATOM     11  C   UNL     1       5.021   2.826  -0.714  1.00  0.00     0.167 C 
ATOM     12  C   UNL     1       4.339   3.052  -2.081  1.00  0.00     0.094 C 
ATOM     13  C   UNL     1       5.275   2.306  -3.047  1.00  0.00     0.272 C 
ATOM     14  N   UNL     1       6.629   2.439  -2.500  1.00  0.00    -0.327 N 
ATOM     15  C   UNL     1       6.478   2.489  -1.048  1.00  0.00     0.278 C 
ATOM     16  H   UNL     1       7.208   1.639  -2.755  1.00  0.00     0.348 HD
BRANCH  12  17
ATOM     17  C   UNL     1       2.911   2.554  -2.314  1.00  0.00    -0.035 A 
ATOM     18  C   UNL     1       0.994   1.135  -1.787  1.00  0.00     0.119 A 
ATOM     19  C   UNL     1       0.239   1.784  -2.762  1.00  0.00     0.046 A 
ATOM     20  C   UNL     1       2.331   1.501  -1.589  1.00  0.00     0.050 A 
ATOM     21  C   UNL     1       0.808   2.798  -3.528  1.00  0.00     0.004 A 
ATOM     22  C   UNL     1       2.132   3.183  -3.304  1.00  0.00     0.004 A 
BRANCH  18  23
ATOM     23  O   UNL     1       0.340   0.140  -1.111  1.00  0.00    -0.497 OA
ATOM     24  C   UNL     1       0.877  -0.205   0.162  1.00  0.00     0.278 C 
ENDBRANCH  18  23
ENDBRANCH  12  17
BRANCH  14  25
ATOM     25  C   UNL     1       7.399   3.553  -3.090  1.00  0.00     0.339 C 
BRANCH  25  26
ATOM     26  C   UNL     1       6.726   4.895  -3.155  1.00  0.00     0.164 A 
ATOM     27  N   UNL     1       5.852   5.254  -4.082  1.00  0.00    -0.236 NA
ATOM     28  N   UNL     1       6.928   5.932  -2.272  1.00  0.00    -0.333 N 
ATOM     29  C   UNL     1       5.453   6.524  -3.762  1.00  0.00     0.131 A 
ATOM     30  C   UNL     1       6.095   6.957  -2.629  1.00  0.00     0.107 A 
ATOM     31  C   UNL     1       7.847   5.972  -1.163  1.00  0.00     0.151 C 
ENDBRANCH  25  26
ENDBRANCH  14  25
ENDBRANCH   9  11
ENDBRANCH   8   9
ENDBRANCH   7   8
ENDBRANCH   6   7
ENDBRANCH   5   6
ENDBRANCH   4   5
ENDBRANCH   3   4
ENDBRANCH   2   3
ENDBRANCH   1   2
BRANCH   1  32
ATOM     32  C   UNL     1       0.894   7.859  -0.534  1.00  0.00     0.188 C 
BRANCH  32  33
ATOM     33  O   UNL     1      -0.022   6.794  -0.342  1.00  0.00    -0.376 OA
BRANCH  33  34
ATOM     34  C   UNL     1      -1.072   6.606  -1.278  1.00  0.00     0.202 C 
BRANCH  34  35
ATOM     35  C   UNL     1      -0.728   6.343  -2.753  1.00  0.00     0.261 C 
BRANCH  35  36
ATOM     36  O   UNL     1       0.101   7.301  -3.421  1.00  0.00    -0.460 OA
BRANCH  36  37
ATOM     37  C   UNL     1      -0.328   8.576  -3.485  1.00  0.00     0.338 C 
ATOM     38  O   UNL     1      -1.371   9.024  -3.036  1.00  0.00    -0.246 OA
BRANCH  37  39
ATOM     39  C   UNL     1       0.773   9.379  -4.052  1.00  0.00     0.060 A 
ATOM     40  C   UNL     1       1.351  10.399  -3.284  1.00  0.00     0.016 A 
ATOM     41  C   UNL     1       1.227   9.119  -5.347  1.00  0.00     0.016 A 
ATOM     42  C   UNL     1       2.352  11.203  -3.834  1.00  0.00     0.010 A 
ATOM     43  C   UNL     1       2.212   9.936  -5.902  1.00  0.00     0.010 A 
ATOM     44  C   UNL     1       2.745  11.009  -5.164  1.00  0.00    -0.014 A 
BRANCH  44  45
ATOM     45  C   UNL     1       3.496  12.065  -5.885  1.00  0.00     0.031 A 
ATOM     46  C   UNL     1       2.700  13.023  -6.731  1.00  0.00     0.074 A 
ATOM     47  C   UNL     1       4.835  12.163  -5.816  1.00  0.00     0.049 A 
ATOM     48  N   UNL     1       3.111  13.922  -7.585  1.00  0.00    -0.248 NA
ATOM     49  C   UNL     1       1.236  12.939  -6.599  1.00  0.00     0.031 C 
ATOM     50  C   UNL     1       5.701  11.337  -4.978  1.00  0.00     0.029 A 
ATOM     51  N   UNL     1       5.701  12.993  -6.484  1.00  0.00    -0.354 N 
ATOM     52  C   UNL     1       1.956  14.496  -8.108  1.00  0.00     0.074 A 
ATOM     53  C   UNL     1       0.832  13.822  -7.497  1.00  0.00     0.031 C 
ATOM     54  C   UNL     1       6.980  11.688  -5.199  1.00  0.00     0.029 A 
ATOM     55  C   UNL     1       7.026  12.722  -6.234  1.00  0.00     0.049 A 
ATOM     56  H   UNL     1       5.402  13.713  -7.084  1.00  0.00     0.167 HD
ATOM     57  C   UNL     1       1.848  15.497  -9.015  1.00  0.00     0.034 A 
ATOM     58  C   UNL     1       8.141  13.221  -6.809  1.00  0.00     0.034 A 
ATOM     59  C   UNL     1       2.983  16.141  -9.623  1.00  0.00     0.049 A 
ATOM     60  C   UNL     1       7.998  14.259  -7.902  1.00  0.00     0.074 A 
ATOM     61  C   UNL     1       2.997  17.163 -10.555  1.00  0.00     0.029 A 
ATOM     62  N   UNL     1       4.309  15.814  -9.370  1.00  0.00    -0.354 N 
ATOM     63  N   UNL     1       6.904  14.785  -8.406  1.00  0.00    -0.248 NA
ATOM     64  C   UNL     1       9.237  14.772  -8.504  1.00  0.00     0.031 C 
ATOM     65  C   UNL     1       4.323  17.395 -10.927  1.00  0.00     0.029 A 
ATOM     66  C   UNL     1       5.146  16.593 -10.151  1.00  0.00     0.049 A 
ATOM     67  H   UNL     1       4.610  15.130  -8.730  1.00  0.00     0.167 HD
ATOM     68  C   UNL     1       7.328  15.725  -9.344  1.00  0.00     0.074 A 
ATOM     69  C   UNL     1       8.775  15.688  -9.344  1.00  0.00     0.031 C 
ATOM     70  C   UNL     1       6.589  16.554 -10.124  1.00  0.00     0.034 A 
BRANCH  57  71
ATOM     71  C   UNL     1       0.458  15.901  -9.443  1.00  0.00     0.023 A 
ATOM     72  C   UNL     1      -0.470  16.440  -8.535  1.00  0.00     0.031 A 
ATOM     73  C   UNL     1       0.044  15.713 -10.774  1.00  0.00     0.131 A 
ATOM     74  C   UNL     1      -1.784  16.702  -8.952  1.00  0.00     0.055 A 
ATOM     75  C   UNL     1      -1.238  16.060 -11.202  1.00  0.00     0.041 A 
ATOM     76  F   UNL     1       0.876  15.175 -11.679  1.00  0.00    -0.206 F 
ATOM     77  C   UNL     1      -2.166  16.543 -10.286  1.00  0.00     0.022 A 
BRANCH  74  78
ATOM     78  S   UNL     1      -3.026  17.106  -7.693  1.00  0.00     0.124 S 
ATOM     79  O   UNL     1      -2.962  15.930  -6.828  1.00  0.00    -0.237 OA
ATOM     80  O   UNL     1      -2.508  18.345  -7.125  1.00  0.00    -0.237 OA
ATOM     81  O   UNL     1      -4.262  17.239  -8.461  1.00  0.00    -0.744 OA
ENDBRANCH  74  78
ENDBRANCH  57  71
BRANCH  58  82
ATOM     82  C   UNL     1       9.490  12.722  -6.411  1.00  0.00     0.023 A 
ATOM     83  C   UNL     1      10.449  13.586  -5.859  1.00  0.00     0.031 A 
ATOM     84  C   UNL     1       9.866  11.384  -6.636  1.00  0.00     0.131 A 
ATOM     85  C   UNL     1      11.748  13.118  -5.599  1.00  0.00     0.055 A 
ATOM     86  C   UNL     1      11.139  10.909  -6.317  1.00  0.00     0.041 A 
ATOM     87  F   UNL     1       8.993  10.514  -7.170  1.00  0.00    -0.206 F 
ATOM     88  C   UNL     1      12.094  11.782  -5.809  1.00  0.00     0.022 A 
BRANCH  85  89
ATOM     89  S   UNL     1      13.011  14.312  -5.082  1.00  0.00     0.124 S 
ATOM     90  O   UNL     1      12.993  15.260  -6.190  1.00  0.00    -0.237 OA
ATOM     91  O   UNL     1      12.472  14.793  -3.814  1.00  0.00    -0.237 OA
ATOM     92  O   UNL     1      14.222  13.501  -4.973  1.00  0.00    -0.744 OA
ENDBRANCH  85  89
ENDBRANCH  58  82
BRANCH  70  93
ATOM     93  C   UNL     1       7.322  17.563 -10.976  1.00  0.00     0.023 A 
ATOM     94  C   UNL     1       8.097  17.191 -12.087  1.00  0.00     0.031 A 
ATOM     95  C   UNL     1       7.188  18.935 -10.690  1.00  0.00     0.131 A 
ATOM     96  C   UNL     1       8.730  18.181 -12.856  1.00  0.00     0.055 A 
ATOM     97  C   UNL     1       7.769  19.915 -11.493  1.00  0.00     0.041 A 
ATOM     98  F   UNL     1       6.462  19.345  -9.637  1.00  0.00    -0.206 F 
ATOM     99  C   UNL     1       8.552  19.540 -12.579  1.00  0.00     0.022 A 
BRANCH  96 100
ATOM    100  S   UNL     1       9.843  17.673 -14.195  1.00  0.00     0.124 S 
ATOM    101  O   UNL     1      10.850  16.900 -13.476  1.00  0.00    -0.237 OA
ATOM    102  O   UNL     1       8.957  16.911 -15.068  1.00  0.00    -0.237 OA
ATOM    103  O   UNL     1      10.315  18.941 -14.749  1.00  0.00    -0.744 OA
ENDBRANCH  96 100
ENDBRANCH  70  93
ENDBRANCH  44  45
ENDBRANCH  37  39
ENDBRANCH  36  37
ENDBRANCH  35  36
ENDBRANCH  34  35
ENDBRANCH  33  34
ENDBRANCH  32  33
ENDBRANCH   1  32
TORSDOF 27
