REMARK SMILES Cc1nsc(NC(=O)CC[C@H](C)CC[NH3+])c1C(=O)OCCOCCOCCOCCOC(=O)c1ccc(-c2c3nc(c(-c4cc(S(=O)(=O)[O-])ccc4F)c4ccc([nH]4)c(-c4cc(S(=O)(=O)[O-])ccc4F)c4nc(c(-c5cc(S(=O)(=O)[O-])ccc5F)c5ccc2[nH]5)C=C4)C=C3)cc1
REMARK SMILES IDX 23 1 22 2 21 3 20 4 19 5 17 6 18 7 16 8 1 9 2 10 3 11 4 12
REMARK SMILES IDX 5 13 6 14 7 15 8 17 9 18 10 19 11 20 12 21 13 22 14 23 15 24
REMARK SMILES IDX 24 28 25 29 26 30 27 31 28 32 29 33 30 34 31 35 32 36 33 37
REMARK SMILES IDX 34 38 35 39 96 40 36 41 95 42 37 43 38 44 39 45 89 46 40 47
REMARK SMILES IDX 94 48 88 49 90 50 41 51 93 52 87 53 86 54 42 56 74 57 54 58
REMARK SMILES IDX 73 59 55 60 58 61 72 62 91 63 56 64 57 65 71 67 92 68 59 69
REMARK SMILES IDX 43 70 44 71 52 72 45 73 51 74 53 75 50 76 46 77 47 78 48 79
REMARK SMILES IDX 49 80 75 81 76 82 84 83 77 84 83 85 85 86 82 87 78 88 79 89
REMARK SMILES IDX 80 90 81 91 60 92 61 93 69 94 62 95 68 96 70 97 67 98 63 99
REMARK SMILES IDX 64 100 65 101 66 102
REMARK H PARENT 6 16 15 25 15 26 15 27 90 55 58 66
REMARK Flexibility Score: inf
ROOT
ATOM      1  C   UNL     1      -2.974  -3.318   7.590  1.00  0.00     0.188 C 
ENDROOT
BRANCH   1   2
ATOM      2  O   UNL     1      -2.997  -3.042   8.983  1.00  0.00    -0.376 OA
BRANCH   2   3
ATOM      3  C   UNL     1      -4.096  -2.424   9.620  1.00  0.00     0.202 C 
BRANCH   3   4
ATOM      4  C   UNL     1      -4.677  -1.104   9.097  1.00  0.00     0.261 C 
BRANCH   4   5
ATOM      5  O   UNL     1      -4.349  -0.735   7.758  1.00  0.00    -0.460 OA
BRANCH   5   6
ATOM      6  C   UNL     1      -3.109  -0.239   7.550  1.00  0.00     0.343 C 
ATOM      7  O   UNL     1      -2.269  -0.066   8.432  1.00  0.00    -0.246 OA
BRANCH   6   8
ATOM      8  C   UNL     1      -2.827   0.004   6.144  1.00  0.00     0.117 A 
ATOM      9  C   UNL     1      -5.244   0.025   5.048  1.00  0.00     0.069 C 
ATOM     10  C   UNL     1      -3.763   0.222   5.059  1.00  0.00     0.068 A 
ATOM     11  N   UNL     1      -3.216   0.638   3.913  1.00  0.00    -0.195 NA
ATOM     12  S   UNL     1      -1.575   0.645   4.084  1.00  0.00    -0.017 S 
ATOM     13  C   UNL     1      -1.562  -0.150   5.582  1.00  0.00     0.130 A 
BRANCH  13  14
ATOM     14  N   UNL     1      -0.469  -0.813   6.113  1.00  0.00    -0.316 N 
ATOM     15  C   UNL     1       0.567  -1.481   5.519  1.00  0.00     0.225 C 
ATOM     16  H   UNL     1      -0.429  -0.801   7.097  1.00  0.00     0.170 HD
ATOM     17  O   UNL     1       1.288  -2.162   6.261  1.00  0.00    -0.275 OA
BRANCH  15  18
ATOM     18  C   UNL     1       0.864  -1.477   4.029  1.00  0.00     0.101 C 
BRANCH  18  19
ATOM     19  C   UNL     1       0.268  -2.597   3.156  1.00  0.00     0.013 C 
BRANCH  19  20
ATOM     20  C   UNL     1      -1.230  -2.913   3.337  1.00  0.00    -0.008 C 
ATOM     21  C   UNL     1      -1.429  -3.938   4.455  1.00  0.00     0.008 C 
BRANCH  20  22
ATOM     22  C   UNL     1      -1.904  -3.401   2.036  1.00  0.00     0.064 C 
BRANCH  22  23
ATOM     23  C   UNL     1      -3.427  -3.163   2.034  1.00  0.00     0.259 C 
BRANCH  23  24
ATOM     24  N   UNL     1      -3.757  -1.770   1.747  1.00  0.00    -0.358 N 
ATOM     25  H   UNL     1      -3.354  -1.169   2.467  1.00  0.00     0.344 HD
ATOM     26  H   UNL     1      -4.771  -1.656   1.737  1.00  0.00     0.344 HD
ATOM     27  H   UNL     1      -3.376  -1.511   0.837  1.00  0.00     0.344 HD
ENDBRANCH  23  24
ENDBRANCH  22  23
ENDBRANCH  20  22
ENDBRANCH  19  20
ENDBRANCH  18  19
ENDBRANCH  15  18
ENDBRANCH  13  14
ENDBRANCH   6   8
ENDBRANCH   5   6
ENDBRANCH   4   5
ENDBRANCH   3   4
ENDBRANCH   2   3
ENDBRANCH   1   2
BRANCH   1  28
ATOM     28  C   UNL     1      -4.245  -3.586   6.752  1.00  0.00     0.188 C 
BRANCH  28  29
ATOM     29  O   UNL     1      -5.457  -3.500   7.482  1.00  0.00    -0.377 OA
BRANCH  29  30
ATOM     30  C   UNL     1      -5.987  -4.755   7.923  1.00  0.00     0.188 C 
BRANCH  30  31
ATOM     31  C   UNL     1      -5.029  -5.708   8.681  1.00  0.00     0.188 C 
BRANCH  31  32
ATOM     32  O   UNL     1      -3.743  -5.799   8.085  1.00  0.00    -0.376 OA
BRANCH  32  33
ATOM     33  C   UNL     1      -3.275  -6.989   7.484  1.00  0.00     0.202 C 
BRANCH  33  34
ATOM     34  C   UNL     1      -3.928  -7.413   6.177  1.00  0.00     0.261 C 
BRANCH  34  35
ATOM     35  O   UNL     1      -5.308  -7.118   6.102  1.00  0.00    -0.460 OA
BRANCH  35  36
ATOM     36  C   UNL     1      -6.092  -7.963   6.793  1.00  0.00     0.338 C 
ATOM     37  O   UNL     1      -5.753  -8.688   7.721  1.00  0.00    -0.246 OA
BRANCH  36  38
ATOM     38  C   UNL     1      -7.402  -7.984   6.150  1.00  0.00     0.060 A 
ATOM     39  C   UNL     1      -8.402  -8.714   6.785  1.00  0.00     0.016 A 
ATOM     40  C   UNL     1      -7.497  -7.581   4.806  1.00  0.00     0.016 A 
ATOM     41  C   UNL     1      -9.389  -9.255   5.998  1.00  0.00     0.010 A 
ATOM     42  C   UNL     1      -8.473  -8.136   4.021  1.00  0.00     0.010 A 
ATOM     43  C   UNL     1      -9.344  -9.041   4.612  1.00  0.00    -0.014 A 
BRANCH  43  44
ATOM     44  C   UNL     1     -10.327  -9.706   3.794  1.00  0.00     0.031 A 
ATOM     45  C   UNL     1     -11.666  -9.123   3.977  1.00  0.00     0.074 A 
ATOM     46  C   UNL     1     -10.040 -10.702   2.937  1.00  0.00     0.049 A 
ATOM     47  N   UNL     1     -12.622  -9.615   4.687  1.00  0.00    -0.248 NA
ATOM     48  C   UNL     1     -11.889  -7.735   3.543  1.00  0.00     0.031 C 
ATOM     49  C   UNL     1      -8.733 -11.205   2.512  1.00  0.00     0.029 A 
ATOM     50  N   UNL     1     -10.905 -11.442   2.196  1.00  0.00    -0.354 N 
ATOM     51  C   UNL     1     -13.669  -8.719   4.562  1.00  0.00     0.074 A 
ATOM     52  C   UNL     1     -13.091  -7.498   4.068  1.00  0.00     0.031 C 
ATOM     53  C   UNL     1      -8.895 -12.008   1.432  1.00  0.00     0.029 A 
ATOM     54  C   UNL     1     -10.317 -12.184   1.179  1.00  0.00     0.049 A 
ATOM     55  H   UNL     1     -11.875 -11.452   2.368  1.00  0.00     0.167 HD
ATOM     56  C   UNL     1     -14.955  -9.156   4.607  1.00  0.00     0.034 A 
ATOM     57  C   UNL     1     -10.967 -12.845   0.180  1.00  0.00     0.034 A 
ATOM     58  C   UNL     1     -15.031 -10.482   5.181  1.00  0.00     0.049 A 
ATOM     59  C   UNL     1     -12.344 -13.113   0.675  1.00  0.00     0.074 A 
ATOM     60  C   UNL     1     -14.661 -11.029   6.396  1.00  0.00     0.029 A 
ATOM     61  N   UNL     1     -15.169 -11.551   4.322  1.00  0.00    -0.354 N 
ATOM     62  N   UNL     1     -12.593 -13.916   1.673  1.00  0.00    -0.248 NA
ATOM     63  C   UNL     1     -13.373 -12.113   0.421  1.00  0.00     0.031 C 
ATOM     64  C   UNL     1     -14.119 -12.309   6.076  1.00  0.00     0.029 A 
ATOM     65  C   UNL     1     -14.266 -12.517   4.703  1.00  0.00     0.049 A 
ATOM     66  H   UNL     1     -15.800 -11.613   3.569  1.00  0.00     0.167 HD
ATOM     67  C   UNL     1     -13.549 -13.261   2.435  1.00  0.00     0.074 A 
ATOM     68  C   UNL     1     -14.060 -12.200   1.566  1.00  0.00     0.031 C 
ATOM     69  C   UNL     1     -13.632 -13.450   3.787  1.00  0.00     0.034 A 
BRANCH  56  70
ATOM     70  C   UNL     1     -16.070  -8.561   3.786  1.00  0.00     0.023 A 
ATOM     71  C   UNL     1     -17.356  -9.094   3.978  1.00  0.00     0.031 A 
ATOM     72  C   UNL     1     -15.907  -7.733   2.651  1.00  0.00     0.131 A 
ATOM     73  C   UNL     1     -18.369  -8.883   3.030  1.00  0.00     0.055 A 
ATOM     74  C   UNL     1     -16.939  -7.467   1.749  1.00  0.00     0.041 A 
ATOM     75  F   UNL     1     -14.729  -7.214   2.288  1.00  0.00    -0.206 F 
ATOM     76  C   UNL     1     -18.171  -8.070   1.917  1.00  0.00     0.022 A 
BRANCH  73  77
ATOM     77  S   UNL     1     -19.895  -9.840   3.188  1.00  0.00     0.124 S 
ATOM     78  O   UNL     1     -19.384 -11.206   3.202  1.00  0.00    -0.237 OA
ATOM     79  O   UNL     1     -20.433  -9.339   4.449  1.00  0.00    -0.237 OA
ATOM     80  O   UNL     1     -20.652  -9.467   1.995  1.00  0.00    -0.744 OA
ENDBRANCH  73  77
ENDBRANCH  56  70
BRANCH  57  81
ATOM     81  C   UNL     1     -10.585 -12.910  -1.262  1.00  0.00     0.023 A 
ATOM     82  C   UNL     1     -11.138 -13.846  -2.166  1.00  0.00     0.031 A 
ATOM     83  C   UNL     1      -9.835 -11.855  -1.829  1.00  0.00     0.131 A 
ATOM     84  C   UNL     1     -10.934 -13.699  -3.562  1.00  0.00     0.055 A 
ATOM     85  C   UNL     1      -9.640 -11.714  -3.205  1.00  0.00     0.041 A 
ATOM     86  F   UNL     1      -9.338 -10.867  -1.069  1.00  0.00    -0.206 F 
ATOM     87  C   UNL     1     -10.198 -12.631  -4.080  1.00  0.00     0.022 A 
BRANCH  84  88
ATOM     88  S   UNL     1     -11.703 -14.855  -4.747  1.00  0.00     0.124 S 
ATOM     89  O   UNL     1     -10.981 -16.094  -4.487  1.00  0.00    -0.237 OA
ATOM     90  O   UNL     1     -13.106 -14.824  -4.352  1.00  0.00    -0.237 OA
ATOM     91  O   UNL     1     -11.424 -14.246  -6.049  1.00  0.00    -0.744 OA
ENDBRANCH  84  88
ENDBRANCH  57  81
BRANCH  69  92
ATOM     92  C   UNL     1     -12.856 -14.604   4.402  1.00  0.00     0.023 A 
ATOM     93  C   UNL     1     -11.458 -14.798   4.296  1.00  0.00     0.031 A 
ATOM     94  C   UNL     1     -13.572 -15.490   5.226  1.00  0.00     0.131 A 
ATOM     95  C   UNL     1     -10.837 -15.858   4.989  1.00  0.00     0.055 A 
ATOM     96  C   UNL     1     -12.951 -16.521   5.930  1.00  0.00     0.041 A 
ATOM     97  F   UNL     1     -14.898 -15.348   5.388  1.00  0.00    -0.206 F 
ATOM     98  C   UNL     1     -11.580 -16.713   5.809  1.00  0.00     0.022 A 
BRANCH  95  99
ATOM     99  S   UNL     1      -9.046 -16.163   4.822  1.00  0.00     0.124 S 
ATOM    100  O   UNL     1      -8.823 -16.111   3.382  1.00  0.00    -0.237 OA
ATOM    101  O   UNL     1      -8.466 -15.071   5.599  1.00  0.00    -0.237 OA
ATOM    102  O   UNL     1      -8.871 -17.490   5.418  1.00  0.00    -0.744 OA
ENDBRANCH  95  99
ENDBRANCH  69  92
ENDBRANCH  43  44
ENDBRANCH  36  38
ENDBRANCH  35  36
ENDBRANCH  34  35
ENDBRANCH  33  34
ENDBRANCH  32  33
ENDBRANCH  31  32
ENDBRANCH  30  31
ENDBRANCH  29  30
ENDBRANCH  28  29
ENDBRANCH   1  28
TORSDOF 30
