REMARK SMILES COc1ccc2c(CC(=O)OCCOCCOCCOCCOC(=O)c3ccc(-c4c5nc(c(-c6cc(S(=O)(=O)[O-])ccc6F)c6ccc([nH]6)c(-c6cc(S(=O)(=O)[O-])ccc6F)c6nc(c(-c7cc(S(=O)(=O)[O-])ccc7F)c7ccc4[nH]7)C=C6)C=C5)cc3)c(C(=O)c3cc(C)ccn3)[nH]c2c1
REMARK SMILES IDX 17 1 16 2 15 3 14 4 13 5 12 6 11 7 9 8 10 9 8 10 7 11 3 12
REMARK SMILES IDX 4 13 101 14 5 15 100 16 6 17 99 18 89 19 2 21 1 22 90 23
REMARK SMILES IDX 91 24 92 25 93 26 98 27 94 28 97 29 95 30 96 31 18 32 19 33
REMARK SMILES IDX 20 34 21 35 22 36 23 37 24 38 25 39 26 40 27 41 88 42 28 43
REMARK SMILES IDX 87 44 29 45 30 46 31 47 81 48 32 49 86 50 80 51 82 52 33 53
REMARK SMILES IDX 85 54 79 55 78 56 34 58 66 59 46 60 65 61 47 62 50 63 64 64
REMARK SMILES IDX 83 65 48 66 49 67 63 69 84 70 51 71 35 72 36 73 44 74 37 75
REMARK SMILES IDX 43 76 45 77 42 78 38 79 39 80 40 81 41 82 67 83 68 84 76 85
REMARK SMILES IDX 69 86 75 87 77 88 74 89 70 90 71 91 72 92 73 93 52 94 53 95
REMARK SMILES IDX 61 96 54 97 60 98 62 99 59 100 55 101 56 102 57 103 58 104
REMARK H PARENT 99 20 82 57 50 68
REMARK Flexibility Score: inf
ROOT
ATOM      1  O   UNL     1       1.045   8.889  -1.251  1.00  0.00    -0.377 OA
ENDROOT
BRANCH   1   2
ATOM      2  C   UNL     1       1.754   8.667  -0.050  1.00  0.00     0.188 C 
BRANCH   2   3
ATOM      3  C   UNL     1       2.569   9.727   0.723  1.00  0.00     0.188 C 
BRANCH   3   4
ATOM      4  O   UNL     1       3.624  10.418   0.083  1.00  0.00    -0.376 OA
BRANCH   4   5
ATOM      5  C   UNL     1       4.711   9.758  -0.532  1.00  0.00     0.202 C 
BRANCH   5   6
ATOM      6  C   UNL     1       5.166   8.320  -0.211  1.00  0.00     0.261 C 
BRANCH   6   7
ATOM      7  O   UNL     1       4.250   7.489   0.521  1.00  0.00    -0.463 OA
BRANCH   7   8
ATOM      8  C   UNL     1       4.575   7.156   1.789  1.00  0.00     0.310 C 
ATOM      9  O   UNL     1       5.649   7.456   2.307  1.00  0.00    -0.252 OA
BRANCH   8  10
ATOM     10  C   UNL     1       3.507   6.412   2.582  1.00  0.00     0.161 C 
BRANCH  10  11
ATOM     11  C   UNL     1       2.205   5.948   1.948  1.00  0.00     0.000 A 
ATOM     12  C   UNL     1       1.062   2.459  -0.139  1.00  0.00     0.120 A 
ATOM     13  C   UNL     1       2.429   2.591   0.094  1.00  0.00     0.047 A 
ATOM     14  C   UNL     1       0.185   3.496   0.181  1.00  0.00     0.073 A 
ATOM     15  C   UNL     1       2.940   3.734   0.733  1.00  0.00     0.014 A 
ATOM     16  C   UNL     1       0.710   4.607   0.852  1.00  0.00     0.050 A 
ATOM     17  C   UNL     1       2.058   4.747   1.164  1.00  0.00     0.004 A 
ATOM     18  N   UNL     1       0.078   5.730   1.315  1.00  0.00    -0.351 N 
ATOM     19  C   UNL     1       0.899   6.444   2.165  1.00  0.00     0.093 A 
ATOM     20  H   UNL     1      -0.840   5.994   1.075  1.00  0.00     0.167 HD
BRANCH  12  21
ATOM     21  O   UNL     1       0.495   1.361  -0.733  1.00  0.00    -0.497 OA
ATOM     22  C   UNL     1       0.949   0.122  -0.191  1.00  0.00     0.278 C 
ENDBRANCH  12  21
BRANCH  19  23
ATOM     23  C   UNL     1       0.451   7.542   3.036  1.00  0.00     0.227 C 
ATOM     24  O   UNL     1       1.196   8.052   3.873  1.00  0.00    -0.285 OA
BRANCH  23  25
ATOM     25  C   UNL     1      -0.931   8.135   2.903  1.00  0.00     0.113 A 
ATOM     26  C   UNL     1      -2.098   7.372   2.956  1.00  0.00     0.036 A 
ATOM     27  N   UNL     1      -0.952   9.489   2.771  1.00  0.00    -0.253 NA
ATOM     28  C   UNL     1      -3.337   8.022   2.833  1.00  0.00    -0.047 A 
ATOM     29  C   UNL     1      -2.155  10.090   2.668  1.00  0.00     0.112 A 
ATOM     30  C   UNL     1      -4.637   7.273   2.855  1.00  0.00     0.044 C 
ATOM     31  C   UNL     1      -3.357   9.408   2.665  1.00  0.00     0.023 A 
ENDBRANCH  23  25
ENDBRANCH  19  23
ENDBRANCH  10  11
ENDBRANCH   8  10
ENDBRANCH   7   8
ENDBRANCH   6   7
ENDBRANCH   5   6
ENDBRANCH   4   5
ENDBRANCH   3   4
ENDBRANCH   2   3
ENDBRANCH   1   2
BRANCH   1  32
ATOM     32  C   UNL     1       1.631   9.748  -2.195  1.00  0.00     0.188 C 
BRANCH  32  33
ATOM     33  C   UNL     1       1.196  11.196  -1.972  1.00  0.00     0.188 C 
BRANCH  33  34
ATOM     34  O   UNL     1       0.717  11.434  -0.654  1.00  0.00    -0.376 OA
BRANCH  34  35
ATOM     35  C   UNL     1      -0.695  11.409  -0.456  1.00  0.00     0.202 C 
BRANCH  35  36
ATOM     36  C   UNL     1      -1.480  10.100  -0.682  1.00  0.00     0.261 C 
BRANCH  36  37
ATOM     37  O   UNL     1      -1.455   9.560  -2.008  1.00  0.00    -0.460 OA
BRANCH  37  38
ATOM     38  C   UNL     1      -1.919  10.328  -3.010  1.00  0.00     0.338 C 
ATOM     39  O   UNL     1      -2.474  11.408  -2.919  1.00  0.00    -0.246 OA
BRANCH  38  40
ATOM     40  C   UNL     1      -1.417   9.710  -4.249  1.00  0.00     0.060 A 
ATOM     41  C   UNL     1      -0.531  10.444  -5.046  1.00  0.00     0.016 A 
ATOM     42  C   UNL     1      -1.738   8.385  -4.562  1.00  0.00     0.016 A 
ATOM     43  C   UNL     1       0.059   9.845  -6.154  1.00  0.00     0.010 A 
ATOM     44  C   UNL     1      -1.183   7.801  -5.699  1.00  0.00     0.010 A 
ATOM     45  C   UNL     1      -0.295   8.536  -6.503  1.00  0.00    -0.014 A 
BRANCH  45  46
ATOM     46  C   UNL     1       0.067   8.032  -7.842  1.00  0.00     0.031 A 
ATOM     47  C   UNL     1      -0.905   8.296  -8.955  1.00  0.00     0.074 A 
ATOM     48  C   UNL     1       1.227   7.388  -8.055  1.00  0.00     0.049 A 
ATOM     49  N   UNL     1      -0.862   7.924 -10.204  1.00  0.00    -0.248 NA
ATOM     50  C   UNL     1      -2.093   9.093  -8.602  1.00  0.00     0.031 C 
ATOM     51  C   UNL     1       2.255   7.143  -7.044  1.00  0.00     0.029 A 
ATOM     52  N   UNL     1       1.731   6.818  -9.194  1.00  0.00    -0.354 N 
ATOM     53  C   UNL     1      -2.011   8.444 -10.788  1.00  0.00     0.074 A 
ATOM     54  C   UNL     1      -2.749   9.126  -9.749  1.00  0.00     0.031 C 
ATOM     55  C   UNL     1       3.264   6.456  -7.609  1.00  0.00     0.029 A 
ATOM     56  C   UNL     1       2.934   6.178  -9.005  1.00  0.00     0.049 A 
ATOM     57  H   UNL     1       1.276   6.862 -10.066  1.00  0.00     0.167 HD
ATOM     58  C   UNL     1      -2.409   8.360 -12.079  1.00  0.00     0.034 A 
ATOM     59  C   UNL     1       3.657   5.428  -9.862  1.00  0.00     0.034 A 
ATOM     60  C   UNL     1      -1.670   7.637 -13.080  1.00  0.00     0.049 A 
ATOM     61  C   UNL     1       3.131   5.244 -11.268  1.00  0.00     0.074 A 
ATOM     62  C   UNL     1      -1.970   7.460 -14.417  1.00  0.00     0.029 A 
ATOM     63  N   UNL     1      -0.485   6.949 -12.841  1.00  0.00    -0.354 N 
ATOM     64  N   UNL     1       2.045   5.744 -11.816  1.00  0.00    -0.248 NA
ATOM     65  C   UNL     1       3.923   4.398 -12.169  1.00  0.00     0.031 C 
ATOM     66  C   UNL     1      -1.010   6.604 -14.967  1.00  0.00     0.029 A 
ATOM     67  C   UNL     1      -0.063   6.314 -13.996  1.00  0.00     0.049 A 
ATOM     68  H   UNL     1      -0.015   6.917 -11.976  1.00  0.00     0.167 HD
ATOM     69  C   UNL     1       2.040   5.293 -13.134  1.00  0.00     0.074 A 
ATOM     70  C   UNL     1       3.239   4.495 -13.300  1.00  0.00     0.031 C 
ATOM     71  C   UNL     1       1.135   5.516 -14.121  1.00  0.00     0.034 A 
BRANCH  58  72
ATOM     72  C   UNL     1      -3.724   9.006 -12.439  1.00  0.00     0.023 A 
ATOM     73  C   UNL     1      -3.920  10.395 -12.331  1.00  0.00     0.031 A 
ATOM     74  C   UNL     1      -4.816   8.216 -12.836  1.00  0.00     0.131 A 
ATOM     75  C   UNL     1      -5.194  10.941 -12.546  1.00  0.00     0.055 A 
ATOM     76  C   UNL     1      -6.061   8.776 -13.128  1.00  0.00     0.041 A 
ATOM     77  F   UNL     1      -4.699   6.882 -12.925  1.00  0.00    -0.206 F 
ATOM     78  C   UNL     1      -6.260  10.144 -12.969  1.00  0.00     0.022 A 
BRANCH  75  79
ATOM     79  S   UNL     1      -5.476  12.682 -12.120  1.00  0.00     0.124 S 
ATOM     80  O   UNL     1      -5.149  12.693 -10.696  1.00  0.00    -0.237 OA
ATOM     81  O   UNL     1      -4.541  13.377 -12.996  1.00  0.00    -0.237 OA
ATOM     82  O   UNL     1      -6.890  12.886 -12.428  1.00  0.00    -0.744 OA
ENDBRANCH  75  79
ENDBRANCH  58  72
BRANCH  59  83
ATOM     83  C   UNL     1       4.912   4.753  -9.418  1.00  0.00     0.023 A 
ATOM     84  C   UNL     1       6.148   5.041 -10.019  1.00  0.00     0.031 A 
ATOM     85  C   UNL     1       4.886   3.759  -8.421  1.00  0.00     0.131 A 
ATOM     86  C   UNL     1       7.294   4.316  -9.652  1.00  0.00     0.055 A 
ATOM     87  C   UNL     1       6.038   3.080  -8.020  1.00  0.00     0.041 A 
ATOM     88  F   UNL     1       3.732   3.434  -7.816  1.00  0.00    -0.206 F 
ATOM     89  C   UNL     1       7.250   3.348  -8.646  1.00  0.00     0.022 A 
BRANCH  86  90
ATOM     90  S   UNL     1       8.831   4.590 -10.578  1.00  0.00     0.124 S 
ATOM     91  O   UNL     1       8.412   4.293 -11.943  1.00  0.00    -0.237 OA
ATOM     92  O   UNL     1       9.115   5.990 -10.283  1.00  0.00    -0.237 OA
ATOM     93  O   UNL     1       9.760   3.630  -9.987  1.00  0.00    -0.744 OA
ENDBRANCH  86  90
ENDBRANCH  59  83
BRANCH  71  94
ATOM     94  C   UNL     1       1.433   4.917 -15.473  1.00  0.00     0.023 A 
ATOM     95  C   UNL     1       1.402   3.529 -15.687  1.00  0.00     0.031 A 
ATOM     96  C   UNL     1       1.729   5.753 -16.564  1.00  0.00     0.131 A 
ATOM     97  C   UNL     1       1.707   3.014 -16.954  1.00  0.00     0.055 A 
ATOM     98  C   UNL     1       1.971   5.237 -17.837  1.00  0.00     0.041 A 
ATOM     99  F   UNL     1       1.771   7.086 -16.413  1.00  0.00    -0.206 F 
ATOM    100  C   UNL     1       1.972   3.860 -18.035  1.00  0.00     0.022 A 
BRANCH  97 101
ATOM    101  S   UNL     1       1.828   1.216 -17.156  1.00  0.00     0.124 S 
ATOM    102  O   UNL     1       2.902   0.879 -16.227  1.00  0.00    -0.237 OA
ATOM    103  O   UNL     1       0.493   0.767 -16.776  1.00  0.00    -0.237 OA
ATOM    104  O   UNL     1       2.157   1.052 -18.571  1.00  0.00    -0.744 OA
ENDBRANCH  97 101
ENDBRANCH  71  94
ENDBRANCH  45  46
ENDBRANCH  38  40
ENDBRANCH  37  38
ENDBRANCH  36  37
ENDBRANCH  35  36
ENDBRANCH  34  35
ENDBRANCH  33  34
ENDBRANCH  32  33
ENDBRANCH   1  32
TORSDOF 27
