REMARK SMILES Cc1nccn1C1(C(=O)OCCOCCOCCOCCOC(=O)c2ccc(-c3c4nc(c(-c5cc(S(=O)(=O)[O-])ccc5F)c5ccc([nH]5)c(-c5cc(S(=O)(=O)[O-])ccc5F)c5nc(c(-c6cc(S(=O)(=O)[O-])ccc6F)c6ccc3[nH]6)C=C5)C=C4)cc2)CCN(C(=O)[C@@H]2C[C@H]2c2ccccc2)CC1
REMARK SMILES IDX 17 1 16 2 15 3 14 4 13 5 12 6 11 7 10 8 8 9 9 10 7 11 88 12
REMARK SMILES IDX 103 13 89 14 102 15 90 16 91 17 92 18 6 19 1 20 2 21 3 22
REMARK SMILES IDX 4 23 5 24 93 25 94 26 95 27 96 28 97 29 101 30 98 31 100 32
REMARK SMILES IDX 99 33 18 34 19 35 20 36 21 37 22 38 23 39 24 40 25 41 26 42
REMARK SMILES IDX 87 43 27 44 86 45 28 46 29 47 30 48 80 49 31 50 85 51 79 52
REMARK SMILES IDX 81 53 32 54 84 55 78 56 77 57 33 59 65 60 45 61 64 62 46 63
REMARK SMILES IDX 49 64 63 65 82 66 47 67 48 68 62 70 83 71 50 72 34 73 35 74
REMARK SMILES IDX 43 75 36 76 42 77 44 78 41 79 37 80 38 81 39 82 40 83 66 84
REMARK SMILES IDX 67 85 75 86 68 87 74 88 76 89 73 90 69 91 70 92 71 93 72 94
REMARK SMILES IDX 51 95 52 96 60 97 53 98 59 99 61 100 58 101 54 102 55 103
REMARK SMILES IDX 56 104 57 105
REMARK H PARENT 81 58 49 69
REMARK Flexibility Score: inf
ROOT
ATOM      1  C   UNL     1       0.982   0.804  -7.123  1.00  0.00     0.188 C 
ENDROOT
BRANCH   1   2
ATOM      2  O   UNL     1       0.398   0.510  -5.854  1.00  0.00    -0.377 OA
BRANCH   2   3
ATOM      3  C   UNL     1       0.957  -0.578  -5.144  1.00  0.00     0.188 C 
BRANCH   3   4
ATOM      4  C   UNL     1       0.285  -1.939  -5.361  1.00  0.00     0.188 C 
BRANCH   4   5
ATOM      5  O   UNL     1      -0.604  -2.141  -6.448  1.00  0.00    -0.376 OA
BRANCH   5   6
ATOM      6  C   UNL     1      -1.670  -1.221  -6.653  1.00  0.00     0.202 C 
BRANCH   6   7
ATOM      7  C   UNL     1      -2.479  -0.669  -5.459  1.00  0.00     0.261 C 
BRANCH   7   8
ATOM      8  O   UNL     1      -1.672  -0.141  -4.383  1.00  0.00    -0.461 OA
BRANCH   8   9
ATOM      9  C   UNL     1      -2.065  -0.352  -3.098  1.00  0.00     0.332 C 
ATOM     10  O   UNL     1      -3.131  -0.887  -2.808  1.00  0.00    -0.249 OA
BRANCH   9  11
ATOM     11  C   UNL     1      -0.965   0.070  -2.031  1.00  0.00     0.146 C 
ATOM     12  C   UNL     1      -0.293   1.384  -2.595  1.00  0.00     0.062 C 
ATOM     13  C   UNL     1      -1.785   0.442  -0.769  1.00  0.00     0.062 C 
ATOM     14  C   UNL     1       0.231   2.429  -1.620  1.00  0.00     0.122 C 
ATOM     15  C   UNL     1      -0.979   1.329   0.164  1.00  0.00     0.122 C 
ATOM     16  N   UNL     1      -0.675   2.581  -0.504  1.00  0.00    -0.342 N 
ATOM     17  C   UNL     1      -1.161   3.860  -0.242  1.00  0.00     0.226 C 
ATOM     18  O   UNL     1      -0.619   4.857  -0.712  1.00  0.00    -0.275 OA
BRANCH  11  19
ATOM     19  N   UNL     1      -0.112  -1.125  -1.709  1.00  0.00    -0.318 N 
ATOM     20  C   UNL     1       1.850  -0.393  -0.110  1.00  0.00     0.087 C 
ATOM     21  C   UNL     1       1.039  -1.323  -0.934  1.00  0.00     0.106 A 
ATOM     22  N   UNL     1       1.377  -2.601  -0.894  1.00  0.00    -0.242 NA
ATOM     23  C   UNL     1       0.422  -3.288  -1.550  1.00  0.00     0.131 A 
ATOM     24  C   UNL     1      -0.523  -2.422  -2.018  1.00  0.00     0.108 A 
ENDBRANCH  11  19
BRANCH  17  25
ATOM     25  C   UNL     1      -2.409   4.098   0.541  1.00  0.00     0.087 C 
ATOM     26  C   UNL     1      -2.463   3.808   2.019  1.00  0.00     0.023 C 
ATOM     27  C   UNL     1      -3.329   3.038   1.059  1.00  0.00     0.032 C 
BRANCH  27  28
ATOM     28  C   UNL     1      -4.815   3.073   1.035  1.00  0.00    -0.044 A 
ATOM     29  C   UNL     1      -5.519   2.720   2.195  1.00  0.00     0.004 A 
ATOM     30  C   UNL     1      -5.496   3.058  -0.193  1.00  0.00     0.004 A 
ATOM     31  C   UNL     1      -6.831   2.262   2.121  1.00  0.00     0.000 A 
ATOM     32  C   UNL     1      -6.810   2.601  -0.269  1.00  0.00     0.000 A 
ATOM     33  C   UNL     1      -7.466   2.178   0.885  1.00  0.00     0.000 A 
ENDBRANCH  27  28
ENDBRANCH  17  25
ENDBRANCH   9  11
ENDBRANCH   8   9
ENDBRANCH   7   8
ENDBRANCH   6   7
ENDBRANCH   5   6
ENDBRANCH   4   5
ENDBRANCH   3   4
ENDBRANCH   2   3
ENDBRANCH   1   2
BRANCH   1  34
ATOM     34  C   UNL     1       1.648  -0.343  -7.923  1.00  0.00     0.188 C 
BRANCH  34  35
ATOM     35  O   UNL     1       2.391  -1.292  -7.163  1.00  0.00    -0.376 OA
BRANCH  35  36
ATOM     36  C   UNL     1       3.783  -1.163  -6.904  1.00  0.00     0.202 C 
BRANCH  36  37
ATOM     37  C   UNL     1       4.337   0.088  -6.213  1.00  0.00     0.261 C 
BRANCH  37  38
ATOM     38  O   UNL     1       3.847   1.315  -6.709  1.00  0.00    -0.460 OA
BRANCH  38  39
ATOM     39  C   UNL     1       4.084   1.532  -8.019  1.00  0.00     0.338 C 
ATOM     40  O   UNL     1       4.507   0.742  -8.833  1.00  0.00    -0.246 OA
BRANCH  39  41
ATOM     41  C   UNL     1       3.813   2.942  -8.296  1.00  0.00     0.060 A 
ATOM     42  C   UNL     1       3.837   3.315  -9.637  1.00  0.00     0.016 A 
ATOM     43  C   UNL     1       3.933   3.862  -7.244  1.00  0.00     0.016 A 
ATOM     44  C   UNL     1       4.300   4.572  -9.930  1.00  0.00     0.010 A 
ATOM     45  C   UNL     1       4.410   5.107  -7.540  1.00  0.00     0.010 A 
ATOM     46  C   UNL     1       4.698   5.394  -8.870  1.00  0.00    -0.014 A 
BRANCH  46  47
ATOM     47  C   UNL     1       5.352   6.643  -9.177  1.00  0.00     0.031 A 
ATOM     48  C   UNL     1       4.375   7.636  -9.657  1.00  0.00     0.074 A 
ATOM     49  C   UNL     1       6.663   6.846  -8.943  1.00  0.00     0.049 A 
ATOM     50  N   UNL     1       4.172   8.000 -10.878  1.00  0.00    -0.248 NA
ATOM     51  C   UNL     1       3.314   8.056  -8.724  1.00  0.00     0.031 C 
ATOM     52  C   UNL     1       7.615   5.961  -8.264  1.00  0.00     0.029 A 
ATOM     53  N   UNL     1       7.416   7.947  -9.203  1.00  0.00    -0.354 N 
ATOM     54  C   UNL     1       3.152   8.936 -10.803  1.00  0.00     0.074 A 
ATOM     55  C   UNL     1       2.490   8.697  -9.553  1.00  0.00     0.031 C 
ATOM     56  C   UNL     1       8.746   6.649  -7.974  1.00  0.00     0.029 A 
ATOM     57  C   UNL     1       8.656   7.975  -8.567  1.00  0.00     0.049 A 
ATOM     58  H   UNL     1       7.109   8.670  -9.797  1.00  0.00     0.167 HD
ATOM     59  C   UNL     1       3.186  10.044 -11.589  1.00  0.00     0.034 A 
ATOM     60  C   UNL     1       9.520   9.029  -8.510  1.00  0.00     0.034 A 
ATOM     61  C   UNL     1       4.084   9.841 -12.709  1.00  0.00     0.049 A 
ATOM     62  C   UNL     1       9.162   9.917  -9.643  1.00  0.00     0.074 A 
ATOM     63  C   UNL     1       4.135   8.963 -13.773  1.00  0.00     0.029 A 
ATOM     64  N   UNL     1       5.351  10.366 -12.588  1.00  0.00    -0.354 N 
ATOM     65  N   UNL     1       9.298   9.563 -10.892  1.00  0.00    -0.248 NA
ATOM     66  C   UNL     1       8.198  10.983  -9.408  1.00  0.00     0.031 C 
ATOM     67  C   UNL     1       5.522   8.684 -13.964  1.00  0.00     0.029 A 
ATOM     68  C   UNL     1       6.263   9.458 -13.067  1.00  0.00     0.049 A 
ATOM     69  H   UNL     1       5.570  11.251 -12.217  1.00  0.00     0.167 HD
ATOM     70  C   UNL     1       8.154  10.024 -11.525  1.00  0.00     0.074 A 
ATOM     71  C   UNL     1       7.576  10.992 -10.592  1.00  0.00     0.031 C 
ATOM     72  C   UNL     1       7.638   9.361 -12.603  1.00  0.00     0.034 A 
BRANCH  59  73
ATOM     73  C   UNL     1       2.799  11.427 -11.102  1.00  0.00     0.023 A 
ATOM     74  C   UNL     1       2.943  12.482 -12.021  1.00  0.00     0.031 A 
ATOM     75  C   UNL     1       2.588  11.818  -9.756  1.00  0.00     0.131 A 
ATOM     76  C   UNL     1       2.985  13.818 -11.588  1.00  0.00     0.055 A 
ATOM     77  C   UNL     1       2.571  13.151  -9.340  1.00  0.00     0.041 A 
ATOM     78  F   UNL     1       2.474  10.953  -8.744  1.00  0.00    -0.206 F 
ATOM     79  C   UNL     1       2.803  14.160 -10.252  1.00  0.00     0.022 A 
BRANCH  76  80
ATOM     80  S   UNL     1       3.455  15.090 -12.783  1.00  0.00     0.124 S 
ATOM     81  O   UNL     1       4.730  14.577 -13.270  1.00  0.00    -0.237 OA
ATOM     82  O   UNL     1       2.338  15.044 -13.720  1.00  0.00    -0.237 OA
ATOM     83  O   UNL     1       3.538  16.301 -11.970  1.00  0.00    -0.744 OA
ENDBRANCH  76  80
ENDBRANCH  59  73
BRANCH  60  84
ATOM     84  C   UNL     1      10.338   9.486  -7.345  1.00  0.00     0.023 A 
ATOM     85  C   UNL     1      11.462  10.338  -7.462  1.00  0.00     0.031 A 
ATOM     86  C   UNL     1       9.837   9.283  -6.040  1.00  0.00     0.131 A 
ATOM     87  C   UNL     1      12.029  10.941  -6.309  1.00  0.00     0.055 A 
ATOM     88  C   UNL     1      10.395   9.886  -4.909  1.00  0.00     0.041 A 
ATOM     89  F   UNL     1       8.726   8.559  -5.830  1.00  0.00    -0.206 F 
ATOM     90  C   UNL     1      11.489  10.724  -5.039  1.00  0.00     0.022 A 
BRANCH  87  91
ATOM     91  S   UNL     1      13.453  12.079  -6.441  1.00  0.00     0.124 S 
ATOM     92  O   UNL     1      14.499  11.213  -6.971  1.00  0.00    -0.237 OA
ATOM     93  O   UNL     1      12.947  13.112  -7.337  1.00  0.00    -0.237 OA
ATOM     94  O   UNL     1      13.668  12.521  -5.061  1.00  0.00    -0.744 OA
ENDBRANCH  87  91
ENDBRANCH  60  84
BRANCH  72  95
ATOM     95  C   UNL     1       8.524   8.326 -13.278  1.00  0.00     0.023 A 
ATOM     96  C   UNL     1       9.013   7.142 -12.675  1.00  0.00     0.031 A 
ATOM     97  C   UNL     1       8.800   8.524 -14.642  1.00  0.00     0.131 A 
ATOM     98  C   UNL     1       9.758   6.218 -13.440  1.00  0.00     0.055 A 
ATOM     99  C   UNL     1       9.515   7.597 -15.398  1.00  0.00     0.041 A 
ATOM    100  F   UNL     1       8.345   9.617 -15.275  1.00  0.00    -0.206 F 
ATOM    101  C   UNL     1      10.001   6.442 -14.799  1.00  0.00     0.022 A 
BRANCH  98 102
ATOM    102  S   UNL     1      10.439   4.705 -12.679  1.00  0.00     0.124 S 
ATOM    103  O   UNL     1      11.149   5.204 -11.507  1.00  0.00    -0.237 OA
ATOM    104  O   UNL     1       9.240   3.915 -12.414  1.00  0.00    -0.237 OA
ATOM    105  O   UNL     1      11.305   4.156 -13.726  1.00  0.00    -0.744 OA
ENDBRANCH  98 102
ENDBRANCH  72  95
ENDBRANCH  46  47
ENDBRANCH  39  41
ENDBRANCH  38  39
ENDBRANCH  37  38
ENDBRANCH  36  37
ENDBRANCH  35  36
ENDBRANCH  34  35
ENDBRANCH   1  34
TORSDOF 26
