REMARK SMILES Cc1[nH]c(=O)sc1S(=O)(=O)N[C@@H]1CCCCC[C@@H]1C(=O)OCCOCCOCCOCCOC(=O)c1ccc(-c2c3nc(c(-c4cc(S(=O)(=O)[O-])ccc4F)c4ccc([nH]4)c(-c4cc(S(=O)(=O)[O-])ccc4F)c4nc(c(-c5cc(S(=O)(=O)[O-])ccc5F)c5ccc2[nH]5)C=C4)C=C3)cc1
REMARK SMILES IDX 26 1 25 2 24 3 23 4 22 5 21 6 19 7 20 8 18 9 12 10 11 11
REMARK SMILES IDX 8 13 9 14 10 15 7 16 1 17 2 18 3 19 4 20 6 22 5 23 13 24
REMARK SMILES IDX 14 25 17 27 16 28 15 29 27 31 28 32 29 33 30 34 31 35 32 36
REMARK SMILES IDX 33 37 34 38 35 39 36 40 37 41 98 42 38 43 97 44 39 45 40 46
REMARK SMILES IDX 41 47 91 48 42 49 96 50 90 51 92 52 43 53 95 54 89 55 88 56
REMARK SMILES IDX 44 58 76 59 56 60 75 61 57 62 60 63 74 64 93 65 58 66 59 67
REMARK SMILES IDX 73 69 94 70 61 71 45 72 46 73 54 74 47 75 53 76 55 77 52 78
REMARK SMILES IDX 48 79 49 80 50 81 51 82 77 83 78 84 86 85 79 86 85 87 87 88
REMARK SMILES IDX 84 89 80 90 81 91 82 92 83 93 62 94 63 95 71 96 64 97 70 98
REMARK SMILES IDX 72 99 69 100 65 101 66 102 67 103 68 104
REMARK H PARENT 11 12 3 21 92 57 60 68
REMARK Flexibility Score: 90.00
ROOT
ATOM      1  C   UNL     1       2.337  -1.957  -0.838  1.00  0.00     0.188 C 
ENDROOT
BRANCH   1   2
ATOM      2  C   UNL     1       2.642  -0.856  -1.877  1.00  0.00     0.188 C 
BRANCH   2   3
ATOM      3  O   UNL     1       3.870  -0.144  -1.880  1.00  0.00    -0.376 OA
BRANCH   3   4
ATOM      4  C   UNL     1       4.149   0.818  -0.878  1.00  0.00     0.202 C 
BRANCH   4   5
ATOM      5  C   UNL     1       3.180   1.976  -0.632  1.00  0.00     0.261 C 
BRANCH   5   6
ATOM      6  O   UNL     1       1.824   1.557  -0.407  1.00  0.00    -0.463 OA
BRANCH   6   7
ATOM      7  C   UNL     1       0.890   1.933  -1.314  1.00  0.00     0.310 C 
ATOM      8  O   UNL     1       1.123   2.611  -2.308  1.00  0.00    -0.252 OA
BRANCH   7   9
ATOM      9  C   UNL     1      -0.517   1.458  -0.957  1.00  0.00     0.117 C 
BRANCH   9  10
ATOM     10  C   UNL     1      -1.185   2.442   0.005  1.00  0.00     0.084 C 
BRANCH  10  11
ATOM     11  N   UNL     1      -0.315   2.656   1.202  1.00  0.00    -0.206 NA
ATOM     12  H   UNL     1       0.533   2.130   0.991  1.00  0.00     0.141 HD
BRANCH  11  13
ATOM     13  S   UNL     1      -0.611   2.326   2.831  1.00  0.00     0.252 S 
ATOM     14  O   UNL     1      -1.959   2.784   3.097  1.00  0.00    -0.206 OA
ATOM     15  O   UNL     1       0.488   3.008   3.491  1.00  0.00    -0.206 OA
BRANCH  13  16
ATOM     16  C   UNL     1      -0.460   0.622   3.160  1.00  0.00     0.158 A 
ATOM     17  C   UNL     1       1.914   0.313   2.216  1.00  0.00     0.067 C 
ATOM     18  C   UNL     1       0.642  -0.093   2.862  1.00  0.00     0.046 A 
ATOM     19  N   UNL     1       0.530  -1.425   3.199  1.00  0.00    -0.315 N 
ATOM     20  C   UNL     1      -0.621  -1.803   3.829  1.00  0.00     0.305 A 
ATOM     21  H   UNL     1       1.243  -2.072   2.995  1.00  0.00     0.170 HD
ATOM     22  S   UNL     1      -1.655  -0.384   3.962  1.00  0.00    -0.061 S 
ATOM     23  O   UNL     1      -0.906  -2.923   4.228  1.00  0.00    -0.257 OA
ENDBRANCH  13  16
ENDBRANCH  11  13
ENDBRANCH  10  11
BRANCH  10  24
ATOM     24  C   UNL     1      -2.654   2.102   0.303  1.00  0.00     0.021 C 
BRANCH  24  25
ATOM     25  C   UNL     1      -3.403   1.304  -0.780  1.00  0.00     0.002 CG0
ATOM     26  G   UNL     1      -3.218  -0.208  -0.621  1.00  0.00     0.000 G0
ENDBRANCH  24  25
ENDBRANCH  10  24
ENDBRANCH   9  10
BRANCH   9  27
ATOM     27  C   UNL     1      -0.669   0.025  -0.454  1.00  0.00     0.017 C 
BRANCH  27  28
ATOM     28  C   UNL     1      -1.851  -0.742  -1.037  1.00  0.00     0.001 C 
BRANCH  28  29
ATOM     29  C   UNL     1      -3.218  -0.208  -0.621  1.00  0.00     0.000 CG0
ATOM     30  G   UNL     1      -3.403   1.304  -0.780  1.00  0.00     0.000 G0
ENDBRANCH  28  29
ENDBRANCH  27  28
ENDBRANCH   9  27
ENDBRANCH   7   9
ENDBRANCH   6   7
ENDBRANCH   5   6
ENDBRANCH   4   5
ENDBRANCH   3   4
ENDBRANCH   2   3
ENDBRANCH   1   2
BRANCH   1  31
ATOM     31  O   UNL     1       3.017  -1.988   0.393  1.00  0.00    -0.377 OA
BRANCH  31  32
ATOM     32  C   UNL     1       4.402  -2.293   0.395  1.00  0.00     0.188 C 
BRANCH  32  33
ATOM     33  C   UNL     1       5.139  -2.902  -0.826  1.00  0.00     0.188 C 
BRANCH  33  34
ATOM     34  O   UNL     1       4.396  -3.022  -2.034  1.00  0.00    -0.376 OA
BRANCH  34  35
ATOM     35  C   UNL     1       4.139  -4.318  -2.581  1.00  0.00     0.202 C 
BRANCH  35  36
ATOM     36  C   UNL     1       3.020  -5.157  -1.927  1.00  0.00     0.261 C 
BRANCH  36  37
ATOM     37  O   UNL     1       3.022  -5.070  -0.511  1.00  0.00    -0.460 OA
BRANCH  37  38
ATOM     38  C   UNL     1       4.140  -5.582   0.036  1.00  0.00     0.338 C 
ATOM     39  O   UNL     1       5.056  -6.118  -0.564  1.00  0.00    -0.246 OA
BRANCH  38  40
ATOM     40  C   UNL     1       4.114  -5.372   1.497  1.00  0.00     0.060 A 
ATOM     41  C   UNL     1       5.246  -5.900   2.115  1.00  0.00     0.016 A 
ATOM     42  C   UNL     1       2.846  -5.420   2.077  1.00  0.00     0.016 A 
ATOM     43  C   UNL     1       5.024  -6.973   2.933  1.00  0.00     0.010 A 
ATOM     44  C   UNL     1       2.619  -6.491   2.888  1.00  0.00     0.010 A 
ATOM     45  C   UNL     1       3.697  -7.335   3.164  1.00  0.00    -0.014 A 
BRANCH  45  46
ATOM     46  C   UNL     1       3.426  -8.633   3.728  1.00  0.00     0.031 A 
ATOM     47  C   UNL     1       3.461  -8.566   5.198  1.00  0.00     0.074 A 
ATOM     48  C   UNL     1       3.068  -9.676   2.955  1.00  0.00     0.049 A 
ATOM     49  N   UNL     1       4.449  -8.878   5.972  1.00  0.00    -0.248 NA
ATOM     50  C   UNL     1       2.432  -7.731   5.847  1.00  0.00     0.031 C 
ATOM     51  C   UNL     1       2.780  -9.716   1.518  1.00  0.00     0.029 A 
ATOM     52  N   UNL     1       2.796 -10.946   3.343  1.00  0.00    -0.354 N 
ATOM     53  C   UNL     1       4.014  -8.512   7.238  1.00  0.00     0.074 A 
ATOM     54  C   UNL     1       3.014  -7.513   7.024  1.00  0.00     0.031 C 
ATOM     55  C   UNL     1       2.154 -10.881   1.216  1.00  0.00     0.029 A 
ATOM     56  C   UNL     1       2.114 -11.719   2.404  1.00  0.00     0.049 A 
ATOM     57  H   UNL     1       3.061 -11.298   4.223  1.00  0.00     0.167 HD
ATOM     58  C   UNL     1       4.212  -9.321   8.313  1.00  0.00     0.034 A 
ATOM     59  C   UNL     1       1.500 -12.910   2.659  1.00  0.00     0.034 A 
ATOM     60  C   UNL     1       5.217 -10.319   8.009  1.00  0.00     0.049 A 
ATOM     61  C   UNL     1       2.087 -13.408   3.938  1.00  0.00     0.074 A 
ATOM     62  C   UNL     1       6.558 -10.271   7.684  1.00  0.00     0.029 A 
ATOM     63  N   UNL     1       4.772 -11.560   7.600  1.00  0.00    -0.354 N 
ATOM     64  N   UNL     1       3.345 -13.748   4.055  1.00  0.00    -0.248 NA
ATOM     65  C   UNL     1       1.443 -13.008   5.184  1.00  0.00     0.031 C 
ATOM     66  C   UNL     1       6.737 -11.283   6.696  1.00  0.00     0.029 A 
ATOM     67  C   UNL     1       5.529 -11.964   6.526  1.00  0.00     0.049 A 
ATOM     68  H   UNL     1       4.037 -12.070   8.010  1.00  0.00     0.167 HD
ATOM     69  C   UNL     1       3.759 -13.220   5.272  1.00  0.00     0.074 A 
ATOM     70  C   UNL     1       2.523 -12.838   5.956  1.00  0.00     0.031 C 
ATOM     71  C   UNL     1       5.061 -12.859   5.478  1.00  0.00     0.034 A 
BRANCH  58  72
ATOM     72  C   UNL     1       3.222  -9.481   9.453  1.00  0.00     0.023 A 
ATOM     73  C   UNL     1       3.558 -10.426  10.438  1.00  0.00     0.031 A 
ATOM     74  C   UNL     1       1.897  -8.982   9.525  1.00  0.00     0.131 A 
ATOM     75  C   UNL     1       2.593 -10.914  11.334  1.00  0.00     0.055 A 
ATOM     76  C   UNL     1       0.956  -9.432  10.453  1.00  0.00     0.041 A 
ATOM     77  F   UNL     1       1.387  -8.090   8.672  1.00  0.00    -0.206 F 
ATOM     78  C   UNL     1       1.290 -10.429  11.344  1.00  0.00     0.022 A 
BRANCH  75  79
ATOM     79  S   UNL     1       3.035 -12.322  12.377  1.00  0.00     0.124 S 
ATOM     80  O   UNL     1       3.529 -13.275  11.389  1.00  0.00    -0.237 OA
ATOM     81  O   UNL     1       4.034 -11.732  13.262  1.00  0.00    -0.237 OA
ATOM     82  O   UNL     1       1.770 -12.679  13.012  1.00  0.00    -0.744 OA
ENDBRANCH  75  79
ENDBRANCH  58  72
BRANCH  59  83
ATOM     83  C   UNL     1       0.179 -13.373   2.128  1.00  0.00     0.023 A 
ATOM     84  C   UNL     1      -0.222 -14.729   2.073  1.00  0.00     0.031 A 
ATOM     85  C   UNL     1      -0.828 -12.412   1.877  1.00  0.00     0.131 A 
ATOM     86  C   UNL     1      -1.568 -15.067   1.769  1.00  0.00     0.055 A 
ATOM     87  C   UNL     1      -2.151 -12.751   1.585  1.00  0.00     0.041 A 
ATOM     88  F   UNL     1      -0.574 -11.098   1.990  1.00  0.00    -0.206 F 
ATOM     89  C   UNL     1      -2.529 -14.081   1.535  1.00  0.00     0.022 A 
BRANCH  86  90
ATOM     90  S   UNL     1      -2.118 -16.810   1.722  1.00  0.00     0.124 S 
ATOM     91  O   UNL     1      -1.327 -17.359   0.627  1.00  0.00    -0.237 OA
ATOM     92  O   UNL     1      -1.788 -17.280   3.062  1.00  0.00    -0.237 OA
ATOM     93  O   UNL     1      -3.553 -16.710   1.447  1.00  0.00    -0.744 OA
ENDBRANCH  86  90
ENDBRANCH  59  83
BRANCH  71  94
ATOM     94  C   UNL     1       6.091 -13.284   4.444  1.00  0.00     0.023 A 
ATOM     95  C   UNL     1       6.132 -12.849   3.096  1.00  0.00     0.031 A 
ATOM     96  C   UNL     1       7.166 -14.060   4.910  1.00  0.00     0.131 A 
ATOM     97  C   UNL     1       7.229 -13.197   2.277  1.00  0.00     0.055 A 
ATOM     98  C   UNL     1       8.258 -14.378   4.106  1.00  0.00     0.041 A 
ATOM     99  F   UNL     1       7.194 -14.481   6.185  1.00  0.00    -0.206 F 
ATOM    100  C   UNL     1       8.293 -13.949   2.785  1.00  0.00     0.022 A 
BRANCH  97 101
ATOM    101  S   UNL     1       7.298 -12.682   0.527  1.00  0.00     0.124 S 
ATOM    102  O   UNL     1       6.001 -13.093   0.003  1.00  0.00    -0.237 OA
ATOM    103  O   UNL     1       7.522 -11.243   0.630  1.00  0.00    -0.237 OA
ATOM    104  O   UNL     1       8.436 -13.435  -0.006  1.00  0.00    -0.744 OA
ENDBRANCH  97 101
ENDBRANCH  71  94
ENDBRANCH  45  46
ENDBRANCH  38  40
ENDBRANCH  37  38
ENDBRANCH  36  37
ENDBRANCH  35  36
ENDBRANCH  34  35
ENDBRANCH  33  34
ENDBRANCH  32  33
ENDBRANCH  31  32
ENDBRANCH   1  31
TORSDOF 26
