REMARK SMILES CC1=C(C)C[C@@H](C(=O)OCCOCCOCCOCCOC(=O)c2ccc(-c3c4nc(c(-c5cc(S(=O)(=O)[O-])ccc5F)c5ccc([nH]5)c(-c5cc(S(=O)(=O)[O-])ccc5F)c5nc(c(-c6cc(S(=O)(=O)[O-])ccc6F)c6ccc3[nH]6)C=C5)C=C4)cc2)[C@@H](C(=O)N2CCN(c3cccc(C(F)(F)F)c3)CC2)C1
REMARK SMILES IDX 15 1 14 2 13 3 12 4 11 5 10 6 9 7 7 8 8 9 6 10 1 11 2 12
REMARK SMILES IDX 3 13 106 14 4 15 5 16 87 17 88 18 89 19 90 20 91 21 105 22
REMARK SMILES IDX 92 23 104 24 93 25 94 26 95 27 103 28 96 29 98 30 97 31
REMARK SMILES IDX 99 32 100 33 101 34 102 35 16 36 17 37 18 38 19 39 20 40
REMARK SMILES IDX 21 41 22 42 23 43 24 44 25 45 86 46 26 47 85 48 27 49 28 50
REMARK SMILES IDX 29 51 79 52 30 53 84 54 78 55 80 56 31 57 83 58 77 59 76 60
REMARK SMILES IDX 32 62 64 63 44 64 63 65 45 66 48 67 62 68 81 69 46 70 47 71
REMARK SMILES IDX 61 73 82 74 49 75 33 76 34 77 42 78 35 79 41 80 43 81 40 82
REMARK SMILES IDX 36 83 37 84 38 85 39 86 65 87 66 88 74 89 67 90 73 91 75 92
REMARK SMILES IDX 72 93 68 94 69 95 70 96 71 97 50 98 51 99 59 100 52 101
REMARK SMILES IDX 58 102 60 103 57 104 53 105 54 106 55 107 56 108
REMARK H PARENT 80 61 48 72
REMARK Flexibility Score: inf
ROOT
ATOM      1  O   UNL     1       2.545   5.775   2.401  1.00  0.00    -0.377 OA
ENDROOT
BRANCH   1   2
ATOM      2  C   UNL     1       1.781   6.951   2.555  1.00  0.00     0.188 C 
BRANCH   2   3
ATOM      3  C   UNL     1       0.709   6.871   3.640  1.00  0.00     0.188 C 
BRANCH   3   4
ATOM      4  O   UNL     1       1.109   6.540   4.957  1.00  0.00    -0.376 OA
BRANCH   4   5
ATOM      5  C   UNL     1       1.827   5.328   5.169  1.00  0.00     0.202 C 
BRANCH   5   6
ATOM      6  C   UNL     1       1.230   3.980   4.711  1.00  0.00     0.261 C 
BRANCH   6   7
ATOM      7  O   UNL     1       1.130   3.751   3.277  1.00  0.00    -0.463 OA
BRANCH   7   8
ATOM      8  C   UNL     1      -0.117   3.802   2.778  1.00  0.00     0.310 C 
ATOM      9  O   UNL     1      -1.097   4.093   3.474  1.00  0.00    -0.252 OA
BRANCH   8  10
ATOM     10  C   UNL     1      -0.355   3.501   1.298  1.00  0.00     0.116 C 
ATOM     11  C   UNL     1       0.964  -0.445  -0.108  1.00  0.00     0.039 C 
ATOM     12  C   UNL     1       0.251   0.840   0.217  1.00  0.00    -0.074 C 
ATOM     13  C   UNL     1      -0.766   0.984   1.086  1.00  0.00    -0.073 C 
ATOM     14  C   UNL     1       0.722   2.027  -0.583  1.00  0.00     0.045 C 
ATOM     15  C   UNL     1      -1.415  -0.122   1.871  1.00  0.00     0.039 C 
ATOM     16  C   UNL     1      -1.385   2.345   1.270  1.00  0.00     0.046 C 
ATOM     17  C   UNL     1       0.621   3.422   0.100  1.00  0.00     0.097 C 
BRANCH  17  18
ATOM     18  C   UNL     1       2.068   3.917   0.157  1.00  0.00     0.227 C 
ATOM     19  O   UNL     1       2.909   3.323   0.832  1.00  0.00    -0.275 OA
ATOM     20  N   UNL     1       2.441   4.825  -0.863  1.00  0.00    -0.339 N 
ATOM     21  C   UNL     1       3.863   4.837  -1.244  1.00  0.00     0.141 C 
ATOM     22  C   UNL     1       1.708   6.084  -1.094  1.00  0.00     0.141 C 
ATOM     23  C   UNL     1       4.180   5.582  -2.557  1.00  0.00     0.138 C 
ATOM     24  C   UNL     1       2.055   6.827  -2.403  1.00  0.00     0.138 C 
ATOM     25  N   UNL     1       3.507   6.890  -2.580  1.00  0.00    -0.368 N 
BRANCH  25  26
ATOM     26  C   UNL     1       4.120   7.990  -3.148  1.00  0.00     0.037 A 
ATOM     27  C   UNL     1       4.881   7.902  -4.319  1.00  0.00     0.026 A 
ATOM     28  C   UNL     1       4.106   9.225  -2.483  1.00  0.00     0.039 A 
ATOM     29  C   UNL     1       5.640   8.983  -4.780  1.00  0.00     0.003 A 
ATOM     30  C   UNL     1       4.943  10.290  -2.871  1.00  0.00     0.058 A 
ATOM     31  C   UNL     1       5.693  10.164  -4.045  1.00  0.00     0.013 A 
BRANCH  30  32
ATOM     32  C   UNL     1       5.099  11.517  -2.006  1.00  0.00     0.416 C 
ATOM     33  F   UNL     1       6.404  11.807  -1.744  1.00  0.00    -0.166 F 
ATOM     34  F   UNL     1       4.577  12.635  -2.581  1.00  0.00    -0.166 F 
ATOM     35  F   UNL     1       4.495  11.403  -0.790  1.00  0.00    -0.166 F 
ENDBRANCH  30  32
ENDBRANCH  25  26
ENDBRANCH  17  18
ENDBRANCH   8  10
ENDBRANCH   7   8
ENDBRANCH   6   7
ENDBRANCH   5   6
ENDBRANCH   4   5
ENDBRANCH   3   4
ENDBRANCH   2   3
ENDBRANCH   1   2
BRANCH   1  36
ATOM     36  C   UNL     1       3.960   5.766   2.610  1.00  0.00     0.188 C 
BRANCH  36  37
ATOM     37  C   UNL     1       4.645   7.036   3.123  1.00  0.00     0.188 C 
BRANCH  37  38
ATOM     38  O   UNL     1       4.566   8.208   2.308  1.00  0.00    -0.376 OA
BRANCH  38  39
ATOM     39  C   UNL     1       4.545   8.041   0.895  1.00  0.00     0.202 C 
BRANCH  39  40
ATOM     40  C   UNL     1       5.914   7.925   0.239  1.00  0.00     0.261 C 
BRANCH  40  41
ATOM     41  O   UNL     1       6.531   6.677   0.568  1.00  0.00    -0.460 OA
BRANCH  41  42
ATOM     42  C   UNL     1       7.571   6.790   1.416  1.00  0.00     0.338 C 
ATOM     43  O   UNL     1       8.064   7.823   1.853  1.00  0.00    -0.246 OA
BRANCH  42  44
ATOM     44  C   UNL     1       7.934   5.460   1.912  1.00  0.00     0.060 A 
ATOM     45  C   UNL     1       8.091   5.335   3.295  1.00  0.00     0.016 A 
ATOM     46  C   UNL     1       8.189   4.386   1.052  1.00  0.00     0.016 A 
ATOM     47  C   UNL     1       8.583   4.156   3.823  1.00  0.00     0.010 A 
ATOM     48  C   UNL     1       8.695   3.200   1.586  1.00  0.00     0.010 A 
ATOM     49  C   UNL     1       8.944   3.109   2.966  1.00  0.00    -0.014 A 
BRANCH  49  50
ATOM     50  C   UNL     1       9.788   2.040   3.534  1.00  0.00     0.031 A 
ATOM     51  C   UNL     1      11.279   2.151   3.369  1.00  0.00     0.074 A 
ATOM     52  C   UNL     1       9.237   1.091   4.309  1.00  0.00     0.049 A 
ATOM     53  N   UNL     1      12.226   1.404   3.870  1.00  0.00    -0.248 NA
ATOM     54  C   UNL     1      11.766   3.263   2.536  1.00  0.00     0.031 C 
ATOM     55  C   UNL     1       7.805   0.956   4.581  1.00  0.00     0.029 A 
ATOM     56  N   UNL     1       9.815   0.082   5.029  1.00  0.00    -0.354 N 
ATOM     57  C   UNL     1      13.420   1.957   3.418  1.00  0.00     0.074 A 
ATOM     58  C   UNL     1      13.076   3.076   2.570  1.00  0.00     0.031 C 
ATOM     59  C   UNL     1       7.619  -0.075   5.421  1.00  0.00     0.029 A 
ATOM     60  C   UNL     1       8.909  -0.694   5.713  1.00  0.00     0.049 A 
ATOM     61  H   UNL     1      10.787  -0.074   5.056  1.00  0.00     0.167 HD
ATOM     62  C   UNL     1      14.687   1.565   3.697  1.00  0.00     0.034 A 
ATOM     63  C   UNL     1       9.107  -1.790   6.469  1.00  0.00     0.034 A 
ATOM     64  C   UNL     1      14.996   0.436   4.539  1.00  0.00     0.049 A 
ATOM     65  C   UNL     1      10.525  -2.261   6.687  1.00  0.00     0.074 A 
ATOM     66  C   UNL     1      16.237  -0.059   4.895  1.00  0.00     0.029 A 
ATOM     67  N   UNL     1      14.052  -0.384   5.146  1.00  0.00    -0.354 N 
ATOM     68  N   UNL     1      11.649  -1.731   6.258  1.00  0.00    -0.248 NA
ATOM     69  C   UNL     1      10.701  -3.468   7.501  1.00  0.00     0.031 C 
ATOM     70  C   UNL     1      16.043  -1.226   5.642  1.00  0.00     0.029 A 
ATOM     71  C   UNL     1      14.682  -1.408   5.836  1.00  0.00     0.049 A 
ATOM     72  H   UNL     1      13.077  -0.256   5.094  1.00  0.00     0.167 HD
ATOM     73  C   UNL     1      12.667  -2.531   6.770  1.00  0.00     0.074 A 
ATOM     74  C   UNL     1      12.020  -3.557   7.565  1.00  0.00     0.031 C 
ATOM     75  C   UNL     1      14.012  -2.434   6.602  1.00  0.00     0.034 A 
BRANCH  62  76
ATOM     76  C   UNL     1      15.813   2.315   3.027  1.00  0.00     0.023 A 
ATOM     77  C   UNL     1      16.068   3.675   3.283  1.00  0.00     0.031 A 
ATOM     78  C   UNL     1      16.632   1.659   2.091  1.00  0.00     0.131 A 
ATOM     79  C   UNL     1      17.073   4.346   2.568  1.00  0.00     0.055 A 
ATOM     80  C   UNL     1      17.681   2.312   1.441  1.00  0.00     0.041 A 
ATOM     81  F   UNL     1      16.418   0.371   1.780  1.00  0.00    -0.206 F 
ATOM     82  C   UNL     1      17.899   3.667   1.669  1.00  0.00     0.022 A 
BRANCH  79  83
ATOM     83  S   UNL     1      17.201   6.149   2.724  1.00  0.00     0.124 S 
ATOM     84  O   UNL     1      15.873   6.578   2.290  1.00  0.00    -0.237 OA
ATOM     85  O   UNL     1      17.498   6.323   4.141  1.00  0.00    -0.237 OA
ATOM     86  O   UNL     1      18.288   6.497   1.811  1.00  0.00    -0.744 OA
ENDBRANCH  79  83
ENDBRANCH  62  76
BRANCH  63  87
ATOM     87  C   UNL     1       7.948  -2.545   7.026  1.00  0.00     0.023 A 
ATOM     88  C   UNL     1       7.784  -2.729   8.408  1.00  0.00     0.031 A 
ATOM     89  C   UNL     1       7.011  -3.151   6.167  1.00  0.00     0.131 A 
ATOM     90  C   UNL     1       6.742  -3.540   8.886  1.00  0.00     0.055 A 
ATOM     91  C   UNL     1       5.940  -3.902   6.651  1.00  0.00     0.041 A 
ATOM     92  F   UNL     1       7.123  -3.015   4.836  1.00  0.00    -0.206 F 
ATOM     93  C   UNL     1       5.810  -4.114   8.018  1.00  0.00     0.022 A 
BRANCH  90  94
ATOM     94  S   UNL     1       6.683  -3.925  10.658  1.00  0.00     0.124 S 
ATOM     95  O   UNL     1       7.997  -4.518  10.877  1.00  0.00    -0.237 OA
ATOM     96  O   UNL     1       6.467  -2.607  11.247  1.00  0.00    -0.237 OA
ATOM     97  O   UNL     1       5.555  -4.847  10.769  1.00  0.00    -0.744 OA
ENDBRANCH  90  94
ENDBRANCH  63  87
BRANCH  75  98
ATOM     98  C   UNL     1      14.861  -3.457   7.319  1.00  0.00     0.023 A 
ATOM     99  C   UNL     1      14.782  -4.826   7.011  1.00  0.00     0.031 A 
ATOM    100  C   UNL     1      15.737  -3.061   8.346  1.00  0.00     0.131 A 
ATOM    101  C   UNL     1      15.500  -5.757   7.775  1.00  0.00     0.055 A 
ATOM    102  C   UNL     1      16.511  -3.985   9.049  1.00  0.00     0.041 A 
ATOM    103  F   UNL     1      15.853  -1.767   8.686  1.00  0.00    -0.206 F 
ATOM    104  C   UNL     1      16.380  -5.344   8.778  1.00  0.00     0.022 A 
BRANCH 101 105
ATOM    105  S   UNL     1      15.165  -7.522   7.528  1.00  0.00     0.124 S 
ATOM    106  O   UNL     1      13.728  -7.593   7.770  1.00  0.00    -0.237 OA
ATOM    107  O   UNL     1      15.591  -7.731   6.148  1.00  0.00    -0.237 OA
ATOM    108  O   UNL     1      15.998  -8.173   8.538  1.00  0.00    -0.744 OA
ENDBRANCH 101 105
ENDBRANCH  75  98
ENDBRANCH  49  50
ENDBRANCH  42  44
ENDBRANCH  41  42
ENDBRANCH  40  41
ENDBRANCH  39  40
ENDBRANCH  38  39
ENDBRANCH  37  38
ENDBRANCH  36  37
ENDBRANCH   1  36
TORSDOF 26
