REMARK SMILES Cc1ccc(N2C(=O)C[C@H](Sc3ccccc3C(=O)OCCOCCOCCOCCOC(=O)c3ccc(-c4c5nc(c(-c6cc(S(=O)(=O)[O-])ccc6F)c6ccc([nH]6)c(-c6cc(S(=O)(=O)[O-])ccc6F)c6nc(c(-c7cc(S(=O)(=O)[O-])ccc7F)c7ccc4[nH]7)C=C6)C=C5)cc3)C2=O)cc1
REMARK SMILES IDX 26 1 25 2 24 3 23 4 22 5 21 6 20 7 18 8 19 9 17 10 12 11
REMARK SMILES IDX 13 12 14 13 16 14 15 15 11 16 10 17 6 18 7 19 98 20 8 21
REMARK SMILES IDX 9 22 99 23 5 24 1 25 2 26 3 27 101 28 4 29 100 30 27 31
REMARK SMILES IDX 28 32 29 33 30 34 31 35 32 36 33 37 34 38 35 39 36 40 97 41
REMARK SMILES IDX 37 42 96 43 38 44 39 45 40 46 90 47 41 48 95 49 89 50 91 51
REMARK SMILES IDX 42 52 94 53 88 54 87 55 43 57 75 58 55 59 74 60 56 61 59 62
REMARK SMILES IDX 73 63 92 64 57 65 58 66 72 68 93 69 60 70 44 71 45 72 53 73
REMARK SMILES IDX 46 74 52 75 54 76 51 77 47 78 48 79 49 80 50 81 76 82 77 83
REMARK SMILES IDX 85 84 78 85 84 86 86 87 83 88 79 89 80 90 81 91 82 92 61 93
REMARK SMILES IDX 62 94 70 95 63 96 69 97 71 98 68 99 64 100 65 101 66 102
REMARK SMILES IDX 67 103
REMARK H PARENT 91 56 59 67
REMARK Flexibility Score: inf
ROOT
ATOM      1  O   UNL     1      -3.248   3.740  -1.476  1.00  0.00    -0.377 OA
ENDROOT
BRANCH   1   2
ATOM      2  C   UNL     1      -3.435   3.028  -0.266  1.00  0.00     0.188 C 
BRANCH   2   3
ATOM      3  C   UNL     1      -4.832   2.453  -0.033  1.00  0.00     0.188 C 
BRANCH   3   4
ATOM      4  O   UNL     1      -5.335   1.700  -1.122  1.00  0.00    -0.376 OA
BRANCH   4   5
ATOM      5  C   UNL     1      -6.459   0.853  -0.944  1.00  0.00     0.202 C 
BRANCH   5   6
ATOM      6  C   UNL     1      -7.650   1.250  -0.088  1.00  0.00     0.261 C 
BRANCH   6   7
ATOM      7  O   UNL     1      -7.300   2.010   1.050  1.00  0.00    -0.460 OA
BRANCH   7   8
ATOM      8  C   UNL     1      -7.427   1.371   2.217  1.00  0.00     0.339 C 
ATOM      9  O   UNL     1      -8.074   0.351   2.426  1.00  0.00    -0.246 OA
BRANCH   8  10
ATOM     10  C   UNL     1      -6.354   1.913   3.067  1.00  0.00     0.073 A 
ATOM     11  C   UNL     1      -5.537   1.052   3.829  1.00  0.00     0.023 A 
ATOM     12  C   UNL     1      -4.548   1.648   4.621  1.00  0.00     0.016 A 
ATOM     13  C   UNL     1      -4.304   3.027   4.581  1.00  0.00     0.001 A 
ATOM     14  C   UNL     1      -6.083   3.303   3.005  1.00  0.00     0.017 A 
ATOM     15  C   UNL     1      -5.044   3.853   3.744  1.00  0.00     0.001 A 
BRANCH  11  16
ATOM     16  S   UNL     1      -5.740  -0.725   4.048  1.00  0.00    -0.111 SA
BRANCH  16  17
ATOM     17  C   UNL     1      -4.903  -1.573   2.639  1.00  0.00     0.151 C 
ATOM     18  N   UNL     1      -2.872  -0.782   1.796  1.00  0.00    -0.250 N 
ATOM     19  C   UNL     1      -3.782  -0.605   0.796  1.00  0.00     0.235 C 
ATOM     20  C   UNL     1      -3.397  -1.590   2.768  1.00  0.00     0.247 C 
ATOM     21  O   UNL     1      -3.539  -0.304  -0.352  1.00  0.00    -0.274 OA
ATOM     22  C   UNL     1      -5.130  -1.045   1.258  1.00  0.00     0.126 C 
ATOM     23  O   UNL     1      -2.782  -2.293   3.561  1.00  0.00    -0.273 OA
BRANCH  18  24
ATOM     24  C   UNL     1      -1.507  -0.629   1.484  1.00  0.00     0.052 A 
ATOM     25  C   UNL     1       2.470  -0.063  -0.082  1.00  0.00     0.044 C 
ATOM     26  C   UNL     1       1.078  -0.251   0.443  1.00  0.00    -0.051 A 
ATOM     27  C   UNL     1       0.534  -1.538   0.552  1.00  0.00     0.005 A 
ATOM     28  C   UNL     1       0.312   0.848   0.845  1.00  0.00     0.005 A 
ATOM     29  C   UNL     1      -0.749  -1.729   1.076  1.00  0.00     0.027 A 
ATOM     30  C   UNL     1      -0.974   0.658   1.356  1.00  0.00     0.027 A 
ENDBRANCH  18  24
ENDBRANCH  16  17
ENDBRANCH  11  16
ENDBRANCH   8  10
ENDBRANCH   7   8
ENDBRANCH   6   7
ENDBRANCH   5   6
ENDBRANCH   4   5
ENDBRANCH   3   4
ENDBRANCH   2   3
ENDBRANCH   1   2
BRANCH   1  31
ATOM     31  C   UNL     1      -3.078   2.936  -2.634  1.00  0.00     0.188 C 
BRANCH  31  32
ATOM     32  C   UNL     1      -2.002   1.876  -2.619  1.00  0.00     0.188 C 
BRANCH  32  33
ATOM     33  O   UNL     1      -2.689   0.635  -2.778  1.00  0.00    -0.376 OA
BRANCH  33  34
ATOM     34  C   UNL     1      -1.891  -0.523  -2.884  1.00  0.00     0.202 C 
BRANCH  34  35
ATOM     35  C   UNL     1      -0.955  -0.458  -4.091  1.00  0.00     0.261 C 
BRANCH  35  36
ATOM     36  O   UNL     1      -1.712  -0.524  -5.332  1.00  0.00    -0.460 OA
BRANCH  36  37
ATOM     37  C   UNL     1      -2.018   0.649  -5.966  1.00  0.00     0.338 C 
ATOM     38  O   UNL     1      -1.238   1.255  -6.684  1.00  0.00    -0.246 OA
BRANCH  37  39
ATOM     39  C   UNL     1      -3.448   1.053  -5.766  1.00  0.00     0.060 A 
ATOM     40  C   UNL     1      -3.928   2.319  -6.149  1.00  0.00     0.016 A 
ATOM     41  C   UNL     1      -4.281   0.228  -5.031  1.00  0.00     0.016 A 
ATOM     42  C   UNL     1      -5.158   2.809  -5.648  1.00  0.00     0.010 A 
ATOM     43  C   UNL     1      -5.411   0.766  -4.439  1.00  0.00     0.010 A 
ATOM     44  C   UNL     1      -5.868   2.071  -4.705  1.00  0.00    -0.014 A 
BRANCH  44  45
ATOM     45  C   UNL     1      -6.977   2.579  -3.840  1.00  0.00     0.031 A 
ATOM     46  C   UNL     1      -8.197   1.686  -3.675  1.00  0.00     0.074 A 
ATOM     47  C   UNL     1      -6.702   3.580  -2.948  1.00  0.00     0.049 A 
ATOM     48  N   UNL     1      -9.179   1.879  -2.861  1.00  0.00    -0.248 NA
ATOM     49  C   UNL     1      -8.365   0.403  -4.370  1.00  0.00     0.031 C 
ATOM     50  C   UNL     1      -7.360   3.874  -1.675  1.00  0.00     0.029 A 
ATOM     51  N   UNL     1      -5.702   4.559  -2.955  1.00  0.00    -0.354 N 
ATOM     52  C   UNL     1      -9.844   0.674  -2.633  1.00  0.00     0.074 A 
ATOM     53  C   UNL     1      -9.347  -0.186  -3.675  1.00  0.00     0.031 C 
ATOM     54  C   UNL     1      -6.808   4.919  -1.034  1.00  0.00     0.029 A 
ATOM     55  C   UNL     1      -6.059   5.590  -2.049  1.00  0.00     0.049 A 
ATOM     56  H   UNL     1      -4.883   4.535  -3.501  1.00  0.00     0.167 HD
ATOM     57  C   UNL     1     -10.622   0.530  -1.504  1.00  0.00     0.034 A 
ATOM     58  C   UNL     1      -6.450   6.795  -2.551  1.00  0.00     0.034 A 
ATOM     59  C   UNL     1     -10.764   1.827  -0.782  1.00  0.00     0.049 A 
ATOM     60  C   UNL     1      -8.014   6.901  -2.471  1.00  0.00     0.074 A 
ATOM     61  C   UNL     1     -10.680   2.257   0.535  1.00  0.00     0.029 A 
ATOM     62  N   UNL     1     -10.861   3.006  -1.527  1.00  0.00    -0.354 N 
ATOM     63  N   UNL     1      -8.806   5.909  -2.101  1.00  0.00    -0.248 NA
ATOM     64  C   UNL     1      -8.811   8.103  -2.656  1.00  0.00     0.031 C 
ATOM     65  C   UNL     1     -10.624   3.693   0.538  1.00  0.00     0.029 A 
ATOM     66  C   UNL     1     -10.745   4.149  -0.768  1.00  0.00     0.049 A 
ATOM     67  H   UNL     1     -11.000   3.017  -2.502  1.00  0.00     0.167 HD
ATOM     68  C   UNL     1     -10.105   6.277  -1.910  1.00  0.00     0.074 A 
ATOM     69  C   UNL     1     -10.060   7.668  -2.365  1.00  0.00     0.031 C 
ATOM     70  C   UNL     1     -11.079   5.436  -1.387  1.00  0.00     0.034 A 
BRANCH  57  71
ATOM     71  C   UNL     1     -11.146  -0.799  -0.887  1.00  0.00     0.023 A 
ATOM     72  C   UNL     1     -11.960  -0.759   0.278  1.00  0.00     0.031 A 
ATOM     73  C   UNL     1     -10.830  -2.114  -1.305  1.00  0.00     0.131 A 
ATOM     74  C   UNL     1     -12.373  -1.927   0.969  1.00  0.00     0.055 A 
ATOM     75  C   UNL     1     -11.293  -3.280  -0.655  1.00  0.00     0.041 A 
ATOM     76  F   UNL     1     -10.023  -2.363  -2.340  1.00  0.00    -0.206 F 
ATOM     77  C   UNL     1     -12.059  -3.193   0.494  1.00  0.00     0.022 A 
BRANCH  74  78
ATOM     78  S   UNL     1     -13.320  -1.782   2.519  1.00  0.00     0.124 S 
ATOM     79  O   UNL     1     -12.323  -1.253   3.442  1.00  0.00    -0.237 OA
ATOM     80  O   UNL     1     -14.400  -0.876   2.145  1.00  0.00    -0.237 OA
ATOM     81  O   UNL     1     -13.742  -3.156   2.792  1.00  0.00    -0.744 OA
ENDBRANCH  74  78
ENDBRANCH  57  71
BRANCH  58  82
ATOM     82  C   UNL     1      -5.351   7.200  -3.525  1.00  0.00     0.023 A 
ATOM     83  C   UNL     1      -4.037   7.310  -2.940  1.00  0.00     0.031 A 
ATOM     84  C   UNL     1      -5.399   6.764  -4.860  1.00  0.00     0.131 A 
ATOM     85  C   UNL     1      -2.901   6.760  -3.579  1.00  0.00     0.055 A 
ATOM     86  C   UNL     1      -4.247   6.271  -5.511  1.00  0.00     0.041 A 
ATOM     87  F   UNL     1      -6.578   6.597  -5.476  1.00  0.00    -0.206 F 
ATOM     88  C   UNL     1      -3.015   6.206  -4.853  1.00  0.00     0.022 A 
BRANCH  85  89
ATOM     89  S   UNL     1      -1.332   6.492  -2.655  1.00  0.00     0.124 S 
ATOM     90  O   UNL     1      -0.546   7.657  -3.054  1.00  0.00    -0.237 OA
ATOM     91  O   UNL     1      -1.744   6.477  -1.254  1.00  0.00    -0.237 OA
ATOM     92  O   UNL     1      -0.837   5.216  -3.173  1.00  0.00    -0.744 OA
ENDBRANCH  85  89
ENDBRANCH  58  82
BRANCH  70  93
ATOM     93  C   UNL     1     -12.574   5.693  -1.459  1.00  0.00     0.023 A 
ATOM     94  C   UNL     1     -13.082   6.975  -1.544  1.00  0.00     0.031 A 
ATOM     95  C   UNL     1     -13.543   4.645  -1.509  1.00  0.00     0.131 A 
ATOM     96  C   UNL     1     -14.412   7.186  -1.925  1.00  0.00     0.055 A 
ATOM     97  C   UNL     1     -14.892   4.861  -1.780  1.00  0.00     0.041 A 
ATOM     98  F   UNL     1     -13.242   3.352  -1.334  1.00  0.00    -0.206 F 
ATOM     99  C   UNL     1     -15.326   6.142  -2.047  1.00  0.00     0.022 A 
BRANCH  96 100
ATOM    100  S   UNL     1     -14.851   8.865  -2.397  1.00  0.00     0.124 S 
ATOM    101  O   UNL     1     -14.459   9.631  -1.218  1.00  0.00    -0.237 OA
ATOM    102  O   UNL     1     -14.018   9.061  -3.581  1.00  0.00    -0.237 OA
ATOM    103  O   UNL     1     -16.287   8.786  -2.647  1.00  0.00    -0.744 OA
ENDBRANCH  96 100
ENDBRANCH  70  93
ENDBRANCH  44  45
ENDBRANCH  37  39
ENDBRANCH  36  37
ENDBRANCH  35  36
ENDBRANCH  34  35
ENDBRANCH  33  34
ENDBRANCH  32  33
ENDBRANCH  31  32
ENDBRANCH   1  31
TORSDOF 26
