REMARK SMILES NS(=O)(=O)c1ccc(-n2nc(C(=O)OCCOCCOCCOCCOC(=O)c3ccc(-c4c5nc(c(-c6cc(S(=O)(=O)[O-])ccc6F)c6ccc([nH]6)c(-c6cc(S(=O)(=O)[O-])ccc6F)c6nc(c(-c7cc(S(=O)(=O)[O-])ccc7F)c7ccc4[nH]7)C=C6)C=C5)cc3)cc2-c2ccc(Cl)s2)cc1
REMARK SMILES IDX 20 1 19 2 18 3 17 4 16 5 15 6 14 7 12 8 13 9 11 10 9 11
REMARK SMILES IDX 10 12 93 13 92 14 8 15 5 16 6 17 101 18 7 19 100 20 2 21
REMARK SMILES IDX 3 22 4 23 1 24 94 27 95 28 99 29 96 30 97 31 98 32 21 33
REMARK SMILES IDX 22 34 23 35 24 36 25 37 26 38 27 39 28 40 29 41 30 42 91 43
REMARK SMILES IDX 31 44 90 45 32 46 33 47 34 48 84 49 35 50 89 51 83 52 85 53
REMARK SMILES IDX 36 54 88 55 82 56 81 57 37 59 69 60 49 61 68 62 50 63 53 64
REMARK SMILES IDX 67 65 86 66 51 67 52 68 66 70 87 71 54 72 38 73 39 74 47 75
REMARK SMILES IDX 40 76 46 77 48 78 45 79 41 80 42 81 43 82 44 83 70 84 71 85
REMARK SMILES IDX 79 86 72 87 78 88 80 89 77 90 73 91 74 92 75 93 76 94 55 95
REMARK SMILES IDX 56 96 64 97 57 98 63 99 65 100 62 101 58 102 59 103 60 104
REMARK SMILES IDX 61 105
REMARK H PARENT 1 25 1 26 85 58 53 69
REMARK Flexibility Score: inf
ROOT
ATOM      1  O   UNL     1       5.362  -9.691  -4.412  1.00  0.00    -0.377 OA
ENDROOT
BRANCH   1   2
ATOM      2  C   UNL     1       5.382  -8.496  -3.647  1.00  0.00     0.188 C 
BRANCH   2   3
ATOM      3  C   UNL     1       6.089  -8.622  -2.275  1.00  0.00     0.188 C 
BRANCH   3   4
ATOM      4  O   UNL     1       6.774  -9.803  -1.867  1.00  0.00    -0.376 OA
BRANCH   4   5
ATOM      5  C   UNL     1       6.375 -11.100  -2.275  1.00  0.00     0.202 C 
BRANCH   5   6
ATOM      6  C   UNL     1       4.941 -11.604  -2.061  1.00  0.00     0.261 C 
BRANCH   6   7
ATOM      7  O   UNL     1       3.907 -10.626  -2.155  1.00  0.00    -0.458 OA
BRANCH   7   8
ATOM      8  C   UNL     1       3.618  -9.964  -0.999  1.00  0.00     0.358 C 
ATOM      9  O   UNL     1       4.060 -10.262   0.105  1.00  0.00    -0.244 OA
BRANCH   8  10
ATOM     10  C   UNL     1       2.766  -8.796  -1.264  1.00  0.00     0.171 A 
ATOM     11  N   UNL     1       1.986  -6.808  -1.139  1.00  0.00    -0.231 N 
ATOM     12  N   UNL     1       2.967  -7.606  -0.665  1.00  0.00    -0.160 NA
ATOM     13  C   UNL     1       1.165  -7.463  -2.040  1.00  0.00     0.085 A 
ATOM     14  C   UNL     1       1.707  -8.718  -2.201  1.00  0.00     0.068 A 
BRANCH  11  15
ATOM     15  C   UNL     1       1.754  -5.555  -0.532  1.00  0.00     0.065 A 
ATOM     16  C   UNL     1       1.145  -3.052   0.488  1.00  0.00     0.082 A 
ATOM     17  C   UNL     1       0.281  -4.126   0.730  1.00  0.00     0.024 A 
ATOM     18  C   UNL     1       2.319  -3.227  -0.258  1.00  0.00     0.024 A 
ATOM     19  C   UNL     1       0.582  -5.381   0.213  1.00  0.00     0.030 A 
ATOM     20  C   UNL     1       2.640  -4.495  -0.755  1.00  0.00     0.030 A 
BRANCH  16  21
ATOM     21  S   UNL     1       0.688  -1.469   1.127  1.00  0.00     0.238 S 
ATOM     22  O   UNL     1       1.399  -1.260   2.371  1.00  0.00    -0.207 OA
ATOM     23  O   UNL     1      -0.741  -1.320   1.018  1.00  0.00    -0.207 OA
BRANCH  21  24
ATOM     24  N   UNL     1       1.330  -0.369   0.034  1.00  0.00    -0.225 NA
ATOM     25  H   UNL     1       1.107   0.579   0.335  1.00  0.00     0.137 HD
ATOM     26  H   UNL     1       0.930  -0.536  -0.890  1.00  0.00     0.137 HD
ENDBRANCH  21  24
ENDBRANCH  16  21
ENDBRANCH  11  15
BRANCH  13  27
ATOM     27  C   UNL     1      -0.029  -6.925  -2.619  1.00  0.00     0.054 A 
ATOM     28  C   UNL     1      -1.273  -7.525  -2.586  1.00  0.00     0.024 A 
ATOM     29  S   UNL     1      -0.082  -5.411  -3.422  1.00  0.00    -0.122 S 
ATOM     30  C   UNL     1      -2.290  -6.686  -3.128  1.00  0.00     0.033 A 
ATOM     31  C   UNL     1      -1.761  -5.510  -3.593  1.00  0.00     0.094 A 
ATOM     32  Cl  UNL     1      -2.631  -4.203  -4.285  1.00  0.00    -0.072 Cl
ENDBRANCH  13  27
ENDBRANCH   8  10
ENDBRANCH   7   8
ENDBRANCH   6   7
ENDBRANCH   5   6
ENDBRANCH   4   5
ENDBRANCH   3   4
ENDBRANCH   2   3
ENDBRANCH   1   2
BRANCH   1  33
ATOM     33  C   UNL     1       6.370  -9.789  -5.420  1.00  0.00     0.188 C 
BRANCH  33  34
ATOM     34  C   UNL     1       7.832  -9.464  -5.013  1.00  0.00     0.188 C 
BRANCH  34  35
ATOM     35  O   UNL     1       7.961  -8.319  -4.181  1.00  0.00    -0.376 OA
BRANCH  35  36
ATOM     36  C   UNL     1       8.518  -7.103  -4.649  1.00  0.00     0.202 C 
BRANCH  36  37
ATOM     37  C   UNL     1       7.721  -6.317  -5.682  1.00  0.00     0.261 C 
BRANCH  37  38
ATOM     38  O   UNL     1       7.113  -7.131  -6.662  1.00  0.00    -0.460 OA
BRANCH  38  39
ATOM     39  C   UNL     1       7.964  -7.712  -7.525  1.00  0.00     0.338 C 
ATOM     40  O   UNL     1       9.181  -7.802  -7.413  1.00  0.00    -0.246 OA
BRANCH  39  41
ATOM     41  C   UNL     1       7.197  -8.111  -8.702  1.00  0.00     0.060 A 
ATOM     42  C   UNL     1       7.928  -8.703  -9.729  1.00  0.00     0.016 A 
ATOM     43  C   UNL     1       5.951  -7.496  -8.909  1.00  0.00     0.016 A 
ATOM     44  C   UNL     1       7.570  -8.383 -11.013  1.00  0.00     0.010 A 
ATOM     45  C   UNL     1       5.620  -7.147 -10.187  1.00  0.00     0.010 A 
ATOM     46  C   UNL     1       6.498  -7.504 -11.202  1.00  0.00    -0.014 A 
BRANCH  46  47
ATOM     47  C   UNL     1       6.235  -7.031 -12.535  1.00  0.00     0.031 A 
ATOM     48  C   UNL     1       5.502  -8.036 -13.317  1.00  0.00     0.074 A 
ATOM     49  C   UNL     1       6.546  -5.792 -12.951  1.00  0.00     0.049 A 
ATOM     50  N   UNL     1       6.007  -8.877 -14.154  1.00  0.00    -0.248 NA
ATOM     51  C   UNL     1       4.120  -8.339 -12.913  1.00  0.00     0.031 C 
ATOM     52  C   UNL     1       7.024  -4.649 -12.173  1.00  0.00     0.029 A 
ATOM     53  N   UNL     1       6.407  -5.277 -14.196  1.00  0.00    -0.354 N 
ATOM     54  C   UNL     1       4.926  -9.621 -14.596  1.00  0.00     0.074 A 
ATOM     55  C   UNL     1       3.910  -9.465 -13.595  1.00  0.00     0.031 C 
ATOM     56  C   UNL     1       6.916  -3.526 -12.925  1.00  0.00     0.029 A 
ATOM     57  C   UNL     1       6.488  -3.892 -14.267  1.00  0.00     0.049 A 
ATOM     58  H   UNL     1       6.261  -5.840 -14.990  1.00  0.00     0.167 HD
ATOM     59  C   UNL     1       4.844 -10.009 -15.896  1.00  0.00     0.034 A 
ATOM     60  C   UNL     1       6.146  -3.126 -15.340  1.00  0.00     0.034 A 
ATOM     61  C   UNL     1       6.137  -9.898 -16.545  1.00  0.00     0.049 A 
ATOM     62  C   UNL     1       6.201  -4.018 -16.532  1.00  0.00     0.074 A 
ATOM     63  C   UNL     1       7.391 -10.425 -16.290  1.00  0.00     0.029 A 
ATOM     64  N   UNL     1       6.355  -8.818 -17.377  1.00  0.00    -0.354 N 
ATOM     65  N   UNL     1       7.311  -4.552 -16.971  1.00  0.00    -0.248 NA
ATOM     66  C   UNL     1       4.989  -4.734 -16.912  1.00  0.00     0.031 C 
ATOM     67  C   UNL     1       8.303  -9.363 -16.563  1.00  0.00     0.029 A 
ATOM     68  C   UNL     1       7.578  -8.276 -17.057  1.00  0.00     0.049 A 
ATOM     69  H   UNL     1       5.743  -8.493 -18.075  1.00  0.00     0.167 HD
ATOM     70  C   UNL     1       6.986  -5.864 -17.285  1.00  0.00     0.074 A 
ATOM     71  C   UNL     1       5.524  -5.891 -17.319  1.00  0.00     0.031 C 
ATOM     72  C   UNL     1       7.911  -6.867 -17.195  1.00  0.00     0.034 A 
BRANCH  59  73
ATOM     73  C   UNL     1       3.546 -10.079 -16.670  1.00  0.00     0.023 A 
ATOM     74  C   UNL     1       3.643 -10.467 -18.017  1.00  0.00     0.031 A 
ATOM     75  C   UNL     1       2.293  -9.545 -16.279  1.00  0.00     0.131 A 
ATOM     76  C   UNL     1       2.599 -10.208 -18.919  1.00  0.00     0.055 A 
ATOM     77  C   UNL     1       1.234  -9.353 -17.167  1.00  0.00     0.041 A 
ATOM     78  F   UNL     1       2.033  -9.095 -15.048  1.00  0.00    -0.206 F 
ATOM     79  C   UNL     1       1.395  -9.650 -18.505  1.00  0.00     0.022 A 
BRANCH  76  80
ATOM     80  S   UNL     1       2.925 -10.450 -20.680  1.00  0.00     0.124 S 
ATOM     81  O   UNL     1       4.119  -9.634 -20.868  1.00  0.00    -0.237 OA
ATOM     82  O   UNL     1       3.111 -11.895 -20.751  1.00  0.00    -0.237 OA
ATOM     83  O   UNL     1       1.712  -9.943 -21.318  1.00  0.00    -0.744 OA
ENDBRANCH  76  80
ENDBRANCH  59  73
BRANCH  60  84
ATOM     84  C   UNL     1       5.422  -1.821 -15.316  1.00  0.00     0.023 A 
ATOM     85  C   UNL     1       5.378  -0.942 -16.422  1.00  0.00     0.031 A 
ATOM     86  C   UNL     1       4.540  -1.532 -14.249  1.00  0.00     0.131 A 
ATOM     87  C   UNL     1       4.486   0.160 -16.425  1.00  0.00     0.055 A 
ATOM     88  C   UNL     1       3.664  -0.444 -14.257  1.00  0.00     0.041 A 
ATOM     89  F   UNL     1       4.434  -2.351 -13.191  1.00  0.00    -0.206 F 
ATOM     90  C   UNL     1       3.627   0.403 -15.351  1.00  0.00     0.022 A 
BRANCH  87  91
ATOM     91  S   UNL     1       4.366   1.261 -17.875  1.00  0.00     0.124 S 
ATOM     92  O   UNL     1       5.658   1.935 -17.862  1.00  0.00    -0.237 OA
ATOM     93  O   UNL     1       4.134   0.320 -18.965  1.00  0.00    -0.237 OA
ATOM     94  O   UNL     1       3.223   2.120 -17.559  1.00  0.00    -0.744 OA
ENDBRANCH  87  91
ENDBRANCH  60  84
BRANCH  72  95
ATOM     95  C   UNL     1       9.374  -6.487 -17.030  1.00  0.00     0.023 A 
ATOM     96  C   UNL     1       9.901  -5.704 -15.976  1.00  0.00     0.031 A 
ATOM     97  C   UNL     1      10.289  -7.053 -17.936  1.00  0.00     0.131 A 
ATOM     98  C   UNL     1      11.294  -5.508 -15.869  1.00  0.00     0.055 A 
ATOM     99  C   UNL     1      11.666  -6.876 -17.814  1.00  0.00     0.041 A 
ATOM    100  F   UNL     1       9.856  -7.827 -18.945  1.00  0.00    -0.206 F 
ATOM    101  C   UNL     1      12.174  -6.097 -16.782  1.00  0.00     0.022 A 
BRANCH  98 102
ATOM    102  S   UNL     1      11.995  -4.464 -14.548  1.00  0.00     0.124 S 
ATOM    103  O   UNL     1      11.169  -3.262 -14.588  1.00  0.00    -0.237 OA
ATOM    104  O   UNL     1      11.841  -5.307 -13.365  1.00  0.00    -0.237 OA
ATOM    105  O   UNL     1      13.382  -4.263 -14.973  1.00  0.00    -0.744 OA
ENDBRANCH  98 102
ENDBRANCH  72  95
ENDBRANCH  46  47
ENDBRANCH  39  41
ENDBRANCH  38  39
ENDBRANCH  37  38
ENDBRANCH  36  37
ENDBRANCH  35  36
ENDBRANCH  34  35
ENDBRANCH  33  34
ENDBRANCH   1  33
TORSDOF 27
