REMARK SMILES CC[NH2+][C@@]1(C(=O)OCCOCCOCCOCCOC(=O)c2ccc(-c3c4nc(c(-c5cc(S(=O)(=O)[O-])ccc5F)c5ccc([nH]5)c(-c5cc(S(=O)(=O)[O-])ccc5F)c5nc(c(-c6cc(S(=O)(=O)[O-])ccc6F)c6ccc3[nH]6)C=C5)C=C4)cc2)CC[C@@H]([NH+]2CCC(C)(CC)CC2)C1
REMARK SMILES IDX 14 1 13 2 12 3 11 4 10 5 9 6 8 7 7 8 5 9 6 10 4 11 85 12
REMARK SMILES IDX 97 13 86 14 87 15 3 16 2 19 1 20 88 21 89 22 96 23 90 25
REMARK SMILES IDX 95 26 91 27 92 28 93 29 94 30 15 31 16 32 17 33 18 34 19 35
REMARK SMILES IDX 20 36 21 37 22 38 23 39 84 40 24 41 83 42 25 43 26 44 27 45
REMARK SMILES IDX 77 46 28 47 82 48 76 49 78 50 29 51 81 52 75 53 74 54 30 56
REMARK SMILES IDX 62 57 42 58 61 59 43 60 46 61 60 62 79 63 44 64 45 65 59 67
REMARK SMILES IDX 80 68 47 69 31 70 32 71 40 72 33 73 39 74 41 75 38 76 34 77
REMARK SMILES IDX 35 78 36 79 37 80 63 81 64 82 72 83 65 84 71 85 73 86 70 87
REMARK SMILES IDX 66 88 67 89 68 90 69 91 48 92 49 93 57 94 50 95 56 96 58 97
REMARK SMILES IDX 55 98 51 99 52 100 53 101 54 102
REMARK H PARENT 3 17 3 18 88 24 78 55 46 66
REMARK Flexibility Score: inf
ROOT
ATOM      1  C   UNL     1       1.219  -1.635   6.629  1.00  0.00     0.188 C 
ENDROOT
BRANCH   1   2
ATOM      2  O   UNL     1       1.295  -0.493   5.783  1.00  0.00    -0.377 OA
BRANCH   2   3
ATOM      3  C   UNL     1       1.488  -0.752   4.412  1.00  0.00     0.188 C 
BRANCH   3   4
ATOM      4  C   UNL     1       2.901  -0.459   3.891  1.00  0.00     0.188 C 
BRANCH   4   5
ATOM      5  O   UNL     1       3.981  -0.267   4.793  1.00  0.00    -0.376 OA
BRANCH   5   6
ATOM      6  C   UNL     1       3.820   0.582   5.925  1.00  0.00     0.202 C 
BRANCH   6   7
ATOM      7  C   UNL     1       3.305   2.022   5.755  1.00  0.00     0.261 C 
BRANCH   7   8
ATOM      8  O   UNL     1       2.051   2.156   5.060  1.00  0.00    -0.459 OA
BRANCH   8   9
ATOM      9  C   UNL     1       2.086   2.778   3.855  1.00  0.00     0.368 C 
ATOM     10  O   UNL     1       3.108   3.236   3.344  1.00  0.00    -0.245 OA
BRANCH   9  11
ATOM     11  C   UNL     1       0.714   2.801   3.100  1.00  0.00     0.200 C 
ATOM     12  C   UNL     1       0.198   4.252   3.077  1.00  0.00     0.087 C 
ATOM     13  C   UNL     1      -0.435   2.041   3.797  1.00  0.00     0.146 C 
ATOM     14  C   UNL     1      -0.652   4.389   4.333  1.00  0.00     0.072 C 
ATOM     15  C   UNL     1      -1.354   3.036   4.506  1.00  0.00     0.191 C 
BRANCH  11  16
ATOM     16  N   UNL     1       1.016   2.449   1.667  1.00  0.00    -0.332 N 
ATOM     17  H   UNL     1       0.483   3.088   1.077  1.00  0.00     0.347 HD
ATOM     18  H   UNL     1       2.030   2.524   1.591  1.00  0.00     0.347 HD
BRANCH  16  19
ATOM     19  C   UNL     1       0.713   1.097   1.228  1.00  0.00     0.257 C 
ATOM     20  C   UNL     1       1.336   0.768  -0.120  1.00  0.00     0.071 C 
ENDBRANCH  16  19
ENDBRANCH  11  16
BRANCH  15  21
ATOM     21  N   UNL     1      -2.775   2.948   4.148  1.00  0.00    -0.332 N 
ATOM     22  C   UNL     1      -3.437   1.681   4.479  1.00  0.00     0.263 C 
ATOM     23  C   UNL     1      -3.224   3.493   2.880  1.00  0.00     0.263 C 
ATOM     24  H   UNL     1      -3.115   3.647   4.809  1.00  0.00     0.348 HD
ATOM     25  C   UNL     1      -3.484   0.615   3.369  1.00  0.00     0.068 C 
ATOM     26  C   UNL     1      -3.153   2.524   1.701  1.00  0.00     0.068 C 
ATOM     27  C   UNL     1      -3.791   1.132   1.940  1.00  0.00    -0.022 C 
ATOM     28  C   UNL     1      -3.164   0.140   0.919  1.00  0.00     0.012 C 
BRANCH  27  29
ATOM     29  C   UNL     1      -5.313   1.115   1.611  1.00  0.00     0.004 C 
ATOM     30  C   UNL     1      -6.257   1.911   2.491  1.00  0.00     0.004 C 
ENDBRANCH  27  29
ENDBRANCH  15  21
ENDBRANCH   9  11
ENDBRANCH   8   9
ENDBRANCH   7   8
ENDBRANCH   6   7
ENDBRANCH   5   6
ENDBRANCH   4   5
ENDBRANCH   3   4
ENDBRANCH   2   3
ENDBRANCH   1   2
BRANCH   1  31
ATOM     31  C   UNL     1       2.151  -2.818   6.302  1.00  0.00     0.188 C 
BRANCH  31  32
ATOM     32  O   UNL     1       1.981  -3.354   4.990  1.00  0.00    -0.376 OA
BRANCH  32  33
ATOM     33  C   UNL     1       1.081  -4.444   4.816  1.00  0.00     0.202 C 
BRANCH  33  34
ATOM     34  C   UNL     1      -0.422  -4.157   4.997  1.00  0.00     0.261 C 
BRANCH  34  35
ATOM     35  O   UNL     1      -0.857  -3.801   6.320  1.00  0.00    -0.460 OA
BRANCH  35  36
ATOM     36  C   UNL     1      -0.493  -4.606   7.342  1.00  0.00     0.338 C 
ATOM     37  O   UNL     1       0.064  -5.682   7.259  1.00  0.00    -0.246 OA
BRANCH  36  38
ATOM     38  C   UNL     1      -0.679  -3.854   8.602  1.00  0.00     0.060 A 
ATOM     39  C   UNL     1       0.425  -3.696   9.449  1.00  0.00     0.016 A 
ATOM     40  C   UNL     1      -1.922  -3.318   8.951  1.00  0.00     0.016 A 
ATOM     41  C   UNL     1       0.279  -3.046  10.672  1.00  0.00     0.010 A 
ATOM     42  C   UNL     1      -2.074  -2.690  10.191  1.00  0.00     0.010 A 
ATOM     43  C   UNL     1      -0.983  -2.590  11.073  1.00  0.00    -0.014 A 
BRANCH  43  44
ATOM     44  C   UNL     1      -1.197  -2.251  12.502  1.00  0.00     0.031 A 
ATOM     45  C   UNL     1      -1.712  -3.336  13.411  1.00  0.00     0.074 A 
ATOM     46  C   UNL     1      -0.887  -1.040  12.996  1.00  0.00     0.049 A 
ATOM     47  N   UNL     1      -1.975  -3.298  14.691  1.00  0.00    -0.248 NA
ATOM     48  C   UNL     1      -1.961  -4.644  12.783  1.00  0.00     0.031 C 
ATOM     49  C   UNL     1      -0.330   0.070  12.225  1.00  0.00     0.029 A 
ATOM     50  N   UNL     1      -0.995  -0.544  14.271  1.00  0.00    -0.354 N 
ATOM     51  C   UNL     1      -2.417  -4.575  15.023  1.00  0.00     0.074 A 
ATOM     52  C   UNL     1      -2.427  -5.349  13.801  1.00  0.00     0.031 C 
ATOM     53  C   UNL     1      -0.152   1.122  13.045  1.00  0.00     0.029 A 
ATOM     54  C   UNL     1      -0.611   0.771  14.389  1.00  0.00     0.049 A 
ATOM     55  H   UNL     1      -1.317  -1.081  15.031  1.00  0.00     0.167 HD
ATOM     56  C   UNL     1      -2.771  -5.061  16.238  1.00  0.00     0.034 A 
ATOM     57  C   UNL     1      -0.648   1.598  15.454  1.00  0.00     0.034 A 
ATOM     58  C   UNL     1      -2.776  -4.270  17.443  1.00  0.00     0.049 A 
ATOM     59  C   UNL     1      -1.142   1.062  16.779  1.00  0.00     0.074 A 
ATOM     60  C   UNL     1      -3.119  -4.658  18.727  1.00  0.00     0.029 A 
ATOM     61  N   UNL     1      -2.438  -2.924  17.512  1.00  0.00    -0.354 N 
ATOM     62  N   UNL     1      -1.551  -0.149  17.084  1.00  0.00    -0.248 NA
ATOM     63  C   UNL     1      -1.167   2.004  17.906  1.00  0.00     0.031 C 
ATOM     64  C   UNL     1      -3.062  -3.531  19.554  1.00  0.00     0.029 A 
ATOM     65  C   UNL     1      -2.598  -2.459  18.808  1.00  0.00     0.049 A 
ATOM     66  H   UNL     1      -2.130  -2.380  16.752  1.00  0.00     0.167 HD
ATOM     67  C   UNL     1      -1.848  -0.119  18.446  1.00  0.00     0.074 A 
ATOM     68  C   UNL     1      -1.556   1.223  18.903  1.00  0.00     0.031 C 
ATOM     69  C   UNL     1      -2.313  -1.112  19.249  1.00  0.00     0.034 A 
BRANCH  56  70
ATOM     70  C   UNL     1      -3.237  -6.495  16.297  1.00  0.00     0.023 A 
ATOM     71  C   UNL     1      -2.384  -7.567  15.976  1.00  0.00     0.031 A 
ATOM     72  C   UNL     1      -4.569  -6.793  16.637  1.00  0.00     0.131 A 
ATOM     73  C   UNL     1      -2.891  -8.875  15.931  1.00  0.00     0.055 A 
ATOM     74  C   UNL     1      -5.044  -8.105  16.670  1.00  0.00     0.041 A 
ATOM     75  F   UNL     1      -5.436  -5.810  16.924  1.00  0.00    -0.206 F 
ATOM     76  C   UNL     1      -4.208  -9.154  16.301  1.00  0.00     0.022 A 
BRANCH  73  77
ATOM     77  S   UNL     1      -1.848 -10.186  15.235  1.00  0.00     0.124 S 
ATOM     78  O   UNL     1      -1.581  -9.670  13.894  1.00  0.00    -0.237 OA
ATOM     79  O   UNL     1      -0.713 -10.205  16.150  1.00  0.00    -0.237 OA
ATOM     80  O   UNL     1      -2.707 -11.367  15.279  1.00  0.00    -0.744 OA
ENDBRANCH  73  77
ENDBRANCH  56  70
BRANCH  57  81
ATOM     81  C   UNL     1      -0.250   3.030  15.319  1.00  0.00     0.023 A 
ATOM     82  C   UNL     1       0.830   3.560  16.043  1.00  0.00     0.031 A 
ATOM     83  C   UNL     1      -0.995   3.909  14.511  1.00  0.00     0.131 A 
ATOM     84  C   UNL     1       1.104   4.937  15.984  1.00  0.00     0.055 A 
ATOM     85  C   UNL     1      -0.683   5.266  14.413  1.00  0.00     0.041 A 
ATOM     86  F   UNL     1      -2.041   3.457  13.802  1.00  0.00    -0.206 F 
ATOM     87  C   UNL     1       0.364   5.790  15.164  1.00  0.00     0.022 A 
BRANCH  84  88
ATOM     88  S   UNL     1       2.389   5.615  17.071  1.00  0.00     0.124 S 
ATOM     89  O   UNL     1       1.893   5.236  18.389  1.00  0.00    -0.237 OA
ATOM     90  O   UNL     1       3.580   4.912  16.606  1.00  0.00    -0.237 OA
ATOM     91  O   UNL     1       2.359   7.047  16.781  1.00  0.00    -0.744 OA
ENDBRANCH  84  88
ENDBRANCH  57  81
BRANCH  69  92
ATOM     92  C   UNL     1      -2.484  -0.791  20.715  1.00  0.00     0.023 A 
ATOM     93  C   UNL     1      -3.428   0.148  21.167  1.00  0.00     0.031 A 
ATOM     94  C   UNL     1      -1.677  -1.427  21.676  1.00  0.00     0.131 A 
ATOM     95  C   UNL     1      -3.498   0.471  22.531  1.00  0.00     0.055 A 
ATOM     96  C   UNL     1      -1.798  -1.152  23.039  1.00  0.00     0.041 A 
ATOM     97  F   UNL     1      -0.757  -2.332  21.305  1.00  0.00    -0.206 F 
ATOM     98  C   UNL     1      -2.701  -0.187  23.472  1.00  0.00     0.022 A 
BRANCH  95  99
ATOM     99  S   UNL     1      -4.568   1.841  23.049  1.00  0.00     0.124 S 
ATOM    100  O   UNL     1      -4.053   2.947  22.248  1.00  0.00    -0.237 OA
ATOM    101  O   UNL     1      -5.895   1.355  22.686  1.00  0.00    -0.237 OA
ATOM    102  O   UNL     1      -4.319   1.947  24.485  1.00  0.00    -0.744 OA
ENDBRANCH  95  99
ENDBRANCH  69  92
ENDBRANCH  43  44
ENDBRANCH  36  38
ENDBRANCH  35  36
ENDBRANCH  34  35
ENDBRANCH  33  34
ENDBRANCH  32  33
ENDBRANCH  31  32
ENDBRANCH   1  31
TORSDOF 27
