REMARK SMILES Cc1ccc(CNc2ccc(C(=O)OCCOCCOCCOCCOC(=O)c3ccc(-c4c5nc(c(-c6cc(S(=O)(=O)[O-])ccc6F)c6ccc([nH]6)c(-c6cc(S(=O)(=O)[O-])ccc6F)c6nc(c(-c7cc(S(=O)(=O)[O-])ccc7F)c7ccc4[nH]7)C=C6)C=C5)cc3)cc2Br)cc1
REMARK SMILES IDX 20 1 19 2 18 3 17 4 16 5 15 6 14 7 12 8 13 9 11 10 8 11 9 12
REMARK SMILES IDX 93 13 10 14 92 15 94 16 7 17 6 19 5 20 1 21 2 22 3 23 96 24
REMARK SMILES IDX 4 25 95 26 21 27 22 28 23 29 24 30 25 31 26 32 27 33 28 34
REMARK SMILES IDX 29 35 30 36 91 37 31 38 90 39 32 40 33 41 34 42 84 43 35 44
REMARK SMILES IDX 89 45 83 46 85 47 36 48 88 49 82 50 81 51 37 53 69 54 49 55
REMARK SMILES IDX 68 56 50 57 53 58 67 59 86 60 51 61 52 62 66 64 87 65 54 66
REMARK SMILES IDX 38 67 39 68 47 69 40 70 46 71 48 72 45 73 41 74 42 75 43 76
REMARK SMILES IDX 44 77 70 78 71 79 79 80 72 81 78 82 80 83 77 84 73 85 74 86
REMARK SMILES IDX 75 87 76 88 55 89 56 90 64 91 57 92 63 93 65 94 62 95 58 96
REMARK SMILES IDX 59 97 60 98 61 99
REMARK H PARENT 7 18 85 52 53 63
REMARK Flexibility Score: inf
ROOT
ATOM      1  O   UNL     1      -8.476  -4.132  -2.796  1.00  0.00    -0.377 OA
ENDROOT
BRANCH   1   2
ATOM      2  C   UNL     1      -7.958  -5.221  -3.563  1.00  0.00     0.188 C 
BRANCH   2   3
ATOM      3  C   UNL     1      -8.494  -6.786  -3.732  1.00  0.00     0.188 C 
BRANCH   3   4
ATOM      4  O   UNL     1      -8.670  -8.218  -2.716  1.00  0.00    -0.376 OA
BRANCH   4   5
ATOM      5  C   UNL     1      -8.872  -8.548  -1.002  1.00  0.00     0.202 C 
BRANCH   5   6
ATOM      6  C   UNL     1      -7.992  -7.759   0.475  1.00  0.00     0.261 C 
BRANCH   6   7
ATOM      7  O   UNL     1      -6.552  -6.636   0.352  1.00  0.00    -0.460 OA
BRANCH   7   8
ATOM      8  C   UNL     1      -5.397  -6.154  -0.474  1.00  0.00     0.338 C 
ATOM      9  O   UNL     1      -4.556  -6.891  -1.005  1.00  0.00    -0.246 OA
BRANCH   8  10
ATOM     10  C   UNL     1      -5.021  -4.661  -0.897  1.00  0.00     0.061 A 
ATOM     11  C   UNL     1      -3.959  -2.031  -1.557  1.00  0.00     0.049 A 
ATOM     12  C   UNL     1      -5.240  -2.190  -1.081  1.00  0.00     0.028 A 
ATOM     13  C   UNL     1      -3.267  -3.206  -1.873  1.00  0.00     0.042 A 
ATOM     14  C   UNL     1      -5.775  -3.475  -0.909  1.00  0.00     0.018 A 
ATOM     15  C   UNL     1      -3.756  -4.477  -1.493  1.00  0.00     0.033 A 
ATOM     16  Br  UNL     1      -1.655  -3.130  -2.882  1.00  0.00    -0.049 Br
BRANCH  11  17
ATOM     17  N   UNL     1      -3.403  -0.754  -1.642  1.00  0.00    -0.380 N 
ATOM     18  H   UNL     1      -3.169  -0.350  -2.509  1.00  0.00     0.160 HD
BRANCH  17  19
ATOM     19  C   UNL     1      -3.182  -0.040  -0.380  1.00  0.00     0.148 C 
BRANCH  19  20
ATOM     20  C   UNL     1      -1.694   0.026  -0.114  1.00  0.00    -0.029 A 
ATOM     21  C   UNL     1       2.614   0.051   0.072  1.00  0.00     0.044 C 
ATOM     22  C   UNL     1       1.116   0.064   0.072  1.00  0.00    -0.051 A 
ATOM     23  C   UNL     1       0.421  -1.144   0.148  1.00  0.00     0.004 A 
ATOM     24  C   UNL     1       0.395   1.259  -0.043  1.00  0.00     0.004 A 
ATOM     25  C   UNL     1      -0.970  -1.158   0.085  1.00  0.00     0.006 A 
ATOM     26  C   UNL     1      -1.000   1.241  -0.140  1.00  0.00     0.006 A 
ENDBRANCH  19  20
ENDBRANCH  17  19
ENDBRANCH  11  17
ENDBRANCH   8  10
ENDBRANCH   7   8
ENDBRANCH   6   7
ENDBRANCH   5   6
ENDBRANCH   4   5
ENDBRANCH   3   4
ENDBRANCH   2   3
ENDBRANCH   1   2
BRANCH   1  27
ATOM     27  C   UNL     1      -9.746  -3.507  -2.877  1.00  0.00     0.188 C 
BRANCH  27  28
ATOM     28  C   UNL     1     -10.588  -3.506  -4.128  1.00  0.00     0.188 C 
BRANCH  28  29
ATOM     29  O   UNL     1     -10.284  -4.597  -4.977  1.00  0.00    -0.376 OA
BRANCH  29  30
ATOM     30  C   UNL     1     -10.872  -4.473  -6.262  1.00  0.00     0.202 C 
BRANCH  30  31
ATOM     31  C   UNL     1     -12.411  -4.456  -6.238  1.00  0.00     0.261 C 
BRANCH  31  32
ATOM     32  O   UNL     1     -12.909  -5.643  -5.589  1.00  0.00    -0.460 OA
BRANCH  32  33
ATOM     33  C   UNL     1     -13.585  -5.441  -4.399  1.00  0.00     0.338 C 
ATOM     34  O   UNL     1     -14.523  -4.726  -4.249  1.00  0.00    -0.246 OA
BRANCH  33  35
ATOM     35  C   UNL     1     -12.798  -6.146  -3.334  1.00  0.00     0.060 A 
ATOM     36  C   UNL     1     -12.627  -5.677  -2.041  1.00  0.00     0.016 A 
ATOM     37  C   UNL     1     -11.994  -7.171  -3.692  1.00  0.00     0.016 A 
ATOM     38  C   UNL     1     -11.400  -5.916  -1.312  1.00  0.00     0.010 A 
ATOM     39  C   UNL     1     -10.828  -7.361  -2.944  1.00  0.00     0.010 A 
ATOM     40  C   UNL     1     -10.268  -6.526  -1.872  1.00  0.00    -0.014 A 
BRANCH  40  41
ATOM     41  C   UNL     1      -8.509  -6.272  -1.295  1.00  0.00     0.031 A 
ATOM     42  C   UNL     1      -7.000  -7.496  -1.754  1.00  0.00     0.074 A 
ATOM     43  C   UNL     1      -8.525  -5.239  -0.256  1.00  0.00     0.049 A 
ATOM     44  N   UNL     1      -6.502  -8.390  -0.841  1.00  0.00    -0.248 NA
ATOM     45  C   UNL     1      -6.393  -8.306  -3.014  1.00  0.00     0.031 C 
ATOM     46  C   UNL     1      -7.520  -4.655   0.727  1.00  0.00     0.029 A 
ATOM     47  N   UNL     1      -9.630  -4.534   0.294  1.00  0.00    -0.354 N 
ATOM     48  C   UNL     1      -5.591  -9.331  -1.158  1.00  0.00     0.074 A 
ATOM     49  C   UNL     1      -5.719  -9.389  -2.562  1.00  0.00     0.031 C 
ATOM     50  C   UNL     1      -7.978  -3.818   1.643  1.00  0.00     0.029 A 
ATOM     51  C   UNL     1      -9.355  -4.034   1.589  1.00  0.00     0.049 A 
ATOM     52  H   UNL     1     -10.488  -4.409  -0.172  1.00  0.00     0.167 HD
ATOM     53  C   UNL     1      -4.783  -9.905  -0.214  1.00  0.00     0.034 A 
ATOM     54  C   UNL     1      -9.991  -4.437   2.710  1.00  0.00     0.034 A 
ATOM     55  C   UNL     1      -4.723  -9.156   1.065  1.00  0.00     0.049 A 
ATOM     56  C   UNL     1      -9.120  -5.419   3.531  1.00  0.00     0.074 A 
ATOM     57  C   UNL     1      -3.892  -8.111   1.449  1.00  0.00     0.029 A 
ATOM     58  N   UNL     1      -5.714  -9.198   2.051  1.00  0.00    -0.354 N 
ATOM     59  N   UNL     1      -8.204  -6.255   3.063  1.00  0.00    -0.248 NA
ATOM     60  C   UNL     1      -9.087  -5.340   4.987  1.00  0.00     0.031 C 
ATOM     61  C   UNL     1      -4.532  -7.377   2.491  1.00  0.00     0.029 A 
ATOM     62  C   UNL     1      -5.697  -8.041   2.858  1.00  0.00     0.049 A 
ATOM     63  H   UNL     1      -6.347  -9.943   2.168  1.00  0.00     0.167 HD
ATOM     64  C   UNL     1      -7.520  -6.860   4.109  1.00  0.00     0.074 A 
ATOM     65  C   UNL     1      -8.084  -6.183   5.280  1.00  0.00     0.031 C 
ATOM     66  C   UNL     1      -6.557  -7.860   4.044  1.00  0.00     0.034 A 
BRANCH  53  67
ATOM     67  C   UNL     1      -3.723 -10.853  -0.717  1.00  0.00     0.023 A 
ATOM     68  C   UNL     1      -2.366 -10.655  -0.412  1.00  0.00     0.031 A 
ATOM     69  C   UNL     1      -4.020 -11.905  -1.610  1.00  0.00     0.131 A 
ATOM     70  C   UNL     1      -1.366 -11.387  -1.081  1.00  0.00     0.055 A 
ATOM     71  C   UNL     1      -3.026 -12.600  -2.310  1.00  0.00     0.041 A 
ATOM     72  F   UNL     1      -5.294 -12.252  -1.863  1.00  0.00    -0.206 F 
ATOM     73  C   UNL     1      -1.688 -12.323  -2.065  1.00  0.00     0.022 A 
BRANCH  70  74
ATOM     74  S   UNL     1       0.374 -11.094  -0.656  1.00  0.00     0.124 S 
ATOM     75  O   UNL     1       0.536  -9.672  -0.938  1.00  0.00    -0.237 OA
ATOM     76  O   UNL     1       0.418 -11.482   0.750  1.00  0.00    -0.237 OA
ATOM     77  O   UNL     1       1.101 -11.986  -1.561  1.00  0.00    -0.744 OA
ENDBRANCH  70  74
ENDBRANCH  53  67
BRANCH  54  78
ATOM     78  C   UNL     1     -11.444  -4.208   2.503  1.00  0.00     0.023 A 
ATOM     79  C   UNL     1     -11.769  -2.936   1.926  1.00  0.00     0.031 A 
ATOM     80  C   UNL     1     -12.358  -5.243   2.349  1.00  0.00     0.131 A 
ATOM     81  C   UNL     1     -12.792  -2.832   0.980  1.00  0.00     0.055 A 
ATOM     82  C   UNL     1     -13.482  -5.079   1.524  1.00  0.00     0.041 A 
ATOM     83  F   UNL     1     -12.094  -6.461   2.841  1.00  0.00    -0.206 F 
ATOM     84  C   UNL     1     -13.672  -3.893   0.797  1.00  0.00     0.022 A 
BRANCH  81  85
ATOM     85  S   UNL     1     -12.669  -1.532  -0.310  1.00  0.00     0.124 S 
ATOM     86  O   UNL     1     -13.619  -0.534   0.163  1.00  0.00    -0.237 OA
ATOM     87  O   UNL     1     -11.259  -1.148  -0.265  1.00  0.00    -0.237 OA
ATOM     88  O   UNL     1     -13.040  -2.246  -1.530  1.00  0.00    -0.744 OA
ENDBRANCH  81  85
ENDBRANCH  54  78
BRANCH  66  89
ATOM     89  C   UNL     1      -6.215  -8.744   5.247  1.00  0.00     0.023 A 
ATOM     90  C   UNL     1      -7.044  -8.836   6.370  1.00  0.00     0.031 A 
ATOM     91  C   UNL     1      -5.097  -9.620   5.257  1.00  0.00     0.131 A 
ATOM     92  C   UNL     1      -6.707  -9.636   7.471  1.00  0.00     0.055 A 
ATOM     93  C   UNL     1      -4.835 -10.517   6.297  1.00  0.00     0.041 A 
ATOM     94  F   UNL     1      -4.210  -9.668   4.254  1.00  0.00    -0.206 F 
ATOM     95  C   UNL     1      -5.630 -10.513   7.430  1.00  0.00     0.022 A 
BRANCH  92  96
ATOM     96  S   UNL     1      -7.654  -9.402   8.992  1.00  0.00     0.124 S 
ATOM     97  O   UNL     1      -7.347  -8.011   9.318  1.00  0.00    -0.237 OA
ATOM     98  O   UNL     1      -9.022  -9.659   8.554  1.00  0.00    -0.237 OA
ATOM     99  O   UNL     1      -7.092 -10.394   9.904  1.00  0.00    -0.744 OA
ENDBRANCH  92  96
ENDBRANCH  66  89
ENDBRANCH  40  41
ENDBRANCH  33  35
ENDBRANCH  32  33
ENDBRANCH  31  32
ENDBRANCH  30  31
ENDBRANCH  29  30
ENDBRANCH  28  29
ENDBRANCH  27  28
ENDBRANCH   1  27
TORSDOF 26
