REMARK SMILES CS(=O)(=O)c1ccc(/C=C(/C(=O)OCCOCCOCCOCCOC(=O)c2ccc(-c3c4nc(c(-c5cc(S(=O)(=O)[O-])ccc5F)c5ccc([nH]5)c(-c5cc(S(=O)(=O)[O-])ccc5F)c5nc(c(-c6cc(S(=O)(=O)[O-])ccc6F)c6ccc3[nH]6)C=C5)C=C4)cc2)c2ccccc2)cc1
REMARK SMILES IDX 20 1 19 2 18 3 17 4 16 5 15 6 14 7 13 8 11 9 12 10 10 11
REMARK SMILES IDX 9 12 8 13 5 14 6 15 98 16 7 17 97 18 2 19 1 20 3 21 4 22
REMARK SMILES IDX 91 23 92 24 96 25 93 26 95 27 94 28 21 29 22 30 23 31 24 32
REMARK SMILES IDX 25 33 26 34 27 35 28 36 29 37 90 38 30 39 89 40 31 41 32 42
REMARK SMILES IDX 33 43 83 44 34 45 88 46 82 47 84 48 35 49 87 50 81 51 80 52
REMARK SMILES IDX 36 54 68 55 48 56 67 57 49 58 52 59 66 60 85 61 50 62 51 63
REMARK SMILES IDX 65 65 86 66 53 67 37 68 38 69 46 70 39 71 45 72 47 73 44 74
REMARK SMILES IDX 40 75 41 76 42 77 43 78 69 79 70 80 78 81 71 82 77 83 79 84
REMARK SMILES IDX 76 85 72 86 73 87 74 88 75 89 54 90 55 91 63 92 56 93 62 94
REMARK SMILES IDX 64 95 61 96 57 97 58 98 59 99 60 100
REMARK H PARENT 84 53 52 64
REMARK Flexibility Score: inf
ROOT
ATOM      1  C   UNL     1       2.881  10.958   1.529  1.00  0.00     0.188 C 
ENDROOT
BRANCH   1   2
ATOM      2  O   UNL     1       2.725   9.616   1.090  1.00  0.00    -0.377 OA
BRANCH   2   3
ATOM      3  C   UNL     1       3.838   8.743   1.121  1.00  0.00     0.188 C 
BRANCH   3   4
ATOM      4  C   UNL     1       5.205   9.250   0.622  1.00  0.00     0.188 C 
BRANCH   4   5
ATOM      5  O   UNL     1       5.174  10.539   0.023  1.00  0.00    -0.376 OA
BRANCH   5   6
ATOM      6  C   UNL     1       5.336  10.570  -1.389  1.00  0.00     0.202 C 
BRANCH   6   7
ATOM      7  C   UNL     1       4.109  10.098  -2.177  1.00  0.00     0.261 C 
BRANCH   7   8
ATOM      8  O   UNL     1       3.693   8.751  -1.888  1.00  0.00    -0.460 OA
BRANCH   8   9
ATOM      9  C   UNL     1       4.532   7.747  -2.238  1.00  0.00     0.338 C 
ATOM     10  O   UNL     1       5.593   7.882  -2.829  1.00  0.00    -0.246 OA
BRANCH   9  11
ATOM     11  C   UNL     1       4.045   6.440  -1.679  1.00  0.00     0.067 C 
ATOM     12  C   UNL     1       2.710   6.207  -1.645  1.00  0.00     0.024 C 
BRANCH  12  13
ATOM     13  C   UNL     1       1.991   4.954  -1.322  1.00  0.00    -0.025 A 
ATOM     14  C   UNL     1       0.792   2.421  -1.207  1.00  0.00     0.067 A 
ATOM     15  C   UNL     1       1.912   2.690  -0.427  1.00  0.00     0.021 A 
ATOM     16  C   UNL     1       0.180   3.443  -1.934  1.00  0.00     0.021 A 
ATOM     17  C   UNL     1       2.477   3.966  -0.459  1.00  0.00     0.009 A 
ATOM     18  C   UNL     1       0.782   4.704  -1.989  1.00  0.00     0.009 A 
BRANCH  14  19
ATOM     19  S   UNL     1       0.159   0.773  -1.371  1.00  0.00     0.175 S 
ATOM     20  C   UNL     1       0.714  -0.134   0.044  1.00  0.00     0.163 C 
ATOM     21  O   UNL     1       0.805   0.199  -2.536  1.00  0.00    -0.224 OA
ATOM     22  O   UNL     1      -1.286   0.859  -1.280  1.00  0.00    -0.224 OA
ENDBRANCH  14  19
ENDBRANCH  12  13
BRANCH  11  23
ATOM     23  C   UNL     1       5.061   5.471  -1.218  1.00  0.00    -0.011 A 
ATOM     24  C   UNL     1       5.583   5.570   0.085  1.00  0.00     0.009 A 
ATOM     25  C   UNL     1       5.445   4.389  -2.015  1.00  0.00     0.009 A 
ATOM     26  C   UNL     1       6.455   4.604   0.587  1.00  0.00     0.001 A 
ATOM     27  C   UNL     1       6.314   3.418  -1.509  1.00  0.00     0.001 A 
ATOM     28  C   UNL     1       6.815   3.523  -0.211  1.00  0.00     0.000 A 
ENDBRANCH  11  23
ENDBRANCH   9  11
ENDBRANCH   8   9
ENDBRANCH   7   8
ENDBRANCH   6   7
ENDBRANCH   5   6
ENDBRANCH   4   5
ENDBRANCH   3   4
ENDBRANCH   2   3
ENDBRANCH   1   2
BRANCH   1  29
ATOM     29  C   UNL     1       3.938  11.308   2.598  1.00  0.00     0.188 C 
BRANCH  29  30
ATOM     30  O   UNL     1       4.435  10.197   3.338  1.00  0.00    -0.376 OA
BRANCH  30  31
ATOM     31  C   UNL     1       3.975  10.076   4.676  1.00  0.00     0.202 C 
BRANCH  31  32
ATOM     32  C   UNL     1       2.530   9.582   4.802  1.00  0.00     0.261 C 
BRANCH  32  33
ATOM     33  O   UNL     1       1.534  10.467   4.269  1.00  0.00    -0.460 OA
BRANCH  33  34
ATOM     34  C   UNL     1       1.468  11.713   4.790  1.00  0.00     0.338 C 
ATOM     35  O   UNL     1       2.135  12.165   5.704  1.00  0.00    -0.246 OA
BRANCH  34  36
ATOM     36  C   UNL     1       0.570  12.500   3.925  1.00  0.00     0.060 A 
ATOM     37  C   UNL     1       1.065  13.651   3.297  1.00  0.00     0.016 A 
ATOM     38  C   UNL     1      -0.741  12.073   3.704  1.00  0.00     0.016 A 
ATOM     39  C   UNL     1       0.235  14.391   2.455  1.00  0.00     0.010 A 
ATOM     40  C   UNL     1      -1.575  12.826   2.880  1.00  0.00     0.010 A 
ATOM     41  C   UNL     1      -1.099  14.001   2.272  1.00  0.00    -0.014 A 
BRANCH  41  42
ATOM     42  C   UNL     1      -2.056  14.920   1.615  1.00  0.00     0.031 A 
ATOM     43  C   UNL     1      -2.875  15.828   2.488  1.00  0.00     0.074 A 
ATOM     44  C   UNL     1      -2.202  14.943   0.279  1.00  0.00     0.049 A 
ATOM     45  N   UNL     1      -3.813  16.677   2.161  1.00  0.00    -0.248 NA
ATOM     46  C   UNL     1      -2.596  15.758   3.931  1.00  0.00     0.031 C 
ATOM     47  C   UNL     1      -1.436  14.137  -0.669  1.00  0.00     0.029 A 
ATOM     48  N   UNL     1      -3.058  15.671  -0.508  1.00  0.00    -0.354 N 
ATOM     49  C   UNL     1      -4.239  17.245   3.357  1.00  0.00     0.074 A 
ATOM     50  C   UNL     1      -3.486  16.607   4.417  1.00  0.00     0.031 C 
ATOM     51  C   UNL     1      -1.863  14.411  -1.914  1.00  0.00     0.029 A 
ATOM     52  C   UNL     1      -2.956  15.381  -1.847  1.00  0.00     0.049 A 
ATOM     53  H   UNL     1      -3.685  16.338  -0.148  1.00  0.00     0.167 HD
ATOM     54  C   UNL     1      -5.165  18.215   3.552  1.00  0.00     0.034 A 
ATOM     55  C   UNL     1      -3.681  15.830  -2.892  1.00  0.00     0.034 A 
ATOM     56  C   UNL     1      -5.929  18.814   2.486  1.00  0.00     0.049 A 
ATOM     57  C   UNL     1      -4.790  16.824  -2.642  1.00  0.00     0.074 A 
ATOM     58  C   UNL     1      -6.880  19.817   2.562  1.00  0.00     0.029 A 
ATOM     59  N   UNL     1      -5.849  18.445   1.148  1.00  0.00    -0.354 N 
ATOM     60  N   UNL     1      -5.172  17.373  -1.511  1.00  0.00    -0.248 NA
ATOM     61  C   UNL     1      -5.566  17.256  -3.812  1.00  0.00     0.031 C 
ATOM     62  C   UNL     1      -7.430  19.996   1.288  1.00  0.00     0.029 A 
ATOM     63  C   UNL     1      -6.766  19.166   0.398  1.00  0.00     0.049 A 
ATOM     64  H   UNL     1      -5.231  17.770   0.785  1.00  0.00     0.167 HD
ATOM     65  C   UNL     1      -6.215  18.237  -1.839  1.00  0.00     0.074 A 
ATOM     66  C   UNL     1      -6.394  18.141  -3.274  1.00  0.00     0.031 C 
ATOM     67  C   UNL     1      -6.952  19.042  -1.031  1.00  0.00     0.034 A 
BRANCH  54  68
ATOM     68  C   UNL     1      -5.433  18.626   4.980  1.00  0.00     0.023 A 
ATOM     69  C   UNL     1      -4.429  19.193   5.787  1.00  0.00     0.031 A 
ATOM     70  C   UNL     1      -6.686  18.379   5.567  1.00  0.00     0.131 A 
ATOM     71  C   UNL     1      -4.666  19.403   7.154  1.00  0.00     0.055 A 
ATOM     72  C   UNL     1      -6.943  18.675   6.907  1.00  0.00     0.041 A 
ATOM     73  F   UNL     1      -7.676  17.816   4.856  1.00  0.00    -0.206 F 
ATOM     74  C   UNL     1      -5.924  19.172   7.715  1.00  0.00     0.022 A 
BRANCH  71  75
ATOM     75  S   UNL     1      -3.256  19.806   8.223  1.00  0.00     0.124 S 
ATOM     76  O   UNL     1      -2.353  18.689   7.957  1.00  0.00    -0.237 OA
ATOM     77  O   UNL     1      -2.835  21.105   7.712  1.00  0.00    -0.237 OA
ATOM     78  O   UNL     1      -3.836  19.820   9.565  1.00  0.00    -0.744 OA
ENDBRANCH  71  75
ENDBRANCH  54  68
BRANCH  55  79
ATOM     79  C   UNL     1      -3.413  15.322  -4.268  1.00  0.00     0.023 A 
ATOM     80  C   UNL     1      -2.937  16.176  -5.275  1.00  0.00     0.031 A 
ATOM     81  C   UNL     1      -3.665  13.980  -4.604  1.00  0.00     0.131 A 
ATOM     82  C   UNL     1      -2.759  15.687  -6.579  1.00  0.00     0.055 A 
ATOM     83  C   UNL     1      -3.443  13.488  -5.891  1.00  0.00     0.041 A 
ATOM     84  F   UNL     1      -4.123  13.123  -3.678  1.00  0.00    -0.206 F 
ATOM     85  C   UNL     1      -2.995  14.346  -6.890  1.00  0.00     0.022 A 
BRANCH  82  86
ATOM     86  S   UNL     1      -2.263  16.846  -7.883  1.00  0.00     0.124 S 
ATOM     87  O   UNL     1      -3.380  17.783  -7.888  1.00  0.00    -0.237 OA
ATOM     88  O   UNL     1      -0.997  17.359  -7.369  1.00  0.00    -0.237 OA
ATOM     89  O   UNL     1      -2.152  15.998  -9.068  1.00  0.00    -0.744 OA
ENDBRANCH  82  86
ENDBRANCH  55  79
BRANCH  67  90
ATOM     90  C   UNL     1      -8.000  19.908  -1.691  1.00  0.00     0.023 A 
ATOM     91  C   UNL     1      -9.139  19.357  -2.304  1.00  0.00     0.031 A 
ATOM     92  C   UNL     1      -7.852  21.307  -1.710  1.00  0.00     0.131 A 
ATOM     93  C   UNL     1     -10.059  20.195  -2.954  1.00  0.00     0.055 A 
ATOM     94  C   UNL     1      -8.801  22.140  -2.304  1.00  0.00     0.041 A 
ATOM     95  F   UNL     1      -6.782  21.889  -1.144  1.00  0.00    -0.206 F 
ATOM     96  C   UNL     1      -9.906  21.584  -2.942  1.00  0.00     0.022 A 
BRANCH  93  97
ATOM     97  S   UNL     1     -11.415  19.441  -3.894  1.00  0.00     0.124 S 
ATOM     98  O   UNL     1     -10.693  18.627  -4.866  1.00  0.00    -0.237 OA
ATOM     99  O   UNL     1     -12.142  18.709  -2.862  1.00  0.00    -0.237 OA
ATOM    100  O   UNL     1     -12.125  20.590  -4.454  1.00  0.00    -0.744 OA
ENDBRANCH  93  97
ENDBRANCH  67  90
ENDBRANCH  41  42
ENDBRANCH  34  36
ENDBRANCH  33  34
ENDBRANCH  32  33
ENDBRANCH  31  32
ENDBRANCH  30  31
ENDBRANCH  29  30
ENDBRANCH   1  29
TORSDOF 26
