REMARK SMILES CC(C)CCc1cc2c(cc1Cl)C=C(C(=O)OCCOCCOCCOCCOC(=O)c1ccc(-c3c4nc(c(-c5cc(S(=O)(=O)[O-])ccc5F)c5ccc([nH]5)c(-c5cc(S(=O)(=O)[O-])ccc5F)c5nc(c(-c6cc(S(=O)(=O)[O-])ccc6F)c6ccc3[nH]6)C=C5)C=C4)cc1)[C@@H](C(F)(F)F)O2
REMARK SMILES IDX 23 1 22 2 21 3 20 4 19 5 18 6 17 7 15 8 16 9 14 10 6 11 7 12
REMARK SMILES IDX 11 13 8 14 10 15 12 16 9 17 100 18 13 19 95 20 5 21 4 22
REMARK SMILES IDX 2 23 1 24 3 25 96 26 97 27 98 28 99 29 24 30 25 31 26 32
REMARK SMILES IDX 27 33 28 34 29 35 30 36 31 37 32 38 33 39 94 40 34 41 93 42
REMARK SMILES IDX 35 43 36 44 37 45 87 46 38 47 92 48 86 49 88 50 39 51 91 52
REMARK SMILES IDX 85 53 84 54 40 56 72 57 52 58 71 59 53 60 56 61 70 62 89 63
REMARK SMILES IDX 54 64 55 65 69 67 90 68 57 69 41 70 42 71 50 72 43 73 49 74
REMARK SMILES IDX 51 75 48 76 44 77 45 78 46 79 47 80 73 81 74 82 82 83 75 84
REMARK SMILES IDX 81 85 83 86 80 87 76 88 77 89 78 90 79 91 58 92 59 93 67 94
REMARK SMILES IDX 60 95 66 96 68 97 65 98 61 99 62 100 63 101 64 102
REMARK H PARENT 88 55 56 66
REMARK Flexibility Score: inf
ROOT
ATOM      1  O   UNL     1      -0.258  -4.837   9.556  1.00  0.00    -0.377 OA
ENDROOT
BRANCH   1   2
ATOM      2  C   UNL     1      -0.962  -5.110   8.357  1.00  0.00     0.188 C 
BRANCH   2   3
ATOM      3  C   UNL     1      -0.678  -6.516   7.803  1.00  0.00     0.188 C 
BRANCH   3   4
ATOM      4  O   UNL     1       0.003  -7.464   8.603  1.00  0.00    -0.376 OA
BRANCH   4   5
ATOM      5  C   UNL     1       1.270  -7.228   9.198  1.00  0.00     0.202 C 
BRANCH   5   6
ATOM      6  C   UNL     1       2.289  -6.140   8.800  1.00  0.00     0.261 C 
BRANCH   6   7
ATOM      7  O   UNL     1       1.877  -5.164   7.850  1.00  0.00    -0.460 OA
BRANCH   7   8
ATOM      8  C   UNL     1       2.108  -5.446   6.556  1.00  0.00     0.338 C 
ATOM      9  O   UNL     1       2.658  -6.432   6.098  1.00  0.00    -0.246 OA
BRANCH   8  10
ATOM     10  C   UNL     1       1.405  -4.423   5.754  1.00  0.00     0.087 C 
ATOM     11  C   UNL     1      -1.139  -1.959   2.208  1.00  0.00    -0.026 A 
ATOM     12  C   UNL     1      -0.542  -1.593   3.426  1.00  0.00     0.052 A 
ATOM     13  C   UNL     1      -1.308  -3.331   1.951  1.00  0.00     0.045 A 
ATOM     14  C   UNL     1       0.032  -2.549   4.264  1.00  0.00     0.128 A 
ATOM     15  C   UNL     1      -0.765  -4.293   2.808  1.00  0.00     0.032 A 
ATOM     16  Cl  UNL     1      -2.165  -3.906   0.562  1.00  0.00    -0.084 Cl
ATOM     17  C   UNL     1      -0.041  -3.898   3.933  1.00  0.00     0.019 A 
ATOM     18  O   UNL     1       0.669  -2.067   5.370  1.00  0.00    -0.475 OA
ATOM     19  C   UNL     1       0.675  -4.875   4.728  1.00  0.00     0.027 C 
ATOM     20  C   UNL     1       1.468  -2.976   6.177  1.00  0.00     0.316 C 
BRANCH  11  21
ATOM     21  C   UNL     1      -1.575  -0.916   1.198  1.00  0.00     0.037 C 
BRANCH  21  22
ATOM     22  C   UNL     1      -0.929   0.480   1.289  1.00  0.00     0.008 C 
BRANCH  22  23
ATOM     23  C   UNL     1       0.611   0.522   1.159  1.00  0.00    -0.017 C 
ATOM     24  C   UNL     1       1.103   0.058  -0.211  1.00  0.00     0.007 C 
ATOM     25  C   UNL     1       1.111   1.941   1.444  1.00  0.00     0.007 C 
ENDBRANCH  22  23
ENDBRANCH  21  22
ENDBRANCH  11  21
BRANCH  20  26
ATOM     26  C   UNL     1       2.911  -2.455   6.226  1.00  0.00     0.430 C 
ATOM     27  F   UNL     1       2.949  -1.135   6.528  1.00  0.00    -0.167 F 
ATOM     28  F   UNL     1       3.646  -3.096   7.162  1.00  0.00    -0.167 F 
ATOM     29  F   UNL     1       3.540  -2.616   5.038  1.00  0.00    -0.167 F 
ENDBRANCH  20  26
ENDBRANCH   8  10
ENDBRANCH   7   8
ENDBRANCH   6   7
ENDBRANCH   5   6
ENDBRANCH   4   5
ENDBRANCH   3   4
ENDBRANCH   2   3
ENDBRANCH   1   2
BRANCH   1  30
ATOM     30  C   UNL     1      -1.014  -4.994  10.754  1.00  0.00     0.188 C 
BRANCH  30  31
ATOM     31  C   UNL     1      -1.852  -6.280  10.897  1.00  0.00     0.188 C 
BRANCH  31  32
ATOM     32  O   UNL     1      -2.813  -6.442   9.852  1.00  0.00    -0.376 OA
BRANCH  32  33
ATOM     33  C   UNL     1      -4.176  -6.212  10.183  1.00  0.00     0.202 C 
BRANCH  33  34
ATOM     34  C   UNL     1      -4.571  -4.732  10.280  1.00  0.00     0.261 C 
BRANCH  34  35
ATOM     35  O   UNL     1      -3.900  -3.981  11.301  1.00  0.00    -0.460 OA
BRANCH  35  36
ATOM     36  C   UNL     1      -4.016  -4.409  12.579  1.00  0.00     0.338 C 
ATOM     37  O   UNL     1      -4.683  -5.346  12.978  1.00  0.00    -0.246 OA
BRANCH  36  38
ATOM     38  C   UNL     1      -3.026  -3.663  13.385  1.00  0.00     0.060 A 
ATOM     39  C   UNL     1      -2.921  -2.275  13.265  1.00  0.00     0.016 A 
ATOM     40  C   UNL     1      -2.175  -4.366  14.247  1.00  0.00     0.016 A 
ATOM     41  C   UNL     1      -1.981  -1.587  14.032  1.00  0.00     0.010 A 
ATOM     42  C   UNL     1      -1.236  -3.674  15.017  1.00  0.00     0.010 A 
ATOM     43  C   UNL     1      -1.148  -2.277  14.932  1.00  0.00    -0.014 A 
BRANCH  43  44
ATOM     44  C   UNL     1      -0.343  -1.500  15.907  1.00  0.00     0.031 A 
ATOM     45  C   UNL     1       1.136  -1.320  15.764  1.00  0.00     0.074 A 
ATOM     46  C   UNL     1      -0.998  -0.931  16.938  1.00  0.00     0.049 A 
ATOM     47  N   UNL     1       1.931  -0.536  16.445  1.00  0.00    -0.248 NA
ATOM     48  C   UNL     1       1.815  -2.123  14.737  1.00  0.00     0.031 C 
ATOM     49  C   UNL     1      -2.429  -1.091  17.198  1.00  0.00     0.029 A 
ATOM     50  N   UNL     1      -0.566  -0.100  17.940  1.00  0.00    -0.354 N 
ATOM     51  C   UNL     1       3.202  -0.727  15.918  1.00  0.00     0.074 A 
ATOM     52  C   UNL     1       3.079  -1.745  14.895  1.00  0.00     0.031 C 
ATOM     53  C   UNL     1      -2.766  -0.350  18.262  1.00  0.00     0.029 A 
ATOM     54  C   UNL     1      -1.573   0.318  18.778  1.00  0.00     0.049 A 
ATOM     55  H   UNL     1       0.374   0.171  18.049  1.00  0.00     0.167 HD
ATOM     56  C   UNL     1       4.352  -0.091  16.249  1.00  0.00     0.034 A 
ATOM     57  C   UNL     1      -1.551   1.161  19.831  1.00  0.00     0.034 A 
ATOM     58  C   UNL     1       4.449   0.907  17.290  1.00  0.00     0.049 A 
ATOM     59  C   UNL     1      -0.260   1.858  20.174  1.00  0.00     0.074 A 
ATOM     60  C   UNL     1       5.562   1.638  17.671  1.00  0.00     0.029 A 
ATOM     61  N   UNL     1       3.410   1.310  18.117  1.00  0.00    -0.354 N 
ATOM     62  N   UNL     1       0.909   1.762  19.586  1.00  0.00    -0.248 NA
ATOM     63  C   UNL     1      -0.287   2.800  21.301  1.00  0.00     0.031 C 
ATOM     64  C   UNL     1       5.216   2.422  18.771  1.00  0.00     0.029 A 
ATOM     65  C   UNL     1       3.864   2.258  19.022  1.00  0.00     0.049 A 
ATOM     66  H   UNL     1       2.486   0.973  18.069  1.00  0.00     0.167 HD
ATOM     67  C   UNL     1       1.745   2.659  20.245  1.00  0.00     0.074 A 
ATOM     68  C   UNL     1       0.941   3.301  21.264  1.00  0.00     0.031 C 
ATOM     69  C   UNL     1       3.058   2.922  20.021  1.00  0.00     0.034 A 
BRANCH  56  70
ATOM     70  C   UNL     1       5.611  -0.406  15.473  1.00  0.00     0.023 A 
ATOM     71  C   UNL     1       6.747  -0.908  16.136  1.00  0.00     0.031 A 
ATOM     72  C   UNL     1       5.737  -0.050  14.118  1.00  0.00     0.131 A 
ATOM     73  C   UNL     1       7.969  -0.997  15.456  1.00  0.00     0.055 A 
ATOM     74  C   UNL     1       6.946  -0.184  13.433  1.00  0.00     0.041 A 
ATOM     75  F   UNL     1       4.687   0.442  13.441  1.00  0.00    -0.206 F 
ATOM     76  C   UNL     1       8.073  -0.644  14.107  1.00  0.00     0.022 A 
BRANCH  73  77
ATOM     77  S   UNL     1       9.489  -1.495  16.314  1.00  0.00     0.124 S 
ATOM     78  O   UNL     1       9.892  -2.672  15.549  1.00  0.00    -0.237 OA
ATOM     79  O   UNL     1      10.336  -0.319  16.143  1.00  0.00    -0.237 OA
ATOM     80  O   UNL     1       9.049  -1.764  17.679  1.00  0.00    -0.744 OA
ENDBRANCH  73  77
ENDBRANCH  56  70
BRANCH  57  81
ATOM     81  C   UNL     1      -2.825   1.449  20.550  1.00  0.00     0.023 A 
ATOM     82  C   UNL     1      -3.537   0.422  21.198  1.00  0.00     0.031 A 
ATOM     83  C   UNL     1      -3.410   2.726  20.496  1.00  0.00     0.131 A 
ATOM     84  C   UNL     1      -4.819   0.674  21.702  1.00  0.00     0.055 A 
ATOM     85  C   UNL     1      -4.656   2.990  21.069  1.00  0.00     0.041 A 
ATOM     86  F   UNL     1      -2.781   3.732  19.870  1.00  0.00    -0.206 F 
ATOM     87  C   UNL     1      -5.375   1.956  21.660  1.00  0.00     0.022 A 
BRANCH  84  88
ATOM     88  S   UNL     1      -5.865  -0.684  22.298  1.00  0.00     0.124 S 
ATOM     89  O   UNL     1      -6.105  -0.297  23.684  1.00  0.00    -0.237 OA
ATOM     90  O   UNL     1      -7.017  -0.585  21.405  1.00  0.00    -0.237 OA
ATOM     91  O   UNL     1      -5.034  -1.868  22.107  1.00  0.00    -0.744 OA
ENDBRANCH  84  88
ENDBRANCH  57  81
BRANCH  69  92
ATOM     92  C   UNL     1       3.744   3.975  20.862  1.00  0.00     0.023 A 
ATOM     93  C   UNL     1       4.315   5.103  20.238  1.00  0.00     0.031 A 
ATOM     94  C   UNL     1       3.971   3.796  22.238  1.00  0.00     0.131 A 
ATOM     95  C   UNL     1       5.119   5.981  20.977  1.00  0.00     0.055 A 
ATOM     96  C   UNL     1       4.726   4.704  22.982  1.00  0.00     0.041 A 
ATOM     97  F   UNL     1       3.463   2.731  22.880  1.00  0.00    -0.206 F 
ATOM     98  C   UNL     1       5.318   5.793  22.348  1.00  0.00     0.022 A 
BRANCH  95  99
ATOM     99  S   UNL     1       6.016   7.335  20.169  1.00  0.00     0.124 S 
ATOM    100  O   UNL     1       5.439   8.509  20.820  1.00  0.00    -0.237 OA
ATOM    101  O   UNL     1       7.401   7.042  20.526  1.00  0.00    -0.237 OA
ATOM    102  O   UNL     1       5.686   7.183  18.756  1.00  0.00    -0.744 OA
ENDBRANCH  95  99
ENDBRANCH  69  92
ENDBRANCH  43  44
ENDBRANCH  36  38
ENDBRANCH  35  36
ENDBRANCH  34  35
ENDBRANCH  33  34
ENDBRANCH  32  33
ENDBRANCH  31  32
ENDBRANCH  30  31
ENDBRANCH   1  30
TORSDOF 27
