REMARK SMILES Cc1cc2c(c(C)c1Cl)C=C(C(=O)OCCOCCOCCOCCOC(=O)c1ccc(-c3c4nc(c(-c5cc(S(=O)(=O)[O-])ccc5F)c5ccc([nH]5)c(-c5cc(S(=O)(=O)[O-])ccc5F)c5nc(c(-c6cc(S(=O)(=O)[O-])ccc6F)c6ccc3[nH]6)C=C5)C=C4)cc1)[C@@H](C(F)(F)F)O2
REMARK SMILES IDX 21 1 20 2 19 3 18 4 17 5 16 6 15 7 14 8 12 9 13 10 11 11
REMARK SMILES IDX 1 12 2 13 3 14 8 15 4 16 6 17 9 18 5 19 97 20 7 21 10 22
REMARK SMILES IDX 92 23 93 24 94 25 95 26 96 27 22 28 23 29 24 30 25 31 26 32
REMARK SMILES IDX 27 33 28 34 29 35 30 36 91 37 31 38 90 39 32 40 33 41 34 42
REMARK SMILES IDX 84 43 35 44 89 45 83 46 85 47 36 48 88 49 82 50 81 51 37 53
REMARK SMILES IDX 69 54 49 55 68 56 50 57 53 58 67 59 86 60 51 61 52 62 66 64
REMARK SMILES IDX 87 65 54 66 38 67 39 68 47 69 40 70 46 71 48 72 45 73 41 74
REMARK SMILES IDX 42 75 43 76 44 77 70 78 71 79 79 80 72 81 78 82 80 83 77 84
REMARK SMILES IDX 73 85 74 86 75 87 76 88 55 89 56 90 64 91 57 92 63 93 65 94
REMARK SMILES IDX 62 95 58 96 59 97 60 98 61 99
REMARK H PARENT 85 52 53 63
REMARK Flexibility Score: inf
ROOT
ATOM      1  C   UNL     1      -0.700   7.196   7.430  1.00  0.00     0.188 C 
ENDROOT
BRANCH   1   2
ATOM      2  O   UNL     1      -1.047   6.475   6.247  1.00  0.00    -0.377 OA
BRANCH   2   3
ATOM      3  C   UNL     1      -0.079   6.404   5.213  1.00  0.00     0.188 C 
BRANCH   3   4
ATOM      4  C   UNL     1      -0.116   7.626   4.276  1.00  0.00     0.188 C 
BRANCH   4   5
ATOM      5  O   UNL     1      -0.778   8.750   4.825  1.00  0.00    -0.376 OA
BRANCH   5   6
ATOM      6  C   UNL     1      -2.180   8.929   4.694  1.00  0.00     0.202 C 
BRANCH   6   7
ATOM      7  C   UNL     1      -3.223   7.793   4.651  1.00  0.00     0.261 C 
BRANCH   7   8
ATOM      8  O   UNL     1      -2.798   6.521   4.163  1.00  0.00    -0.460 OA
BRANCH   8   9
ATOM      9  C   UNL     1      -2.712   6.352   2.833  1.00  0.00     0.338 C 
ATOM     10  O   UNL     1      -2.978   7.167   1.968  1.00  0.00    -0.246 OA
BRANCH   9  11
ATOM     11  C   UNL     1      -2.043   5.052   2.598  1.00  0.00     0.087 C 
ATOM     12  C   UNL     1       1.071  -0.102   0.260  1.00  0.00     0.046 C 
ATOM     13  C   UNL     1       0.675   1.274   0.722  1.00  0.00    -0.028 A 
ATOM     14  C   UNL     1      -0.306   1.394   1.712  1.00  0.00     0.052 A 
ATOM     15  C   UNL     1       1.220   2.444   0.157  1.00  0.00     0.047 A 
ATOM     16  C   UNL     1      -0.807   2.643   2.073  1.00  0.00     0.128 A 
ATOM     17  C   UNL     1       0.751   3.722   0.538  1.00  0.00    -0.021 A 
ATOM     18  Cl  UNL     1       2.456   2.281  -1.056  1.00  0.00    -0.084 Cl
ATOM     19  C   UNL     1      -0.326   3.802   1.457  1.00  0.00     0.022 A 
ATOM     20  O   UNL     1      -1.784   2.617   3.025  1.00  0.00    -0.475 OA
ATOM     21  C   UNL     1       1.373   4.993   0.006  1.00  0.00     0.047 C 
ATOM     22  C   UNL     1      -1.022   5.056   1.733  1.00  0.00     0.027 C 
ATOM     23  C   UNL     1      -2.469   3.845   3.387  1.00  0.00     0.316 C 
BRANCH  23  24
ATOM     24  C   UNL     1      -3.979   3.586   3.289  1.00  0.00     0.430 C 
ATOM     25  F   UNL     1      -4.327   2.452   3.944  1.00  0.00    -0.167 F 
ATOM     26  F   UNL     1      -4.707   4.589   3.826  1.00  0.00    -0.167 F 
ATOM     27  F   UNL     1      -4.373   3.444   2.001  1.00  0.00    -0.167 F 
ENDBRANCH  23  24
ENDBRANCH   9  11
ENDBRANCH   8   9
ENDBRANCH   7   8
ENDBRANCH   6   7
ENDBRANCH   5   6
ENDBRANCH   4   5
ENDBRANCH   3   4
ENDBRANCH   2   3
ENDBRANCH   1   2
BRANCH   1  28
ATOM     28  C   UNL     1       0.351   8.332   7.401  1.00  0.00     0.188 C 
BRANCH  28  29
ATOM     29  O   UNL     1       1.529   8.018   6.662  1.00  0.00    -0.376 OA
BRANCH  29  30
ATOM     30  C   UNL     1       2.710   7.742   7.400  1.00  0.00     0.202 C 
BRANCH  30  31
ATOM     31  C   UNL     1       2.728   6.388   8.123  1.00  0.00     0.261 C 
BRANCH  31  32
ATOM     32  O   UNL     1       1.698   6.195   9.104  1.00  0.00    -0.460 OA
BRANCH  32  33
ATOM     33  C   UNL     1       1.667   7.053  10.148  1.00  0.00     0.338 C 
ATOM     34  O   UNL     1       2.456   7.951  10.380  1.00  0.00    -0.246 OA
BRANCH  33  35
ATOM     35  C   UNL     1       0.390   6.839  10.858  1.00  0.00     0.060 A 
ATOM     36  C   UNL     1      -0.512   7.905  10.974  1.00  0.00     0.016 A 
ATOM     37  C   UNL     1       0.078   5.584  11.387  1.00  0.00     0.016 A 
ATOM     38  C   UNL     1      -1.720   7.723  11.648  1.00  0.00     0.010 A 
ATOM     39  C   UNL     1      -1.121   5.411  12.083  1.00  0.00     0.010 A 
ATOM     40  C   UNL     1      -2.010   6.487  12.243  1.00  0.00    -0.014 A 
BRANCH  40  41
ATOM     41  C   UNL     1      -3.124   6.386  13.216  1.00  0.00     0.031 A 
ATOM     42  C   UNL     1      -2.802   6.566  14.675  1.00  0.00     0.074 A 
ATOM     43  C   UNL     1      -4.393   6.182  12.820  1.00  0.00     0.049 A 
ATOM     44  N   UNL     1      -3.588   6.481  15.715  1.00  0.00    -0.248 NA
ATOM     45  C   UNL     1      -1.403   6.890  15.002  1.00  0.00     0.031 C 
ATOM     46  C   UNL     1      -4.838   6.061  11.433  1.00  0.00     0.029 A 
ATOM     47  N   UNL     1      -5.545   6.047  13.555  1.00  0.00    -0.354 N 
ATOM     48  C   UNL     1      -2.784   6.750  16.817  1.00  0.00     0.074 A 
ATOM     49  C   UNL     1      -1.442   6.962  16.323  1.00  0.00     0.031 C 
ATOM     50  C   UNL     1      -6.170   5.875  11.418  1.00  0.00     0.029 A 
ATOM     51  C   UNL     1      -6.667   5.824  12.793  1.00  0.00     0.049 A 
ATOM     52  H   UNL     1      -5.565   6.104  14.538  1.00  0.00     0.167 HD
ATOM     53  C   UNL     1      -3.136   6.829  18.121  1.00  0.00     0.034 A 
ATOM     54  C   UNL     1      -7.943   5.588  13.165  1.00  0.00     0.034 A 
ATOM     55  C   UNL     1      -4.472   6.606  18.606  1.00  0.00     0.049 A 
ATOM     56  C   UNL     1      -8.288   5.558  14.635  1.00  0.00     0.074 A 
ATOM     57  C   UNL     1      -4.929   6.649  19.911  1.00  0.00     0.029 A 
ATOM     58  N   UNL     1      -5.564   6.295  17.809  1.00  0.00    -0.354 N 
ATOM     59  N   UNL     1      -7.511   5.780  15.670  1.00  0.00    -0.248 NA
ATOM     60  C   UNL     1      -9.680   5.241  14.988  1.00  0.00     0.031 C 
ATOM     61  C   UNL     1      -6.282   6.300  19.910  1.00  0.00     0.029 A 
ATOM     62  C   UNL     1      -6.687   6.111  18.598  1.00  0.00     0.049 A 
ATOM     63  H   UNL     1      -5.544   6.216  16.828  1.00  0.00     0.167 HD
ATOM     64  C   UNL     1      -8.325   5.652  16.793  1.00  0.00     0.074 A 
ATOM     65  C   UNL     1      -9.654   5.340  16.310  1.00  0.00     0.031 C 
ATOM     66  C   UNL     1      -8.004   5.789  18.104  1.00  0.00     0.034 A 
BRANCH  53  67
ATOM     67  C   UNL     1      -2.052   7.137  19.117  1.00  0.00     0.023 A 
ATOM     68  C   UNL     1      -1.443   8.402  19.170  1.00  0.00     0.031 A 
ATOM     69  C   UNL     1      -1.636   6.160  20.038  1.00  0.00     0.131 A 
ATOM     70  C   UNL     1      -0.425   8.647  20.102  1.00  0.00     0.055 A 
ATOM     71  C   UNL     1      -0.666   6.429  21.004  1.00  0.00     0.041 A 
ATOM     72  F   UNL     1      -2.170   4.928  20.013  1.00  0.00    -0.206 F 
ATOM     73  C   UNL     1      -0.051   7.677  21.036  1.00  0.00     0.022 A 
BRANCH  70  74
ATOM     74  S   UNL     1       0.457  10.229  20.032  1.00  0.00     0.124 S 
ATOM     75  O   UNL     1       1.102  10.147  18.724  1.00  0.00    -0.237 OA
ATOM     76  O   UNL     1      -0.624  11.201  20.150  1.00  0.00    -0.237 OA
ATOM     77  O   UNL     1       1.366  10.165  21.174  1.00  0.00    -0.744 OA
ENDBRANCH  70  74
ENDBRANCH  53  67
BRANCH  54  78
ATOM     78  C   UNL     1      -8.991   5.330  12.136  1.00  0.00     0.023 A 
ATOM     79  C   UNL     1     -10.053   6.228  11.945  1.00  0.00     0.031 A 
ATOM     80  C   UNL     1      -8.959   4.166  11.349  1.00  0.00     0.131 A 
ATOM     81  C   UNL     1     -11.054   5.935  11.004  1.00  0.00     0.055 A 
ATOM     82  C   UNL     1      -9.934   3.899  10.386  1.00  0.00     0.041 A 
ATOM     83  F   UNL     1      -7.966   3.274  11.496  1.00  0.00    -0.206 F 
ATOM     84  C   UNL     1     -10.994   4.784  10.214  1.00  0.00     0.022 A 
BRANCH  81  85
ATOM     85  S   UNL     1     -12.465   7.066  10.852  1.00  0.00     0.124 S 
ATOM     86  O   UNL     1     -13.083   6.947  12.167  1.00  0.00    -0.237 OA
ATOM     87  O   UNL     1     -11.807   8.336  10.563  1.00  0.00    -0.237 OA
ATOM     88  O   UNL     1     -13.235   6.501   9.746  1.00  0.00    -0.744 OA
ENDBRANCH  81  85
ENDBRANCH  54  78
BRANCH  66  89
ATOM     89  C   UNL     1      -9.106   5.628  19.119  1.00  0.00     0.023 A 
ATOM     90  C   UNL     1      -9.672   4.373  19.395  1.00  0.00     0.031 A 
ATOM     91  C   UNL     1      -9.547   6.736  19.864  1.00  0.00     0.131 A 
ATOM     92  C   UNL     1     -10.666   4.259  20.378  1.00  0.00     0.055 A 
ATOM     93  C   UNL     1     -10.501   6.609  20.874  1.00  0.00     0.041 A 
ATOM     94  F   UNL     1      -9.032   7.957  19.643  1.00  0.00    -0.206 F 
ATOM     95  C   UNL     1     -11.070   5.365  21.132  1.00  0.00     0.022 A 
BRANCH  92  96
ATOM     96  S   UNL     1     -11.452   2.646  20.641  1.00  0.00     0.124 S 
ATOM     97  O   UNL     1     -12.108   2.417  19.358  1.00  0.00    -0.237 OA
ATOM     98  O   UNL     1     -10.312   1.784  20.936  1.00  0.00    -0.237 OA
ATOM     99  O   UNL     1     -12.355   2.883  21.766  1.00  0.00    -0.744 OA
ENDBRANCH  92  96
ENDBRANCH  66  89
ENDBRANCH  40  41
ENDBRANCH  33  35
ENDBRANCH  32  33
ENDBRANCH  31  32
ENDBRANCH  30  31
ENDBRANCH  29  30
ENDBRANCH  28  29
ENDBRANCH   1  28
TORSDOF 24
