REMARK SMILES O=C(CS(=O)(=O)N1CCC1)OCCOCCOCCOCCOC(=O)c1ccc(-c2c3nc(c(-c4cc(S(=O)(=O)[O-])ccc4F)c4ccc([nH]4)c(-c4cc(S(=O)(=O)[O-])ccc4F)c4nc(c(-c5cc(S(=O)(=O)[O-])ccc5F)c5ccc2[nH]5)C=C4)C=C3)cc1
REMARK SMILES IDX 18 1 17 2 16 3 15 4 14 5 13 6 12 7 11 8 2 9 1 10 3 11 4 12
REMARK SMILES IDX 5 13 6 14 7 15 8 16 10 17 9 18 19 19 20 20 21 21 22 22 23 23
REMARK SMILES IDX 24 24 25 25 26 26 27 27 88 28 28 29 87 30 29 31 30 32 31 33
REMARK SMILES IDX 81 34 32 35 86 36 80 37 82 38 33 39 85 40 79 41 78 42 34 44
REMARK SMILES IDX 66 45 46 46 65 47 47 48 50 49 64 50 83 51 48 52 49 53 63 55
REMARK SMILES IDX 84 56 51 57 35 58 36 59 44 60 37 61 43 62 45 63 42 64 38 65
REMARK SMILES IDX 39 66 40 67 41 68 67 69 68 70 76 71 69 72 75 73 77 74 74 75
REMARK SMILES IDX 70 76 71 77 72 78 73 79 52 80 53 81 61 82 54 83 60 84 62 85
REMARK SMILES IDX 59 86 55 87 56 88 57 89 58 90
REMARK H PARENT 82 43 50 54
REMARK Flexibility Score: inf
ROOT
ATOM      1  C   UNL     1       4.113  -3.237   1.442  1.00  0.00     0.188 C 
ENDROOT
BRANCH   1   2
ATOM      2  O   UNL     1       2.745  -3.512   1.221  1.00  0.00    -0.377 OA
BRANCH   2   3
ATOM      3  C   UNL     1       1.992  -2.502   0.580  1.00  0.00     0.188 C 
BRANCH   3   4
ATOM      4  C   UNL     1       2.589  -1.701  -0.587  1.00  0.00     0.188 C 
BRANCH   4   5
ATOM      5  O   UNL     1       3.977  -1.452  -0.633  1.00  0.00    -0.376 OA
BRANCH   5   6
ATOM      6  C   UNL     1       4.676  -0.340  -0.109  1.00  0.00     0.202 C 
BRANCH   6   7
ATOM      7  C   UNL     1       4.031   0.604   0.890  1.00  0.00     0.261 C 
BRANCH   7   8
ATOM      8  O   UNL     1       2.737   1.168   0.580  1.00  0.00    -0.462 OA
BRANCH   8   9
ATOM      9  C   UNL     1       2.129   1.425  -0.589  1.00  0.00     0.322 C 
ATOM     10  O   UNL     1       0.907   1.590  -0.581  1.00  0.00    -0.251 OA
BRANCH   9  11
ATOM     11  C   UNL     1       2.861   1.448  -1.875  1.00  0.00     0.276 C 
BRANCH  11  12
ATOM     12  S   UNL     1       3.923   2.838  -1.999  1.00  0.00     0.224 S 
ATOM     13  O   UNL     1       5.048   2.673  -1.104  1.00  0.00    -0.212 OA
ATOM     14  O   UNL     1       4.144   3.087  -3.409  1.00  0.00    -0.212 OA
BRANCH  12  15
ATOM     15  N   UNL     1       2.978   4.089  -1.407  1.00  0.00    -0.201 NA
ATOM     16  C   UNL     1       2.614   4.337   0.029  1.00  0.00     0.103 C 
ATOM     17  C   UNL     1       3.369   5.527  -1.497  1.00  0.00     0.103 C 
ATOM     18  C   UNL     1       2.423   5.819  -0.319  1.00  0.00     0.033 C 
ENDBRANCH  12  15
ENDBRANCH  11  12
ENDBRANCH   9  11
ENDBRANCH   8   9
ENDBRANCH   7   8
ENDBRANCH   6   7
ENDBRANCH   5   6
ENDBRANCH   4   5
ENDBRANCH   3   4
ENDBRANCH   2   3
ENDBRANCH   1   2
BRANCH   1  19
ATOM     19  C   UNL     1       5.038  -3.838   0.364  1.00  0.00     0.188 C 
BRANCH  19  20
ATOM     20  O   UNL     1       4.514  -4.146  -0.914  1.00  0.00    -0.376 OA
BRANCH  20  21
ATOM     21  C   UNL     1       3.472  -5.088  -1.102  1.00  0.00     0.202 C 
BRANCH  21  22
ATOM     22  C   UNL     1       3.024  -6.190  -0.116  1.00  0.00     0.261 C 
BRANCH  22  23
ATOM     23  O   UNL     1       3.412  -6.096   1.252  1.00  0.00    -0.460 OA
BRANCH  23  24
ATOM     24  C   UNL     1       4.567  -6.720   1.587  1.00  0.00     0.338 C 
ATOM     25  O   UNL     1       5.285  -7.363   0.858  1.00  0.00    -0.246 OA
BRANCH  24  26
ATOM     26  C   UNL     1       4.927  -6.268   2.953  1.00  0.00     0.060 A 
ATOM     27  C   UNL     1       6.167  -5.638   3.139  1.00  0.00     0.016 A 
ATOM     28  C   UNL     1       4.039  -6.412   4.022  1.00  0.00     0.016 A 
ATOM     29  C   UNL     1       6.531  -5.165   4.397  1.00  0.00     0.010 A 
ATOM     30  C   UNL     1       4.426  -5.982   5.294  1.00  0.00     0.010 A 
ATOM     31  C   UNL     1       5.687  -5.388   5.490  1.00  0.00    -0.014 A 
BRANCH  31  32
ATOM     32  C   UNL     1       6.239  -5.255   6.858  1.00  0.00     0.031 A 
ATOM     33  C   UNL     1       6.801  -6.496   7.498  1.00  0.00     0.074 A 
ATOM     34  C   UNL     1       6.282  -4.074   7.498  1.00  0.00     0.049 A 
ATOM     35  N   UNL     1       7.286  -6.668   8.698  1.00  0.00    -0.248 NA
ATOM     36  C   UNL     1       6.808  -7.709   6.663  1.00  0.00     0.031 C 
ATOM     37  C   UNL     1       5.832  -2.797   6.948  1.00  0.00     0.029 A 
ATOM     38  N   UNL     1       6.725  -3.762   8.759  1.00  0.00    -0.354 N 
ATOM     39  C   UNL     1       7.647  -8.009   8.767  1.00  0.00     0.074 A 
ATOM     40  C   UNL     1       7.292  -8.610   7.501  1.00  0.00     0.031 C 
ATOM     41  C   UNL     1       6.007  -1.839   7.877  1.00  0.00     0.029 A 
ATOM     42  C   UNL     1       6.540  -2.442   9.098  1.00  0.00     0.049 A 
ATOM     43  H   UNL     1       7.136  -4.421   9.364  1.00  0.00     0.167 HD
ATOM     44  C   UNL     1       8.225  -8.676   9.794  1.00  0.00     0.034 A 
ATOM     45  C   UNL     1       6.747  -1.808  10.271  1.00  0.00     0.034 A 
ATOM     46  C   UNL     1       8.554  -8.062  11.055  1.00  0.00     0.049 A 
ATOM     47  C   UNL     1       7.296  -2.596  11.440  1.00  0.00     0.074 A 
ATOM     48  C   UNL     1       9.148  -8.638  12.163  1.00  0.00     0.029 A 
ATOM     49  N   UNL     1       8.301  -6.736  11.384  1.00  0.00    -0.354 N 
ATOM     50  N   UNL     1       7.635  -3.865  11.499  1.00  0.00    -0.248 NA
ATOM     51  C   UNL     1       7.496  -1.865  12.699  1.00  0.00     0.031 C 
ATOM     52  C   UNL     1       9.173  -7.688  13.188  1.00  0.00     0.029 A 
ATOM     53  C   UNL     1       8.689  -6.488  12.691  1.00  0.00     0.049 A 
ATOM     54  H   UNL     1       7.904  -6.070  10.777  1.00  0.00     0.167 HD
ATOM     55  C   UNL     1       8.121  -4.072  12.789  1.00  0.00     0.074 A 
ATOM     56  C   UNL     1       8.043  -2.795  13.468  1.00  0.00     0.031 C 
ATOM     57  C   UNL     1       8.597  -5.210  13.359  1.00  0.00     0.034 A 
BRANCH  44  58
ATOM     58  C   UNL     1       8.469 -10.155   9.611  1.00  0.00     0.023 A 
ATOM     59  C   UNL     1       9.344 -10.650   8.629  1.00  0.00     0.031 A 
ATOM     60  C   UNL     1       7.784 -11.085  10.413  1.00  0.00     0.131 A 
ATOM     61  C   UNL     1       9.457 -12.034   8.427  1.00  0.00     0.055 A 
ATOM     62  C   UNL     1       7.967 -12.461  10.264  1.00  0.00     0.041 A 
ATOM     63  F   UNL     1       6.912 -10.673  11.346  1.00  0.00    -0.206 F 
ATOM     64  C   UNL     1       8.797 -12.943   9.257  1.00  0.00     0.022 A 
BRANCH  61  65
ATOM     65  S   UNL     1      10.360 -12.627   6.970  1.00  0.00     0.124 S 
ATOM     66  O   UNL     1       9.623 -11.985   5.884  1.00  0.00    -0.237 OA
ATOM     67  O   UNL     1      11.709 -12.128   7.210  1.00  0.00    -0.237 OA
ATOM     68  O   UNL     1      10.209 -14.079   7.041  1.00  0.00    -0.744 OA
ENDBRANCH  61  65
ENDBRANCH  44  58
BRANCH  45  69
ATOM     69  C   UNL     1       6.390  -0.367  10.429  1.00  0.00     0.023 A 
ATOM     70  C   UNL     1       7.361   0.596  10.745  1.00  0.00     0.031 A 
ATOM     71  C   UNL     1       5.052   0.058  10.328  1.00  0.00     0.131 A 
ATOM     72  C   UNL     1       6.976   1.924  10.994  1.00  0.00     0.055 A 
ATOM     73  C   UNL     1       4.683   1.391  10.518  1.00  0.00     0.041 A 
ATOM     74  F   UNL     1       4.080  -0.821  10.037  1.00  0.00    -0.206 F 
ATOM     75  C   UNL     1       5.646   2.331  10.867  1.00  0.00     0.022 A 
BRANCH  72  76
ATOM     76  S   UNL     1       8.229   3.097  11.582  1.00  0.00     0.124 S 
ATOM     77  O   UNL     1       8.690   2.449  12.805  1.00  0.00    -0.237 OA
ATOM     78  O   UNL     1       9.172   3.116  10.469  1.00  0.00    -0.237 OA
ATOM     79  O   UNL     1       7.473   4.333  11.776  1.00  0.00    -0.744 OA
ENDBRANCH  72  76
ENDBRANCH  45  69
BRANCH  57  80
ATOM     80  C   UNL     1       9.123  -5.111  14.772  1.00  0.00     0.023 A 
ATOM     81  C   UNL     1       8.288  -4.806  15.860  1.00  0.00     0.031 A 
ATOM     82  C   UNL     1      10.489  -5.332  15.032  1.00  0.00     0.131 A 
ATOM     83  C   UNL     1       8.835  -4.671  17.146  1.00  0.00     0.055 A 
ATOM     84  C   UNL     1      11.014  -5.268  16.323  1.00  0.00     0.041 A 
ATOM     85  F   UNL     1      11.337  -5.623  14.032  1.00  0.00    -0.206 F 
ATOM     86  C   UNL     1      10.188  -4.921  17.387  1.00  0.00     0.022 A 
BRANCH  83  87
ATOM     87  S   UNL     1       7.775  -4.059  18.484  1.00  0.00     0.124 S 
ATOM     88  O   UNL     1       7.327  -2.775  17.953  1.00  0.00    -0.237 OA
ATOM     89  O   UNL     1       6.757  -5.100  18.578  1.00  0.00    -0.237 OA
ATOM     90  O   UNL     1       8.681  -3.974  19.628  1.00  0.00    -0.744 OA
ENDBRANCH  83  87
ENDBRANCH  57  80
ENDBRANCH  31  32
ENDBRANCH  24  26
ENDBRANCH  23  24
ENDBRANCH  22  23
ENDBRANCH  21  22
ENDBRANCH  20  21
ENDBRANCH  19  20
ENDBRANCH   1  19
TORSDOF 25
