REMARK SMILES O=C(OCCOCCOCCOCCOC(=O)[C@H]1N=c2ccccc2=C1C[NH2+]CCc1ccccc1)c1ccc(-c2c3nc(c(-c4cc(S(=O)(=O)[O-])ccc4F)c4ccc([nH]4)c(-c4cc(S(=O)(=O)[O-])ccc4F)c4nc(c(-c5cc(S(=O)(=O)[O-])ccc5F)c5ccc2[nH]5)C=C4)C=C3)cc1
REMARK SMILES IDX 10 1 9 2 8 3 7 4 6 5 5 6 4 7 3 8 2 9 1 10 37 11 38 12 99 13
REMARK SMILES IDX 39 14 98 15 40 16 41 17 42 18 92 19 43 20 97 21 91 22 93 23
REMARK SMILES IDX 44 24 96 25 90 26 89 27 45 29 77 30 57 31 76 32 58 33 61 34
REMARK SMILES IDX 75 35 94 36 59 37 60 38 74 40 95 41 62 42 46 43 47 44 55 45
REMARK SMILES IDX 48 46 54 47 56 48 53 49 49 50 50 51 51 52 52 53 78 54 79 55
REMARK SMILES IDX 87 56 80 57 86 58 88 59 85 60 81 61 82 62 83 63 84 64 63 65
REMARK SMILES IDX 64 66 72 67 65 68 71 69 73 70 70 71 66 72 67 73 68 74 69 75
REMARK SMILES IDX 11 76 12 77 13 78 14 79 15 80 16 81 17 82 18 83 19 84 26 85
REMARK SMILES IDX 20 86 25 87 21 88 24 89 22 90 23 91 27 92 28 93 29 96 30 97
REMARK SMILES IDX 31 98 32 99 36 100 33 101 35 102 34 103
REMARK H PARENT 93 28 61 39 28 94 28 95
REMARK Flexibility Score: inf
ROOT
ATOM      1  C   UNL     1       4.026  -3.125  -1.664  1.00  0.00     0.188 C 
ENDROOT
BRANCH   1   2
ATOM      2  O   UNL     1       2.625  -3.277  -1.492  1.00  0.00    -0.377 OA
BRANCH   2   3
ATOM      3  C   UNL     1       1.870  -2.090  -1.291  1.00  0.00     0.188 C 
BRANCH   3   4
ATOM      4  C   UNL     1       2.366  -1.174  -0.173  1.00  0.00     0.188 C 
BRANCH   4   5
ATOM      5  O   UNL     1       3.646  -0.605  -0.451  1.00  0.00    -0.376 OA
BRANCH   5   6
ATOM      6  C   UNL     1       4.642  -0.777   0.547  1.00  0.00     0.202 C 
BRANCH   6   7
ATOM      7  C   UNL     1       4.467   0.026   1.829  1.00  0.00     0.261 C 
BRANCH   7   8
ATOM      8  O   UNL     1       3.192   0.646   2.044  1.00  0.00    -0.460 OA
BRANCH   8   9
ATOM      9  C   UNL     1       2.497   1.585   1.370  1.00  0.00     0.338 C 
ATOM     10  O   UNL     1       1.340   1.790   1.747  1.00  0.00    -0.246 OA
BRANCH   9  11
ATOM     11  C   UNL     1       2.980   2.360   0.180  1.00  0.00     0.060 A 
ATOM     12  C   UNL     1       2.072   3.296  -0.358  1.00  0.00     0.016 A 
ATOM     13  C   UNL     1       4.213   2.220  -0.456  1.00  0.00     0.016 A 
ATOM     14  C   UNL     1       2.377   4.044  -1.498  1.00  0.00     0.010 A 
ATOM     15  C   UNL     1       4.502   2.911  -1.634  1.00  0.00     0.010 A 
ATOM     16  C   UNL     1       3.598   3.845  -2.145  1.00  0.00    -0.014 A 
BRANCH  16  17
ATOM     17  C   UNL     1       4.074   4.764  -3.195  1.00  0.00     0.031 A 
ATOM     18  C   UNL     1       4.027   4.390  -4.641  1.00  0.00     0.074 A 
ATOM     19  C   UNL     1       4.700   5.877  -2.765  1.00  0.00     0.049 A 
ATOM     20  N   UNL     1       4.465   5.066  -5.668  1.00  0.00    -0.248 NA
ATOM     21  C   UNL     1       3.432   3.088  -4.985  1.00  0.00     0.031 C 
ATOM     22  C   UNL     1       4.862   6.236  -1.351  1.00  0.00     0.029 A 
ATOM     23  N   UNL     1       5.364   6.866  -3.437  1.00  0.00    -0.354 N 
ATOM     24  C   UNL     1       4.187   4.287  -6.785  1.00  0.00     0.074 A 
ATOM     25  C   UNL     1       3.578   3.066  -6.307  1.00  0.00     0.031 C 
ATOM     26  C   UNL     1       5.622   7.334  -1.261  1.00  0.00     0.029 A 
ATOM     27  C   UNL     1       6.003   7.756  -2.604  1.00  0.00     0.049 A 
ATOM     28  H   UNL     1       5.382   6.935  -4.419  1.00  0.00     0.167 HD
ATOM     29  C   UNL     1       4.418   4.596  -8.082  1.00  0.00     0.034 A 
ATOM     30  C   UNL     1       6.819   8.790  -2.890  1.00  0.00     0.034 A 
ATOM     31  C   UNL     1       5.050   5.827  -8.492  1.00  0.00     0.049 A 
ATOM     32  C   UNL     1       7.026   9.130  -4.340  1.00  0.00     0.074 A 
ATOM     33  C   UNL     1       5.248   6.297  -9.777  1.00  0.00     0.029 A 
ATOM     34  N   UNL     1       5.598   6.770  -7.631  1.00  0.00    -0.354 N 
ATOM     35  N   UNL     1       6.605   8.475  -5.398  1.00  0.00    -0.248 NA
ATOM     36  C   UNL     1       7.770  10.355  -4.651  1.00  0.00     0.031 C 
ATOM     37  C   UNL     1       5.985   7.476  -9.697  1.00  0.00     0.029 A 
ATOM     38  C   UNL     1       6.164   7.800  -8.360  1.00  0.00     0.049 A 
ATOM     39  H   UNL     1       5.585   6.713  -6.648  1.00  0.00     0.167 HD
ATOM     40  C   UNL     1       7.002   9.224  -6.497  1.00  0.00     0.074 A 
ATOM     41  C   UNL     1       7.685  10.391  -5.976  1.00  0.00     0.031 C 
ATOM     42  C   UNL     1       6.817   8.968  -7.815  1.00  0.00     0.034 A 
BRANCH  29  43
ATOM     43  C   UNL     1       3.962   3.661  -9.178  1.00  0.00     0.023 A 
ATOM     44  C   UNL     1       4.892   3.155 -10.108  1.00  0.00     0.031 A 
ATOM     45  C   UNL     1       2.594   3.469  -9.439  1.00  0.00     0.131 A 
ATOM     46  C   UNL     1       4.440   2.547 -11.287  1.00  0.00     0.055 A 
ATOM     47  C   UNL     1       2.150   2.821 -10.594  1.00  0.00     0.041 A 
ATOM     48  F   UNL     1       1.665   3.939  -8.591  1.00  0.00    -0.206 F 
ATOM     49  C   UNL     1       3.075   2.376 -11.534  1.00  0.00     0.022 A 
BRANCH  46  50
ATOM     50  S   UNL     1       5.601   2.044 -12.589  1.00  0.00     0.124 S 
ATOM     51  O   UNL     1       5.245   0.639 -12.784  1.00  0.00    -0.237 OA
ATOM     52  O   UNL     1       5.236   2.937 -13.685  1.00  0.00    -0.237 OA
ATOM     53  O   UNL     1       6.914   2.271 -11.996  1.00  0.00    -0.744 OA
ENDBRANCH  46  50
ENDBRANCH  29  43
BRANCH  30  54
ATOM     54  C   UNL     1       7.391   9.585  -1.767  1.00  0.00     0.023 A 
ATOM     55  C   UNL     1       8.246   8.984  -0.821  1.00  0.00     0.031 A 
ATOM     56  C   UNL     1       6.965  10.901  -1.526  1.00  0.00     0.131 A 
ATOM     57  C   UNL     1       8.588   9.673   0.350  1.00  0.00     0.055 A 
ATOM     58  C   UNL     1       7.367  11.610  -0.392  1.00  0.00     0.041 A 
ATOM     59  F   UNL     1       6.125  11.507  -2.380  1.00  0.00    -0.206 F 
ATOM     60  C   UNL     1       8.166  10.989   0.562  1.00  0.00     0.022 A 
BRANCH  57  61
ATOM     61  S   UNL     1       9.448   8.830   1.709  1.00  0.00     0.124 S 
ATOM     62  O   UNL     1      10.710   9.561   1.770  1.00  0.00    -0.237 OA
ATOM     63  O   UNL     1       8.536   9.053   2.829  1.00  0.00    -0.237 OA
ATOM     64  O   UNL     1       9.539   7.446   1.255  1.00  0.00    -0.744 OA
ENDBRANCH  57  61
ENDBRANCH  30  54
BRANCH  42  65
ATOM     65  C   UNL     1       7.336   9.959  -8.825  1.00  0.00     0.023 A 
ATOM     66  C   UNL     1       6.430  10.596  -9.694  1.00  0.00     0.031 A 
ATOM     67  C   UNL     1       8.712  10.091  -9.072  1.00  0.00     0.131 A 
ATOM     68  C   UNL     1       6.911  11.270 -10.821  1.00  0.00     0.055 A 
ATOM     69  C   UNL     1       9.187  10.816 -10.165  1.00  0.00     0.041 A 
ATOM     70  F   UNL     1       9.610   9.492  -8.274  1.00  0.00    -0.206 F 
ATOM     71  C   UNL     1       8.284  11.390 -11.057  1.00  0.00     0.022 A 
BRANCH  68  72
ATOM     72  S   UNL     1       5.771  11.902 -12.083  1.00  0.00     0.124 S 
ATOM     73  O   UNL     1       6.132  13.317 -12.134  1.00  0.00    -0.237 OA
ATOM     74  O   UNL     1       6.149  11.119 -13.255  1.00  0.00    -0.237 OA
ATOM     75  O   UNL     1       4.448  11.620 -11.537  1.00  0.00    -0.744 OA
ENDBRANCH  68  72
ENDBRANCH  42  65
ENDBRANCH  16  17
ENDBRANCH   9  11
ENDBRANCH   8   9
ENDBRANCH   7   8
ENDBRANCH   6   7
ENDBRANCH   5   6
ENDBRANCH   4   5
ENDBRANCH   3   4
ENDBRANCH   2   3
ENDBRANCH   1   2
BRANCH   1  76
ATOM     76  C   UNL     1       4.593  -2.220  -2.787  1.00  0.00     0.188 C 
BRANCH  76  77
ATOM     77  O   UNL     1       3.693  -1.250  -3.314  1.00  0.00    -0.376 OA
BRANCH  77  78
ATOM     78  C   UNL     1       3.312  -1.461  -4.677  1.00  0.00     0.202 C 
BRANCH  78  79
ATOM     79  C   UNL     1       2.354  -2.641  -4.905  1.00  0.00     0.261 C 
BRANCH  79  80
ATOM     80  O   UNL     1       2.816  -3.819  -4.233  1.00  0.00    -0.461 OA
BRANCH  80  81
ATOM     81  C   UNL     1       3.559  -4.724  -4.926  1.00  0.00     0.335 C 
ATOM     82  O   UNL     1       3.626  -4.765  -6.138  1.00  0.00    -0.249 OA
BRANCH  81  83
ATOM     83  C   UNL     1       4.395  -5.576  -3.921  1.00  0.00     0.248 C 
ATOM     84  N   UNL     1       3.465  -6.151  -2.909  1.00  0.00    -0.265 NA
ATOM     85  C   UNL     1       5.147  -6.742  -4.489  1.00  0.00     0.029 C 
ATOM     86  C   UNL     1       3.615  -7.423  -3.070  1.00  0.00     0.066 A 
ATOM     87  C   UNL     1       4.609  -7.884  -4.055  1.00  0.00     0.007 A 
ATOM     88  C   UNL     1       2.899  -8.447  -2.290  1.00  0.00     0.028 A 
ATOM     89  C   UNL     1       4.855  -9.278  -4.246  1.00  0.00     0.010 A 
ATOM     90  C   UNL     1       3.165  -9.739  -2.533  1.00  0.00     0.002 A 
ATOM     91  C   UNL     1       4.137 -10.162  -3.529  1.00  0.00     0.001 A 
BRANCH  85  92
ATOM     92  C   UNL     1       6.384  -6.505  -5.301  1.00  0.00     0.296 C 
BRANCH  92  93
ATOM     93  N   UNL     1       6.295  -5.240  -6.016  1.00  0.00    -0.342 N 
ATOM     94  H   UNL     1       6.400  -4.489  -5.334  1.00  0.00     0.346 HD
ATOM     95  H   UNL     1       5.390  -5.255  -6.487  1.00  0.00     0.346 HD
BRANCH  93  96
ATOM     96  C   UNL     1       7.282  -5.026  -7.071  1.00  0.00     0.265 C 
BRANCH  96  97
ATOM     97  C   UNL     1       7.229  -6.016  -8.250  1.00  0.00     0.097 C 
BRANCH  97  98
ATOM     98  C   UNL     1       5.847  -6.413  -8.726  1.00  0.00    -0.042 A 
ATOM     99  C   UNL     1       5.483  -7.768  -8.762  1.00  0.00     0.004 A 
ATOM    100  C   UNL     1       4.909  -5.454  -9.134  1.00  0.00     0.004 A 
ATOM    101  C   UNL     1       4.210  -8.155  -9.185  1.00  0.00     0.000 A 
ATOM    102  C   UNL     1       3.633  -5.843  -9.551  1.00  0.00     0.000 A 
ATOM    103  C   UNL     1       3.285  -7.192  -9.579  1.00  0.00     0.000 A 
ENDBRANCH  97  98
ENDBRANCH  96  97
ENDBRANCH  93  96
ENDBRANCH  92  93
ENDBRANCH  85  92
ENDBRANCH  81  83
ENDBRANCH  80  81
ENDBRANCH  79  80
ENDBRANCH  78  79
ENDBRANCH  77  78
ENDBRANCH  76  77
ENDBRANCH   1  76
TORSDOF 28
