REMARK SMILES CC(=O)c1ccc(N2/C(=[NH+]/C(=O)CCC(=O)OCCOCCOCCOCCOC(=O)c3ccc(-c4c5nc(c(-c6cc(S(=O)(=O)[O-])ccc6F)c6ccc([nH]6)c(-c6cc(S(=O)(=O)[O-])ccc6F)c6nc(c(-c7cc(S(=O)(=O)[O-])ccc7F)c7ccc4[nH]7)C=C6)C=C5)cc3)S[C@H]3CS(=O)(=O)C[C@@H]32)cc1
REMARK SMILES IDX 22 1 21 2 20 3 19 4 18 5 17 6 15 7 16 8 14 9 13 10 11 11
REMARK SMILES IDX 8 12 9 13 102 14 10 15 95 16 96 17 101 18 97 20 98 21 12 22
REMARK SMILES IDX 99 23 100 24 7 25 4 26 5 27 104 28 6 29 103 30 2 31 1 32
REMARK SMILES IDX 3 33 23 34 24 35 25 36 26 37 27 38 28 39 29 40 30 41 31 42
REMARK SMILES IDX 32 43 33 44 94 45 34 46 93 47 35 48 36 49 37 50 87 51 38 52
REMARK SMILES IDX 92 53 86 54 88 55 39 56 91 57 85 58 84 59 40 61 72 62 52 63
REMARK SMILES IDX 71 64 53 65 56 66 70 67 89 68 54 69 55 70 69 72 90 73 57 74
REMARK SMILES IDX 41 75 42 76 50 77 43 78 49 79 51 80 48 81 44 82 45 83 46 84
REMARK SMILES IDX 47 85 73 86 74 87 82 88 75 89 81 90 83 91 80 92 76 93 77 94
REMARK SMILES IDX 78 95 79 96 58 97 59 98 67 99 60 100 66 101 68 102 65 103
REMARK SMILES IDX 61 104 62 105 63 106 64 107
REMARK H PARENT 10 19 88 60 56 71
REMARK Flexibility Score: inf
ROOT
ATOM      1  C   UNL     1       4.097   5.467  -5.736  1.00  0.00     0.188 C 
ENDROOT
BRANCH   1   2
ATOM      2  C   UNL     1       4.751   4.070  -5.608  1.00  0.00     0.188 C 
BRANCH   2   3
ATOM      3  O   UNL     1       4.127   3.178  -4.700  1.00  0.00    -0.376 OA
BRANCH   3   4
ATOM      4  C   UNL     1       4.868   2.708  -3.587  1.00  0.00     0.202 C 
BRANCH   4   5
ATOM      5  C   UNL     1       5.162   3.780  -2.558  1.00  0.00     0.261 C 
BRANCH   5   6
ATOM      6  O   UNL     1       5.836   4.912  -3.093  1.00  0.00    -0.463 OA
BRANCH   6   7
ATOM      7  C   UNL     1       7.170   4.917  -3.166  1.00  0.00     0.306 C 
ATOM      8  O   UNL     1       7.887   3.947  -2.970  1.00  0.00    -0.252 OA
BRANCH   7   9
ATOM      9  C   UNL     1       7.677   6.304  -3.464  1.00  0.00     0.135 C 
BRANCH   9  10
ATOM     10  C   UNL     1       6.702   7.289  -4.093  1.00  0.00     0.139 C 
BRANCH  10  11
ATOM     11  C   UNL     1       5.570   7.912  -3.255  1.00  0.00     0.308 C 
ATOM     12  N   UNL     1       2.691   6.904  -1.094  1.00  0.00    -0.217 N 
ATOM     13  C   UNL     1       3.597   7.526  -2.005  1.00  0.00     0.319 C 
ATOM     14  C   UNL     1       1.803   7.878  -0.434  1.00  0.00     0.212 C 
ATOM     15  N   UNL     1       4.676   7.083  -2.576  1.00  0.00    -0.204 N 
ATOM     16  S   UNL     1       3.084   9.264  -2.115  1.00  0.00    -0.029 SA
ATOM     17  C   UNL     1       2.625   9.166  -0.400  1.00  0.00     0.120 C 
ATOM     18  C   UNL     1       1.475   7.664   1.021  1.00  0.00     0.188 C 
ATOM     19  H   UNL     1       4.871   6.119  -2.530  1.00  0.00     0.316 HD
ATOM     20  C   UNL     1       1.797  10.234   0.236  1.00  0.00     0.156 C 
ATOM     21  S   UNL     1       0.956   9.315   1.504  1.00  0.00     0.155 S 
ATOM     22  O   UNL     1       5.569   9.146  -3.242  1.00  0.00    -0.247 OA
ATOM     23  O   UNL     1       1.585   9.636   2.772  1.00  0.00    -0.229 OA
ATOM     24  O   UNL     1      -0.445   9.464   1.220  1.00  0.00    -0.229 OA
BRANCH  12  25
ATOM     25  C   UNL     1       2.219   5.573  -1.036  1.00  0.00     0.128 A 
ATOM     26  C   UNL     1       1.172   2.907  -0.841  1.00  0.00     0.018 A 
ATOM     27  C   UNL     1       0.474   3.907  -1.520  1.00  0.00     0.016 A 
ATOM     28  C   UNL     1       2.353   3.262  -0.185  1.00  0.00     0.016 A 
ATOM     29  C   UNL     1       0.986   5.215  -1.602  1.00  0.00     0.052 A 
ATOM     30  C   UNL     1       2.856   4.586  -0.270  1.00  0.00     0.052 A 
BRANCH  26  31
ATOM     31  C   UNL     1       0.630   1.512  -0.908  1.00  0.00     0.159 C 
ATOM     32  C   UNL     1       1.119   0.465   0.057  1.00  0.00     0.093 C 
ATOM     33  O   UNL     1      -0.202   1.231  -1.771  1.00  0.00    -0.295 OA
ENDBRANCH  26  31
ENDBRANCH  12  25
ENDBRANCH  10  11
ENDBRANCH   9  10
ENDBRANCH   7   9
ENDBRANCH   6   7
ENDBRANCH   5   6
ENDBRANCH   4   5
ENDBRANCH   3   4
ENDBRANCH   2   3
ENDBRANCH   1   2
BRANCH   1  34
ATOM     34  O   UNL     1       2.763   5.795  -5.393  1.00  0.00    -0.377 OA
BRANCH  34  35
ATOM     35  C   UNL     1       2.013   4.865  -4.643  1.00  0.00     0.188 C 
BRANCH  35  36
ATOM     36  C   UNL     1       1.484   3.693  -5.473  1.00  0.00     0.188 C 
BRANCH  36  37
ATOM     37  O   UNL     1       2.137   3.599  -6.734  1.00  0.00    -0.376 OA
BRANCH  37  38
ATOM     38  C   UNL     1       1.479   4.218  -7.833  1.00  0.00     0.202 C 
BRANCH  38  39
ATOM     39  C   UNL     1       1.137   5.725  -7.788  1.00  0.00     0.261 C 
BRANCH  39  40
ATOM     40  O   UNL     1       0.350   6.211  -6.680  1.00  0.00    -0.460 OA
BRANCH  40  41
ATOM     41  C   UNL     1      -0.888   5.704  -6.513  1.00  0.00     0.338 C 
ATOM     42  O   UNL     1      -1.433   4.892  -7.239  1.00  0.00    -0.246 OA
BRANCH  41  43
ATOM     43  C   UNL     1      -1.421   6.140  -5.192  1.00  0.00     0.060 A 
ATOM     44  C   UNL     1      -1.922   5.165  -4.322  1.00  0.00     0.016 A 
ATOM     45  C   UNL     1      -1.462   7.486  -4.812  1.00  0.00     0.016 A 
ATOM     46  C   UNL     1      -2.511   5.529  -3.102  1.00  0.00     0.010 A 
ATOM     47  C   UNL     1      -2.061   7.850  -3.591  1.00  0.00     0.010 A 
ATOM     48  C   UNL     1      -2.619   6.877  -2.735  1.00  0.00    -0.014 A 
BRANCH  48  49
ATOM     49  C   UNL     1      -3.508   7.270  -1.597  1.00  0.00     0.031 A 
ATOM     50  C   UNL     1      -4.914   7.707  -1.919  1.00  0.00     0.074 A 
ATOM     51  C   UNL     1      -3.162   7.152  -0.296  1.00  0.00     0.049 A 
ATOM     52  N   UNL     1      -5.871   8.076  -1.108  1.00  0.00    -0.248 NA
ATOM     53  C   UNL     1      -5.309   7.662  -3.336  1.00  0.00     0.031 C 
ATOM     54  C   UNL     1      -1.938   6.538   0.204  1.00  0.00     0.029 A 
ATOM     55  N   UNL     1      -3.811   7.547   0.854  1.00  0.00    -0.354 N 
ATOM     56  C   UNL     1      -6.998   8.238  -1.902  1.00  0.00     0.074 A 
ATOM     57  C   UNL     1      -6.583   8.017  -3.271  1.00  0.00     0.031 C 
ATOM     58  C   UNL     1      -1.882   6.675   1.542  1.00  0.00     0.029 A 
ATOM     59  C   UNL     1      -3.042   7.422   1.994  1.00  0.00     0.049 A 
ATOM     60  H   UNL     1      -4.735   7.887   0.862  1.00  0.00     0.167 HD
ATOM     61  C   UNL     1      -8.271   8.499  -1.517  1.00  0.00     0.034 A 
ATOM     62  C   UNL     1      -3.229   7.881   3.249  1.00  0.00     0.034 A 
ATOM     63  C   UNL     1      -8.665   8.758  -0.153  1.00  0.00     0.049 A 
ATOM     64  C   UNL     1      -4.555   8.476   3.599  1.00  0.00     0.074 A 
ATOM     65  C   UNL     1      -9.930   9.029   0.340  1.00  0.00     0.029 A 
ATOM     66  N   UNL     1      -7.801   8.812   0.933  1.00  0.00    -0.354 N 
ATOM     67  N   UNL     1      -5.608   8.638   2.836  1.00  0.00    -0.248 NA
ATOM     68  C   UNL     1      -4.743   8.866   5.000  1.00  0.00     0.031 C 
ATOM     69  C   UNL     1      -9.817   9.341   1.699  1.00  0.00     0.029 A 
ATOM     70  C   UNL     1      -8.497   9.172   2.080  1.00  0.00     0.049 A 
ATOM     71  H   UNL     1      -6.835   8.623   0.896  1.00  0.00     0.167 HD
ATOM     72  C   UNL     1      -6.613   9.078   3.686  1.00  0.00     0.074 A 
ATOM     73  C   UNL     1      -6.028   9.182   5.009  1.00  0.00     0.031 C 
ATOM     74  C   UNL     1      -7.915   9.319   3.394  1.00  0.00     0.034 A 
BRANCH  61  75
ATOM     75  C   UNL     1      -9.314   8.563  -2.605  1.00  0.00     0.023 A 
ATOM     76  C   UNL     1      -9.641   7.438  -3.384  1.00  0.00     0.031 A 
ATOM     77  C   UNL     1      -9.964   9.775  -2.890  1.00  0.00     0.131 A 
ATOM     78  C   UNL     1     -10.538   7.567  -4.455  1.00  0.00     0.055 A 
ATOM     79  C   UNL     1     -10.917   9.877  -3.904  1.00  0.00     0.041 A 
ATOM     80  F   UNL     1      -9.671  10.887  -2.198  1.00  0.00    -0.206 F 
ATOM     81  C   UNL     1     -11.198   8.772  -4.704  1.00  0.00     0.022 A 
BRANCH  78  82
ATOM     82  S   UNL     1     -10.713   6.182  -5.615  1.00  0.00     0.124 S 
ATOM     83  O   UNL     1      -9.339   6.013  -6.081  1.00  0.00    -0.237 OA
ATOM     84  O   UNL     1     -11.235   5.120  -4.763  1.00  0.00    -0.237 OA
ATOM     85  O   UNL     1     -11.645   6.693  -6.618  1.00  0.00    -0.744 OA
ENDBRANCH  78  82
ENDBRANCH  61  75
BRANCH  62  86
ATOM     86  C   UNL     1      -2.145   7.876   4.275  1.00  0.00     0.023 A 
ATOM     87  C   UNL     1      -2.072   6.926   5.302  1.00  0.00     0.031 A 
ATOM     88  C   UNL     1      -1.251   8.959   4.326  1.00  0.00     0.131 A 
ATOM     89  C   UNL     1      -1.103   7.070   6.315  1.00  0.00     0.055 A 
ATOM     90  C   UNL     1      -0.232   9.044   5.275  1.00  0.00     0.041 A 
ATOM     91  F   UNL     1      -1.411  10.002   3.500  1.00  0.00    -0.206 F 
ATOM     92  C   UNL     1      -0.148   8.090   6.278  1.00  0.00     0.022 A 
BRANCH  89  93
ATOM     93  S   UNL     1      -1.186   5.995   7.774  1.00  0.00     0.124 S 
ATOM     94  O   UNL     1      -2.458   6.397   8.362  1.00  0.00    -0.237 OA
ATOM     95  O   UNL     1      -1.144   4.665   7.176  1.00  0.00    -0.237 OA
ATOM     96  O   UNL     1       0.002   6.365   8.541  1.00  0.00    -0.744 OA
ENDBRANCH  89  93
ENDBRANCH  62  86
BRANCH  74  97
ATOM     97  C   UNL     1      -8.807   9.661   4.558  1.00  0.00     0.023 A 
ATOM     98  C   UNL     1      -8.613  10.824   5.321  1.00  0.00     0.031 A 
ATOM     99  C   UNL     1      -9.816   8.766   4.956  1.00  0.00     0.131 A 
ATOM    100  C   UNL     1      -9.357  11.018   6.493  1.00  0.00     0.055 A 
ATOM    101  C   UNL     1     -10.613   9.010   6.074  1.00  0.00     0.041 A 
ATOM    102  F   UNL     1     -10.033   7.630   4.275  1.00  0.00    -0.206 F 
ATOM    103  C   UNL     1     -10.372  10.131   6.862  1.00  0.00     0.022 A 
BRANCH 100 104
ATOM    104  S   UNL     1      -8.878  12.367   7.606  1.00  0.00     0.124 S 
ATOM    105  O   UNL     1      -7.501  12.009   7.934  1.00  0.00    -0.237 OA
ATOM    106  O   UNL     1      -9.047  13.545   6.761  1.00  0.00    -0.237 OA
ATOM    107  O   UNL     1      -9.829  12.254   8.710  1.00  0.00    -0.744 OA
ENDBRANCH 100 104
ENDBRANCH  74  97
ENDBRANCH  48  49
ENDBRANCH  41  43
ENDBRANCH  40  41
ENDBRANCH  39  40
ENDBRANCH  38  39
ENDBRANCH  37  38
ENDBRANCH  36  37
ENDBRANCH  35  36
ENDBRANCH  34  35
ENDBRANCH   1  34
TORSDOF 27
