REMARK SMILES Cc1cc(C)c2c(=O)n(CCCC(=O)OCCOCCOCCOCCOC(=O)c3ccc(-c4c5nc(c(-c6cc(S(=O)(=O)[O-])ccc6F)c6ccc([nH]6)c(-c6cc(S(=O)(=O)[O-])ccc6F)c6nc(c(-c7cc(S(=O)(=O)[O-])ccc7F)c7ccc4[nH]7)C=C6)C=C5)cc3)sc2n1
REMARK SMILES IDX 21 1 20 2 19 3 18 4 17 5 16 6 15 7 13 8 14 9 12 10 11 11
REMARK SMILES IDX 10 12 9 13 1 14 2 15 3 16 95 17 4 18 94 19 5 20 6 21 93 22
REMARK SMILES IDX 7 23 8 24 22 25 23 26 24 27 25 28 26 29 27 30 28 31 29 32
REMARK SMILES IDX 30 33 31 34 92 35 32 36 91 37 33 38 34 39 35 40 85 41 36 42
REMARK SMILES IDX 90 43 84 44 86 45 37 46 89 47 83 48 82 49 38 51 70 52 50 53
REMARK SMILES IDX 69 54 51 55 54 56 68 57 87 58 52 59 53 60 67 62 88 63 55 64
REMARK SMILES IDX 39 65 40 66 48 67 41 68 47 69 49 70 46 71 42 72 43 73 44 74
REMARK SMILES IDX 45 75 71 76 72 77 80 78 73 79 79 80 81 81 78 82 74 83 75 84
REMARK SMILES IDX 76 85 77 86 56 87 57 88 65 89 58 90 64 91 66 92 63 93 59 94
REMARK SMILES IDX 60 95 61 96 62 97
REMARK H PARENT 86 50 54 61
REMARK Flexibility Score: inf
ROOT
ATOM      1  O   UNL     1       0.017   9.508   1.318  1.00  0.00    -0.377 OA
ENDROOT
BRANCH   1   2
ATOM      2  C   UNL     1       1.380   9.849   1.448  1.00  0.00     0.188 C 
BRANCH   2   3
ATOM      3  C   UNL     1       2.182  10.073   0.152  1.00  0.00     0.188 C 
BRANCH   3   4
ATOM      4  O   UNL     1       1.524  10.317  -1.078  1.00  0.00    -0.376 OA
BRANCH   4   5
ATOM      5  C   UNL     1       0.563   9.411  -1.592  1.00  0.00     0.202 C 
BRANCH   5   6
ATOM      6  C   UNL     1       0.618   7.898  -1.336  1.00  0.00     0.261 C 
BRANCH   6   7
ATOM      7  O   UNL     1       1.120   7.497  -0.056  1.00  0.00    -0.463 OA
BRANCH   7   8
ATOM      8  C   UNL     1       2.274   6.801  -0.034  1.00  0.00     0.305 C 
ATOM      9  O   UNL     1       2.942   6.538  -1.029  1.00  0.00    -0.252 OA
BRANCH   8  10
ATOM     10  C   UNL     1       2.748   6.420   1.359  1.00  0.00     0.124 C 
BRANCH  10  11
ATOM     11  C   UNL     1       1.892   6.505   2.637  1.00  0.00     0.035 C 
BRANCH  11  12
ATOM     12  C   UNL     1       0.362   6.407   2.574  1.00  0.00     0.139 C 
BRANCH  12  13
ATOM     13  N   UNL     1      -0.103   5.095   2.188  1.00  0.00    -0.262 N 
ATOM     14  C   UNL     1       0.836  -0.459   0.043  1.00  0.00     0.067 C 
ATOM     15  C   UNL     1       0.279   0.654   0.874  1.00  0.00     0.039 A 
ATOM     16  C   UNL     1      -0.187   0.435   2.180  1.00  0.00     0.027 A 
ATOM     17  N   UNL     1       0.333   1.879   0.310  1.00  0.00    -0.241 NA
ATOM     18  C   UNL     1      -0.566   1.522   2.983  1.00  0.00    -0.033 A 
ATOM     19  C   UNL     1      -0.019   2.896   1.108  1.00  0.00     0.146 A 
ATOM     20  C   UNL     1      -1.113   1.329   4.362  1.00  0.00     0.045 C 
ATOM     21  C   UNL     1      -0.397   2.782   2.433  1.00  0.00     0.081 A 
ATOM     22  S   UNL     1       0.014   4.570   0.569  1.00  0.00    -0.035 S 
ATOM     23  C   UNL     1      -0.419   4.099   3.101  1.00  0.00     0.270 A 
ATOM     24  O   UNL     1      -0.573   4.231   4.305  1.00  0.00    -0.268 OA
ENDBRANCH  12  13
ENDBRANCH  11  12
ENDBRANCH  10  11
ENDBRANCH   8  10
ENDBRANCH   7   8
ENDBRANCH   6   7
ENDBRANCH   5   6
ENDBRANCH   4   5
ENDBRANCH   3   4
ENDBRANCH   2   3
ENDBRANCH   1   2
BRANCH   1  25
ATOM     25  C   UNL     1      -0.946  10.537   1.132  1.00  0.00     0.188 C 
BRANCH  25  26
ATOM     26  C   UNL     1      -0.526  11.951   0.667  1.00  0.00     0.188 C 
BRANCH  26  27
ATOM     27  O   UNL     1       0.799  12.346   1.001  1.00  0.00    -0.376 OA
BRANCH  27  28
ATOM     28  C   UNL     1       1.041  13.220   2.094  1.00  0.00     0.202 C 
BRANCH  28  29
ATOM     29  C   UNL     1       0.752  12.693   3.502  1.00  0.00     0.261 C 
BRANCH  29  30
ATOM     30  O   UNL     1      -0.517  12.081   3.645  1.00  0.00    -0.460 OA
BRANCH  30  31
ATOM     31  C   UNL     1      -1.551  12.912   3.443  1.00  0.00     0.338 C 
ATOM     32  O   UNL     1      -1.511  14.036   2.942  1.00  0.00    -0.246 OA
BRANCH  31  33
ATOM     33  C   UNL     1      -2.752  12.335   4.023  1.00  0.00     0.060 A 
ATOM     34  C   UNL     1      -3.934  13.030   3.776  1.00  0.00     0.016 A 
ATOM     35  C   UNL     1      -2.607  11.420   5.077  1.00  0.00     0.016 A 
ATOM     36  C   UNL     1      -4.877  13.034   4.769  1.00  0.00     0.010 A 
ATOM     37  C   UNL     1      -3.546  11.437   6.073  1.00  0.00     0.010 A 
ATOM     38  C   UNL     1      -4.609  12.325   5.946  1.00  0.00    -0.014 A 
BRANCH  38  39
ATOM     39  C   UNL     1      -5.553  12.456   7.027  1.00  0.00     0.031 A 
ATOM     40  C   UNL     1      -6.786  11.709   6.741  1.00  0.00     0.074 A 
ATOM     41  C   UNL     1      -5.295  13.149   8.150  1.00  0.00     0.049 A 
ATOM     42  N   UNL     1      -7.899  12.200   6.317  1.00  0.00    -0.248 NA
ATOM     43  C   UNL     1      -6.702  10.242   6.661  1.00  0.00     0.031 C 
ATOM     44  C   UNL     1      -4.019  13.725   8.585  1.00  0.00     0.029 A 
ATOM     45  N   UNL     1      -6.125  13.417   9.191  1.00  0.00    -0.354 N 
ATOM     46  C   UNL     1      -8.746  11.111   6.199  1.00  0.00     0.074 A 
ATOM     47  C   UNL     1      -7.905   9.945   6.166  1.00  0.00     0.031 C 
ATOM     48  C   UNL     1      -4.111  14.072   9.891  1.00  0.00     0.029 A 
ATOM     49  C   UNL     1      -5.482  13.876  10.336  1.00  0.00     0.049 A 
ATOM     50  H   UNL     1      -7.101  13.296   9.140  1.00  0.00     0.167 HD
ATOM     51  C   UNL     1     -10.067  11.243   6.484  1.00  0.00     0.034 A 
ATOM     52  C   UNL     1      -6.051  14.036  11.560  1.00  0.00     0.034 A 
ATOM     53  C   UNL     1     -10.445  12.634   6.546  1.00  0.00     0.049 A 
ATOM     54  C   UNL     1      -7.497  14.259  11.312  1.00  0.00     0.074 A 
ATOM     55  C   UNL     1     -10.623  13.656   5.639  1.00  0.00     0.029 A 
ATOM     56  N   UNL     1     -10.272  13.212   7.781  1.00  0.00    -0.354 N 
ATOM     57  N   UNL     1      -7.957  15.293  10.659  1.00  0.00    -0.248 NA
ATOM     58  C   UNL     1      -8.427  13.143  11.440  1.00  0.00     0.031 C 
ATOM     59  C   UNL     1     -10.316  14.862   6.339  1.00  0.00     0.029 A 
ATOM     60  C   UNL     1     -10.007  14.552   7.663  1.00  0.00     0.049 A 
ATOM     61  H   UNL     1     -10.331  12.727   8.636  1.00  0.00     0.167 HD
ATOM     62  C   UNL     1      -9.032  14.803   9.943  1.00  0.00     0.074 A 
ATOM     63  C   UNL     1      -9.375  13.540  10.586  1.00  0.00     0.031 C 
ATOM     64  C   UNL     1      -9.345  15.308   8.715  1.00  0.00     0.034 A 
BRANCH  51  65
ATOM     65  C   UNL     1     -10.882  10.170   7.162  1.00  0.00     0.023 A 
ATOM     66  C   UNL     1     -12.272  10.357   7.255  1.00  0.00     0.031 A 
ATOM     67  C   UNL     1     -10.342   9.125   7.951  1.00  0.00     0.131 A 
ATOM     68  C   UNL     1     -13.047   9.553   8.109  1.00  0.00     0.055 A 
ATOM     69  C   UNL     1     -11.124   8.292   8.750  1.00  0.00     0.041 A 
ATOM     70  F   UNL     1      -9.025   8.920   8.077  1.00  0.00    -0.206 F 
ATOM     71  C   UNL     1     -12.484   8.514   8.847  1.00  0.00     0.022 A 
BRANCH  68  72
ATOM     72  S   UNL     1     -14.800   9.951   8.327  1.00  0.00     0.124 S 
ATOM     73  O   UNL     1     -14.737  11.295   8.888  1.00  0.00    -0.237 OA
ATOM     74  O   UNL     1     -15.306   9.844   6.962  1.00  0.00    -0.237 OA
ATOM     75  O   UNL     1     -15.270   8.914   9.243  1.00  0.00    -0.744 OA
ENDBRANCH  68  72
ENDBRANCH  51  65
BRANCH  52  76
ATOM     76  C   UNL     1      -5.511  13.637  12.893  1.00  0.00     0.023 A 
ATOM     77  C   UNL     1      -6.222  13.922  14.081  1.00  0.00     0.031 A 
ATOM     78  C   UNL     1      -4.444  12.720  13.004  1.00  0.00     0.131 A 
ATOM     79  C   UNL     1      -5.897  13.264  15.289  1.00  0.00     0.055 A 
ATOM     80  C   UNL     1      -4.125  12.075  14.203  1.00  0.00     0.041 A 
ATOM     81  F   UNL     1      -3.730  12.341  11.934  1.00  0.00    -0.206 F 
ATOM     82  C   UNL     1      -4.865  12.328  15.347  1.00  0.00     0.022 A 
BRANCH  79  83
ATOM     83  S   UNL     1      -6.917  13.507  16.780  1.00  0.00     0.124 S 
ATOM     84  O   UNL     1      -6.363  14.740  17.328  1.00  0.00    -0.237 OA
ATOM     85  O   UNL     1      -8.267  13.590  16.235  1.00  0.00    -0.237 OA
ATOM     86  O   UNL     1      -6.649  12.304  17.569  1.00  0.00    -0.744 OA
ENDBRANCH  79  83
ENDBRANCH  52  76
BRANCH  64  87
ATOM     87  C   UNL     1      -8.887  16.711   8.396  1.00  0.00     0.023 A 
ATOM     88  C   UNL     1      -7.547  17.128   8.231  1.00  0.00     0.031 A 
ATOM     89  C   UNL     1      -9.902  17.658   8.175  1.00  0.00     0.131 A 
ATOM     90  C   UNL     1      -7.273  18.460   7.853  1.00  0.00     0.055 A 
ATOM     91  C   UNL     1      -9.628  18.964   7.781  1.00  0.00     0.041 A 
ATOM     92  F   UNL     1     -11.194  17.311   8.309  1.00  0.00    -0.206 F 
ATOM     93  C   UNL     1      -8.310  19.371   7.619  1.00  0.00     0.022 A 
BRANCH  90  94
ATOM     94  S   UNL     1      -5.555  19.035   7.644  1.00  0.00     0.124 S 
ATOM     95  O   UNL     1      -4.951  18.763   8.942  1.00  0.00    -0.237 OA
ATOM     96  O   UNL     1      -5.079  18.220   6.530  1.00  0.00    -0.237 OA
ATOM     97  O   UNL     1      -5.706  20.458   7.330  1.00  0.00    -0.744 OA
ENDBRANCH  90  94
ENDBRANCH  64  87
ENDBRANCH  38  39
ENDBRANCH  31  33
ENDBRANCH  30  31
ENDBRANCH  29  30
ENDBRANCH  28  29
ENDBRANCH  27  28
ENDBRANCH  26  27
ENDBRANCH  25  26
ENDBRANCH   1  25
TORSDOF 26
