REMARK SMILES O=C(CCCN1C(=O)c2ccc3c4c(ccc(c24)C1=O)C(=O)NC3=O)OCCOCCOCCOCCOC(=O)c1ccc(-c2c3nc(c(-c4cc(S(=O)(=O)[O-])ccc4F)c4ccc([nH]4)c(-c4cc(S(=O)(=O)[O-])ccc4F)c4nc(c(-c5cc(S(=O)(=O)[O-])ccc5F)c5ccc2[nH]5)C=C4)C=C3)cc1
REMARK SMILES IDX 32 1 31 2 30 3 29 4 28 5 27 6 26 7 2 8 1 9 3 10 4 11 5 12
REMARK SMILES IDX 6 13 19 14 7 15 20 16 17 17 9 18 8 19 16 20 18 21 10 22
REMARK SMILES IDX 15 23 13 24 11 25 14 26 12 27 21 28 24 29 23 30 22 31 25 32
REMARK SMILES IDX 33 34 34 35 35 36 36 37 37 38 38 39 39 40 40 41 41 42 42 43
REMARK SMILES IDX 103 44 43 45 102 46 44 47 45 48 46 49 96 50 47 51 101 52
REMARK SMILES IDX 95 53 97 54 48 55 100 56 94 57 93 58 49 60 81 61 61 62 80 63
REMARK SMILES IDX 62 64 65 65 79 66 98 67 63 68 64 69 78 71 99 72 66 73 50 74
REMARK SMILES IDX 51 75 59 76 52 77 58 78 60 79 57 80 53 81 54 82 55 83 56 84
REMARK SMILES IDX 82 85 83 86 91 87 84 88 90 89 92 90 89 91 85 92 86 93 87 94
REMARK SMILES IDX 88 95 67 96 68 97 76 98 69 99 75 100 77 101 74 102 70 103
REMARK SMILES IDX 71 104 72 105 73 106
REMARK H PARENT 23 33 97 59 65 70
REMARK Flexibility Score: inf
ROOT
ATOM      1  O   UNL     1       2.022  -2.921   2.044  1.00  0.00    -0.377 OA
ENDROOT
BRANCH   1   2
ATOM      2  C   UNL     1       1.590  -1.819   1.269  1.00  0.00     0.188 C 
BRANCH   2   3
ATOM      3  C   UNL     1       2.498  -1.325   0.146  1.00  0.00     0.188 C 
BRANCH   3   4
ATOM      4  O   UNL     1       3.709  -0.624   0.483  1.00  0.00    -0.376 OA
BRANCH   4   5
ATOM      5  C   UNL     1       3.717   0.221   1.632  1.00  0.00     0.202 C 
BRANCH   5   6
ATOM      6  C   UNL     1       3.816   1.735   1.389  1.00  0.00     0.261 C 
BRANCH   6   7
ATOM      7  O   UNL     1       3.726   2.148   0.031  1.00  0.00    -0.463 OA
BRANCH   7   8
ATOM      8  C   UNL     1       2.654   1.745  -0.674  1.00  0.00     0.305 C 
ATOM      9  O   UNL     1       1.527   1.610  -0.214  1.00  0.00    -0.252 OA
BRANCH   8  10
ATOM     10  C   UNL     1       3.084   1.283  -2.051  1.00  0.00     0.124 C 
BRANCH  10  11
ATOM     11  C   UNL     1       4.404   1.832  -2.598  1.00  0.00     0.034 C 
BRANCH  11  12
ATOM     12  C   UNL     1       5.724   1.655  -1.817  1.00  0.00     0.130 C 
BRANCH  12  13
ATOM     13  N   UNL     1       6.282   0.355  -1.425  1.00  0.00    -0.274 N 
ATOM     14  C   UNL     1       7.393   0.458  -0.570  1.00  0.00     0.261 C 
ATOM     15  C   UNL     1       5.889  -0.843  -2.013  1.00  0.00     0.261 C 
ATOM     16  O   UNL     1       7.811   1.523  -0.118  1.00  0.00    -0.269 OA
ATOM     17  C   UNL     1       8.132  -0.778  -0.231  1.00  0.00     0.049 A 
ATOM     18  C   UNL     1       6.536  -2.090  -1.510  1.00  0.00     0.049 A 
ATOM     19  O   UNL     1       5.101  -0.936  -2.950  1.00  0.00    -0.269 OA
ATOM     20  C   UNL     1       9.303  -0.698   0.540  1.00  0.00     0.015 A 
ATOM     21  C   UNL     1       7.654  -2.010  -0.673  1.00  0.00     0.009 A 
ATOM     22  C   UNL     1       6.052  -3.343  -1.911  1.00  0.00     0.015 A 
ATOM     23  C   UNL     1       9.994  -1.855   0.891  1.00  0.00     0.015 A 
ATOM     24  C   UNL     1       8.328  -3.197  -0.274  1.00  0.00     0.009 A 
ATOM     25  C   UNL     1       6.678  -4.515  -1.477  1.00  0.00     0.015 A 
ATOM     26  C   UNL     1       9.497  -3.100   0.499  1.00  0.00     0.048 A 
ATOM     27  C   UNL     1       7.818  -4.441  -0.672  1.00  0.00     0.048 A 
ATOM     28  C   UNL     1      10.217  -4.334   0.892  1.00  0.00     0.258 C 
ATOM     29  C   UNL     1       8.504  -5.684  -0.242  1.00  0.00     0.258 C 
ATOM     30  N   UNL     1       9.614  -5.521   0.552  1.00  0.00    -0.288 N 
ATOM     31  O   UNL     1      11.301  -4.286   1.458  1.00  0.00    -0.269 OA
ATOM     32  O   UNL     1       8.128  -6.785  -0.621  1.00  0.00    -0.269 OA
ATOM     33  H   UNL     1      10.020  -6.341   0.916  1.00  0.00     0.173 HD
ENDBRANCH  12  13
ENDBRANCH  11  12
ENDBRANCH  10  11
ENDBRANCH   8  10
ENDBRANCH   7   8
ENDBRANCH   6   7
ENDBRANCH   5   6
ENDBRANCH   4   5
ENDBRANCH   3   4
ENDBRANCH   2   3
ENDBRANCH   1   2
BRANCH   1  34
ATOM     34  C   UNL     1       3.398  -3.078   2.324  1.00  0.00     0.188 C 
BRANCH  34  35
ATOM     35  C   UNL     1       4.257  -3.670   1.192  1.00  0.00     0.188 C 
BRANCH  35  36
ATOM     36  O   UNL     1       3.660  -4.453   0.161  1.00  0.00    -0.376 OA
BRANCH  36  37
ATOM     37  C   UNL     1       2.566  -5.312   0.455  1.00  0.00     0.202 C 
BRANCH  37  38
ATOM     38  C   UNL     1       2.860  -6.550   1.302  1.00  0.00     0.261 C 
BRANCH  38  39
ATOM     39  O   UNL     1       3.279  -6.210   2.630  1.00  0.00    -0.460 OA
BRANCH  39  40
ATOM     40  C   UNL     1       4.598  -6.388   2.882  1.00  0.00     0.338 C 
ATOM     41  O   UNL     1       5.426  -6.880   2.131  1.00  0.00    -0.246 OA
BRANCH  40  42
ATOM     42  C   UNL     1       4.963  -5.673   4.125  1.00  0.00     0.060 A 
ATOM     43  C   UNL     1       6.199  -5.010   4.148  1.00  0.00     0.016 A 
ATOM     44  C   UNL     1       4.106  -5.606   5.229  1.00  0.00     0.016 A 
ATOM     45  C   UNL     1       6.610  -4.331   5.292  1.00  0.00     0.010 A 
ATOM     46  C   UNL     1       4.521  -4.933   6.380  1.00  0.00     0.010 A 
ATOM     47  C   UNL     1       5.794  -4.336   6.430  1.00  0.00    -0.014 A 
BRANCH  47  48
ATOM     48  C   UNL     1       6.386  -3.985   7.742  1.00  0.00     0.031 A 
ATOM     49  C   UNL     1       6.923  -5.116   8.578  1.00  0.00     0.074 A 
ATOM     50  C   UNL     1       6.471  -2.713   8.167  1.00  0.00     0.049 A 
ATOM     51  N   UNL     1       7.433  -5.096   9.780  1.00  0.00    -0.248 NA
ATOM     52  C   UNL     1       6.866  -6.455   7.968  1.00  0.00     0.031 C 
ATOM     53  C   UNL     1       6.033  -1.537   7.417  1.00  0.00     0.029 A 
ATOM     54  N   UNL     1       6.954  -2.201   9.345  1.00  0.00    -0.354 N 
ATOM     55  C   UNL     1       7.752  -6.418  10.073  1.00  0.00     0.074 A 
ATOM     56  C   UNL     1       7.338  -7.216   8.940  1.00  0.00     0.031 C 
ATOM     57  C   UNL     1       6.254  -0.439   8.163  1.00  0.00     0.029 A 
ATOM     58  C   UNL     1       6.814  -0.838   9.454  1.00  0.00     0.049 A 
ATOM     59  H   UNL     1       7.362  -2.759  10.046  1.00  0.00     0.167 HD
ATOM     60  C   UNL     1       8.344  -6.921  11.183  1.00  0.00     0.034 A 
ATOM     61  C   UNL     1       7.084  -0.018  10.491  1.00  0.00     0.034 A 
ATOM     62  C   UNL     1       8.730  -6.112  12.310  1.00  0.00     0.049 A 
ATOM     63  C   UNL     1       7.661  -0.611  11.757  1.00  0.00     0.074 A 
ATOM     64  C   UNL     1       9.332  -6.508  13.490  1.00  0.00     0.029 A 
ATOM     65  N   UNL     1       8.538  -4.738  12.401  1.00  0.00    -0.354 N 
ATOM     66  N   UNL     1       7.960  -1.863  12.025  1.00  0.00    -0.248 NA
ATOM     67  C   UNL     1       7.944   0.321  12.857  1.00  0.00     0.031 C 
ATOM     68  C   UNL     1       9.438  -5.388  14.322  1.00  0.00     0.029 A 
ATOM     69  C   UNL     1       8.981  -4.277  13.630  1.00  0.00     0.049 A 
ATOM     70  H   UNL     1       8.145  -4.176  11.695  1.00  0.00     0.167 HD
ATOM     71  C   UNL     1       8.498  -1.859  13.311  1.00  0.00     0.074 A 
ATOM     72  C   UNL     1       8.493  -0.481  13.757  1.00  0.00     0.031 C 
ATOM     73  C   UNL     1       8.961  -2.897  14.056  1.00  0.00     0.034 A 
BRANCH  60  74
ATOM     74  C   UNL     1       8.541  -8.415  11.240  1.00  0.00     0.023 A 
ATOM     75  C   UNL     1       9.378  -9.088  10.331  1.00  0.00     0.031 A 
ATOM     76  C   UNL     1       7.838  -9.186  12.182  1.00  0.00     0.131 A 
ATOM     77  C   UNL     1       9.431 -10.490  10.334  1.00  0.00     0.055 A 
ATOM     78  C   UNL     1       7.960 -10.576  12.234  1.00  0.00     0.041 A 
ATOM     79  F   UNL     1       7.002  -8.603  13.055  1.00  0.00    -0.206 F 
ATOM     80  C   UNL     1       8.748 -11.237  11.296  1.00  0.00     0.022 A 
BRANCH  77  81
ATOM     81  S   UNL     1      10.280 -11.328   8.968  1.00  0.00     0.124 S 
ATOM     82  O   UNL     1       9.534 -10.838   7.812  1.00  0.00    -0.237 OA
ATOM     83  O   UNL     1      11.648 -10.840   9.101  1.00  0.00    -0.237 OA
ATOM     84  O   UNL     1      10.092 -12.746   9.267  1.00  0.00    -0.744 OA
ENDBRANCH  77  81
ENDBRANCH  60  74
BRANCH  61  85
ATOM     85  C   UNL     1       6.778   1.441  10.408  1.00  0.00     0.023 A 
ATOM     86  C   UNL     1       7.793   2.406  10.498  1.00  0.00     0.031 A 
ATOM     87  C   UNL     1       5.449   1.892  10.305  1.00  0.00     0.131 A 
ATOM     88  C   UNL     1       7.462   3.770  10.533  1.00  0.00     0.055 A 
ATOM     89  C   UNL     1       5.129   3.251  10.286  1.00  0.00     0.041 A 
ATOM     90  F   UNL     1       4.438   1.014  10.217  1.00  0.00    -0.206 F 
ATOM     91  C   UNL     1       6.139   4.200  10.414  1.00  0.00     0.022 A 
BRANCH  88  92
ATOM     92  S   UNL     1       8.784   4.979  10.824  1.00  0.00     0.124 S 
ATOM     93  O   UNL     1       9.312   4.537  12.110  1.00  0.00    -0.237 OA
ATOM     94  O   UNL     1       9.647   4.766   9.668  1.00  0.00    -0.237 OA
ATOM     95  O   UNL     1       8.077   6.258  10.845  1.00  0.00    -0.744 OA
ENDBRANCH  88  92
ENDBRANCH  61  85
BRANCH  73  96
ATOM     96  C   UNL     1       9.549  -2.568  15.407  1.00  0.00     0.023 A 
ATOM     97  C   UNL     1       8.763  -2.064  16.458  1.00  0.00     0.031 A 
ATOM     98  C   UNL     1      10.923  -2.761  15.643  1.00  0.00     0.131 A 
ATOM     99  C   UNL     1       9.365  -1.718  17.677  1.00  0.00     0.055 A 
ATOM    100  C   UNL     1      11.504  -2.476  16.878  1.00  0.00     0.041 A 
ATOM    101  F   UNL     1      11.722  -3.240  14.675  1.00  0.00    -0.206 F 
ATOM    102  C   UNL     1      10.727  -1.938  17.900  1.00  0.00     0.022 A 
BRANCH  99 103
ATOM    103  S   UNL     1       8.363  -0.883  18.937  1.00  0.00     0.124 S 
ATOM    104  O   UNL     1       7.891   0.295  18.217  1.00  0.00    -0.237 OA
ATOM    105  O   UNL     1       7.352  -1.888  19.247  1.00  0.00    -0.237 OA
ATOM    106  O   UNL     1       9.318  -0.613  20.011  1.00  0.00    -0.744 OA
ENDBRANCH  99 103
ENDBRANCH  73  96
ENDBRANCH  47  48
ENDBRANCH  40  42
ENDBRANCH  39  40
ENDBRANCH  38  39
ENDBRANCH  37  38
ENDBRANCH  36  37
ENDBRANCH  35  36
ENDBRANCH  34  35
ENDBRANCH   1  34
TORSDOF 26
