REMARK SMILES CC1=C(C)C[C@@H](C(=O)OCCOCCOCCOCCOC(=O)c2ccc(-c3c4nc(c(-c5cc(S(=O)(=O)[O-])ccc5F)c5ccc([nH]5)c(-c5cc(S(=O)(=O)[O-])ccc5F)c5nc(c(-c6cc(S(=O)(=O)[O-])ccc6F)c6ccc3[nH]6)C=C5)C=C4)cc2)[C@H](C(=O)NCc2cccnc2)C1
REMARK SMILES IDX 15 1 14 2 13 3 12 4 11 5 10 6 9 7 7 8 8 9 6 10 1 11 2 12
REMARK SMILES IDX 3 13 98 14 4 15 5 16 87 17 88 18 89 19 90 20 91 22 92 23
REMARK SMILES IDX 93 24 97 25 94 26 96 27 95 28 16 29 17 30 18 31 19 32 20 33
REMARK SMILES IDX 21 34 22 35 23 36 24 37 25 38 86 39 26 40 85 41 27 42 28 43
REMARK SMILES IDX 29 44 79 45 30 46 84 47 78 48 80 49 31 50 83 51 77 52 76 53
REMARK SMILES IDX 32 55 64 56 44 57 63 58 45 59 48 60 62 61 81 62 46 63 47 64
REMARK SMILES IDX 61 66 82 67 49 68 33 69 34 70 42 71 35 72 41 73 43 74 40 75
REMARK SMILES IDX 36 76 37 77 38 78 39 79 65 80 66 81 74 82 67 83 73 84 75 85
REMARK SMILES IDX 72 86 68 87 69 88 70 89 71 90 50 91 51 92 59 93 52 94 58 95
REMARK SMILES IDX 60 96 57 97 53 98 54 99 55 100 56 101
REMARK H PARENT 90 21 80 54 48 65
REMARK Flexibility Score: inf
ROOT
ATOM      1  O   UNL     1      -3.514  -3.366  -2.302  1.00  0.00    -0.377 OA
ENDROOT
BRANCH   1   2
ATOM      2  C   UNL     1      -2.873  -4.123  -3.306  1.00  0.00     0.188 C 
BRANCH   2   3
ATOM      3  C   UNL     1      -2.961  -5.645  -3.156  1.00  0.00     0.188 C 
BRANCH   3   4
ATOM      4  O   UNL     1      -3.676  -6.273  -2.103  1.00  0.00    -0.376 OA
BRANCH   4   5
ATOM      5  C   UNL     1      -3.904  -5.642  -0.852  1.00  0.00     0.202 C 
BRANCH   5   6
ATOM      6  C   UNL     1      -2.731  -5.209   0.045  1.00  0.00     0.261 C 
BRANCH   6   7
ATOM      7  O   UNL     1      -1.824  -4.214  -0.476  1.00  0.00    -0.463 OA
BRANCH   7   8
ATOM      8  C   UNL     1      -0.678  -4.698  -1.000  1.00  0.00     0.310 C 
ATOM      9  O   UNL     1      -0.408  -5.896  -1.076  1.00  0.00    -0.252 OA
BRANCH   8  10
ATOM     10  C   UNL     1       0.352  -3.650  -1.407  1.00  0.00     0.116 C 
ATOM     11  C   UNL     1       1.177   0.335   0.466  1.00  0.00     0.039 C 
ATOM     12  C   UNL     1       0.967  -1.029  -0.141  1.00  0.00    -0.074 C 
ATOM     13  C   UNL     1       1.483  -2.155   0.388  1.00  0.00    -0.073 C 
ATOM     14  C   UNL     1       0.147  -1.014  -1.397  1.00  0.00     0.045 C 
ATOM     15  C   UNL     1       2.304  -2.196   1.649  1.00  0.00     0.039 C 
ATOM     16  C   UNL     1       1.316  -3.514  -0.233  1.00  0.00     0.046 C 
ATOM     17  C   UNL     1      -0.108  -2.351  -2.093  1.00  0.00     0.097 C 
BRANCH  17  18
ATOM     18  C   UNL     1       0.376  -2.294  -3.556  1.00  0.00     0.224 C 
ATOM     19  O   UNL     1      -0.434  -2.291  -4.489  1.00  0.00    -0.275 OA
ATOM     20  N   UNL     1       1.690  -2.271  -3.906  1.00  0.00    -0.352 N 
ATOM     21  H   UNL     1       1.857  -2.385  -4.869  1.00  0.00     0.163 HD
BRANCH  20  22
ATOM     22  C   UNL     1       2.884  -2.107  -3.108  1.00  0.00     0.153 C 
BRANCH  22  23
ATOM     23  C   UNL     1       3.820  -3.284  -3.123  1.00  0.00    -0.010 A 
ATOM     24  C   UNL     1       5.171  -3.097  -2.806  1.00  0.00     0.009 A 
ATOM     25  C   UNL     1       3.406  -4.596  -3.330  1.00  0.00     0.116 A 
ATOM     26  C   UNL     1       6.024  -4.193  -2.695  1.00  0.00     0.020 A 
ATOM     27  N   UNL     1       4.210  -5.680  -3.223  1.00  0.00    -0.264 NA
ATOM     28  C   UNL     1       5.497  -5.455  -2.897  1.00  0.00     0.111 A 
ENDBRANCH  22  23
ENDBRANCH  20  22
ENDBRANCH  17  18
ENDBRANCH   8  10
ENDBRANCH   7   8
ENDBRANCH   6   7
ENDBRANCH   5   6
ENDBRANCH   4   5
ENDBRANCH   3   4
ENDBRANCH   2   3
ENDBRANCH   1   2
BRANCH   1  29
ATOM     29  C   UNL     1      -4.822  -2.874  -2.567  1.00  0.00     0.188 C 
BRANCH  29  30
ATOM     30  C   UNL     1      -5.712  -3.714  -3.494  1.00  0.00     0.188 C 
BRANCH  30  31
ATOM     31  O   UNL     1      -5.140  -3.921  -4.779  1.00  0.00    -0.376 OA
BRANCH  31  32
ATOM     32  C   UNL     1      -5.417  -2.984  -5.812  1.00  0.00     0.202 C 
BRANCH  32  33
ATOM     33  C   UNL     1      -5.024  -1.508  -5.611  1.00  0.00     0.261 C 
BRANCH  33  34
ATOM     34  O   UNL     1      -5.656  -0.787  -4.537  1.00  0.00    -0.460 OA
BRANCH  34  35
ATOM     35  C   UNL     1      -7.000  -0.836  -4.424  1.00  0.00     0.338 C 
ATOM     36  O   UNL     1      -7.778  -1.355  -5.198  1.00  0.00    -0.246 OA
BRANCH  35  37
ATOM     37  C   UNL     1      -7.364  -0.329  -3.081  1.00  0.00     0.060 A 
ATOM     38  C   UNL     1      -8.117  -1.155  -2.237  1.00  0.00     0.016 A 
ATOM     39  C   UNL     1      -7.001   0.956  -2.668  1.00  0.00     0.016 A 
ATOM     40  C   UNL     1      -8.561  -0.676  -1.005  1.00  0.00     0.010 A 
ATOM     41  C   UNL     1      -7.462   1.441  -1.438  1.00  0.00     0.010 A 
ATOM     42  C   UNL     1      -8.282   0.643  -0.622  1.00  0.00    -0.014 A 
BRANCH  42  43
ATOM     43  C   UNL     1      -9.029   1.229   0.521  1.00  0.00     0.031 A 
ATOM     44  C   UNL     1     -10.240   2.076   0.226  1.00  0.00     0.074 A 
ATOM     45  C   UNL     1      -8.692   0.946   1.793  1.00  0.00     0.049 A 
ATOM     46  N   UNL     1     -11.064   2.668   1.052  1.00  0.00    -0.248 NA
ATOM     47  C   UNL     1     -10.566   2.279  -1.195  1.00  0.00     0.031 C 
ATOM     48  C   UNL     1      -7.577   0.092   2.200  1.00  0.00     0.029 A 
ATOM     49  N   UNL     1      -9.265   1.336   2.978  1.00  0.00    -0.354 N 
ATOM     50  C   UNL     1     -12.010   3.304   0.253  1.00  0.00     0.074 A 
ATOM     51  C   UNL     1     -11.627   3.067  -1.122  1.00  0.00     0.031 C 
ATOM     52  C   UNL     1      -7.551   0.018   3.542  1.00  0.00     0.029 A 
ATOM     53  C   UNL     1      -8.622   0.848   4.092  1.00  0.00     0.049 A 
ATOM     54  H   UNL     1     -10.062   1.912   3.026  1.00  0.00     0.167 HD
ATOM     55  C   UNL     1     -13.107   4.005   0.630  1.00  0.00     0.034 A 
ATOM     56  C   UNL     1      -8.863   1.061   5.402  1.00  0.00     0.034 A 
ATOM     57  C   UNL     1     -13.470   4.246   2.005  1.00  0.00     0.049 A 
ATOM     58  C   UNL     1     -10.033   1.936   5.795  1.00  0.00     0.074 A 
ATOM     59  C   UNL     1     -14.552   4.952   2.500  1.00  0.00     0.029 A 
ATOM     60  N   UNL     1     -12.755   3.794   3.107  1.00  0.00    -0.354 N 
ATOM     61  N   UNL     1     -10.920   2.530   5.028  1.00  0.00    -0.248 NA
ATOM     62  C   UNL     1     -10.241   2.156   7.232  1.00  0.00     0.031 C 
ATOM     63  C   UNL     1     -14.450   4.993   3.894  1.00  0.00     0.029 A 
ATOM     64  C   UNL     1     -13.355   4.234   4.277  1.00  0.00     0.049 A 
ATOM     65  H   UNL     1     -11.941   3.242   3.064  1.00  0.00     0.167 HD
ATOM     66  C   UNL     1     -11.811   3.160   5.895  1.00  0.00     0.074 A 
ATOM     67  C   UNL     1     -11.368   2.850   7.238  1.00  0.00     0.031 C 
ATOM     68  C   UNL     1     -12.898   3.925   5.612  1.00  0.00     0.034 A 
BRANCH  55  69
ATOM     69  C   UNL     1     -13.964   4.599  -0.463  1.00  0.00     0.023 A 
ATOM     70  C   UNL     1     -14.660   3.793  -1.380  1.00  0.00     0.031 A 
ATOM     71  C   UNL     1     -14.078   5.995  -0.596  1.00  0.00     0.131 A 
ATOM     72  C   UNL     1     -15.390   4.386  -2.422  1.00  0.00     0.055 A 
ATOM     73  C   UNL     1     -14.870   6.579  -1.587  1.00  0.00     0.041 A 
ATOM     74  F   UNL     1     -13.415   6.816   0.233  1.00  0.00    -0.206 F 
ATOM     75  C   UNL     1     -15.522   5.773  -2.515  1.00  0.00     0.022 A 
BRANCH  72  76
ATOM     76  S   UNL     1     -16.057   3.323  -3.732  1.00  0.00     0.124 S 
ATOM     77  O   UNL     1     -14.843   2.695  -4.248  1.00  0.00    -0.237 OA
ATOM     78  O   UNL     1     -16.965   2.450  -2.998  1.00  0.00    -0.237 OA
ATOM     79  O   UNL     1     -16.698   4.266  -4.646  1.00  0.00    -0.744 OA
ENDBRANCH  72  76
ENDBRANCH  55  69
BRANCH  56  80
ATOM     80  C   UNL     1      -7.974   0.478   6.452  1.00  0.00     0.023 A 
ATOM     81  C   UNL     1      -8.480  -0.383   7.440  1.00  0.00     0.031 A 
ATOM     82  C   UNL     1      -6.620   0.852   6.541  1.00  0.00     0.131 A 
ATOM     83  C   UNL     1      -7.661  -0.784   8.507  1.00  0.00     0.055 A 
ATOM     84  C   UNL     1      -5.791   0.394   7.566  1.00  0.00     0.041 A 
ATOM     85  F   UNL     1      -6.082   1.680   5.631  1.00  0.00    -0.206 F 
ATOM     86  C   UNL     1      -6.316  -0.415   8.569  1.00  0.00     0.022 A 
BRANCH  83  87
ATOM     87  S   UNL     1      -8.415  -1.691   9.887  1.00  0.00     0.124 S 
ATOM     88  O   UNL     1      -9.474  -0.777  10.297  1.00  0.00    -0.237 OA
ATOM     89  O   UNL     1      -8.846  -2.924   9.237  1.00  0.00    -0.237 OA
ATOM     90  O   UNL     1      -7.315  -1.840  10.837  1.00  0.00    -0.744 OA
ENDBRANCH  83  87
ENDBRANCH  56  80
BRANCH  68  91
ATOM     91  C   UNL     1     -13.705   4.433   6.785  1.00  0.00     0.023 A 
ATOM     92  C   UNL     1     -13.161   5.318   7.731  1.00  0.00     0.031 A 
ATOM     93  C   UNL     1     -15.028   3.995   6.978  1.00  0.00     0.131 A 
ATOM     94  C   UNL     1     -13.904   5.670   8.869  1.00  0.00     0.055 A 
ATOM     95  C   UNL     1     -15.790   4.412   8.070  1.00  0.00     0.041 A 
ATOM     96  F   UNL     1     -15.603   3.148   6.109  1.00  0.00    -0.206 F 
ATOM     97  C   UNL     1     -15.222   5.239   9.034  1.00  0.00     0.022 A 
BRANCH  94  98
ATOM     98  S   UNL     1     -13.076   6.592  10.194  1.00  0.00     0.124 S 
ATOM     99  O   UNL     1     -11.944   5.725  10.504  1.00  0.00    -0.237 OA
ATOM    100  O   UNL     1     -12.750   7.854   9.540  1.00  0.00    -0.237 OA
ATOM    101  O   UNL     1     -14.095   6.680  11.239  1.00  0.00    -0.744 OA
ENDBRANCH  94  98
ENDBRANCH  68  91
ENDBRANCH  42  43
ENDBRANCH  35  37
ENDBRANCH  34  35
ENDBRANCH  33  34
ENDBRANCH  32  33
ENDBRANCH  31  32
ENDBRANCH  30  31
ENDBRANCH  29  30
ENDBRANCH   1  29
TORSDOF 26
