REMARK SMILES COc1c(C(=O)OCCOCCOCCOCCOC(=O)c2ccc(-c3c4nc(c(-c5cc(S(=O)(=O)[O-])ccc5F)c5ccc([nH]5)c(-c5cc(S(=O)(=O)[O-])ccc5F)c5nc(c(-c6cc(S(=O)(=O)[O-])ccc6F)c6ccc3[nH]6)C=C5)C=C4)cc2)cccc1-c1cc(C)ccc1C
REMARK SMILES IDX 14 1 13 2 12 3 11 4 10 5 9 6 8 7 7 8 5 9 6 10 4 11 3 12
REMARK SMILES IDX 88 13 85 14 87 15 86 16 2 17 1 18 89 19 90 20 95 21 91 22
REMARK SMILES IDX 94 23 96 24 92 25 93 26 15 27 16 28 17 29 18 30 19 31 20 32
REMARK SMILES IDX 21 33 22 34 23 35 84 36 24 37 83 38 25 39 26 40 27 41 77 42
REMARK SMILES IDX 28 43 82 44 76 45 78 46 29 47 81 48 75 49 74 50 30 52 62 53
REMARK SMILES IDX 42 54 61 55 43 56 46 57 60 58 79 59 44 60 45 61 59 63 80 64
REMARK SMILES IDX 47 65 31 66 32 67 40 68 33 69 39 70 41 71 38 72 34 73 35 74
REMARK SMILES IDX 36 75 37 76 63 77 64 78 72 79 65 80 71 81 73 82 70 83 66 84
REMARK SMILES IDX 67 85 68 86 69 87 48 88 49 89 57 90 50 91 56 92 58 93 55 94
REMARK SMILES IDX 51 95 52 96 53 97 54 98
REMARK H PARENT 78 51 46 62
REMARK Flexibility Score: inf
ROOT
ATOM      1  C   UNL     1      -3.356   2.392   0.924  1.00  0.00     0.188 C 
ENDROOT
BRANCH   1   2
ATOM      2  O   UNL     1      -2.058   2.423   0.337  1.00  0.00    -0.377 OA
BRANCH   2   3
ATOM      3  C   UNL     1      -1.724   3.442  -0.590  1.00  0.00     0.188 C 
BRANCH   3   4
ATOM      4  C   UNL     1      -2.634   3.669  -1.816  1.00  0.00     0.188 C 
BRANCH   4   5
ATOM      5  O   UNL     1      -3.924   3.106  -1.700  1.00  0.00    -0.376 OA
BRANCH   5   6
ATOM      6  C   UNL     1      -4.251   1.889  -2.344  1.00  0.00     0.202 C 
BRANCH   6   7
ATOM      7  C   UNL     1      -3.288   0.692  -2.421  1.00  0.00     0.261 C 
BRANCH   7   8
ATOM      8  O   UNL     1      -1.904   0.986  -2.245  1.00  0.00    -0.460 OA
BRANCH   8   9
ATOM      9  C   UNL     1      -1.175   1.216  -3.356  1.00  0.00     0.342 C 
ATOM     10  O   UNL     1      -1.579   1.216  -4.508  1.00  0.00    -0.246 OA
BRANCH   9  11
ATOM     11  C   UNL     1       0.147   1.752  -2.958  1.00  0.00     0.102 A 
ATOM     12  C   UNL     1       0.970   1.140  -1.997  1.00  0.00     0.141 A 
ATOM     13  C   UNL     1       2.269   1.650  -1.768  1.00  0.00     0.025 A 
ATOM     14  C   UNL     1       0.533   2.961  -3.560  1.00  0.00     0.019 A 
ATOM     15  C   UNL     1       2.604   2.895  -2.348  1.00  0.00     0.012 A 
ATOM     16  C   UNL     1       1.737   3.559  -3.214  1.00  0.00     0.002 A 
BRANCH  12  17
ATOM     17  O   UNL     1       0.513  -0.012  -1.402  1.00  0.00    -0.495 OA
ATOM     18  C   UNL     1       0.481   0.065   0.028  1.00  0.00     0.278 C 
ENDBRANCH  12  17
BRANCH  13  19
ATOM     19  C   UNL     1       3.332   0.893  -1.063  1.00  0.00    -0.011 A 
ATOM     20  C   UNL     1       4.080   1.523  -0.043  1.00  0.00     0.012 A 
ATOM     21  C   UNL     1       3.677  -0.436  -1.415  1.00  0.00    -0.043 A 
ATOM     22  C   UNL     1       5.130   0.870   0.619  1.00  0.00    -0.050 A 
ATOM     23  C   UNL     1       4.685  -1.104  -0.700  1.00  0.00     0.004 A 
ATOM     24  C   UNL     1       2.991  -1.216  -2.510  1.00  0.00     0.045 C 
ATOM     25  C   UNL     1       5.943   1.597   1.648  1.00  0.00     0.044 C 
ATOM     26  C   UNL     1       5.409  -0.458   0.298  1.00  0.00     0.004 A 
ENDBRANCH  13  19
ENDBRANCH   9  11
ENDBRANCH   8   9
ENDBRANCH   7   8
ENDBRANCH   6   7
ENDBRANCH   5   6
ENDBRANCH   4   5
ENDBRANCH   3   4
ENDBRANCH   2   3
ENDBRANCH   1   2
BRANCH   1  27
ATOM     27  C   UNL     1      -4.261   3.647   0.976  1.00  0.00     0.188 C 
BRANCH  27  28
ATOM     28  O   UNL     1      -3.631   4.862   0.602  1.00  0.00    -0.376 OA
BRANCH  28  29
ATOM     29  C   UNL     1      -3.303   5.777   1.633  1.00  0.00     0.202 C 
BRANCH  29  30
ATOM     30  C   UNL     1      -2.258   5.320   2.663  1.00  0.00     0.261 C 
BRANCH  30  31
ATOM     31  O   UNL     1      -2.541   4.088   3.343  1.00  0.00    -0.460 OA
BRANCH  31  32
ATOM     32  C   UNL     1      -3.639   4.075   4.128  1.00  0.00     0.338 C 
ATOM     33  O   UNL     1      -4.400   5.010   4.331  1.00  0.00    -0.246 OA
BRANCH  32  34
ATOM     34  C   UNL     1      -3.891   2.683   4.546  1.00  0.00     0.060 A 
ATOM     35  C   UNL     1      -5.120   2.096   4.218  1.00  0.00     0.016 A 
ATOM     36  C   UNL     1      -2.932   1.968   5.268  1.00  0.00     0.016 A 
ATOM     37  C   UNL     1      -5.420   0.813   4.670  1.00  0.00     0.010 A 
ATOM     38  C   UNL     1      -3.242   0.688   5.737  1.00  0.00     0.010 A 
ATOM     39  C   UNL     1      -4.509   0.129   5.485  1.00  0.00    -0.014 A 
BRANCH  39  40
ATOM     40  C   UNL     1      -4.998  -1.028   6.275  1.00  0.00     0.031 A 
ATOM     41  C   UNL     1      -5.419  -0.780   7.701  1.00  0.00     0.074 A 
ATOM     42  C   UNL     1      -5.150  -2.245   5.725  1.00  0.00     0.049 A 
ATOM     43  N   UNL     1      -5.926  -1.605   8.579  1.00  0.00    -0.248 NA
ATOM     44  C   UNL     1      -5.237   0.592   8.201  1.00  0.00     0.031 C 
ATOM     45  C   UNL     1      -4.833  -2.592   4.341  1.00  0.00     0.029 A 
ATOM     46  N   UNL     1      -5.628  -3.413   6.265  1.00  0.00    -0.354 N 
ATOM     47  C   UNL     1      -6.117  -0.855   9.736  1.00  0.00     0.074 A 
ATOM     48  C   UNL     1      -5.624   0.476   9.460  1.00  0.00     0.031 C 
ATOM     49  C   UNL     1      -5.141  -3.885   4.137  1.00  0.00     0.029 A 
ATOM     50  C   UNL     1      -5.644  -4.466   5.381  1.00  0.00     0.049 A 
ATOM     51  H   UNL     1      -5.931  -3.489   7.199  1.00  0.00     0.167 HD
ATOM     52  C   UNL     1      -6.665  -1.237  10.916  1.00  0.00     0.034 A 
ATOM     53  C   UNL     1      -6.015  -5.749   5.562  1.00  0.00     0.034 A 
ATOM     54  C   UNL     1      -7.141  -2.574  11.178  1.00  0.00     0.049 A 
ATOM     55  C   UNL     1      -6.540  -6.176   6.914  1.00  0.00     0.074 A 
ATOM     56  C   UNL     1      -7.724  -3.071  12.330  1.00  0.00     0.029 A 
ATOM     57  N   UNL     1      -7.073  -3.634  10.281  1.00  0.00    -0.354 N 
ATOM     58  N   UNL     1      -6.726  -5.458   7.999  1.00  0.00    -0.248 NA
ATOM     59  C   UNL     1      -6.919  -7.587   7.056  1.00  0.00     0.031 C 
ATOM     60  C   UNL     1      -7.922  -4.446  12.164  1.00  0.00     0.029 A 
ATOM     61  C   UNL     1      -7.565  -4.789  10.869  1.00  0.00     0.049 A 
ATOM     62  H   UNL     1      -6.726  -3.573   9.362  1.00  0.00     0.167 HD
ATOM     63  C   UNL     1      -7.293  -6.323   8.935  1.00  0.00     0.074 A 
ATOM     64  C   UNL     1      -7.422  -7.609   8.281  1.00  0.00     0.031 C 
ATOM     65  C   UNL     1      -7.683  -6.073  10.213  1.00  0.00     0.034 A 
BRANCH  52  66
ATOM     66  C   UNL     1      -6.702  -0.210  12.026  1.00  0.00     0.023 A 
ATOM     67  C   UNL     1      -7.410   1.000  11.903  1.00  0.00     0.031 A 
ATOM     68  C   UNL     1      -5.963  -0.418  13.204  1.00  0.00     0.131 A 
ATOM     69  C   UNL     1      -7.289   1.986  12.894  1.00  0.00     0.055 A 
ATOM     70  C   UNL     1      -5.925   0.527  14.230  1.00  0.00     0.041 A 
ATOM     71  F   UNL     1      -5.242  -1.539  13.370  1.00  0.00    -0.206 F 
ATOM     72  C   UNL     1      -6.574   1.747  14.070  1.00  0.00     0.022 A 
BRANCH  69  73
ATOM     73  S   UNL     1      -7.919   3.652  12.542  1.00  0.00     0.124 S 
ATOM     74  O   UNL     1      -7.203   3.984  11.313  1.00  0.00    -0.237 OA
ATOM     75  O   UNL     1      -9.353   3.424  12.406  1.00  0.00    -0.237 OA
ATOM     76  O   UNL     1      -7.518   4.425  13.716  1.00  0.00    -0.744 OA
ENDBRANCH  69  73
ENDBRANCH  52  66
BRANCH  53  77
ATOM     77  C   UNL     1      -5.904  -6.736   4.448  1.00  0.00     0.023 A 
ATOM     78  C   UNL     1      -7.040  -7.378   3.929  1.00  0.00     0.031 A 
ATOM     79  C   UNL     1      -4.649  -7.098   3.926  1.00  0.00     0.131 A 
ATOM     80  C   UNL     1      -6.896  -8.379   2.956  1.00  0.00     0.055 A 
ATOM     81  C   UNL     1      -4.516  -8.053   2.917  1.00  0.00     0.041 A 
ATOM     82  F   UNL     1      -3.528  -6.521   4.391  1.00  0.00    -0.206 F 
ATOM     83  C   UNL     1      -5.643  -8.710   2.435  1.00  0.00     0.022 A 
BRANCH  80  84
ATOM     84  S   UNL     1      -8.366  -9.310   2.441  1.00  0.00     0.124 S 
ATOM     85  O   UNL     1      -8.804  -9.893   3.704  1.00  0.00    -0.237 OA
ATOM     86  O   UNL     1      -9.214  -8.257   1.891  1.00  0.00    -0.237 OA
ATOM     87  O   UNL     1      -7.842 -10.259   1.462  1.00  0.00    -0.744 OA
ENDBRANCH  80  84
ENDBRANCH  53  77
BRANCH  65  88
ATOM     88  C   UNL     1      -8.357  -7.202  10.964  1.00  0.00     0.023 A 
ATOM     89  C   UNL     1      -7.696  -8.409  11.254  1.00  0.00     0.031 A 
ATOM     90  C   UNL     1      -9.700  -7.077  11.364  1.00  0.00     0.131 A 
ATOM     91  C   UNL     1      -8.403  -9.469  11.844  1.00  0.00     0.055 A 
ATOM     92  C   UNL     1     -10.373  -8.105  12.025  1.00  0.00     0.041 A 
ATOM     93  F   UNL     1     -10.388  -5.951  11.113  1.00  0.00    -0.206 F 
ATOM     94  C   UNL     1      -9.730  -9.318  12.250  1.00  0.00     0.022 A 
BRANCH  91  95
ATOM     95  S   UNL     1      -7.608 -11.098  11.938  1.00  0.00     0.124 S 
ATOM     96  O   UNL     1      -7.231 -11.332  10.548  1.00  0.00    -0.237 OA
ATOM     97  O   UNL     1      -6.506 -10.854  12.864  1.00  0.00    -0.237 OA
ATOM     98  O   UNL     1      -8.666 -11.967  12.449  1.00  0.00    -0.744 OA
ENDBRANCH  91  95
ENDBRANCH  65  88
ENDBRANCH  39  40
ENDBRANCH  32  34
ENDBRANCH  31  32
ENDBRANCH  30  31
ENDBRANCH  29  30
ENDBRANCH  28  29
ENDBRANCH  27  28
ENDBRANCH   1  27
TORSDOF 25
