REMARK SMILES O=C(OCCOCCOCCOCCOC(=O)c1ccc(S(=O)(=O)Cc2cccs2)c(F)c1)c1ccc(-c2c3nc(c(-c4cc(S(=O)(=O)[O-])ccc4F)c4ccc([nH]4)c(-c4cc(S(=O)(=O)[O-])ccc4F)c4nc(c(-c5cc(S(=O)(=O)[O-])ccc5F)c5ccc2[nH]5)C=C4)C=C3)cc1
REMARK SMILES IDX 9 1 8 2 7 3 6 4 5 5 4 6 3 7 2 8 1 9 34 10 35 11 96 12 36 13
REMARK SMILES IDX 95 14 37 15 38 16 39 17 89 18 40 19 94 20 88 21 90 22 41 23
REMARK SMILES IDX 93 24 87 25 86 26 42 28 74 29 54 30 73 31 55 32 58 33 72 34
REMARK SMILES IDX 91 35 56 36 57 37 71 39 92 40 59 41 43 42 44 43 52 44 45 45
REMARK SMILES IDX 51 46 53 47 50 48 46 49 47 50 48 51 49 52 75 53 76 54 84 55
REMARK SMILES IDX 77 56 83 57 85 58 82 59 78 60 79 61 80 62 81 63 60 64 61 65
REMARK SMILES IDX 69 66 62 67 68 68 70 69 67 70 63 71 64 72 65 73 66 74 10 75
REMARK SMILES IDX 11 76 12 77 13 78 14 79 15 80 16 81 17 82 18 83 19 84 33 85
REMARK SMILES IDX 20 86 31 87 21 88 32 89 22 90 23 91 24 92 25 93 26 94 27 95
REMARK SMILES IDX 30 96 28 97 29 98
REMARK H PARENT 90 27 58 38
REMARK Flexibility Score: inf
ROOT
ATOM      1  O   UNL     1       2.436   0.821  -3.731  1.00  0.00    -0.377 OA
ENDROOT
BRANCH   1   2
ATOM      2  C   UNL     1       1.803   0.889  -2.460  1.00  0.00     0.188 C 
BRANCH   2   3
ATOM      3  C   UNL     1       2.315  -0.120  -1.439  1.00  0.00     0.188 C 
BRANCH   3   4
ATOM      4  O   UNL     1       3.665   0.149  -1.068  1.00  0.00    -0.376 OA
BRANCH   4   5
ATOM      5  C   UNL     1       4.474  -0.973  -0.723  1.00  0.00     0.202 C 
BRANCH   5   6
ATOM      6  C   UNL     1       4.027  -1.798   0.492  1.00  0.00     0.261 C 
BRANCH   6   7
ATOM      7  O   UNL     1       2.650  -1.622   0.868  1.00  0.00    -0.460 OA
BRANCH   7   8
ATOM      8  C   UNL     1       2.108  -0.747   1.752  1.00  0.00     0.338 C 
ATOM      9  O   UNL     1       0.919  -0.873   2.043  1.00  0.00    -0.246 OA
BRANCH   8  10
ATOM     10  C   UNL     1       2.863   0.376   2.379  1.00  0.00     0.060 A 
ATOM     11  C   UNL     1       3.950   1.027   1.802  1.00  0.00     0.016 A 
ATOM     12  C   UNL     1       2.395   0.860   3.611  1.00  0.00     0.016 A 
ATOM     13  C   UNL     1       4.656   2.013   2.472  1.00  0.00     0.010 A 
ATOM     14  C   UNL     1       3.067   1.891   4.278  1.00  0.00     0.010 A 
ATOM     15  C   UNL     1       4.244   2.420   3.734  1.00  0.00    -0.014 A 
BRANCH  15  16
ATOM     16  C   UNL     1       5.212   3.180   4.551  1.00  0.00     0.031 A 
ATOM     17  C   UNL     1       5.897   2.435   5.662  1.00  0.00     0.074 A 
ATOM     18  C   UNL     1       5.604   4.414   4.185  1.00  0.00     0.049 A 
ATOM     19  N   UNL     1       6.714   2.876   6.576  1.00  0.00    -0.248 NA
ATOM     20  C   UNL     1       5.627   0.986   5.750  1.00  0.00     0.031 C 
ATOM     21  C   UNL     1       5.117   5.141   3.008  1.00  0.00     0.029 A 
ATOM     22  N   UNL     1       6.538   5.255   4.729  1.00  0.00    -0.354 N 
ATOM     23  C   UNL     1       7.013   1.776   7.371  1.00  0.00     0.074 A 
ATOM     24  C   UNL     1       6.289   0.646   6.842  1.00  0.00     0.031 C 
ATOM     25  C   UNL     1       5.792   6.297   2.897  1.00  0.00     0.029 A 
ATOM     26  C   UNL     1       6.689   6.436   4.039  1.00  0.00     0.049 A 
ATOM     27  H   UNL     1       7.053   5.035   5.539  1.00  0.00     0.167 HD
ATOM     28  C   UNL     1       7.825   1.724   8.451  1.00  0.00     0.034 A 
ATOM     29  C   UNL     1       7.440   7.517   4.330  1.00  0.00     0.034 A 
ATOM     30  C   UNL     1       8.558   2.865   8.921  1.00  0.00     0.049 A 
ATOM     31  C   UNL     1       8.248   7.477   5.603  1.00  0.00     0.074 A 
ATOM     32  C   UNL     1       9.349   2.983  10.046  1.00  0.00     0.029 A 
ATOM     33  N   UNL     1       8.594   4.090   8.266  1.00  0.00    -0.354 N 
ATOM     34  N   UNL     1       8.407   6.479   6.443  1.00  0.00    -0.248 NA
ATOM     35  C   UNL     1       8.942   8.710   5.992  1.00  0.00     0.031 C 
ATOM     36  C   UNL     1       9.828   4.296  10.095  1.00  0.00     0.029 A 
ATOM     37  C   UNL     1       9.380   4.979   8.972  1.00  0.00     0.049 A 
ATOM     38  H   UNL     1       8.128   4.295   7.423  1.00  0.00     0.167 HD
ATOM     39  C   UNL     1       9.216   6.964   7.464  1.00  0.00     0.074 A 
ATOM     40  C   UNL     1       9.529   8.339   7.123  1.00  0.00     0.031 C 
ATOM     41  C   UNL     1       9.654   6.341   8.587  1.00  0.00     0.034 A 
BRANCH  28  42
ATOM     42  C   UNL     1       7.876   0.430   9.214  1.00  0.00     0.023 A 
ATOM     43  C   UNL     1       8.496  -0.719   8.694  1.00  0.00     0.031 A 
ATOM     44  C   UNL     1       7.239   0.333  10.463  1.00  0.00     0.131 A 
ATOM     45  C   UNL     1       8.421  -1.930   9.400  1.00  0.00     0.055 A 
ATOM     46  C   UNL     1       7.221  -0.858  11.189  1.00  0.00     0.041 A 
ATOM     47  F   UNL     1       6.603   1.393  10.988  1.00  0.00    -0.206 F 
ATOM     48  C   UNL     1       7.808  -2.001  10.654  1.00  0.00     0.022 A 
BRANCH  45  49
ATOM     49  S   UNL     1       9.058  -3.438   8.620  1.00  0.00     0.124 S 
ATOM     50  O   UNL     1       8.101  -3.632   7.533  1.00  0.00    -0.237 OA
ATOM     51  O   UNL     1      10.405  -3.048   8.220  1.00  0.00    -0.237 OA
ATOM     52  O   UNL     1       8.990  -4.432   9.689  1.00  0.00    -0.744 OA
ENDBRANCH  45  49
ENDBRANCH  28  42
BRANCH  29  53
ATOM     53  C   UNL     1       7.385   8.736   3.472  1.00  0.00     0.023 A 
ATOM     54  C   UNL     1       8.518   9.212   2.793  1.00  0.00     0.031 A 
ATOM     55  C   UNL     1       6.183   9.456   3.325  1.00  0.00     0.131 A 
ATOM     56  C   UNL     1       8.428  10.377   2.010  1.00  0.00     0.055 A 
ATOM     57  C   UNL     1       6.088  10.587   2.511  1.00  0.00     0.041 A 
ATOM     58  F   UNL     1       5.069   9.053   3.957  1.00  0.00    -0.206 F 
ATOM     59  C   UNL     1       7.217  11.057   1.852  1.00  0.00     0.022 A 
BRANCH  56  60
ATOM     60  S   UNL     1       9.929  11.024   1.221  1.00  0.00     0.124 S 
ATOM     61  O   UNL     1      10.763  11.330   2.377  1.00  0.00    -0.237 OA
ATOM     62  O   UNL     1      10.355   9.893   0.403  1.00  0.00    -0.237 OA
ATOM     63  O   UNL     1       9.449  12.184   0.473  1.00  0.00    -0.744 OA
ENDBRANCH  56  60
ENDBRANCH  29  53
BRANCH  41  64
ATOM     64  C   UNL     1      10.520   7.139   9.517  1.00  0.00     0.023 A 
ATOM     65  C   UNL     1       9.961   8.106  10.365  1.00  0.00     0.031 A 
ATOM     66  C   UNL     1      11.892   6.857   9.620  1.00  0.00     0.131 A 
ATOM     67  C   UNL     1      10.781   8.774  11.282  1.00  0.00     0.055 A 
ATOM     68  C   UNL     1      12.695   7.496  10.562  1.00  0.00     0.041 A 
ATOM     69  F   UNL     1      12.459   5.930   8.832  1.00  0.00    -0.206 F 
ATOM     70  C   UNL     1      12.140   8.462  11.399  1.00  0.00     0.022 A 
BRANCH  67  71
ATOM     71  S   UNL     1      10.048  10.061  12.325  1.00  0.00     0.124 S 
ATOM     72  O   UNL     1       9.730  11.096  11.346  1.00  0.00    -0.237 OA
ATOM     73  O   UNL     1       8.907   9.376  12.922  1.00  0.00    -0.237 OA
ATOM     74  O   UNL     1      11.123  10.398  13.258  1.00  0.00    -0.744 OA
ENDBRANCH  67  71
ENDBRANCH  41  64
ENDBRANCH  15  16
ENDBRANCH   8  10
ENDBRANCH   7   8
ENDBRANCH   6   7
ENDBRANCH   5   6
ENDBRANCH   4   5
ENDBRANCH   3   4
ENDBRANCH   2   3
ENDBRANCH   1   2
BRANCH   1  75
ATOM     75  C   UNL     1       3.858   0.857  -3.726  1.00  0.00     0.188 C 
BRANCH  75  76
ATOM     76  C   UNL     1       4.577   2.046  -3.048  1.00  0.00     0.188 C 
BRANCH  76  77
ATOM     77  O   UNL     1       3.702   3.059  -2.574  1.00  0.00    -0.376 OA
BRANCH  77  78
ATOM     78  C   UNL     1       3.783   4.300  -3.265  1.00  0.00     0.202 C 
BRANCH  78  79
ATOM     79  C   UNL     1       3.130   4.295  -4.653  1.00  0.00     0.261 C 
BRANCH  79  80
ATOM     80  O   UNL     1       3.614   3.274  -5.548  1.00  0.00    -0.460 OA
BRANCH  80  81
ATOM     81  C   UNL     1       4.811   3.459  -6.144  1.00  0.00     0.338 C 
ATOM     82  O   UNL     1       5.542   4.430  -6.068  1.00  0.00    -0.246 OA
BRANCH  81  83
ATOM     83  C   UNL     1       5.192   2.159  -6.740  1.00  0.00     0.063 A 
ATOM     84  C   UNL     1       4.442   1.585  -7.771  1.00  0.00     0.017 A 
ATOM     85  C   UNL     1       6.199   1.421  -6.110  1.00  0.00     0.056 A 
ATOM     86  C   UNL     1       4.741   0.286  -8.198  1.00  0.00     0.024 A 
ATOM     87  C   UNL     1       6.390   0.086  -6.454  1.00  0.00     0.142 A 
ATOM     88  C   UNL     1       5.729  -0.463  -7.539  1.00  0.00     0.103 A 
ATOM     89  F   UNL     1       7.162  -0.652  -5.652  1.00  0.00    -0.206 F 
BRANCH  88  90
ATOM     90  S   UNL     1       6.125  -2.056  -8.196  1.00  0.00     0.186 S 
ATOM     91  O   UNL     1       4.909  -2.839  -8.038  1.00  0.00    -0.223 OA
ATOM     92  O   UNL     1       6.636  -1.805  -9.534  1.00  0.00    -0.223 OA
BRANCH  90  93
ATOM     93  C   UNL     1       7.385  -2.886  -7.268  1.00  0.00     0.188 C 
BRANCH  93  94
ATOM     94  C   UNL     1       8.714  -2.195  -7.154  1.00  0.00     0.020 A 
ATOM     95  C   UNL     1       9.197  -0.994  -7.642  1.00  0.00     0.016 A 
ATOM     96  S   UNL     1       9.905  -2.970  -6.171  1.00  0.00    -0.148 S 
ATOM     97  C   UNL     1      10.455  -0.638  -7.069  1.00  0.00     0.012 A 
ATOM     98  C   UNL     1      10.956  -1.631  -6.261  1.00  0.00     0.065 A 
ENDBRANCH  93  94
ENDBRANCH  90  93
ENDBRANCH  88  90
ENDBRANCH  81  83
ENDBRANCH  80  81
ENDBRANCH  79  80
ENDBRANCH  78  79
ENDBRANCH  77  78
ENDBRANCH  76  77
ENDBRANCH  75  76
ENDBRANCH   1  75
TORSDOF 26
