REMARK SMILES Nc1cc(C(=O)OCCOCCOCCOCCOC(=O)c2ccc(-c3c4nc(c(-c5cc(S(=O)(=O)[O-])ccc5F)c5ccc([nH]5)c(-c5cc(S(=O)(=O)[O-])ccc5F)c5nc(c(-c6cc(S(=O)(=O)[O-])ccc6F)c6ccc3[nH]6)C=C5)C=C4)cc2)nc2ccccc12
REMARK SMILES IDX 14 1 13 2 12 3 11 4 10 5 9 6 8 7 7 8 5 9 6 10 4 11 2 12 3 13
REMARK SMILES IDX 91 14 86 15 90 16 85 17 87 18 89 19 88 20 1 21 15 24 16 25
REMARK SMILES IDX 17 26 18 27 19 28 20 29 21 30 22 31 23 32 84 33 24 34 83 35
REMARK SMILES IDX 25 36 26 37 27 38 77 39 28 40 82 41 76 42 78 43 29 44 81 45
REMARK SMILES IDX 75 46 74 47 30 49 62 50 42 51 61 52 43 53 46 54 60 55 79 56
REMARK SMILES IDX 44 57 45 58 59 60 80 61 47 62 31 63 32 64 40 65 33 66 39 67
REMARK SMILES IDX 41 68 38 69 34 70 35 71 36 72 37 73 63 74 64 75 72 76 65 77
REMARK SMILES IDX 71 78 73 79 70 80 66 81 67 82 68 83 69 84 48 85 49 86 57 87
REMARK SMILES IDX 50 88 56 89 58 90 55 91 51 92 52 93 53 94 54 95
REMARK H PARENT 1 22 1 23 78 48 46 59
REMARK Flexibility Score: inf
ROOT
ATOM      1  C   UNL     1       0.435  -4.092  -5.183  1.00  0.00     0.188 C 
ENDROOT
BRANCH   1   2
ATOM      2  O   UNL     1       0.353  -2.925  -4.367  1.00  0.00    -0.377 OA
BRANCH   2   3
ATOM      3  C   UNL     1      -0.726  -2.026  -4.550  1.00  0.00     0.188 C 
BRANCH   3   4
ATOM      4  C   UNL     1      -0.750  -1.278  -5.893  1.00  0.00     0.188 C 
BRANCH   4   5
ATOM      5  O   UNL     1       0.165  -1.801  -6.853  1.00  0.00    -0.376 OA
BRANCH   5   6
ATOM      6  C   UNL     1       1.296  -0.996  -7.159  1.00  0.00     0.202 C 
BRANCH   6   7
ATOM      7  C   UNL     1       2.375  -0.911  -6.070  1.00  0.00     0.261 C 
BRANCH   7   8
ATOM      8  O   UNL     1       1.923  -0.419  -4.800  1.00  0.00    -0.459 OA
BRANCH   8   9
ATOM      9  C   UNL     1       1.491   0.864  -4.742  1.00  0.00     0.357 C 
ATOM     10  O   UNL     1       1.518   1.676  -5.650  1.00  0.00    -0.244 OA
BRANCH   9  11
ATOM     11  C   UNL     1       0.814   1.045  -3.423  1.00  0.00     0.151 A 
ATOM     12  C   UNL     1       0.675   0.650  -1.071  1.00  0.00     0.043 A 
ATOM     13  C   UNL     1       1.382   0.538  -2.266  1.00  0.00     0.062 A 
ATOM     14  C   UNL     1      -0.564   1.340  -1.068  1.00  0.00     0.023 A 
ATOM     15  C   UNL     1      -1.069   1.786  -2.312  1.00  0.00     0.073 A 
ATOM     16  C   UNL     1      -1.323   1.599   0.100  1.00  0.00     0.012 A 
ATOM     17  N   UNL     1      -0.401   1.648  -3.464  1.00  0.00    -0.241 NA
ATOM     18  C   UNL     1      -2.316   2.396  -2.353  1.00  0.00     0.029 A 
ATOM     19  C   UNL     1      -2.560   2.240   0.035  1.00  0.00     0.001 A 
ATOM     20  C   UNL     1      -3.067   2.624  -1.198  1.00  0.00     0.002 A 
BRANCH  12  21
ATOM     21  N   UNL     1       1.279   0.181   0.099  1.00  0.00    -0.398 N 
ATOM     22  H   UNL     1       2.140  -0.293   0.052  1.00  0.00     0.156 HD
ATOM     23  H   UNL     1       0.842   0.325   0.970  1.00  0.00     0.156 HD
ENDBRANCH  12  21
ENDBRANCH   9  11
ENDBRANCH   8   9
ENDBRANCH   7   8
ENDBRANCH   6   7
ENDBRANCH   5   6
ENDBRANCH   4   5
ENDBRANCH   3   4
ENDBRANCH   2   3
ENDBRANCH   1   2
BRANCH   1  24
ATOM     24  C   UNL     1      -0.633  -4.462  -6.240  1.00  0.00     0.188 C 
BRANCH  24  25
ATOM     25  O   UNL     1      -1.954  -4.031  -5.935  1.00  0.00    -0.376 OA
BRANCH  25  26
ATOM     26  C   UNL     1      -2.896  -5.050  -5.635  1.00  0.00     0.202 C 
BRANCH  26  27
ATOM     27  C   UNL     1      -2.765  -5.601  -4.213  1.00  0.00     0.261 C 
BRANCH  27  28
ATOM     28  O   UNL     1      -1.516  -6.245  -3.925  1.00  0.00    -0.460 OA
BRANCH  28  29
ATOM     29  C   UNL     1      -1.190  -7.334  -4.660  1.00  0.00     0.338 C 
ATOM     30  O   UNL     1      -1.861  -7.859  -5.531  1.00  0.00    -0.246 OA
BRANCH  29  31
ATOM     31  C   UNL     1       0.217  -7.662  -4.350  1.00  0.00     0.060 A 
ATOM     32  C   UNL     1       0.631  -7.781  -3.021  1.00  0.00     0.016 A 
ATOM     33  C   UNL     1       1.137  -7.800  -5.396  1.00  0.00     0.016 A 
ATOM     34  C   UNL     1       1.967  -8.065  -2.739  1.00  0.00     0.010 A 
ATOM     35  C   UNL     1       2.477  -8.080  -5.111  1.00  0.00     0.010 A 
ATOM     36  C   UNL     1       2.895  -8.236  -3.780  1.00  0.00    -0.014 A 
BRANCH  36  37
ATOM     37  C   UNL     1       4.238  -8.785  -3.470  1.00  0.00     0.031 A 
ATOM     38  C   UNL     1       5.463  -7.927  -3.402  1.00  0.00     0.074 A 
ATOM     39  C   UNL     1       4.323 -10.109  -3.240  1.00  0.00     0.049 A 
ATOM     40  N   UNL     1       6.669  -8.260  -3.022  1.00  0.00    -0.248 NA
ATOM     41  C   UNL     1       5.324  -6.524  -3.814  1.00  0.00     0.031 C 
ATOM     42  C   UNL     1       3.194 -11.037  -3.320  1.00  0.00     0.029 A 
ATOM     43  N   UNL     1       5.385 -10.902  -2.888  1.00  0.00    -0.354 N 
ATOM     44  C   UNL     1       7.436  -7.106  -3.124  1.00  0.00     0.074 A 
ATOM     45  C   UNL     1       6.565  -6.075  -3.652  1.00  0.00     0.031 C 
ATOM     46  C   UNL     1       3.616 -12.267  -3.003  1.00  0.00     0.029 A 
ATOM     47  C   UNL     1       5.050 -12.225  -2.723  1.00  0.00     0.049 A 
ATOM     48  H   UNL     1       6.299 -10.557  -2.766  1.00  0.00     0.167 HD
ATOM     49  C   UNL     1       8.737  -6.930  -2.787  1.00  0.00     0.034 A 
ATOM     50  C   UNL     1       5.803 -13.287  -2.376  1.00  0.00     0.034 A 
ATOM     51  C   UNL     1       9.588  -7.983  -2.281  1.00  0.00     0.049 A 
ATOM     52  C   UNL     1       7.252 -13.069  -2.031  1.00  0.00     0.074 A 
ATOM     53  C   UNL     1      10.903  -7.888  -1.858  1.00  0.00     0.029 A 
ATOM     54  N   UNL     1       9.226  -9.316  -2.143  1.00  0.00    -0.354 N 
ATOM     55  N   UNL     1       7.932 -11.946  -2.009  1.00  0.00    -0.248 NA
ATOM     56  C   UNL     1       8.035 -14.250  -1.645  1.00  0.00     0.031 C 
ATOM     57  C   UNL     1      11.357  -9.168  -1.540  1.00  0.00     0.029 A 
ATOM     58  C   UNL     1      10.303 -10.057  -1.680  1.00  0.00     0.049 A 
ATOM     59  H   UNL     1       8.334  -9.682  -2.344  1.00  0.00     0.167 HD
ATOM     60  C   UNL     1       9.214 -12.282  -1.585  1.00  0.00     0.074 A 
ATOM     61  C   UNL     1       9.206 -13.709  -1.334  1.00  0.00     0.031 C 
ATOM     62  C   UNL     1      10.297 -11.479  -1.424  1.00  0.00     0.034 A 
BRANCH  49  63
ATOM     63  C   UNL     1       9.344  -5.551  -2.908  1.00  0.00     0.023 A 
ATOM     64  C   UNL     1      10.450  -5.333  -3.752  1.00  0.00     0.031 A 
ATOM     65  C   UNL     1       8.937  -4.503  -2.064  1.00  0.00     0.131 A 
ATOM     66  C   UNL     1      11.136  -4.112  -3.701  1.00  0.00     0.055 A 
ATOM     67  C   UNL     1       9.599  -3.274  -2.047  1.00  0.00     0.041 A 
ATOM     68  F   UNL     1       7.894  -4.662  -1.233  1.00  0.00    -0.206 F 
ATOM     69  C   UNL     1      10.713  -3.080  -2.857  1.00  0.00     0.022 A 
BRANCH  66  70
ATOM     70  S   UNL     1      12.649  -3.840  -4.664  1.00  0.00     0.124 S 
ATOM     71  O   UNL     1      12.279  -2.688  -5.483  1.00  0.00    -0.237 OA
ATOM     72  O   UNL     1      13.633  -3.572  -3.619  1.00  0.00    -0.237 OA
ATOM     73  O   UNL     1      12.829  -5.089  -5.396  1.00  0.00    -0.744 OA
ENDBRANCH  66  70
ENDBRANCH  49  63
BRANCH  50  74
ATOM     74  C   UNL     1       5.152 -14.624  -2.265  1.00  0.00     0.023 A 
ATOM     75  C   UNL     1       4.547 -15.226  -3.384  1.00  0.00     0.031 A 
ATOM     76  C   UNL     1       5.010 -15.253  -1.018  1.00  0.00     0.131 A 
ATOM     77  C   UNL     1       3.767 -16.377  -3.219  1.00  0.00     0.055 A 
ATOM     78  C   UNL     1       4.294 -16.442  -0.870  1.00  0.00     0.041 A 
ATOM     79  F   UNL     1       5.553 -14.706   0.081  1.00  0.00    -0.206 F 
ATOM     80  C   UNL     1       3.651 -16.999  -1.972  1.00  0.00     0.022 A 
BRANCH  77  81
ATOM     81  S   UNL     1       2.758 -17.020  -4.583  1.00  0.00     0.124 S 
ATOM     82  O   UNL     1       3.292 -18.367  -4.748  1.00  0.00    -0.237 OA
ATOM     83  O   UNL     1       1.412 -16.938  -4.022  1.00  0.00    -0.237 OA
ATOM     84  O   UNL     1       3.030 -16.094  -5.678  1.00  0.00    -0.744 OA
ENDBRANCH  77  81
ENDBRANCH  50  74
BRANCH  62  85
ATOM     85  C   UNL     1      11.594 -12.100  -0.956  1.00  0.00     0.023 A 
ATOM     86  C   UNL     1      12.183 -11.681   0.253  1.00  0.00     0.031 A 
ATOM     87  C   UNL     1      12.318 -12.987  -1.772  1.00  0.00     0.131 A 
ATOM     88  C   UNL     1      13.473 -12.112   0.589  1.00  0.00     0.055 A 
ATOM     89  C   UNL     1      13.582 -13.456  -1.407  1.00  0.00     0.041 A 
ATOM     90  F   UNL     1      11.808 -13.409  -2.940  1.00  0.00    -0.206 F 
ATOM     91  C   UNL     1      14.171 -13.006  -0.229  1.00  0.00     0.022 A 
BRANCH  88  92
ATOM     92  S   UNL     1      14.329 -11.460   2.050  1.00  0.00     0.124 S 
ATOM     93  O   UNL     1      14.568 -12.674   2.827  1.00  0.00    -0.237 OA
ATOM     94  O   UNL     1      15.520 -10.853   1.462  1.00  0.00    -0.237 OA
ATOM     95  O   UNL     1      13.372 -10.527   2.634  1.00  0.00    -0.744 OA
ENDBRANCH  88  92
ENDBRANCH  62  85
ENDBRANCH  36  37
ENDBRANCH  29  31
ENDBRANCH  28  29
ENDBRANCH  27  28
ENDBRANCH  26  27
ENDBRANCH  25  26
ENDBRANCH  24  25
ENDBRANCH   1  24
TORSDOF 24
