REMARK SMILES O=C(CSc1nc2c([nH]1)CCCCCC2)OCCOCCOCCOCCOC(=O)c1ccc(-c2c3nc(c(-c4cc(S(=O)(=O)[O-])ccc4F)c4ccc([nH]4)c(-c4cc(S(=O)(=O)[O-])ccc4F)c4nc(c(-c5cc(S(=O)(=O)[O-])ccc5F)c5ccc2[nH]5)C=C4)C=C3)cc1
REMARK SMILES IDX 21 1 20 2 19 3 18 4 17 5 16 6 2 7 1 8 3 9 4 10 5 11 6 12
REMARK SMILES IDX 9 13 7 14 8 15 15 17 14 18 13 19 10 21 11 22 12 23 22 25
REMARK SMILES IDX 23 26 24 27 25 28 26 29 27 30 28 31 29 32 30 33 31 34 32 35
REMARK SMILES IDX 93 36 33 37 92 38 34 39 35 40 36 41 86 42 37 43 91 44 85 45
REMARK SMILES IDX 87 46 38 47 90 48 84 49 83 50 39 52 71 53 51 54 70 55 52 56
REMARK SMILES IDX 55 57 69 58 88 59 53 60 54 61 68 63 89 64 56 65 40 66 41 67
REMARK SMILES IDX 49 68 42 69 48 70 50 71 47 72 43 73 44 74 45 75 46 76 72 77
REMARK SMILES IDX 73 78 81 79 74 80 80 81 82 82 79 83 75 84 76 85 77 86 78 87
REMARK SMILES IDX 57 88 58 89 66 90 59 91 65 92 67 93 64 94 60 95 61 96 62 97
REMARK SMILES IDX 63 98
REMARK H PARENT 9 16 87 51 55 62
REMARK Flexibility Score: 90.00
ROOT
ATOM      1  C   UNL     1       2.156   1.111   2.245  1.00  0.00     0.188 C 
ENDROOT
BRANCH   1   2
ATOM      2  C   UNL     1       2.675  -0.102   1.455  1.00  0.00     0.188 C 
BRANCH   2   3
ATOM      3  O   UNL     1       4.081  -0.077   1.328  1.00  0.00    -0.376 OA
BRANCH   3   4
ATOM      4  C   UNL     1       4.777  -0.129   0.106  1.00  0.00     0.202 C 
BRANCH   4   5
ATOM      5  C   UNL     1       4.254   0.710  -1.052  1.00  0.00     0.261 C 
BRANCH   5   6
ATOM      6  O   UNL     1       2.905   0.470  -1.510  1.00  0.00    -0.463 OA
BRANCH   6   7
ATOM      7  C   UNL     1       2.253  -0.697  -1.702  1.00  0.00     0.316 C 
ATOM      8  O   UNL     1       1.032  -0.678  -1.878  1.00  0.00    -0.251 OA
BRANCH   7   9
ATOM      9  C   UNL     1       2.966  -2.021  -1.542  1.00  0.00     0.200 C 
BRANCH   9  10
ATOM     10  S   UNL     1       4.322  -2.295  -2.723  1.00  0.00    -0.076 SA
BRANCH  10  11
ATOM     11  C   UNL     1       3.416  -1.956  -4.141  1.00  0.00     0.166 A 
ATOM     12  N   UNL     1       2.940  -0.783  -4.457  1.00  0.00    -0.227 NA
ATOM     13  N   UNL     1       2.830  -2.961  -4.838  1.00  0.00    -0.337 N 
ATOM     14  C   UNL     1       1.886  -1.041  -5.302  1.00  0.00     0.063 A 
ATOM     15  C   UNL     1       1.812  -2.401  -5.571  1.00  0.00     0.039 A 
ATOM     16  H   UNL     1       3.086  -3.911  -4.823  1.00  0.00     0.168 HD
BRANCH  14  17
ATOM     17  C   UNL     1       0.990   0.093  -5.679  1.00  0.00     0.058 C 
BRANCH  17  18
ATOM     18  C   UNL     1       0.043  -0.181  -6.843  1.00  0.00     0.006 C 
BRANCH  18  19
ATOM     19  C   UNL     1      -1.258  -0.920  -6.493  1.00  0.00     0.000 CG0
ATOM     20  G   UNL     1      -1.216  -2.008  -5.419  1.00  0.00     0.000 G0
ENDBRANCH  18  19
ENDBRANCH  17  18
ENDBRANCH  14  17
BRANCH  15  21
ATOM     21  C   UNL     1       0.883  -3.220  -6.386  1.00  0.00     0.056 C 
BRANCH  21  22
ATOM     22  C   UNL     1      -0.519  -3.318  -5.795  1.00  0.00     0.006 C 
BRANCH  22  23
ATOM     23  C   UNL     1      -1.216  -2.008  -5.419  1.00  0.00     0.000 CG0
ATOM     24  G   UNL     1      -1.258  -0.920  -6.493  1.00  0.00     0.000 G0
ENDBRANCH  22  23
ENDBRANCH  21  22
ENDBRANCH  15  21
ENDBRANCH  10  11
ENDBRANCH   9  10
ENDBRANCH   7   9
ENDBRANCH   6   7
ENDBRANCH   5   6
ENDBRANCH   4   5
ENDBRANCH   3   4
ENDBRANCH   2   3
ENDBRANCH   1   2
BRANCH   1  25
ATOM     25  O   UNL     1       2.936   1.497   3.372  1.00  0.00    -0.377 OA
BRANCH  25  26
ATOM     26  C   UNL     1       4.270   1.884   3.075  1.00  0.00     0.188 C 
BRANCH  26  27
ATOM     27  C   UNL     1       5.370   0.960   3.655  1.00  0.00     0.188 C 
BRANCH  27  28
ATOM     28  O   UNL     1       5.168  -0.401   4.042  1.00  0.00    -0.376 OA
BRANCH  28  29
ATOM     29  C   UNL     1       3.940  -0.898   4.552  1.00  0.00     0.202 C 
BRANCH  29  30
ATOM     30  C   UNL     1       3.362  -0.421   5.880  1.00  0.00     0.261 C 
BRANCH  30  31
ATOM     31  O   UNL     1       3.317   0.982   5.991  1.00  0.00    -0.460 OA
BRANCH  31  32
ATOM     32  C   UNL     1       4.462   1.512   6.462  1.00  0.00     0.338 C 
ATOM     33  O   UNL     1       5.476   0.918   6.775  1.00  0.00    -0.246 OA
BRANCH  32  34
ATOM     34  C   UNL     1       4.268   2.955   6.617  1.00  0.00     0.060 A 
ATOM     35  C   UNL     1       5.329   3.639   7.209  1.00  0.00     0.016 A 
ATOM     36  C   UNL     1       2.993   3.521   6.467  1.00  0.00     0.016 A 
ATOM     37  C   UNL     1       5.039   4.780   7.911  1.00  0.00     0.010 A 
ATOM     38  C   UNL     1       2.699   4.650   7.187  1.00  0.00     0.010 A 
ATOM     39  C   UNL     1       3.707   5.196   7.977  1.00  0.00    -0.014 A 
BRANCH  39  40
ATOM     40  C   UNL     1       3.398   6.241   8.918  1.00  0.00     0.031 A 
ATOM     41  C   UNL     1       3.709   7.587   8.427  1.00  0.00     0.074 A 
ATOM     42  C   UNL     1       2.821   5.989  10.104  1.00  0.00     0.049 A 
ATOM     43  N   UNL     1       4.648   8.372   8.830  1.00  0.00    -0.248 NA
ATOM     44  C   UNL     1       3.008   8.041   7.219  1.00  0.00     0.031 C 
ATOM     45  C   UNL     1       2.224   4.729  10.553  1.00  0.00     0.029 A 
ATOM     46  N   UNL     1       2.539   6.855  11.114  1.00  0.00    -0.354 N 
ATOM     47  C   UNL     1       4.476   9.536   8.098  1.00  0.00     0.074 A 
ATOM     48  C   UNL     1       3.645   9.185   6.980  1.00  0.00     0.031 C 
ATOM     49  C   UNL     1       1.459   4.974  11.639  1.00  0.00     0.029 A 
ATOM     50  C   UNL     1       1.602   6.373  12.015  1.00  0.00     0.049 A 
ATOM     51  H   UNL     1       2.960   7.740  11.197  1.00  0.00     0.167 HD
ATOM     52  C   UNL     1       4.771  10.743   8.646  1.00  0.00     0.034 A 
ATOM     53  C   UNL     1       0.918   7.102  12.932  1.00  0.00     0.034 A 
ATOM     54  C   UNL     1       5.681  10.600   9.767  1.00  0.00     0.049 A 
ATOM     55  C   UNL     1       1.696   8.342  13.187  1.00  0.00     0.074 A 
ATOM     56  C   UNL     1       6.910   9.982   9.932  1.00  0.00     0.029 A 
ATOM     57  N   UNL     1       5.209  10.818  11.044  1.00  0.00    -0.354 N 
ATOM     58  N   UNL     1       2.865   8.358  13.768  1.00  0.00    -0.248 NA
ATOM     59  C   UNL     1       1.384   9.535  12.411  1.00  0.00     0.031 C 
ATOM     60  C   UNL     1       6.887   9.440  11.250  1.00  0.00     0.029 A 
ATOM     61  C   UNL     1       5.678   9.804  11.845  1.00  0.00     0.049 A 
ATOM     62  H   UNL     1       4.637  11.566  11.331  1.00  0.00     0.167 HD
ATOM     63  C   UNL     1       3.590   9.333  13.099  1.00  0.00     0.074 A 
ATOM     64  C   UNL     1       2.592  10.105  12.366  1.00  0.00     0.031 C 
ATOM     65  C   UNL     1       4.948   9.244  12.969  1.00  0.00     0.034 A 
BRANCH  52  66
ATOM     66  C   UNL     1       3.920  11.978   8.425  1.00  0.00     0.023 A 
ATOM     67  C   UNL     1       4.322  13.139   9.103  1.00  0.00     0.031 A 
ATOM     68  C   UNL     1       2.619  12.018   7.865  1.00  0.00     0.131 A 
ATOM     69  C   UNL     1       3.417  14.187   9.334  1.00  0.00     0.055 A 
ATOM     70  C   UNL     1       1.751  13.100   8.028  1.00  0.00     0.041 A 
ATOM     71  F   UNL     1       2.068  10.996   7.202  1.00  0.00    -0.206 F 
ATOM     72  C   UNL     1       2.131  14.176   8.805  1.00  0.00     0.022 A 
BRANCH  69  73
ATOM     73  S   UNL     1       3.895  15.456  10.528  1.00  0.00     0.124 S 
ATOM     74  O   UNL     1       4.260  14.639  11.681  1.00  0.00    -0.237 OA
ATOM     75  O   UNL     1       4.992  16.119   9.832  1.00  0.00    -0.237 OA
ATOM     76  O   UNL     1       2.679  16.250  10.681  1.00  0.00    -0.744 OA
ENDBRANCH  69  73
ENDBRANCH  52  66
BRANCH  53  77
ATOM     77  C   UNL     1      -0.486   6.889  13.369  1.00  0.00     0.023 A 
ATOM     78  C   UNL     1      -1.003   7.484  14.535  1.00  0.00     0.031 A 
ATOM     79  C   UNL     1      -1.420   6.253  12.517  1.00  0.00     0.131 A 
ATOM     80  C   UNL     1      -2.387   7.418  14.813  1.00  0.00     0.055 A 
ATOM     81  C   UNL     1      -2.781   6.165  12.810  1.00  0.00     0.041 A 
ATOM     82  F   UNL     1      -1.059   5.767  11.318  1.00  0.00    -0.206 F 
ATOM     83  C   UNL     1      -3.273   6.755  13.960  1.00  0.00     0.022 A 
BRANCH  80  84
ATOM     84  S   UNL     1      -3.075   8.314  16.239  1.00  0.00     0.124 S 
ATOM     85  O   UNL     1      -2.630   7.497  17.362  1.00  0.00    -0.237 OA
ATOM     86  O   UNL     1      -2.461   9.630  16.109  1.00  0.00    -0.237 OA
ATOM     87  O   UNL     1      -4.518   8.287  15.992  1.00  0.00    -0.744 OA
ENDBRANCH  80  84
ENDBRANCH  53  77
BRANCH  65  88
ATOM     88  C   UNL     1       5.709   8.315  13.893  1.00  0.00     0.023 A 
ATOM     89  C   UNL     1       5.443   6.937  14.051  1.00  0.00     0.031 A 
ATOM     90  C   UNL     1       6.827   8.841  14.568  1.00  0.00     0.131 A 
ATOM     91  C   UNL     1       6.270   6.148  14.875  1.00  0.00     0.055 A 
ATOM     92  C   UNL     1       7.655   8.053  15.367  1.00  0.00     0.041 A 
ATOM     93  F   UNL     1       7.155  10.138  14.437  1.00  0.00    -0.206 F 
ATOM     94  C   UNL     1       7.374   6.703  15.530  1.00  0.00     0.022 A 
BRANCH  91  95
ATOM     95  S   UNL     1       5.910   4.381  15.130  1.00  0.00     0.124 S 
ATOM     96  O   UNL     1       4.467   4.348  15.335  1.00  0.00    -0.237 OA
ATOM     97  O   UNL     1       6.395   3.783  13.889  1.00  0.00    -0.237 OA
ATOM     98  O   UNL     1       6.701   4.043  16.316  1.00  0.00    -0.744 OA
ENDBRANCH  91  95
ENDBRANCH  65  88
ENDBRANCH  39  40
ENDBRANCH  32  34
ENDBRANCH  31  32
ENDBRANCH  30  31
ENDBRANCH  29  30
ENDBRANCH  28  29
ENDBRANCH  27  28
ENDBRANCH  26  27
ENDBRANCH  25  26
ENDBRANCH   1  25
TORSDOF 25
