REMARK SMILES Cc1c(C[NH2+]Cc2cccc(F)c2)c(C(=O)OCCOCCOCCOCCOC(=O)c2ccc(-c3c4nc(c(-c5cc(S(=O)(=O)[O-])ccc5F)c5ccc([nH]5)c(-c5cc(S(=O)(=O)[O-])ccc5F)c5nc(c(-c6cc(S(=O)(=O)[O-])ccc6F)c6ccc3[nH]6)C=C5)C=C4)cc2)c(C)n1Cc1c(F)cccc1Cl
REMARK SMILES IDX 22 1 21 2 20 3 19 4 18 5 17 6 15 7 16 8 14 9 1 10 2 11 3 12
REMARK SMILES IDX 97 13 95 14 96 15 4 16 5 17 6 20 7 21 8 22 13 23 9 24 11 25
REMARK SMILES IDX 10 26 12 27 98 28 99 29 100 30 105 31 101 32 102 33 104 34
REMARK SMILES IDX 106 35 103 36 23 37 24 38 25 39 26 40 27 41 28 42 29 43
REMARK SMILES IDX 30 44 31 45 32 46 33 47 94 48 34 49 93 50 35 51 36 52 37 53
REMARK SMILES IDX 87 54 38 55 92 56 86 57 88 58 39 59 91 60 85 61 84 62 40 64
REMARK SMILES IDX 72 65 52 66 71 67 53 68 56 69 70 70 89 71 54 72 55 73 69 75
REMARK SMILES IDX 90 76 57 77 41 78 42 79 50 80 43 81 49 82 51 83 48 84 44 85
REMARK SMILES IDX 45 86 46 87 47 88 73 89 74 90 82 91 75 92 81 93 83 94 80 95
REMARK SMILES IDX 76 96 77 97 78 98 79 99 58 100 59 101 67 102 60 103 66 104
REMARK SMILES IDX 68 105 65 106 61 107 62 108 63 109 64 110
REMARK H PARENT 5 18 5 19 88 63 56 74
REMARK Flexibility Score: inf
ROOT
ATOM      1  C   UNL     1      -1.287   5.197  -2.614  1.00  0.00     0.188 C 
ENDROOT
BRANCH   1   2
ATOM      2  C   UNL     1      -2.820   5.175  -2.389  1.00  0.00     0.188 C 
BRANCH   2   3
ATOM      3  O   UNL     1      -3.413   6.452  -2.239  1.00  0.00    -0.376 OA
BRANCH   3   4
ATOM      4  C   UNL     1      -3.751   6.957  -0.958  1.00  0.00     0.202 C 
BRANCH   4   5
ATOM      5  C   UNL     1      -2.742   6.949   0.199  1.00  0.00     0.261 C 
BRANCH   5   6
ATOM      6  O   UNL     1      -1.788   5.895   0.175  1.00  0.00    -0.460 OA
BRANCH   6   7
ATOM      7  C   UNL     1      -2.066   4.717   0.787  1.00  0.00     0.340 C 
ATOM      8  O   UNL     1      -3.102   4.500   1.419  1.00  0.00    -0.246 OA
BRANCH   7   9
ATOM      9  C   UNL     1      -0.984   3.752   0.553  1.00  0.00     0.089 A 
ATOM     10  C   UNL     1       0.662   0.494  -0.188  1.00  0.00     0.065 C 
ATOM     11  C   UNL     1       0.251   1.911   0.044  1.00  0.00     0.025 A 
ATOM     12  C   UNL     1      -1.057   2.408   0.070  1.00  0.00     0.042 A 
ATOM     13  N   UNL     1       1.127   2.973   0.262  1.00  0.00    -0.343 N 
ATOM     14  C   UNL     1       0.370   4.068   0.658  1.00  0.00     0.030 A 
ATOM     15  C   UNL     1       0.928   5.394   1.054  1.00  0.00     0.065 C 
BRANCH  12  16
ATOM     16  C   UNL     1      -2.303   1.687  -0.382  1.00  0.00     0.300 C 
BRANCH  16  17
ATOM     17  N   UNL     1      -3.263   1.647   0.703  1.00  0.00    -0.339 N 
ATOM     18  H   UNL     1      -3.549   2.603   0.911  1.00  0.00     0.346 HD
ATOM     19  H   UNL     1      -2.798   1.191   1.488  1.00  0.00     0.346 HD
BRANCH  17  20
ATOM     20  C   UNL     1      -4.459   0.866   0.418  1.00  0.00     0.297 C 
BRANCH  20  21
ATOM     21  C   UNL     1      -4.317  -0.642   0.498  1.00  0.00     0.009 A 
ATOM     22  C   UNL     1      -3.109  -1.298   0.791  1.00  0.00     0.010 A 
ATOM     23  C   UNL     1      -5.452  -1.433   0.255  1.00  0.00     0.048 A 
ATOM     24  C   UNL     1      -3.019  -2.692   0.779  1.00  0.00     0.004 A 
ATOM     25  C   UNL     1      -5.359  -2.823   0.269  1.00  0.00     0.123 A 
ATOM     26  C   UNL     1      -4.148  -3.458   0.513  1.00  0.00     0.039 A 
ATOM     27  F   UNL     1      -6.453  -3.560   0.038  1.00  0.00    -0.207 F 
ENDBRANCH  20  21
ENDBRANCH  17  20
ENDBRANCH  16  17
ENDBRANCH  12  16
BRANCH  13  28
ATOM     28  C   UNL     1       2.610   2.921   0.245  1.00  0.00     0.162 C 
BRANCH  28  29
ATOM     29  C   UNL     1       3.271   3.420  -1.027  1.00  0.00     0.026 A 
ATOM     30  C   UNL     1       3.391   4.798  -1.267  1.00  0.00     0.129 A 
ATOM     31  C   UNL     1       3.872   2.586  -1.984  1.00  0.00     0.048 A 
ATOM     32  F   UNL     1       3.111   5.675  -0.300  1.00  0.00    -0.207 F 
ATOM     33  C   UNL     1       3.913   5.329  -2.446  1.00  0.00     0.040 A 
ATOM     34  C   UNL     1       4.452   3.112  -3.154  1.00  0.00     0.021 A 
ATOM     35  Cl  UNL     1       4.047   0.882  -1.752  1.00  0.00    -0.084 Cl
ATOM     36  C   UNL     1       4.437   4.481  -3.406  1.00  0.00     0.005 A 
ENDBRANCH  28  29
ENDBRANCH  13  28
ENDBRANCH   7   9
ENDBRANCH   6   7
ENDBRANCH   5   6
ENDBRANCH   4   5
ENDBRANCH   3   4
ENDBRANCH   2   3
ENDBRANCH   1   2
BRANCH   1  37
ATOM     37  O   UNL     1      -0.641   6.206  -3.387  1.00  0.00    -0.377 OA
BRANCH  37  38
ATOM     38  C   UNL     1      -1.183   7.514  -3.400  1.00  0.00     0.188 C 
BRANCH  38  39
ATOM     39  C   UNL     1      -2.095   7.794  -4.602  1.00  0.00     0.188 C 
BRANCH  39  40
ATOM     40  O   UNL     1      -2.541   6.687  -5.363  1.00  0.00    -0.376 OA
BRANCH  40  41
ATOM     41  C   UNL     1      -1.569   5.798  -5.908  1.00  0.00     0.202 C 
BRANCH  41  42
ATOM     42  C   UNL     1      -0.323   6.247  -6.766  1.00  0.00     0.261 C 
BRANCH  42  43
ATOM     43  O   UNL     1       0.954   6.857  -6.295  1.00  0.00    -0.460 OA
BRANCH  43  44
ATOM     44  C   UNL     1       1.355   8.040  -6.916  1.00  0.00     0.338 C 
ATOM     45  O   UNL     1       0.510   8.831  -7.326  1.00  0.00    -0.246 OA
BRANCH  44  46
ATOM     46  C   UNL     1       2.900   8.411  -7.040  1.00  0.00     0.060 A 
ATOM     47  C   UNL     1       3.362   9.598  -6.491  1.00  0.00     0.016 A 
ATOM     48  C   UNL     1       3.887   7.851  -7.897  1.00  0.00     0.016 A 
ATOM     49  C   UNL     1       4.733  10.115  -6.715  1.00  0.00     0.010 A 
ATOM     50  C   UNL     1       5.292   8.445  -8.184  1.00  0.00     0.010 A 
ATOM     51  C   UNL     1       5.805   9.625  -7.597  1.00  0.00    -0.014 A 
BRANCH  51  52
ATOM     52  C   UNL     1       7.216  10.674  -7.916  1.00  0.00     0.031 A 
ATOM     53  C   UNL     1       6.569  11.986  -7.636  1.00  0.00     0.074 A 
ATOM     54  C   UNL     1       8.550  10.909  -8.476  1.00  0.00     0.049 A 
ATOM     55  N   UNL     1       5.520  12.253  -8.360  1.00  0.00    -0.248 NA
ATOM     56  C   UNL     1       6.657  12.779  -6.411  1.00  0.00     0.031 C 
ATOM     57  C   UNL     1       9.408  10.009  -9.295  1.00  0.00     0.029 A 
ATOM     58  N   UNL     1       9.496  12.092  -8.512  1.00  0.00    -0.354 N 
ATOM     59  C   UNL     1       4.978  13.417  -7.908  1.00  0.00     0.074 A 
ATOM     60  C   UNL     1       5.601  13.593  -6.595  1.00  0.00     0.031 C 
ATOM     61  C   UNL     1      10.667  10.507  -9.574  1.00  0.00     0.029 A 
ATOM     62  C   UNL     1      10.899  11.870  -9.053  1.00  0.00     0.049 A 
ATOM     63  H   UNL     1       9.210  12.979  -8.195  1.00  0.00     0.167 HD
ATOM     64  C   UNL     1       4.761  14.315  -8.911  1.00  0.00     0.034 A 
ATOM     65  C   UNL     1      12.059  12.731  -9.206  1.00  0.00     0.034 A 
ATOM     66  C   UNL     1       5.897  15.184  -9.060  1.00  0.00     0.049 A 
ATOM     67  C   UNL     1      11.491  13.986  -9.681  1.00  0.00     0.074 A 
ATOM     68  C   UNL     1       6.739  15.774  -8.136  1.00  0.00     0.029 A 
ATOM     69  N   UNL     1       6.595  15.106 -10.246  1.00  0.00    -0.354 N 
ATOM     70  N   UNL     1      11.058  14.148 -10.892  1.00  0.00    -0.248 NA
ATOM     71  C   UNL     1      11.481  15.163  -8.827  1.00  0.00     0.031 C 
ATOM     72  C   UNL     1       8.024  15.479  -8.623  1.00  0.00     0.029 A 
ATOM     73  C   UNL     1       7.938  15.218  -9.986  1.00  0.00     0.049 A 
ATOM     74  H   UNL     1       6.194  14.989 -11.137  1.00  0.00     0.167 HD
ATOM     75  C   UNL     1      10.191  15.183 -10.723  1.00  0.00     0.074 A 
ATOM     76  C   UNL     1      10.689  15.930  -9.575  1.00  0.00     0.031 C 
ATOM     77  C   UNL     1       8.897  14.903 -11.018  1.00  0.00     0.034 A 
BRANCH  64  78
ATOM     78  C   UNL     1       4.014  13.722 -10.094  1.00  0.00     0.023 A 
ATOM     79  C   UNL     1       2.737  14.203 -10.389  1.00  0.00     0.031 A 
ATOM     80  C   UNL     1       4.502  12.647 -10.883  1.00  0.00     0.131 A 
ATOM     81  C   UNL     1       1.966  13.570 -11.380  1.00  0.00     0.055 A 
ATOM     82  C   UNL     1       3.703  11.971 -11.802  1.00  0.00     0.041 A 
ATOM     83  F   UNL     1       5.780  12.245 -10.799  1.00  0.00    -0.206 F 
ATOM     84  C   UNL     1       2.419  12.430 -12.052  1.00  0.00     0.022 A 
BRANCH  81  85
ATOM     85  S   UNL     1       0.377  14.308 -11.833  1.00  0.00     0.124 S 
ATOM     86  O   UNL     1      -0.421  14.086 -10.631  1.00  0.00    -0.237 OA
ATOM     87  O   UNL     1       0.745  15.697 -12.096  1.00  0.00    -0.237 OA
ATOM     88  O   UNL     1      -0.038  13.547 -13.009  1.00  0.00    -0.744 OA
ENDBRANCH  81  85
ENDBRANCH  64  78
BRANCH  65  89
ATOM     89  C   UNL     1      13.708  12.984  -9.416  1.00  0.00     0.023 A 
ATOM     90  C   UNL     1      14.318  14.217 -10.005  1.00  0.00     0.031 A 
ATOM     91  C   UNL     1      14.639  12.271  -8.646  1.00  0.00     0.131 A 
ATOM     92  C   UNL     1      15.685  14.649  -9.768  1.00  0.00     0.055 A 
ATOM     93  C   UNL     1      15.987  12.708  -8.420  1.00  0.00     0.041 A 
ATOM     94  F   UNL     1      14.258  11.167  -7.992  1.00  0.00    -0.206 F 
ATOM     95  C   UNL     1      16.505  13.891  -8.951  1.00  0.00     0.022 A 
BRANCH  92  96
ATOM     96  S   UNL     1      16.418  16.291 -10.319  1.00  0.00     0.124 S 
ATOM     97  O   UNL     1      16.907  16.001 -11.662  1.00  0.00    -0.237 OA
ATOM     98  O   UNL     1      15.296  17.217 -10.220  1.00  0.00    -0.237 OA
ATOM     99  O   UNL     1      17.480  16.540  -9.338  1.00  0.00    -0.744 OA
ENDBRANCH  92  96
ENDBRANCH  65  89
BRANCH  77 100
ATOM    100  C   UNL     1       8.611  14.158 -12.311  1.00  0.00     0.023 A 
ATOM    101  C   UNL     1       9.213  12.948 -12.749  1.00  0.00     0.031 A 
ATOM    102  C   UNL     1       7.716  14.771 -13.201  1.00  0.00     0.131 A 
ATOM    103  C   UNL     1       8.923  12.419 -14.026  1.00  0.00     0.055 A 
ATOM    104  C   UNL     1       7.406  14.233 -14.450  1.00  0.00     0.041 A 
ATOM    105  F   UNL     1       7.121  15.927 -12.864  1.00  0.00    -0.206 F 
ATOM    106  C   UNL     1       8.016  13.059 -14.873  1.00  0.00     0.022 A 
BRANCH 103 107
ATOM    107  S   UNL     1       9.748  10.899 -14.618  1.00  0.00     0.124 S 
ATOM    108  O   UNL     1      11.165  11.233 -14.530  1.00  0.00    -0.237 OA
ATOM    109  O   UNL     1       9.274   9.886 -13.679  1.00  0.00    -0.237 OA
ATOM    110  O   UNL     1       9.246  10.744 -15.985  1.00  0.00    -0.744 OA
ENDBRANCH 103 107
ENDBRANCH  77 100
ENDBRANCH  51  52
ENDBRANCH  44  46
ENDBRANCH  43  44
ENDBRANCH  42  43
ENDBRANCH  41  42
ENDBRANCH  40  41
ENDBRANCH  39  40
ENDBRANCH  38  39
ENDBRANCH  37  38
ENDBRANCH   1  37
TORSDOF 29
