REMARK SMILES O=C(OCCOCCOCCOCCOC(=O)[C@H]1CC2(CC[NH+](C(=O)c3cccc(O)c3)CC2)CN1C(=O)C1CC1)c1ccc(-c2c3nc(c(-c4cc(S(=O)(=O)[O-])ccc4F)c4ccc([nH]4)c(-c4cc(S(=O)(=O)[O-])ccc4F)c4nc(c(-c5cc(S(=O)(=O)[O-])ccc5F)c5ccc2[nH]5)C=C4)C=C3)cc1
REMARK SMILES IDX 9 1 8 2 7 3 6 4 5 5 4 6 3 7 2 8 1 9 42 10 43 11 104 12 44 13
REMARK SMILES IDX 103 14 45 15 46 16 47 17 97 18 48 19 102 20 96 21 98 22
REMARK SMILES IDX 49 23 101 24 95 25 94 26 50 28 82 29 62 30 81 31 63 32 66 33
REMARK SMILES IDX 80 34 99 35 64 36 65 37 79 39 100 40 67 41 51 42 52 43 60 44
REMARK SMILES IDX 53 45 59 46 61 47 58 48 54 49 55 50 56 51 57 52 83 53 84 54
REMARK SMILES IDX 92 55 85 56 91 57 93 58 90 59 86 60 87 61 88 62 89 63 68 64
REMARK SMILES IDX 69 65 77 66 70 67 76 68 78 69 75 70 71 71 72 72 73 73 74 74
REMARK SMILES IDX 10 75 11 76 12 77 13 78 14 79 15 80 16 81 17 82 18 83 19 84
REMARK SMILES IDX 36 85 20 86 35 87 21 88 34 89 22 90 33 91 23 92 37 94 38 95
REMARK SMILES IDX 39 96 40 97 41 98 24 99 25 100 26 101 27 102 32 103 28 104
REMARK SMILES IDX 30 105 29 106 31 107
REMARK H PARENT 98 27 66 38 23 93 31 108
REMARK Flexibility Score: inf
ROOT
ATOM      1  O   UNL     1       5.453  -4.368   2.336  1.00  0.00    -0.377 OA
ENDROOT
BRANCH   1   2
ATOM      2  C   UNL     1       5.773  -2.999   2.602  1.00  0.00     0.188 C 
BRANCH   2   3
ATOM      3  C   UNL     1       5.231  -2.480   3.912  1.00  0.00     0.188 C 
BRANCH   3   4
ATOM      4  O   UNL     1       4.958  -3.564   4.782  1.00  0.00    -0.376 OA
BRANCH   4   5
ATOM      5  C   UNL     1       3.611  -3.683   5.204  1.00  0.00     0.202 C 
BRANCH   5   6
ATOM      6  C   UNL     1       3.367  -2.894   6.492  1.00  0.00     0.261 C 
BRANCH   6   7
ATOM      7  O   UNL     1       3.628  -1.489   6.299  1.00  0.00    -0.460 OA
BRANCH   7   8
ATOM      8  C   UNL     1       4.736  -0.762   6.578  1.00  0.00     0.338 C 
ATOM      9  O   UNL     1       4.683   0.452   6.365  1.00  0.00    -0.246 OA
BRANCH   8  10
ATOM     10  C   UNL     1       6.053  -1.315   7.047  1.00  0.00     0.060 A 
ATOM     11  C   UNL     1       6.452  -2.652   6.973  1.00  0.00     0.016 A 
ATOM     12  C   UNL     1       7.012  -0.381   7.484  1.00  0.00     0.016 A 
ATOM     13  C   UNL     1       7.757  -3.050   7.219  1.00  0.00     0.010 A 
ATOM     14  C   UNL     1       8.309  -0.780   7.824  1.00  0.00     0.010 A 
ATOM     15  C   UNL     1       8.675  -2.121   7.687  1.00  0.00    -0.014 A 
BRANCH  15  16
ATOM     16  C   UNL     1       9.889  -2.659   8.315  1.00  0.00     0.031 A 
ATOM     17  C   UNL     1       9.792  -2.977   9.774  1.00  0.00     0.074 A 
ATOM     18  C   UNL     1      10.962  -2.979   7.577  1.00  0.00     0.049 A 
ATOM     19  N   UNL     1      10.715  -3.354  10.611  1.00  0.00    -0.248 NA
ATOM     20  C   UNL     1       8.447  -2.864  10.366  1.00  0.00     0.031 C 
ATOM     21  C   UNL     1      11.043  -2.876   6.120  1.00  0.00     0.029 A 
ATOM     22  N   UNL     1      12.186  -3.459   7.952  1.00  0.00    -0.354 N 
ATOM     23  C   UNL     1      10.070  -3.490  11.835  1.00  0.00     0.074 A 
ATOM     24  C   UNL     1       8.679  -3.165  11.629  1.00  0.00     0.031 C 
ATOM     25  C   UNL     1      12.273  -3.249   5.727  1.00  0.00     0.029 A 
ATOM     26  C   UNL     1      13.078  -3.542   6.909  1.00  0.00     0.049 A 
ATOM     27  H   UNL     1      12.406  -3.721   8.875  1.00  0.00     0.167 HD
ATOM     28  C   UNL     1      10.615  -3.829  13.027  1.00  0.00     0.034 A 
ATOM     29  C   UNL     1      14.409  -3.756   6.939  1.00  0.00     0.034 A 
ATOM     30  C   UNL     1      12.025  -4.082  13.168  1.00  0.00     0.049 A 
ATOM     31  C   UNL     1      15.039  -3.982   8.293  1.00  0.00     0.074 A 
ATOM     32  C   UNL     1      12.757  -4.331  14.311  1.00  0.00     0.029 A 
ATOM     33  N   UNL     1      12.925  -4.087  12.103  1.00  0.00    -0.354 N 
ATOM     34  N   UNL     1      14.458  -4.017   9.475  1.00  0.00    -0.248 NA
ATOM     35  C   UNL     1      16.490  -4.184   8.330  1.00  0.00     0.031 C 
ATOM     36  C   UNL     1      14.106  -4.405  13.946  1.00  0.00     0.029 A 
ATOM     37  C   UNL     1      14.210  -4.301  12.564  1.00  0.00     0.049 A 
ATOM     38  H   UNL     1      12.681  -3.958  11.158  1.00  0.00     0.167 HD
ATOM     39  C   UNL     1      15.469  -4.269  10.395  1.00  0.00     0.074 A 
ATOM     40  C   UNL     1      16.697  -4.379   9.627  1.00  0.00     0.031 C 
ATOM     41  C   UNL     1      15.399  -4.404  11.745  1.00  0.00     0.034 A 
BRANCH  28  42
ATOM     42  C   UNL     1       9.699  -3.768  14.227  1.00  0.00     0.023 A 
ATOM     43  C   UNL     1       8.544  -4.568  14.324  1.00  0.00     0.031 A 
ATOM     44  C   UNL     1       9.886  -2.769  15.198  1.00  0.00     0.131 A 
ATOM     45  C   UNL     1       7.565  -4.268  15.286  1.00  0.00     0.055 A 
ATOM     46  C   UNL     1       8.957  -2.546  16.217  1.00  0.00     0.041 A 
ATOM     47  F   UNL     1      10.947  -1.949  15.140  1.00  0.00    -0.206 F 
ATOM     48  C   UNL     1       7.775  -3.279  16.249  1.00  0.00     0.022 A 
BRANCH  45  49
ATOM     49  S   UNL     1       5.921  -5.023  15.113  1.00  0.00     0.124 S 
ATOM     50  O   UNL     1       5.530  -4.575  13.777  1.00  0.00    -0.237 OA
ATOM     51  O   UNL     1       6.210  -6.446  15.248  1.00  0.00    -0.237 OA
ATOM     52  O   UNL     1       5.154  -4.434  16.208  1.00  0.00    -0.744 OA
ENDBRANCH  45  49
ENDBRANCH  28  42
BRANCH  29  53
ATOM     53  C   UNL     1      15.216  -3.649   5.687  1.00  0.00     0.023 A 
ATOM     54  C   UNL     1      15.938  -4.735   5.170  1.00  0.00     0.031 A 
ATOM     55  C   UNL     1      15.271  -2.431   4.979  1.00  0.00     0.131 A 
ATOM     56  C   UNL     1      16.693  -4.578   3.992  1.00  0.00     0.055 A 
ATOM     57  C   UNL     1      15.982  -2.294   3.786  1.00  0.00     0.041 A 
ATOM     58  F   UNL     1      14.608  -1.353   5.429  1.00  0.00    -0.206 F 
ATOM     59  C   UNL     1      16.705  -3.371   3.289  1.00  0.00     0.022 A 
BRANCH  56  60
ATOM     60  S   UNL     1      17.709  -5.964   3.410  1.00  0.00     0.124 S 
ATOM     61  O   UNL     1      18.587  -6.190   4.552  1.00  0.00    -0.237 OA
ATOM     62  O   UNL     1      16.704  -6.992   3.158  1.00  0.00    -0.237 OA
ATOM     63  O   UNL     1      18.363  -5.431   2.216  1.00  0.00    -0.744 OA
ENDBRANCH  56  60
ENDBRANCH  29  53
BRANCH  41  64
ATOM     64  C   UNL     1      16.675  -4.750  12.464  1.00  0.00     0.023 A 
ATOM     65  C   UNL     1      17.718  -3.823  12.613  1.00  0.00     0.031 A 
ATOM     66  C   UNL     1      16.808  -6.013  13.068  1.00  0.00     0.131 A 
ATOM     67  C   UNL     1      18.866  -4.185  13.331  1.00  0.00     0.055 A 
ATOM     68  C   UNL     1      17.926  -6.345  13.831  1.00  0.00     0.041 A 
ATOM     69  F   UNL     1      15.835  -6.932  12.951  1.00  0.00    -0.206 F 
ATOM     70  C   UNL     1      18.966  -5.429  13.960  1.00  0.00     0.022 A 
BRANCH  67  71
ATOM     71  S   UNL     1      20.257  -3.025  13.388  1.00  0.00     0.124 S 
ATOM     72  O   UNL     1      20.606  -2.903  11.976  1.00  0.00    -0.237 OA
ATOM     73  O   UNL     1      19.658  -1.845  14.002  1.00  0.00    -0.237 OA
ATOM     74  O   UNL     1      21.245  -3.717  14.214  1.00  0.00    -0.744 OA
ENDBRANCH  67  71
ENDBRANCH  41  64
ENDBRANCH  15  16
ENDBRANCH   8  10
ENDBRANCH   7   8
ENDBRANCH   6   7
ENDBRANCH   5   6
ENDBRANCH   4   5
ENDBRANCH   3   4
ENDBRANCH   2   3
ENDBRANCH   1   2
BRANCH   1  75
ATOM     75  C   UNL     1       6.261  -5.365   2.969  1.00  0.00     0.188 C 
BRANCH  75  76
ATOM     76  C   UNL     1       7.697  -5.499   2.441  1.00  0.00     0.188 C 
BRANCH  76  77
ATOM     77  O   UNL     1       8.368  -4.256   2.526  1.00  0.00    -0.376 OA
BRANCH  77  78
ATOM     78  C   UNL     1       8.830  -3.686   1.309  1.00  0.00     0.202 C 
BRANCH  78  79
ATOM     79  C   UNL     1       7.950  -3.684   0.029  1.00  0.00     0.261 C 
BRANCH  79  80
ATOM     80  O   UNL     1       6.600  -4.196   0.149  1.00  0.00    -0.462 OA
BRANCH  80  81
ATOM     81  C   UNL     1       6.200  -5.074  -0.790  1.00  0.00     0.328 C 
ATOM     82  O   UNL     1       6.901  -5.351  -1.768  1.00  0.00    -0.250 OA
BRANCH  81  83
ATOM     83  C   UNL     1       4.837  -5.821  -0.602  1.00  0.00     0.195 C 
ATOM     84  C   UNL     1       5.328  -7.290  -0.442  1.00  0.00     0.046 C 
ATOM     85  N   UNL     1       3.643  -5.872   0.289  1.00  0.00    -0.328 N 
ATOM     86  C   UNL     1       4.061  -8.145  -0.387  1.00  0.00     0.001 C 
ATOM     87  C   UNL     1       3.131  -7.238   0.414  1.00  0.00     0.128 C 
ATOM     88  C   UNL     1       4.283  -9.484   0.340  1.00  0.00     0.071 C 
ATOM     89  C   UNL     1       3.512  -8.434  -1.806  1.00  0.00     0.071 C 
ATOM     90  C   UNL     1       5.202 -10.400  -0.461  1.00  0.00     0.271 C 
ATOM     91  C   UNL     1       4.392  -9.421  -2.581  1.00  0.00     0.271 C 
ATOM     92  N   UNL     1       4.644 -10.625  -1.796  1.00  0.00    -0.267 N 
ATOM     93  H   UNL     1       5.299 -11.358  -1.741  1.00  0.00     0.357 HD
BRANCH  85  94
ATOM     94  C   UNL     1       2.730  -4.894   0.658  1.00  0.00     0.226 C 
ATOM     95  O   UNL     1       1.601  -5.165   1.068  1.00  0.00    -0.275 OA
BRANCH  94  96
ATOM     96  C   UNL     1       3.140  -3.485   0.702  1.00  0.00     0.079 C 
ATOM     97  C   UNL     1       3.593  -2.716  -0.503  1.00  0.00     0.014 C 
ATOM     98  C   UNL     1       2.274  -2.389   0.130  1.00  0.00     0.014 C 
ENDBRANCH  94  96
ENDBRANCH  85  94
BRANCH  92  99
ATOM     99  C   UNL     1       4.486 -11.867  -2.402  1.00  0.00     0.344 C 
ATOM    100  O   UNL     1       4.182 -12.022  -3.586  1.00  0.00    -0.226 OA
BRANCH  99 101
ATOM    101  C   UNL     1       4.691 -13.080  -1.589  1.00  0.00     0.083 A 
ATOM    102  C   UNL     1       3.862 -13.344  -0.490  1.00  0.00     0.018 A 
ATOM    103  C   UNL     1       5.716 -13.960  -1.938  1.00  0.00     0.064 A 
ATOM    104  C   UNL     1       4.103 -14.468   0.298  1.00  0.00     0.005 A 
ATOM    105  C   UNL     1       5.939 -15.078  -1.146  1.00  0.00     0.116 A 
ATOM    106  C   UNL     1       5.149 -15.336  -0.026  1.00  0.00     0.046 A 
BRANCH 105 107
ATOM    107  O   UNL     1       6.961 -15.909  -1.497  1.00  0.00    -0.508 OA
ATOM    108  H   UNL     1       7.141 -16.674  -0.986  1.00  0.00     0.293 HD
ENDBRANCH 105 107
ENDBRANCH  99 101
ENDBRANCH  92  99
ENDBRANCH  81  83
ENDBRANCH  80  81
ENDBRANCH  79  80
ENDBRANCH  78  79
ENDBRANCH  77  78
ENDBRANCH  76  77
ENDBRANCH  75  76
ENDBRANCH   1  75
TORSDOF 28
