REMARK SMILES C[C@@H]1SCCC[C@]1(CC(=O)OCCOCCOCCOCCOC(=O)c1ccc(-c2c3nc(c(-c4cc(S(=O)(=O)[O-])ccc4F)c4ccc([nH]4)c(-c4cc(S(=O)(=O)[O-])ccc4F)c4nc(c(-c5cc(S(=O)(=O)[O-])ccc5F)c5ccc2[nH]5)C=C4)C=C3)cc1)C(C)(C)[NH3+]
REMARK SMILES IDX 17 1 16 2 15 3 14 4 13 5 12 6 11 7 9 8 10 9 8 10 7 11 1 12
REMARK SMILES IDX 2 13 3 14 4 15 6 16 5 17 89 18 90 19 91 20 92 21 18 25 19 26
REMARK SMILES IDX 20 27 21 28 22 29 23 30 24 31 25 32 26 33 27 34 88 35 28 36
REMARK SMILES IDX 87 37 29 38 30 39 31 40 81 41 32 42 86 43 80 44 82 45 33 46
REMARK SMILES IDX 85 47 79 48 78 49 34 51 66 52 46 53 65 54 47 55 50 56 64 57
REMARK SMILES IDX 83 58 48 59 49 60 63 62 84 63 51 64 35 65 36 66 44 67 37 68
REMARK SMILES IDX 43 69 45 70 42 71 38 72 39 73 40 74 41 75 67 76 68 77 76 78
REMARK SMILES IDX 69 79 75 80 77 81 74 82 70 83 71 84 72 85 73 86 52 87 53 88
REMARK SMILES IDX 61 89 54 90 60 91 62 92 59 93 55 94 56 95 57 96 58 97
REMARK H PARENT 92 22 92 23 92 24 82 50 50 61
REMARK Flexibility Score: inf
ROOT
ATOM      1  O   UNL     1      -0.090   1.492  -4.401  1.00  0.00    -0.377 OA
ENDROOT
BRANCH   1   2
ATOM      2  C   UNL     1       0.131   1.371  -5.802  1.00  0.00     0.188 C 
BRANCH   2   3
ATOM      3  C   UNL     1      -0.363   0.024  -6.338  1.00  0.00     0.188 C 
BRANCH   3   4
ATOM      4  O   UNL     1      -1.780  -0.085  -6.482  1.00  0.00    -0.376 OA
BRANCH   4   5
ATOM      5  C   UNL     1      -2.563   0.073  -5.297  1.00  0.00     0.202 C 
BRANCH   5   6
ATOM      6  C   UNL     1      -2.381  -1.008  -4.221  1.00  0.00     0.261 C 
BRANCH   6   7
ATOM      7  O   UNL     1      -1.055  -1.008  -3.644  1.00  0.00    -0.463 OA
BRANCH   7   8
ATOM      8  C   UNL     1      -0.487  -2.231  -3.478  1.00  0.00     0.306 C 
ATOM      9  O   UNL     1      -1.040  -3.296  -3.737  1.00  0.00    -0.252 OA
BRANCH   8  10
ATOM     10  C   UNL     1       1.004  -2.165  -3.166  1.00  0.00     0.137 C 
BRANCH  10  11
ATOM     11  C   UNL     1       1.615  -1.537  -1.838  1.00  0.00     0.046 C 
ATOM     12  C   UNL     1       0.822  -0.513   0.500  1.00  0.00     0.020 C 
ATOM     13  C   UNL     1       0.458  -1.272  -0.781  1.00  0.00     0.056 C 
ATOM     14  S   UNL     1      -0.392  -2.821  -0.254  1.00  0.00    -0.158 SA
ATOM     15  C   UNL     1       1.034  -3.746   0.351  1.00  0.00     0.070 C 
ATOM     16  C   UNL     1       2.631  -2.589  -1.257  1.00  0.00     0.016 C 
ATOM     17  C   UNL     1       2.060  -3.917  -0.754  1.00  0.00     0.012 C 
BRANCH  11  18
ATOM     18  C   UNL     1       2.473  -0.193  -2.171  1.00  0.00     0.096 C 
ATOM     19  C   UNL     1       3.546   0.206  -1.122  1.00  0.00     0.079 C 
ATOM     20  C   UNL     1       3.258  -0.228  -3.509  1.00  0.00     0.079 C 
BRANCH  18  21
ATOM     21  N   UNL     1       1.547   0.925  -2.237  1.00  0.00    -0.353 N 
ATOM     22  H   UNL     1       1.013   0.976  -1.370  1.00  0.00     0.344 HD
ATOM     23  H   UNL     1       0.909   0.792  -3.022  1.00  0.00     0.344 HD
ATOM     24  H   UNL     1       2.069   1.792  -2.367  1.00  0.00     0.344 HD
ENDBRANCH  18  21
ENDBRANCH  11  18
ENDBRANCH  10  11
ENDBRANCH   8  10
ENDBRANCH   7   8
ENDBRANCH   6   7
ENDBRANCH   5   6
ENDBRANCH   4   5
ENDBRANCH   3   4
ENDBRANCH   2   3
ENDBRANCH   1   2
BRANCH   1  25
ATOM     25  C   UNL     1      -0.625   2.719  -3.892  1.00  0.00     0.188 C 
BRANCH  25  26
ATOM     26  C   UNL     1      -0.389   4.004  -4.690  1.00  0.00     0.188 C 
BRANCH  26  27
ATOM     27  O   UNL     1       0.934   4.274  -5.146  1.00  0.00    -0.376 OA
BRANCH  27  28
ATOM     28  C   UNL     1       2.030   3.906  -4.318  1.00  0.00     0.202 C 
BRANCH  28  29
ATOM     29  C   UNL     1       2.288   4.748  -3.065  1.00  0.00     0.261 C 
BRANCH  29  30
ATOM     30  O   UNL     1       1.253   4.625  -2.075  1.00  0.00    -0.460 OA
BRANCH  30  31
ATOM     31  C   UNL     1       0.431   5.699  -1.987  1.00  0.00     0.338 C 
ATOM     32  O   UNL     1       0.486   6.716  -2.654  1.00  0.00    -0.246 OA
BRANCH  31  33
ATOM     33  C   UNL     1      -0.683   5.420  -1.061  1.00  0.00     0.060 A 
ATOM     34  C   UNL     1      -1.986   5.586  -1.547  1.00  0.00     0.016 A 
ATOM     35  C   UNL     1      -0.457   5.138   0.289  1.00  0.00     0.016 A 
ATOM     36  C   UNL     1      -3.068   5.523  -0.675  1.00  0.00     0.010 A 
ATOM     37  C   UNL     1      -1.546   5.093   1.167  1.00  0.00     0.010 A 
ATOM     38  C   UNL     1      -2.850   5.329   0.694  1.00  0.00    -0.014 A 
BRANCH  38  39
ATOM     39  C   UNL     1      -3.968   5.581   1.635  1.00  0.00     0.031 A 
ATOM     40  C   UNL     1      -4.070   6.936   2.282  1.00  0.00     0.074 A 
ATOM     41  C   UNL     1      -4.910   4.648   1.851  1.00  0.00     0.049 A 
ATOM     42  N   UNL     1      -4.948   7.386   3.140  1.00  0.00    -0.248 NA
ATOM     43  C   UNL     1      -3.039   7.917   1.905  1.00  0.00     0.031 C 
ATOM     44  C   UNL     1      -4.946   3.327   1.225  1.00  0.00     0.029 A 
ATOM     45  N   UNL     1      -6.020   4.670   2.656  1.00  0.00    -0.354 N 
ATOM     46  C   UNL     1      -4.577   8.700   3.408  1.00  0.00     0.074 A 
ATOM     47  C   UNL     1      -3.373   8.960   2.648  1.00  0.00     0.031 C 
ATOM     48  C   UNL     1      -6.022   2.660   1.678  1.00  0.00     0.029 A 
ATOM     49  C   UNL     1      -6.726   3.490   2.654  1.00  0.00     0.049 A 
ATOM     50  H   UNL     1      -6.287   5.456   3.186  1.00  0.00     0.167 HD
ATOM     51  C   UNL     1      -5.190   9.607   4.209  1.00  0.00     0.034 A 
ATOM     52  C   UNL     1      -7.800   3.117   3.379  1.00  0.00     0.034 A 
ATOM     53  C   UNL     1      -6.381   9.319   4.972  1.00  0.00     0.049 A 
ATOM     54  C   UNL     1      -8.407   4.110   4.342  1.00  0.00     0.074 A 
ATOM     55  C   UNL     1      -7.087  10.157   5.818  1.00  0.00     0.029 A 
ATOM     56  N   UNL     1      -7.034   8.093   4.993  1.00  0.00    -0.354 N 
ATOM     57  N   UNL     1      -8.047   5.349   4.591  1.00  0.00    -0.248 NA
ATOM     58  C   UNL     1      -9.571   3.656   5.114  1.00  0.00     0.031 C 
ATOM     59  C   UNL     1      -8.118   9.416   6.407  1.00  0.00     0.029 A 
ATOM     60  C   UNL     1      -8.112   8.141   5.864  1.00  0.00     0.049 A 
ATOM     61  H   UNL     1      -6.771   7.305   4.466  1.00  0.00     0.167 HD
ATOM     62  C   UNL     1      -8.961   5.830   5.527  1.00  0.00     0.074 A 
ATOM     63  C   UNL     1      -9.895   4.753   5.782  1.00  0.00     0.031 C 
ATOM     64  C   UNL     1      -9.027   7.051   6.118  1.00  0.00     0.034 A 
BRANCH  51  65
ATOM     65  C   UNL     1      -4.541  10.964   4.343  1.00  0.00     0.023 A 
ATOM     66  C   UNL     1      -4.413  11.840   3.251  1.00  0.00     0.031 A 
ATOM     67  C   UNL     1      -4.005  11.371   5.578  1.00  0.00     0.131 A 
ATOM     68  C   UNL     1      -3.706  13.044   3.397  1.00  0.00     0.055 A 
ATOM     69  C   UNL     1      -3.373  12.606   5.737  1.00  0.00     0.041 A 
ATOM     70  F   UNL     1      -4.073  10.568   6.651  1.00  0.00    -0.206 F 
ATOM     71  C   UNL     1      -3.207  13.444   4.638  1.00  0.00     0.022 A 
BRANCH  68  72
ATOM     72  S   UNL     1      -3.318  14.010   1.911  1.00  0.00     0.124 S 
ATOM     73  O   UNL     1      -2.565  13.042   1.117  1.00  0.00    -0.237 OA
ATOM     74  O   UNL     1      -4.641  14.359   1.407  1.00  0.00    -0.237 OA
ATOM     75  O   UNL     1      -2.531  15.129   2.425  1.00  0.00    -0.744 OA
ENDBRANCH  68  72
ENDBRANCH  51  65
BRANCH  52  76
ATOM     76  C   UNL     1      -8.345   1.733   3.267  1.00  0.00     0.023 A 
ATOM     77  C   UNL     1      -9.652   1.497   2.814  1.00  0.00     0.031 A 
ATOM     78  C   UNL     1      -7.577   0.624   3.669  1.00  0.00     0.131 A 
ATOM     79  C   UNL     1     -10.168   0.191   2.817  1.00  0.00     0.055 A 
ATOM     80  C   UNL     1      -8.075  -0.678   3.618  1.00  0.00     0.041 A 
ATOM     81  F   UNL     1      -6.322   0.793   4.117  1.00  0.00    -0.206 F 
ATOM     82  C   UNL     1      -9.384  -0.899   3.202  1.00  0.00     0.022 A 
BRANCH  79  83
ATOM     83  S   UNL     1     -11.916  -0.054   2.396  1.00  0.00     0.124 S 
ATOM     84  O   UNL     1     -12.580   0.784   3.388  1.00  0.00    -0.237 OA
ATOM     85  O   UNL     1     -11.964   0.423   1.018  1.00  0.00    -0.237 OA
ATOM     86  O   UNL     1     -12.109  -1.492   2.563  1.00  0.00    -0.744 OA
ENDBRANCH  79  83
ENDBRANCH  52  76
BRANCH  64  87
ATOM     87  C   UNL     1     -10.180   7.295   7.063  1.00  0.00     0.023 A 
ATOM     88  C   UNL     1     -10.302   6.601   8.279  1.00  0.00     0.031 A 
ATOM     89  C   UNL     1     -11.179   8.229   6.732  1.00  0.00     0.131 A 
ATOM     90  C   UNL     1     -11.428   6.806   9.091  1.00  0.00     0.055 A 
ATOM     91  C   UNL     1     -12.263   8.476   7.575  1.00  0.00     0.041 A 
ATOM     92  F   UNL     1     -11.116   8.919   5.582  1.00  0.00    -0.206 F 
ATOM     93  C   UNL     1     -12.400   7.752   8.755  1.00  0.00     0.022 A 
BRANCH  90  94
ATOM     94  S   UNL     1     -11.660   5.744  10.544  1.00  0.00     0.124 S 
ATOM     95  O   UNL     1     -11.665   4.412   9.948  1.00  0.00    -0.237 OA
ATOM     96  O   UNL     1     -10.495   6.073  11.359  1.00  0.00    -0.237 OA
ATOM     97  O   UNL     1     -12.942   6.185  11.090  1.00  0.00    -0.744 OA
ENDBRANCH  90  94
ENDBRANCH  64  87
ENDBRANCH  38  39
ENDBRANCH  31  33
ENDBRANCH  30  31
ENDBRANCH  29  30
ENDBRANCH  28  29
ENDBRANCH  27  28
ENDBRANCH  26  27
ENDBRANCH  25  26
ENDBRANCH   1  25
TORSDOF 26
