REMARK SMILES O=C(CCC1CC[NH+]([C@H]2CCO[C@@]3(CCSC3)C2)CC1)OCCOCCOCCOCCOC(=O)c1ccc(-c2c3nc(c(-c4cc(S(=O)(=O)[O-])ccc4F)c4ccc([nH]4)c(-c4cc(S(=O)(=O)[O-])ccc4F)c4nc(c(-c5cc(S(=O)(=O)[O-])ccc5F)c5ccc2[nH]5)C=C4)C=C3)cc1
REMARK SMILES IDX 27 1 26 2 25 3 24 4 23 5 22 6 21 7 2 8 1 9 3 10 4 11 5 12
REMARK SMILES IDX 6 13 20 14 7 15 19 16 8 17 9 19 10 20 18 21 11 22 13 23
REMARK SMILES IDX 12 24 14 25 17 26 15 27 16 28 28 29 29 30 30 31 31 32 32 33
REMARK SMILES IDX 33 34 34 35 35 36 36 37 37 38 98 39 38 40 97 41 39 42 40 43
REMARK SMILES IDX 41 44 91 45 42 46 96 47 90 48 92 49 43 50 95 51 89 52 88 53
REMARK SMILES IDX 44 55 76 56 56 57 75 58 57 59 60 60 74 61 93 62 58 63 59 64
REMARK SMILES IDX 73 66 94 67 61 68 45 69 46 70 54 71 47 72 53 73 55 74 52 75
REMARK SMILES IDX 48 76 49 77 50 78 51 79 77 80 78 81 86 82 79 83 85 84 87 85
REMARK SMILES IDX 84 86 80 87 81 88 82 89 83 90 62 91 63 92 71 93 64 94 70 95
REMARK SMILES IDX 72 96 69 97 65 98 66 99 67 100 68 101
REMARK H PARENT 8 18 92 54 60 65
REMARK Flexibility Score: inf
ROOT
ATOM      1  O   UNL     1       4.472   0.524   2.621  1.00  0.00    -0.377 OA
ENDROOT
BRANCH   1   2
ATOM      2  C   UNL     1       3.510   1.193   3.411  1.00  0.00     0.188 C 
BRANCH   2   3
ATOM      3  C   UNL     1       1.974   0.930   3.365  1.00  0.00     0.188 C 
BRANCH   3   4
ATOM      4  O   UNL     1       1.087   0.861   2.230  1.00  0.00    -0.376 OA
BRANCH   4   5
ATOM      5  C   UNL     1       0.932   1.625   1.013  1.00  0.00     0.202 C 
BRANCH   5   6
ATOM      6  C   UNL     1       0.500   3.346   0.818  1.00  0.00     0.261 C 
BRANCH   6   7
ATOM      7  O   UNL     1       1.527   4.855   1.514  1.00  0.00    -0.463 OA
BRANCH   7   8
ATOM      8  C   UNL     1       1.930   5.840   2.496  1.00  0.00     0.305 C 
ATOM      9  O   UNL     1       3.044   6.358   2.466  1.00  0.00    -0.252 OA
BRANCH   8  10
ATOM     10  C   UNL     1       0.978   6.150   3.669  1.00  0.00     0.123 C 
BRANCH  10  11
ATOM     11  C   UNL     1      -0.430   5.954   3.235  1.00  0.00     0.016 C 
BRANCH  11  12
ATOM     12  C   UNL     1      -0.303   4.885   2.203  1.00  0.00     0.001 C 
ATOM     13  C   UNL     1       1.066   3.552   2.790  1.00  0.00     0.065 C 
ATOM     14  C   UNL     1       0.055   5.713   0.485  1.00  0.00     0.065 C 
ATOM     15  C   UNL     1       2.593   3.297   1.476  1.00  0.00     0.262 C 
ATOM     16  C   UNL     1       1.653   5.312  -0.458  1.00  0.00     0.262 C 
ATOM     17  N   UNL     1       2.526   3.882  -0.263  1.00  0.00    -0.332 N 
ATOM     18  H   UNL     1       3.532   4.021  -0.357  1.00  0.00     0.348 HD
BRANCH  17  19
ATOM     19  C   UNL     1       2.280   2.895  -1.499  1.00  0.00     0.189 C 
ATOM     20  C   UNL     1       0.787   2.680  -1.940  1.00  0.00     0.093 C 
ATOM     21  C   UNL     1       3.012   3.281  -2.857  1.00  0.00     0.101 C 
ATOM     22  C   UNL     1       0.495   1.840  -3.144  1.00  0.00     0.167 C 
ATOM     23  C   UNL     1       2.579   2.425  -4.135  1.00  0.00     0.084 C 
ATOM     24  O   UNL     1       1.143   2.396  -4.246  1.00  0.00    -0.374 OA
ATOM     25  C   UNL     1       2.956   3.087  -5.487  1.00  0.00     0.047 C 
ATOM     26  C   UNL     1       3.121   0.974  -4.130  1.00  0.00     0.105 C 
ATOM     27  C   UNL     1       4.035   2.317  -6.218  1.00  0.00     0.072 C 
ATOM     28  S   UNL     1       3.765   0.598  -5.773  1.00  0.00    -0.159 SA
ENDBRANCH  17  19
ENDBRANCH  11  12
ENDBRANCH  10  11
ENDBRANCH   8  10
ENDBRANCH   7   8
ENDBRANCH   6   7
ENDBRANCH   5   6
ENDBRANCH   4   5
ENDBRANCH   3   4
ENDBRANCH   2   3
ENDBRANCH   1   2
BRANCH   1  29
ATOM     29  C   UNL     1       4.103  -0.069   1.394  1.00  0.00     0.188 C 
BRANCH  29  30
ATOM     30  C   UNL     1       3.175  -1.277   1.543  1.00  0.00     0.188 C 
BRANCH  30  31
ATOM     31  O   UNL     1       2.915  -1.621   2.893  1.00  0.00    -0.376 OA
BRANCH  31  32
ATOM     32  C   UNL     1       3.791  -2.497   3.582  1.00  0.00     0.202 C 
BRANCH  32  33
ATOM     33  C   UNL     1       5.303  -2.231   3.596  1.00  0.00     0.261 C 
BRANCH  33  34
ATOM     34  O   UNL     1       5.982  -2.171   2.332  1.00  0.00    -0.460 OA
BRANCH  34  35
ATOM     35  C   UNL     1       5.741  -3.101   1.384  1.00  0.00     0.338 C 
ATOM     36  O   UNL     1       5.060  -4.108   1.491  1.00  0.00    -0.246 OA
BRANCH  35  37
ATOM     37  C   UNL     1       6.235  -2.525   0.111  1.00  0.00     0.060 A 
ATOM     38  C   UNL     1       5.366  -2.413  -0.989  1.00  0.00     0.016 A 
ATOM     39  C   UNL     1       7.524  -1.992   0.047  1.00  0.00     0.016 A 
ATOM     40  C   UNL     1       5.793  -1.786  -2.162  1.00  0.00     0.010 A 
ATOM     41  C   UNL     1       7.963  -1.401  -1.134  1.00  0.00     0.010 A 
ATOM     42  C   UNL     1       7.114  -1.332  -2.254  1.00  0.00    -0.014 A 
BRANCH  42  43
ATOM     43  C   UNL     1       7.741  -1.125  -3.580  1.00  0.00     0.031 A 
ATOM     44  C   UNL     1       8.443  -2.313  -4.176  1.00  0.00     0.074 A 
ATOM     45  C   UNL     1       7.776   0.070  -4.189  1.00  0.00     0.049 A 
ATOM     46  N   UNL     1       9.270  -2.380  -5.184  1.00  0.00    -0.248 NA
ATOM     47  C   UNL     1       8.203  -3.599  -3.501  1.00  0.00     0.031 C 
ATOM     48  C   UNL     1       7.104   1.278  -3.723  1.00  0.00     0.029 A 
ATOM     49  N   UNL     1       8.445   0.465  -5.321  1.00  0.00    -0.354 N 
ATOM     50  C   UNL     1       9.673  -3.710  -5.243  1.00  0.00     0.074 A 
ATOM     51  C   UNL     1       9.029  -4.400  -4.149  1.00  0.00     0.031 C 
ATOM     52  C   UNL     1       7.426   2.293  -4.545  1.00  0.00     0.029 A 
ATOM     53  C   UNL     1       8.363   1.815  -5.562  1.00  0.00     0.049 A 
ATOM     54  H   UNL     1       8.936  -0.159  -5.903  1.00  0.00     0.167 HD
ATOM     55  C   UNL     1      10.511  -4.300  -6.129  1.00  0.00     0.034 A 
ATOM     56  C   UNL     1       9.013   2.580  -6.465  1.00  0.00     0.034 A 
ATOM     57  C   UNL     1      11.166  -3.580  -7.190  1.00  0.00     0.049 A 
ATOM     58  C   UNL     1      10.008   1.929  -7.399  1.00  0.00     0.074 A 
ATOM     59  C   UNL     1      12.023  -4.066  -8.160  1.00  0.00     0.029 A 
ATOM     60  N   UNL     1      11.055  -2.210  -7.405  1.00  0.00    -0.354 N 
ATOM     61  N   UNL     1      10.387   0.671  -7.460  1.00  0.00    -0.248 NA
ATOM     62  C   UNL     1      10.669   2.799  -8.381  1.00  0.00     0.031 C 
ATOM     63  C   UNL     1      12.502  -2.979  -8.899  1.00  0.00     0.029 A 
ATOM     64  C   UNL     1      11.862  -1.828  -8.464  1.00  0.00     0.049 A 
ATOM     65  H   UNL     1      10.486  -1.601  -6.881  1.00  0.00     0.167 HD
ATOM     66  C   UNL     1      11.304   0.596  -8.508  1.00  0.00     0.074 A 
ATOM     67  C   UNL     1      11.423   1.935  -9.048  1.00  0.00     0.031 C 
ATOM     68  C   UNL     1      11.973  -0.485  -8.989  1.00  0.00     0.034 A 
BRANCH  55  69
ATOM     69  C   UNL     1      10.819  -5.763  -5.910  1.00  0.00     0.023 A 
ATOM     70  C   UNL     1       9.810  -6.743  -5.908  1.00  0.00     0.031 A 
ATOM     71  C   UNL     1      12.128  -6.170  -5.599  1.00  0.00     0.131 A 
ATOM     72  C   UNL     1      10.104  -8.050  -5.491  1.00  0.00     0.055 A 
ATOM     73  C   UNL     1      12.433  -7.497  -5.291  1.00  0.00     0.041 A 
ATOM     74  F   UNL     1      13.131  -5.279  -5.553  1.00  0.00    -0.206 F 
ATOM     75  C   UNL     1      11.414  -8.441  -5.211  1.00  0.00     0.022 A 
BRANCH  72  76
ATOM     76  S   UNL     1       8.723  -9.166  -5.112  1.00  0.00     0.124 S 
ATOM     77  O   UNL     1       7.977  -8.388  -4.125  1.00  0.00    -0.237 OA
ATOM     78  O   UNL     1       8.085  -9.331  -6.412  1.00  0.00    -0.237 OA
ATOM     79  O   UNL     1       9.382 -10.358  -4.582  1.00  0.00    -0.744 OA
ENDBRANCH  72  76
ENDBRANCH  55  69
BRANCH  56  80
ATOM     80  C   UNL     1       8.797   4.056  -6.479  1.00  0.00     0.023 A 
ATOM     81  C   UNL     1       8.198   4.700  -7.574  1.00  0.00     0.031 A 
ATOM     82  C   UNL     1       9.196   4.848  -5.387  1.00  0.00     0.131 A 
ATOM     83  C   UNL     1       8.034   6.096  -7.559  1.00  0.00     0.055 A 
ATOM     84  C   UNL     1       8.984   6.227  -5.356  1.00  0.00     0.041 A 
ATOM     85  F   UNL     1       9.777   4.284  -4.316  1.00  0.00    -0.206 F 
ATOM     86  C   UNL     1       8.405   6.860  -6.450  1.00  0.00     0.022 A 
BRANCH  83  87
ATOM     87  S   UNL     1       7.364   6.912  -9.034  1.00  0.00     0.124 S 
ATOM     88  O   UNL     1       8.362   6.570 -10.042  1.00  0.00    -0.237 OA
ATOM     89  O   UNL     1       6.063   6.266  -9.172  1.00  0.00    -0.237 OA
ATOM     90  O   UNL     1       7.319   8.322  -8.653  1.00  0.00    -0.744 OA
ENDBRANCH  83  87
ENDBRANCH  56  80
BRANCH  68  91
ATOM     91  C   UNL     1      12.844  -0.289 -10.209  1.00  0.00     0.023 A 
ATOM     92  C   UNL     1      14.026   0.471 -10.180  1.00  0.00     0.031 A 
ATOM     93  C   UNL     1      12.496  -0.923 -11.418  1.00  0.00     0.131 A 
ATOM     94  C   UNL     1      14.799   0.603 -11.346  1.00  0.00     0.055 A 
ATOM     95  C   UNL     1      13.301  -0.840 -12.554  1.00  0.00     0.041 A 
ATOM     96  F   UNL     1      11.376  -1.658 -11.505  1.00  0.00    -0.206 F 
ATOM     97  C   UNL     1      14.456  -0.066 -12.524  1.00  0.00     0.022 A 
BRANCH  94  98
ATOM     98  S   UNL     1      16.224   1.726 -11.331  1.00  0.00     0.124 S 
ATOM     99  O   UNL     1      15.603   2.999 -10.980  1.00  0.00    -0.237 OA
ATOM    100  O   UNL     1      17.081   1.131 -10.312  1.00  0.00    -0.237 OA
ATOM    101  O   UNL     1      16.739   1.644 -12.697  1.00  0.00    -0.744 OA
ENDBRANCH  94  98
ENDBRANCH  68  91
ENDBRANCH  42  43
ENDBRANCH  35  37
ENDBRANCH  34  35
ENDBRANCH  33  34
ENDBRANCH  32  33
ENDBRANCH  31  32
ENDBRANCH  30  31
ENDBRANCH  29  30
ENDBRANCH   1  29
TORSDOF 26
