REMARK SMILES C[NH2+][C@@]1(C(=O)OCCOCCOCCOCCOC(=O)c2ccc(-c3c4nc(c(-c5cc(S(=O)(=O)[O-])ccc5F)c5ccc([nH]5)c(-c5cc(S(=O)(=O)[O-])ccc5F)c5nc(c(-c6cc(S(=O)(=O)[O-])ccc6F)c6ccc3[nH]6)C=C5)C=C4)cc2)CCC[C@H](n2cc(I)cn2)C1
REMARK SMILES IDX 13 1 12 2 11 3 10 4 9 5 8 6 7 7 6 8 4 9 5 10 3 11 84 12
REMARK SMILES IDX 94 13 85 14 87 15 86 16 2 17 1 18 88 21 89 22 93 23 90 24
REMARK SMILES IDX 92 25 91 26 14 27 15 28 16 29 17 30 18 31 19 32 20 33 21 34
REMARK SMILES IDX 22 35 83 36 23 37 82 38 24 39 25 40 26 41 76 42 27 43 81 44
REMARK SMILES IDX 75 45 77 46 28 47 80 48 74 49 73 50 29 52 61 53 41 54 60 55
REMARK SMILES IDX 42 56 45 57 59 58 78 59 43 60 44 61 58 63 79 64 46 65 30 66
REMARK SMILES IDX 31 67 39 68 32 69 38 70 40 71 37 72 33 73 34 74 35 75 36 76
REMARK SMILES IDX 62 77 63 78 71 79 64 80 70 81 72 82 69 83 65 84 66 85 67 86
REMARK SMILES IDX 68 87 47 88 48 89 56 90 49 91 55 92 57 93 54 94 50 95 51 96
REMARK SMILES IDX 52 97 53 98
REMARK H PARENT 2 19 2 20 77 51 45 62
REMARK Flexibility Score: inf
ROOT
ATOM      1  C   UNL     1      -2.477   2.264  -3.017  1.00  0.00     0.188 C 
ENDROOT
BRANCH   1   2
ATOM      2  O   UNL     1      -1.319   2.112  -2.203  1.00  0.00    -0.377 OA
BRANCH   2   3
ATOM      3  C   UNL     1      -0.926   0.773  -1.982  1.00  0.00     0.188 C 
BRANCH   3   4
ATOM      4  C   UNL     1      -0.265   0.072  -3.166  1.00  0.00     0.188 C 
BRANCH   4   5
ATOM      5  O   UNL     1      -1.134  -0.399  -4.191  1.00  0.00    -0.376 OA
BRANCH   5   6
ATOM      6  C   UNL     1      -2.202  -1.286  -3.846  1.00  0.00     0.202 C 
BRANCH   6   7
ATOM      7  C   UNL     1      -1.917  -2.446  -2.883  1.00  0.00     0.261 C 
BRANCH   7   8
ATOM      8  O   UNL     1      -2.015  -2.044  -1.492  1.00  0.00    -0.459 OA
BRANCH   8   9
ATOM      9  C   UNL     1      -0.972  -2.362  -0.698  1.00  0.00     0.368 C 
ATOM     10  O   UNL     1       0.013  -2.986  -1.098  1.00  0.00    -0.245 OA
BRANCH   9  11
ATOM     11  C   UNL     1      -1.109  -1.940   0.812  1.00  0.00     0.196 C 
ATOM     12  C   UNL     1      -1.629  -3.190   1.564  1.00  0.00     0.081 C 
ATOM     13  C   UNL     1      -1.897  -0.648   1.196  1.00  0.00     0.108 C 
ATOM     14  C   UNL     1      -3.142  -3.243   1.695  1.00  0.00     0.009 C 
ATOM     15  C   UNL     1      -3.407  -0.751   1.561  1.00  0.00     0.114 C 
ATOM     16  C   UNL     1      -3.626  -2.000   2.429  1.00  0.00     0.028 C 
BRANCH  11  17
ATOM     17  N   UNL     1       0.319  -1.800   1.320  1.00  0.00    -0.334 N 
ATOM     18  C   UNL     1       1.063  -0.665   0.783  1.00  0.00     0.331 C 
ATOM     19  H   UNL     1       0.284  -1.702   2.335  1.00  0.00     0.347 HD
ATOM     20  H   UNL     1       0.813  -2.635   1.007  1.00  0.00     0.347 HD
ENDBRANCH  11  17
BRANCH  15  21
ATOM     21  N   UNL     1      -4.360  -0.669   0.454  1.00  0.00    -0.268 N 
ATOM     22  C   UNL     1      -5.635  -1.173   0.430  1.00  0.00     0.123 A 
ATOM     23  N   UNL     1      -4.045  -0.038  -0.695  1.00  0.00    -0.180 NA
ATOM     24  C   UNL     1      -5.998  -1.160  -0.888  1.00  0.00     0.051 A 
ATOM     25  C   UNL     1      -5.039  -0.378  -1.525  1.00  0.00     0.149 A 
ATOM     26  I   UNL     1      -7.551  -2.135  -1.690  1.00  0.00    -0.041 I 
ENDBRANCH  15  21
ENDBRANCH   9  11
ENDBRANCH   8   9
ENDBRANCH   7   8
ENDBRANCH   6   7
ENDBRANCH   5   6
ENDBRANCH   4   5
ENDBRANCH   3   4
ENDBRANCH   2   3
ENDBRANCH   1   2
BRANCH   1  27
ATOM     27  C   UNL     1      -2.095   3.028  -4.282  1.00  0.00     0.188 C 
BRANCH  27  28
ATOM     28  O   UNL     1      -1.783   4.415  -4.130  1.00  0.00    -0.376 OA
BRANCH  28  29
ATOM     29  C   UNL     1      -0.927   4.776  -3.052  1.00  0.00     0.202 C 
BRANCH  29  30
ATOM     30  C   UNL     1      -1.674   5.430  -1.873  1.00  0.00     0.261 C 
BRANCH  30  31
ATOM     31  O   UNL     1      -3.029   4.985  -1.690  1.00  0.00    -0.460 OA
BRANCH  31  32
ATOM     32  C   UNL     1      -3.922   5.546  -2.546  1.00  0.00     0.338 C 
ATOM     33  O   UNL     1      -3.708   6.421  -3.365  1.00  0.00    -0.246 OA
BRANCH  32  34
ATOM     34  C   UNL     1      -5.246   4.913  -2.383  1.00  0.00     0.060 A 
ATOM     35  C   UNL     1      -5.846   4.302  -3.490  1.00  0.00     0.016 A 
ATOM     36  C   UNL     1      -5.955   5.066  -1.189  1.00  0.00     0.016 A 
ATOM     37  C   UNL     1      -7.185   3.904  -3.426  1.00  0.00     0.010 A 
ATOM     38  C   UNL     1      -7.299   4.678  -1.130  1.00  0.00     0.010 A 
ATOM     39  C   UNL     1      -7.935   4.141  -2.264  1.00  0.00    -0.014 A 
BRANCH  39  40
ATOM     40  C   UNL     1      -9.418   4.028  -2.304  1.00  0.00     0.031 A 
ATOM     41  C   UNL     1     -10.230   5.266  -2.575  1.00  0.00     0.074 A 
ATOM     42  C   UNL     1     -10.042   2.850  -2.129  1.00  0.00     0.049 A 
ATOM     43  N   UNL     1     -11.529   5.415  -2.627  1.00  0.00    -0.248 NA
ATOM     44  C   UNL     1      -9.470   6.502  -2.815  1.00  0.00     0.031 C 
ATOM     45  C   UNL     1      -9.372   1.576  -1.894  1.00  0.00     0.029 A 
ATOM     46  N   UNL     1     -11.380   2.536  -2.120  1.00  0.00    -0.354 N 
ATOM     47  C   UNL     1     -11.745   6.760  -2.905  1.00  0.00     0.074 A 
ATOM     48  C   UNL     1     -10.441   7.388  -2.974  1.00  0.00     0.031 C 
ATOM     49  C   UNL     1     -10.306   0.618  -1.763  1.00  0.00     0.029 A 
ATOM     50  C   UNL     1     -11.635   1.208  -1.871  1.00  0.00     0.049 A 
ATOM     51  H   UNL     1     -12.090   3.200  -2.278  1.00  0.00     0.167 HD
ATOM     52  C   UNL     1     -12.920   7.412  -3.089  1.00  0.00     0.034 A 
ATOM     53  C   UNL     1     -12.797   0.538  -1.725  1.00  0.00     0.034 A 
ATOM     54  C   UNL     1     -14.215   6.783  -2.994  1.00  0.00     0.049 A 
ATOM     55  C   UNL     1     -14.094   1.295  -1.863  1.00  0.00     0.074 A 
ATOM     56  C   UNL     1     -15.466   7.355  -3.153  1.00  0.00     0.029 A 
ATOM     57  N   UNL     1     -14.430   5.442  -2.700  1.00  0.00    -0.354 N 
ATOM     58  N   UNL     1     -14.282   2.568  -2.122  1.00  0.00    -0.248 NA
ATOM     59  C   UNL     1     -15.334   0.525  -1.692  1.00  0.00     0.031 C 
ATOM     60  C   UNL     1     -16.434   6.378  -2.892  1.00  0.00     0.029 A 
ATOM     61  C   UNL     1     -15.790   5.177  -2.643  1.00  0.00     0.049 A 
ATOM     62  H   UNL     1     -13.719   4.777  -2.553  1.00  0.00     0.167 HD
ATOM     63  C   UNL     1     -15.662   2.746  -2.164  1.00  0.00     0.074 A 
ATOM     64  C   UNL     1     -16.256   1.447  -1.925  1.00  0.00     0.031 C 
ATOM     65  C   UNL     1     -16.373   3.881  -2.382  1.00  0.00     0.034 A 
BRANCH  52  66
ATOM     66  C   UNL     1     -12.843   8.896  -3.349  1.00  0.00     0.023 A 
ATOM     67  C   UNL     1     -12.246   9.414  -4.513  1.00  0.00     0.031 A 
ATOM     68  C   UNL     1     -13.329   9.808  -2.396  1.00  0.00     0.131 A 
ATOM     69  C   UNL     1     -12.082  10.800  -4.657  1.00  0.00     0.055 A 
ATOM     70  C   UNL     1     -13.232  11.188  -2.581  1.00  0.00     0.041 A 
ATOM     71  F   UNL     1     -13.887   9.372  -1.256  1.00  0.00    -0.206 F 
ATOM     72  C   UNL     1     -12.591  11.691  -3.710  1.00  0.00     0.022 A 
BRANCH  69  73
ATOM     73  S   UNL     1     -11.066  11.416  -6.028  1.00  0.00     0.124 S 
ATOM     74  O   UNL     1      -9.785  10.768  -5.760  1.00  0.00    -0.237 OA
ATOM     75  O   UNL     1     -11.793  10.938  -7.198  1.00  0.00    -0.237 OA
ATOM     76  O   UNL     1     -11.076  12.865  -5.837  1.00  0.00    -0.744 OA
ENDBRANCH  69  73
ENDBRANCH  52  66
BRANCH  53  77
ATOM     77  C   UNL     1     -12.800  -0.917  -1.389  1.00  0.00     0.023 A 
ATOM     78  C   UNL     1     -13.342  -1.870  -2.268  1.00  0.00     0.031 A 
ATOM     79  C   UNL     1     -12.300  -1.372  -0.155  1.00  0.00     0.131 A 
ATOM     80  C   UNL     1     -13.409  -3.219  -1.884  1.00  0.00     0.055 A 
ATOM     81  C   UNL     1     -12.322  -2.722   0.200  1.00  0.00     0.041 A 
ATOM     82  F   UNL     1     -11.772  -0.506   0.725  1.00  0.00    -0.206 F 
ATOM     83  C   UNL     1     -12.891  -3.653  -0.662  1.00  0.00     0.022 A 
BRANCH  80  84
ATOM     84  S   UNL     1     -14.262  -4.396  -2.972  1.00  0.00     0.124 S 
ATOM     85  O   UNL     1     -15.592  -3.804  -3.066  1.00  0.00    -0.237 OA
ATOM     86  O   UNL     1     -13.445  -4.337  -4.179  1.00  0.00    -0.237 OA
ATOM     87  O   UNL     1     -14.189  -5.655  -2.234  1.00  0.00    -0.744 OA
ENDBRANCH  80  84
ENDBRANCH  53  77
BRANCH  65  88
ATOM     88  C   UNL     1     -17.876   3.753  -2.401  1.00  0.00     0.023 A 
ATOM     89  C   UNL     1     -18.606   3.437  -1.241  1.00  0.00     0.031 A 
ATOM     90  C   UNL     1     -18.586   3.932  -3.601  1.00  0.00     0.131 A 
ATOM     91  C   UNL     1     -19.995   3.257  -1.317  1.00  0.00     0.055 A 
ATOM     92  C   UNL     1     -19.975   3.808  -3.659  1.00  0.00     0.041 A 
ATOM     93  F   UNL     1     -17.940   4.232  -4.739  1.00  0.00    -0.206 F 
ATOM     94  C   UNL     1     -20.686   3.455  -2.515  1.00  0.00     0.022 A 
BRANCH  91  95
ATOM     95  S   UNL     1     -20.881   2.674   0.155  1.00  0.00     0.124 S 
ATOM     96  O   UNL     1     -20.220   1.401   0.423  1.00  0.00    -0.237 OA
ATOM     97  O   UNL     1     -20.625   3.740   1.117  1.00  0.00    -0.237 OA
ATOM     98  O   UNL     1     -22.267   2.569  -0.297  1.00  0.00    -0.744 OA
ENDBRANCH  91  95
ENDBRANCH  65  88
ENDBRANCH  39  40
ENDBRANCH  32  34
ENDBRANCH  31  32
ENDBRANCH  30  31
ENDBRANCH  29  30
ENDBRANCH  28  29
ENDBRANCH  27  28
ENDBRANCH   1  27
TORSDOF 25
