REMARK SMILES C[C@H](NC(=O)N(CC(=O)OCCOCCOCCOCCOC(=O)c1ccc(-c2c3nc(c(-c4cc(S(=O)(=O)[O-])ccc4F)c4ccc([nH]4)c(-c4cc(S(=O)(=O)[O-])ccc4F)c4nc(c(-c5cc(S(=O)(=O)[O-])ccc5F)c5ccc2[nH]5)C=C4)C=C3)cc1)C(C)(C)C)c1nncn1C
REMARK SMILES IDX 15 1 14 2 13 3 12 4 11 5 10 6 8 7 9 8 7 9 6 10 4 11 3 12
REMARK SMILES IDX 5 14 2 15 1 16 92 17 93 18 96 19 94 20 95 21 97 22 88 23
REMARK SMILES IDX 89 24 90 25 91 26 16 27 17 28 18 29 19 30 20 31 21 32 22 33
REMARK SMILES IDX 23 34 24 35 25 36 26 37 87 38 27 39 86 40 28 41 29 42 30 43
REMARK SMILES IDX 80 44 31 45 85 46 79 47 81 48 32 49 84 50 78 51 77 52 33 54
REMARK SMILES IDX 65 55 45 56 64 57 46 58 49 59 63 60 82 61 47 62 48 63 62 65
REMARK SMILES IDX 83 66 50 67 34 68 35 69 43 70 36 71 42 72 44 73 41 74 37 75
REMARK SMILES IDX 38 76 39 77 40 78 66 79 67 80 75 81 68 82 74 83 76 84 73 85
REMARK SMILES IDX 69 86 70 87 71 88 72 89 51 90 52 91 60 92 53 93 59 94 61 95
REMARK SMILES IDX 58 96 54 97 55 98 56 99 57 100
REMARK H PARENT 3 13 81 53 49 64
REMARK Flexibility Score: inf
ROOT
ATOM      1  C   UNL     1       5.215   2.593   2.478  1.00  0.00     0.188 C 
ENDROOT
BRANCH   1   2
ATOM      2  C   UNL     1       5.044   4.123   2.541  1.00  0.00     0.188 C 
BRANCH   2   3
ATOM      3  O   UNL     1       4.272   4.746   3.568  1.00  0.00    -0.376 OA
BRANCH   3   4
ATOM      4  C   UNL     1       3.682   3.937   4.574  1.00  0.00     0.202 C 
BRANCH   4   5
ATOM      5  C   UNL     1       2.410   3.183   4.131  1.00  0.00     0.261 C 
BRANCH   5   6
ATOM      6  O   UNL     1       2.467   2.559   2.820  1.00  0.00    -0.462 OA
BRANCH   6   7
ATOM      7  C   UNL     1       1.986   3.269   1.769  1.00  0.00     0.325 C 
ATOM      8  O   UNL     1       1.323   4.299   1.887  1.00  0.00    -0.250 OA
BRANCH   7   9
ATOM      9  C   UNL     1       2.499   2.827   0.357  1.00  0.00     0.244 C 
BRANCH   9  10
ATOM     10  N   UNL     1       2.877   1.456  -0.082  1.00  0.00    -0.309 N 
BRANCH  10  11
ATOM     11  C   UNL     1       2.001   0.380  -0.039  1.00  0.00     0.318 C 
ATOM     12  N   UNL     1       0.660   0.550   0.015  1.00  0.00    -0.328 N 
ATOM     13  H   UNL     1       0.165  -0.252   0.301  1.00  0.00     0.166 HD
ATOM     14  O   UNL     1       2.383  -0.789  -0.126  1.00  0.00    -0.249 OA
BRANCH  12  15
ATOM     15  C   UNL     1      -0.179   1.690  -0.270  1.00  0.00     0.149 C 
ATOM     16  C   UNL     1      -0.060   2.146  -1.724  1.00  0.00     0.040 C 
BRANCH  15  17
ATOM     17  C   UNL     1      -1.606   1.432   0.074  1.00  0.00     0.154 A 
ATOM     18  N   UNL     1      -2.287   0.310  -0.043  1.00  0.00    -0.133 NA
ATOM     19  N   UNL     1      -2.459   2.420   0.501  1.00  0.00    -0.319 N 
ATOM     20  N   UNL     1      -3.598   0.574   0.291  1.00  0.00    -0.139 NA
ATOM     21  C   UNL     1      -3.684   1.845   0.606  1.00  0.00     0.225 A 
ATOM     22  C   UNL     1      -2.138   3.803   0.739  1.00  0.00     0.152 C 
ENDBRANCH  15  17
ENDBRANCH  12  15
ENDBRANCH  10  11
BRANCH  10  23
ATOM     23  C   UNL     1       4.218   1.212  -0.785  1.00  0.00     0.037 C 
ATOM     24  C   UNL     1       5.075   0.172  -0.021  1.00  0.00     0.034 C 
ATOM     25  C   UNL     1       3.998   0.672  -2.227  1.00  0.00     0.034 C 
ATOM     26  C   UNL     1       5.074   2.488  -1.016  1.00  0.00     0.034 C 
ENDBRANCH  10  23
ENDBRANCH   9  10
ENDBRANCH   7   9
ENDBRANCH   6   7
ENDBRANCH   5   6
ENDBRANCH   4   5
ENDBRANCH   3   4
ENDBRANCH   2   3
ENDBRANCH   1   2
BRANCH   1  27
ATOM     27  O   UNL     1       5.344   1.988   3.747  1.00  0.00    -0.377 OA
BRANCH  27  28
ATOM     28  C   UNL     1       6.616   1.433   4.011  1.00  0.00     0.188 C 
BRANCH  28  29
ATOM     29  C   UNL     1       7.770   2.445   3.905  1.00  0.00     0.188 C 
BRANCH  29  30
ATOM     30  O   UNL     1       7.805   3.098   2.643  1.00  0.00    -0.376 OA
BRANCH  30  31
ATOM     31  C   UNL     1       8.710   2.703   1.631  1.00  0.00     0.202 C 
BRANCH  31  32
ATOM     32  C   UNL     1       8.791   1.261   1.095  1.00  0.00     0.261 C 
BRANCH  32  33
ATOM     33  O   UNL     1       8.416   0.196   1.969  1.00  0.00    -0.460 OA
BRANCH  33  34
ATOM     34  C   UNL     1       9.355  -0.185   2.869  1.00  0.00     0.338 C 
ATOM     35  O   UNL     1      10.455   0.303   3.003  1.00  0.00    -0.246 OA
BRANCH  34  36
ATOM     36  C   UNL     1       8.735  -1.142   3.817  1.00  0.00     0.060 A 
ATOM     37  C   UNL     1       8.689  -0.779   5.169  1.00  0.00     0.016 A 
ATOM     38  C   UNL     1       8.216  -2.370   3.397  1.00  0.00     0.016 A 
ATOM     39  C   UNL     1       8.161  -1.654   6.113  1.00  0.00     0.010 A 
ATOM     40  C   UNL     1       7.732  -3.272   4.354  1.00  0.00     0.010 A 
ATOM     41  C   UNL     1       7.750  -2.932   5.720  1.00  0.00    -0.014 A 
BRANCH  41  42
ATOM     42  C   UNL     1       7.666  -3.980   6.767  1.00  0.00     0.031 A 
ATOM     43  C   UNL     1       8.912  -4.786   7.031  1.00  0.00     0.074 A 
ATOM     44  C   UNL     1       6.575  -4.135   7.537  1.00  0.00     0.049 A 
ATOM     45  N   UNL     1       9.120  -5.747   7.891  1.00  0.00    -0.248 NA
ATOM     46  C   UNL     1      10.091  -4.449   6.213  1.00  0.00     0.031 C 
ATOM     47  C   UNL     1       5.346  -3.349   7.436  1.00  0.00     0.029 A 
ATOM     48  N   UNL     1       6.333  -5.004   8.572  1.00  0.00    -0.354 N 
ATOM     49  C   UNL     1      10.451  -6.117   7.728  1.00  0.00     0.074 A 
ATOM     50  C   UNL     1      10.987  -5.316   6.652  1.00  0.00     0.031 C 
ATOM     51  C   UNL     1       4.477  -3.779   8.369  1.00  0.00     0.029 A 
ATOM     52  C   UNL     1       5.072  -4.891   9.109  1.00  0.00     0.049 A 
ATOM     53  H   UNL     1       7.001  -5.649   8.899  1.00  0.00     0.167 HD
ATOM     54  C   UNL     1      11.170  -7.030   8.425  1.00  0.00     0.034 A 
ATOM     55  C   UNL     1       4.470  -5.620  10.072  1.00  0.00     0.034 A 
ATOM     56  C   UNL     1      10.617  -7.841   9.477  1.00  0.00     0.049 A 
ATOM     57  C   UNL     1       5.254  -6.731  10.740  1.00  0.00     0.074 A 
ATOM     58  C   UNL     1      11.232  -8.839  10.212  1.00  0.00     0.029 A 
ATOM     59  N   UNL     1       9.312  -7.749   9.945  1.00  0.00    -0.354 N 
ATOM     60  N   UNL     1       6.503  -7.097  10.553  1.00  0.00    -0.248 NA
ATOM     61  C   UNL     1       4.551  -7.516  11.763  1.00  0.00     0.031 C 
ATOM     62  C   UNL     1      10.283  -9.393  11.077  1.00  0.00     0.029 A 
ATOM     63  C   UNL     1       9.102  -8.680  10.949  1.00  0.00     0.049 A 
ATOM     64  H   UNL     1       8.636  -7.115   9.612  1.00  0.00     0.167 HD
ATOM     65  C   UNL     1       6.746  -8.110  11.480  1.00  0.00     0.074 A 
ATOM     66  C   UNL     1       5.520  -8.288  12.228  1.00  0.00     0.031 C 
ATOM     67  C   UNL     1       7.879  -8.827  11.701  1.00  0.00     0.034 A 
BRANCH  54  68
ATOM     68  C   UNL     1      12.613  -7.220   8.031  1.00  0.00     0.023 A 
ATOM     69  C   UNL     1      13.560  -6.191   8.183  1.00  0.00     0.031 A 
ATOM     70  C   UNL     1      13.044  -8.435   7.471  1.00  0.00     0.131 A 
ATOM     71  C   UNL     1      14.873  -6.376   7.727  1.00  0.00     0.055 A 
ATOM     72  C   UNL     1      14.372  -8.641   7.094  1.00  0.00     0.041 A 
ATOM     73  F   UNL     1      12.178  -9.441   7.272  1.00  0.00    -0.206 F 
ATOM     74  C   UNL     1      15.293  -7.604   7.211  1.00  0.00     0.022 A 
BRANCH  71  75
ATOM     75  S   UNL     1      15.991  -4.948   7.697  1.00  0.00     0.124 S 
ATOM     76  O   UNL     1      15.283  -4.039   6.798  1.00  0.00    -0.237 OA
ATOM     77  O   UNL     1      16.037  -4.552   9.099  1.00  0.00    -0.237 OA
ATOM     78  O   UNL     1      17.235  -5.498   7.162  1.00  0.00    -0.744 OA
ENDBRANCH  71  75
ENDBRANCH  54  68
BRANCH  55  79
ATOM     79  C   UNL     1       3.045  -5.377  10.454  1.00  0.00     0.023 A 
ATOM     80  C   UNL     1       2.690  -5.077  11.780  1.00  0.00     0.031 A 
ATOM     81  C   UNL     1       2.004  -5.567   9.527  1.00  0.00     0.131 A 
ATOM     82  C   UNL     1       1.339  -5.066  12.160  1.00  0.00     0.055 A 
ATOM     83  C   UNL     1       0.660  -5.478   9.894  1.00  0.00     0.041 A 
ATOM     84  F   UNL     1       2.279  -5.864   8.247  1.00  0.00    -0.206 F 
ATOM     85  C   UNL     1       0.321  -5.250  11.223  1.00  0.00     0.022 A 
BRANCH  82  86
ATOM     86  S   UNL     1       0.938  -4.967  13.928  1.00  0.00     0.124 S 
ATOM     87  O   UNL     1       1.689  -6.097  14.463  1.00  0.00    -0.237 OA
ATOM     88  O   UNL     1       1.437  -3.641  14.277  1.00  0.00    -0.237 OA
ATOM     89  O   UNL     1      -0.516  -5.113  13.956  1.00  0.00    -0.744 OA
ENDBRANCH  82  86
ENDBRANCH  55  79
BRANCH  67  90
ATOM     90  C   UNL     1       7.872  -9.795  12.862  1.00  0.00     0.023 A 
ATOM     91  C   UNL     1       7.020 -10.912  12.904  1.00  0.00     0.031 A 
ATOM     92  C   UNL     1       8.724  -9.575  13.960  1.00  0.00     0.131 A 
ATOM     93  C   UNL     1       6.981 -11.718  14.052  1.00  0.00     0.055 A 
ATOM     94  C   UNL     1       8.737 -10.426  15.066  1.00  0.00     0.041 A 
ATOM     95  F   UNL     1       9.561  -8.525  13.978  1.00  0.00    -0.206 F 
ATOM     96  C   UNL     1       7.847 -11.493  15.125  1.00  0.00     0.022 A 
BRANCH  93  97
ATOM     97  S   UNL     1       5.690 -12.987  14.181  1.00  0.00     0.124 S 
ATOM     98  O   UNL     1       4.475 -12.205  13.979  1.00  0.00    -0.237 OA
ATOM     99  O   UNL     1       6.046 -13.902  13.101  1.00  0.00    -0.237 OA
ATOM    100  O   UNL     1       5.868 -13.521  15.530  1.00  0.00    -0.744 OA
ENDBRANCH  93  97
ENDBRANCH  67  90
ENDBRANCH  41  42
ENDBRANCH  34  36
ENDBRANCH  33  34
ENDBRANCH  32  33
ENDBRANCH  31  32
ENDBRANCH  30  31
ENDBRANCH  29  30
ENDBRANCH  28  29
ENDBRANCH  27  28
ENDBRANCH   1  27
TORSDOF 28
