REMARK SMILES CN1C(=O)C[C@H](C(=O)OCCOCCOCCOCCOC(=O)c2ccc(-c3c4nc(c(-c5cc(S(=O)(=O)[O-])ccc5F)c5ccc([nH]5)c(-c5cc(S(=O)(=O)[O-])ccc5F)c5nc(c(-c6cc(S(=O)(=O)[O-])ccc6F)c6ccc3[nH]6)C=C5)C=C4)cc2)C12CC[NH+](Cc1ccc(Cl)c(F)c1)CC2
REMARK SMILES IDX 16 1 15 2 14 3 13 4 12 5 11 6 10 7 9 8 7 9 8 10 6 11 1 12
REMARK SMILES IDX 2 13 3 14 87 15 4 16 5 17 88 18 101 19 89 20 100 21 90 22
REMARK SMILES IDX 91 24 92 25 93 26 99 27 94 28 97 29 95 30 98 31 96 32 17 33
REMARK SMILES IDX 18 34 19 35 20 36 21 37 22 38 23 39 24 40 25 41 86 42 26 43
REMARK SMILES IDX 85 44 27 45 28 46 29 47 79 48 30 49 84 50 78 51 80 52 31 53
REMARK SMILES IDX 83 54 77 55 76 56 32 58 64 59 44 60 63 61 45 62 48 63 62 64
REMARK SMILES IDX 81 65 46 66 47 67 61 69 82 70 49 71 33 72 34 73 42 74 35 75
REMARK SMILES IDX 41 76 43 77 40 78 36 79 37 80 38 81 39 82 65 83 66 84 74 85
REMARK SMILES IDX 67 86 73 87 75 88 72 89 68 90 69 91 70 92 71 93 50 94 51 95
REMARK SMILES IDX 59 96 52 97 58 98 60 99 57 100 53 101 54 102 55 103 56 104
REMARK H PARENT 90 23 80 57 48 68
REMARK Flexibility Score: inf
ROOT
ATOM      1  C   UNL     1       0.109   6.466   4.831  1.00  0.00     0.188 C 
ENDROOT
BRANCH   1   2
ATOM      2  O   UNL     1      -0.130   5.106   4.472  1.00  0.00    -0.377 OA
BRANCH   2   3
ATOM      3  C   UNL     1      -0.794   4.249   5.381  1.00  0.00     0.188 C 
BRANCH   3   4
ATOM      4  C   UNL     1       0.006   3.834   6.626  1.00  0.00     0.188 C 
BRANCH   4   5
ATOM      5  O   UNL     1       1.120   4.641   6.925  1.00  0.00    -0.376 OA
BRANCH   5   6
ATOM      6  C   UNL     1       2.401   4.489   6.356  1.00  0.00     0.202 C 
BRANCH   6   7
ATOM      7  C   UNL     1       2.759   3.965   4.956  1.00  0.00     0.261 C 
BRANCH   7   8
ATOM      8  O   UNL     1       1.767   3.422   4.093  1.00  0.00    -0.463 OA
BRANCH   8   9
ATOM      9  C   UNL     1       1.288   2.200   4.390  1.00  0.00     0.311 C 
ATOM     10  O   UNL     1       1.583   1.575   5.401  1.00  0.00    -0.252 OA
BRANCH   9  11
ATOM     11  C   UNL     1       0.409   1.627   3.307  1.00  0.00     0.134 C 
ATOM     12  C   UNL     1       0.461  -0.188   0.036  1.00  0.00     0.147 C 
ATOM     13  N   UNL     1       0.328   0.697   1.177  1.00  0.00    -0.339 N 
ATOM     14  C   UNL     1      -0.484   1.819   1.116  1.00  0.00     0.223 C 
ATOM     15  C   UNL     1       1.181   0.649   2.391  1.00  0.00     0.067 C 
ATOM     16  O   UNL     1      -1.255   2.115   0.218  1.00  0.00    -0.275 OA
ATOM     17  C   UNL     1      -0.234   2.637   2.344  1.00  0.00     0.118 C 
ATOM     18  C   UNL     1       1.222  -0.776   2.980  1.00  0.00     0.091 C 
ATOM     19  C   UNL     1       2.606   1.141   2.058  1.00  0.00     0.091 C 
ATOM     20  C   UNL     1       2.311  -1.024   4.025  1.00  0.00     0.265 C 
ATOM     21  C   UNL     1       3.665   0.829   3.128  1.00  0.00     0.265 C 
ATOM     22  N   UNL     1       3.631  -0.512   3.690  1.00  0.00    -0.331 N 
ATOM     23  H   UNL     1       4.018  -0.378   4.624  1.00  0.00     0.348 HD
BRANCH  22  24
ATOM     24  C   UNL     1       4.597  -1.456   3.137  1.00  0.00     0.299 C 
BRANCH  24  25
ATOM     25  C   UNL     1       4.405  -1.728   1.666  1.00  0.00     0.009 A 
ATOM     26  C   UNL     1       3.553  -2.756   1.243  1.00  0.00     0.011 A 
ATOM     27  C   UNL     1       4.949  -0.853   0.712  1.00  0.00     0.050 A 
ATOM     28  C   UNL     1       3.168  -2.843  -0.096  1.00  0.00     0.024 A 
ATOM     29  C   UNL     1       4.536  -0.925  -0.613  1.00  0.00     0.142 A 
ATOM     30  C   UNL     1       3.637  -1.906  -1.017  1.00  0.00     0.076 A 
ATOM     31  F   UNL     1       4.955   0.021  -1.465  1.00  0.00    -0.205 F 
ATOM     32  Cl  UNL     1       3.037  -1.938  -2.629  1.00  0.00    -0.081 Cl
ENDBRANCH  24  25
ENDBRANCH  22  24
ENDBRANCH   9  11
ENDBRANCH   8   9
ENDBRANCH   7   8
ENDBRANCH   6   7
ENDBRANCH   5   6
ENDBRANCH   4   5
ENDBRANCH   3   4
ENDBRANCH   2   3
ENDBRANCH   1   2
BRANCH   1  33
ATOM     33  C   UNL     1      -0.207   6.995   6.249  1.00  0.00     0.188 C 
BRANCH  33  34
ATOM     34  O   UNL     1      -1.280   6.342   6.907  1.00  0.00    -0.376 OA
BRANCH  34  35
ATOM     35  C   UNL     1      -2.580   6.899   6.850  1.00  0.00     0.202 C 
BRANCH  35  36
ATOM     36  C   UNL     1      -3.221   7.137   5.474  1.00  0.00     0.261 C 
BRANCH  36  37
ATOM     37  O   UNL     1      -2.493   7.960   4.555  1.00  0.00    -0.460 OA
BRANCH  37  38
ATOM     38  C   UNL     1      -2.129   9.197   4.965  1.00  0.00     0.338 C 
ATOM     39  O   UNL     1      -2.391   9.724   6.025  1.00  0.00    -0.246 OA
BRANCH  38  40
ATOM     40  C   UNL     1      -1.166   9.711   3.967  1.00  0.00     0.060 A 
ATOM     41  C   UNL     1       0.129  10.065   4.373  1.00  0.00     0.016 A 
ATOM     42  C   UNL     1      -1.549   9.824   2.630  1.00  0.00     0.016 A 
ATOM     43  C   UNL     1       1.034  10.582   3.446  1.00  0.00     0.010 A 
ATOM     44  C   UNL     1      -0.657  10.372   1.711  1.00  0.00     0.010 A 
ATOM     45  C   UNL     1       0.619  10.794   2.126  1.00  0.00    -0.014 A 
BRANCH  45  46
ATOM     46  C   UNL     1       1.371  11.727   1.256  1.00  0.00     0.031 A 
ATOM     47  C   UNL     1       0.907  13.158   1.228  1.00  0.00     0.074 A 
ATOM     48  C   UNL     1       2.408  11.328   0.502  1.00  0.00     0.049 A 
ATOM     49  N   UNL     1       1.260  14.136   0.439  1.00  0.00    -0.248 NA
ATOM     50  C   UNL     1      -0.113  13.523   2.226  1.00  0.00     0.031 C 
ATOM     51  C   UNL     1       2.996   9.991   0.511  1.00  0.00     0.029 A 
ATOM     52  N   UNL     1       3.138  12.015  -0.433  1.00  0.00    -0.354 N 
ATOM     53  C   UNL     1       0.496  15.229   0.835  1.00  0.00     0.074 A 
ATOM     54  C   UNL     1      -0.366  14.779   1.905  1.00  0.00     0.031 C 
ATOM     55  C   UNL     1       3.990   9.951  -0.395  1.00  0.00     0.029 A 
ATOM     56  C   UNL     1       4.067  11.239  -1.084  1.00  0.00     0.049 A 
ATOM     57  H   UNL     1       3.009  12.973  -0.621  1.00  0.00     0.167 HD
ATOM     58  C   UNL     1       0.516  16.494   0.350  1.00  0.00     0.034 A 
ATOM     59  C   UNL     1       4.854  11.531  -2.141  1.00  0.00     0.034 A 
ATOM     60  C   UNL     1       1.364  16.910  -0.737  1.00  0.00     0.049 A 
ATOM     61  C   UNL     1       4.765  12.909  -2.761  1.00  0.00     0.074 A 
ATOM     62  C   UNL     1       1.460  18.156  -1.328  1.00  0.00     0.029 A 
ATOM     63  N   UNL     1       2.254  16.080  -1.408  1.00  0.00    -0.354 N 
ATOM     64  N   UNL     1       4.019  13.931  -2.405  1.00  0.00    -0.248 NA
ATOM     65  C   UNL     1       5.622  13.172  -3.926  1.00  0.00     0.031 C 
ATOM     66  C   UNL     1       2.346  18.059  -2.405  1.00  0.00     0.029 A 
ATOM     67  C   UNL     1       2.880  16.780  -2.425  1.00  0.00     0.049 A 
ATOM     68  H   UNL     1       2.416  15.133  -1.191  1.00  0.00     0.167 HD
ATOM     69  C   UNL     1       4.359  14.971  -3.270  1.00  0.00     0.074 A 
ATOM     70  C   UNL     1       5.366  14.450  -4.170  1.00  0.00     0.031 C 
ATOM     71  C   UNL     1       3.893  16.246  -3.305  1.00  0.00     0.034 A 
BRANCH  58  72
ATOM     72  C   UNL     1      -0.456  17.478   0.955  1.00  0.00     0.023 A 
ATOM     73  C   UNL     1      -0.406  17.821   2.318  1.00  0.00     0.031 A 
ATOM     74  C   UNL     1      -1.487  18.030   0.176  1.00  0.00     0.131 A 
ATOM     75  C   UNL     1      -1.420  18.613   2.877  1.00  0.00     0.055 A 
ATOM     76  C   UNL     1      -2.437  18.897   0.719  1.00  0.00     0.041 A 
ATOM     77  F   UNL     1      -1.605  17.717  -1.124  1.00  0.00    -0.206 F 
ATOM     78  C   UNL     1      -2.419  19.177   2.082  1.00  0.00     0.022 A 
BRANCH  75  79
ATOM     79  S   UNL     1      -1.516  18.741   4.684  1.00  0.00     0.124 S 
ATOM     80  O   UNL     1      -1.629  17.337   5.074  1.00  0.00    -0.237 OA
ATOM     81  O   UNL     1      -0.258  19.397   5.021  1.00  0.00    -0.237 OA
ATOM     82  O   UNL     1      -2.719  19.541   4.908  1.00  0.00    -0.744 OA
ENDBRANCH  75  79
ENDBRANCH  58  72
BRANCH  59  83
ATOM     83  C   UNL     1       5.769  10.501  -2.713  1.00  0.00     0.023 A 
ATOM     84  C   UNL     1       7.159  10.698  -2.719  1.00  0.00     0.031 A 
ATOM     85  C   UNL     1       5.267   9.332  -3.313  1.00  0.00     0.131 A 
ATOM     86  C   UNL     1       7.995   9.766  -3.354  1.00  0.00     0.055 A 
ATOM     87  C   UNL     1       6.108   8.379  -3.891  1.00  0.00     0.041 A 
ATOM     88  F   UNL     1       3.946   9.096  -3.342  1.00  0.00    -0.206 F 
ATOM     89  C   UNL     1       7.481   8.600  -3.925  1.00  0.00     0.022 A 
BRANCH  86  90
ATOM     90  S   UNL     1       9.761  10.150  -3.504  1.00  0.00     0.124 S 
ATOM     91  O   UNL     1       9.728  11.406  -4.245  1.00  0.00    -0.237 OA
ATOM     92  O   UNL     1      10.172  10.239  -2.107  1.00  0.00    -0.237 OA
ATOM     93  O   UNL     1      10.297   9.005  -4.237  1.00  0.00    -0.744 OA
ENDBRANCH  86  90
ENDBRANCH  59  83
BRANCH  71  94
ATOM     94  C   UNL     1       4.530  17.201  -4.287  1.00  0.00     0.023 A 
ATOM     95  C   UNL     1       4.354  17.084  -5.676  1.00  0.00     0.031 A 
ATOM     96  C   UNL     1       5.290  18.283  -3.804  1.00  0.00     0.131 A 
ATOM     97  C   UNL     1       4.957  18.017  -6.534  1.00  0.00     0.055 A 
ATOM     98  C   UNL     1       5.836  19.240  -4.658  1.00  0.00     0.041 A 
ATOM     99  F   UNL     1       5.492  18.441  -2.485  1.00  0.00    -0.206 F 
ATOM    100  C   UNL     1       5.677  19.106  -6.033  1.00  0.00     0.022 A 
BRANCH  97 101
ATOM    101  S   UNL     1       4.839  17.763  -8.327  1.00  0.00     0.124 S 
ATOM    102  O   UNL     1       5.487  16.466  -8.492  1.00  0.00    -0.237 OA
ATOM    103  O   UNL     1       3.398  17.790  -8.554  1.00  0.00    -0.237 OA
ATOM    104  O   UNL     1       5.574  18.898  -8.884  1.00  0.00    -0.744 OA
ENDBRANCH  97 101
ENDBRANCH  71  94
ENDBRANCH  45  46
ENDBRANCH  38  40
ENDBRANCH  37  38
ENDBRANCH  36  37
ENDBRANCH  35  36
ENDBRANCH  34  35
ENDBRANCH  33  34
ENDBRANCH   1  33
TORSDOF 25
