REMARK SMILES CC(C)(C(=O)OCCOCCOCCOCCOC(=O)c1ccc(-c2c3nc(c(-c4cc(S(=O)(=O)[O-])ccc4F)c4ccc([nH]4)c(-c4cc(S(=O)(=O)[O-])ccc4F)c4nc(c(-c5cc(S(=O)(=O)[O-])ccc5F)c5ccc2[nH]5)C=C4)C=C3)cc1)c1ccc(C(=O)CCCCl)cc1
REMARK SMILES IDX 11 1 10 2 9 3 8 4 7 5 6 6 4 7 5 8 2 9 1 10 3 11 84 12 85 13
REMARK SMILES IDX 95 14 86 15 94 16 87 17 88 18 89 19 90 20 91 21 92 22 93 23
REMARK SMILES IDX 12 24 13 25 14 26 15 27 16 28 17 29 18 30 19 31 20 32 21 33
REMARK SMILES IDX 22 34 83 35 23 36 82 37 24 38 25 39 26 40 76 41 27 42 81 43
REMARK SMILES IDX 75 44 77 45 28 46 80 47 74 48 73 49 29 51 61 52 41 53 60 54
REMARK SMILES IDX 42 55 45 56 59 57 78 58 43 59 44 60 58 62 79 63 46 64 30 65
REMARK SMILES IDX 31 66 39 67 32 68 38 69 40 70 37 71 33 72 34 73 35 74 36 75
REMARK SMILES IDX 62 76 63 77 71 78 64 79 70 80 72 81 69 82 65 83 66 84 67 85
REMARK SMILES IDX 68 86 47 87 48 88 56 89 49 90 55 91 57 92 54 93 50 94 51 95
REMARK SMILES IDX 52 96 53 97
REMARK H PARENT 77 50 45 61
REMARK Flexibility Score: inf
ROOT
ATOM      1  C   UNL     1      -1.373  -0.943  -1.194  1.00  0.00     0.188 C 
ENDROOT
BRANCH   1   2
ATOM      2  C   UNL     1      -2.233  -2.013  -0.514  1.00  0.00     0.188 C 
BRANCH   2   3
ATOM      3  O   UNL     1      -3.553  -1.602  -0.234  1.00  0.00    -0.376 OA
BRANCH   3   4
ATOM      4  C   UNL     1      -3.873  -1.070   1.041  1.00  0.00     0.202 C 
BRANCH   4   5
ATOM      5  C   UNL     1      -2.910  -0.219   1.897  1.00  0.00     0.261 C 
BRANCH   5   6
ATOM      6  O   UNL     1      -1.507  -0.328   1.622  1.00  0.00    -0.463 OA
BRANCH   6   7
ATOM      7  C   UNL     1      -0.746  -1.086   2.442  1.00  0.00     0.316 C 
ATOM      8  O   UNL     1      -1.206  -1.739   3.375  1.00  0.00    -0.251 OA
BRANCH   7   9
ATOM      9  C   UNL     1       0.759  -1.096   2.047  1.00  0.00     0.087 C 
ATOM     10  C   UNL     1       1.165   0.004   1.023  1.00  0.00     0.028 C 
ATOM     11  C   UNL     1       1.494  -0.748   3.360  1.00  0.00     0.028 C 
BRANCH   9  12
ATOM     12  C   UNL     1       1.232  -2.487   1.551  1.00  0.00    -0.031 A 
ATOM     13  C   UNL     1       0.369  -3.589   1.419  1.00  0.00     0.005 A 
ATOM     14  C   UNL     1       2.579  -2.695   1.214  1.00  0.00     0.005 A 
ATOM     15  C   UNL     1       0.807  -4.812   0.898  1.00  0.00     0.012 A 
ATOM     16  C   UNL     1       3.034  -3.939   0.760  1.00  0.00     0.012 A 
ATOM     17  C   UNL     1       2.145  -4.994   0.551  1.00  0.00     0.018 A 
BRANCH  17  18
ATOM     18  C   UNL     1       2.553  -6.299  -0.049  1.00  0.00     0.162 C 
ATOM     19  O   UNL     1       1.735  -7.218  -0.112  1.00  0.00    -0.294 OA
BRANCH  18  20
ATOM     20  C   UNL     1       3.944  -6.479  -0.628  1.00  0.00     0.082 C 
BRANCH  20  21
ATOM     21  C   UNL     1       4.030  -6.075  -2.102  1.00  0.00     0.024 C 
BRANCH  21  22
ATOM     22  C   UNL     1       4.184  -4.584  -2.385  1.00  0.00     0.110 C 
ATOM     23  Cl  UNL     1       5.721  -3.944  -1.751  1.00  0.00    -0.127 Cl
ENDBRANCH  21  22
ENDBRANCH  20  21
ENDBRANCH  18  20
ENDBRANCH  17  18
ENDBRANCH   9  12
ENDBRANCH   7   9
ENDBRANCH   6   7
ENDBRANCH   5   6
ENDBRANCH   4   5
ENDBRANCH   3   4
ENDBRANCH   2   3
ENDBRANCH   1   2
BRANCH   1  24
ATOM     24  O   UNL     1      -1.771   0.400  -0.989  1.00  0.00    -0.377 OA
BRANCH  24  25
ATOM     25  C   UNL     1      -2.957   0.873  -1.627  1.00  0.00     0.188 C 
BRANCH  25  26
ATOM     26  C   UNL     1      -3.813  -0.035  -2.544  1.00  0.00     0.188 C 
BRANCH  26  27
ATOM     27  O   UNL     1      -3.104  -1.069  -3.210  1.00  0.00    -0.376 OA
BRANCH  27  28
ATOM     28  C   UNL     1      -2.706  -0.849  -4.554  1.00  0.00     0.202 C 
BRANCH  28  29
ATOM     29  C   UNL     1      -1.726   0.305  -4.820  1.00  0.00     0.261 C 
BRANCH  29  30
ATOM     30  O   UNL     1      -2.170   1.619  -4.443  1.00  0.00    -0.460 OA
BRANCH  30  31
ATOM     31  C   UNL     1      -3.317   2.073  -4.993  1.00  0.00     0.338 C 
ATOM     32  O   UNL     1      -3.995   1.508  -5.836  1.00  0.00    -0.246 OA
BRANCH  31  33
ATOM     33  C   UNL     1      -3.732   3.279  -4.246  1.00  0.00     0.060 A 
ATOM     34  C   UNL     1      -4.963   3.271  -3.576  1.00  0.00     0.016 A 
ATOM     35  C   UNL     1      -2.909   4.406  -4.197  1.00  0.00     0.016 A 
ATOM     36  C   UNL     1      -5.389   4.404  -2.883  1.00  0.00     0.010 A 
ATOM     37  C   UNL     1      -3.350   5.550  -3.525  1.00  0.00     0.010 A 
ATOM     38  C   UNL     1      -4.607   5.565  -2.893  1.00  0.00    -0.014 A 
BRANCH  38  39
ATOM     39  C   UNL     1      -5.197   6.843  -2.417  1.00  0.00     0.031 A 
ATOM     40  C   UNL     1      -5.761   7.791  -3.442  1.00  0.00     0.074 A 
ATOM     41  C   UNL     1      -5.277   7.132  -1.106  1.00  0.00     0.049 A 
ATOM     42  N   UNL     1      -6.294   8.973  -3.277  1.00  0.00    -0.248 NA
ATOM     43  C   UNL     1      -5.715   7.341  -4.842  1.00  0.00     0.031 C 
ATOM     44  C   UNL     1      -4.820   6.266  -0.020  1.00  0.00     0.029 A 
ATOM     45  N   UNL     1      -5.774   8.241  -0.465  1.00  0.00    -0.354 N 
ATOM     46  C   UNL     1      -6.648   9.409  -4.550  1.00  0.00     0.074 A 
ATOM     47  C   UNL     1      -6.231   8.381  -5.479  1.00  0.00     0.031 C 
ATOM     48  C   UNL     1      -5.052   6.881   1.154  1.00  0.00     0.029 A 
ATOM     49  C   UNL     1      -5.632   8.200   0.903  1.00  0.00     0.049 A 
ATOM     50  H   UNL     1      -6.193   8.994  -0.940  1.00  0.00     0.167 HD
ATOM     51  C   UNL     1      -7.274  10.556  -4.909  1.00  0.00     0.034 A 
ATOM     52  C   UNL     1      -5.912   9.131   1.838  1.00  0.00     0.034 A 
ATOM     53  C   UNL     1      -7.672  11.579  -3.973  1.00  0.00     0.049 A 
ATOM     54  C   UNL     1      -6.512  10.450   1.399  1.00  0.00     0.074 A 
ATOM     55  C   UNL     1      -8.312  12.778  -4.229  1.00  0.00     0.029 A 
ATOM     56  N   UNL     1      -7.458  11.530  -2.601  1.00  0.00    -0.354 N 
ATOM     57  N   UNL     1      -6.846  10.848   0.192  1.00  0.00    -0.248 NA
ATOM     58  C   UNL     1      -6.782  11.438   2.452  1.00  0.00     0.031 C 
ATOM     59  C   UNL     1      -8.411  13.489  -3.029  1.00  0.00     0.029 A 
ATOM     60  C   UNL     1      -7.920  12.694  -2.006  1.00  0.00     0.049 A 
ATOM     61  H   UNL     1      -7.040  10.778  -2.122  1.00  0.00     0.167 HD
ATOM     62  C   UNL     1      -7.397  12.119   0.351  1.00  0.00     0.074 A 
ATOM     63  C   UNL     1      -7.372  12.407   1.769  1.00  0.00     0.031 C 
ATOM     64  C   UNL     1      -7.881  12.973  -0.589  1.00  0.00     0.034 A 
BRANCH  51  65
ATOM     65  C   UNL     1      -7.518  10.787  -6.380  1.00  0.00     0.023 A 
ATOM     66  C   UNL     1      -8.375   9.962  -7.130  1.00  0.00     0.031 A 
ATOM     67  C   UNL     1      -6.877  11.848  -7.046  1.00  0.00     0.131 A 
ATOM     68  C   UNL     1      -8.523  10.176  -8.509  1.00  0.00     0.055 A 
ATOM     69  C   UNL     1      -7.091  12.104  -8.401  1.00  0.00     0.041 A 
ATOM     70  F   UNL     1      -6.026  12.651  -6.389  1.00  0.00    -0.206 F 
ATOM     71  C   UNL     1      -7.909  11.258  -9.144  1.00  0.00     0.022 A 
BRANCH  68  72
ATOM     72  S   UNL     1      -9.425   8.944  -9.487  1.00  0.00     0.124 S 
ATOM     73  O   UNL     1      -8.645   7.735  -9.230  1.00  0.00    -0.237 OA
ATOM     74  O   UNL     1     -10.757   8.983  -8.893  1.00  0.00    -0.237 OA
ATOM     75  O   UNL     1      -9.335   9.457 -10.852  1.00  0.00    -0.744 OA
ENDBRANCH  68  72
ENDBRANCH  51  65
BRANCH  52  76
ATOM     76  C   UNL     1      -5.588   8.894   3.278  1.00  0.00     0.023 A 
ATOM     77  C   UNL     1      -6.586   8.926   4.265  1.00  0.00     0.031 A 
ATOM     78  C   UNL     1      -4.255   8.726   3.699  1.00  0.00     0.131 A 
ATOM     79  C   UNL     1      -6.232   8.859   5.622  1.00  0.00     0.055 A 
ATOM     80  C   UNL     1      -3.916   8.590   5.046  1.00  0.00     0.041 A 
ATOM     81  F   UNL     1      -3.257   8.698   2.801  1.00  0.00    -0.206 F 
ATOM     82  C   UNL     1      -4.906   8.675   6.019  1.00  0.00     0.022 A 
BRANCH  79  83
ATOM     83  S   UNL     1      -7.519   9.146   6.870  1.00  0.00     0.124 S 
ATOM     84  O   UNL     1      -8.015  10.462   6.484  1.00  0.00    -0.237 OA
ATOM     85  O   UNL     1      -8.422   8.025   6.635  1.00  0.00    -0.237 OA
ATOM     86  O   UNL     1      -6.784   9.100   8.132  1.00  0.00    -0.744 OA
ENDBRANCH  79  83
ENDBRANCH  52  76
BRANCH  64  87
ATOM     87  C   UNL     1      -8.470  14.277  -0.100  1.00  0.00     0.023 A 
ATOM     88  C   UNL     1      -7.687  15.245   0.553  1.00  0.00     0.031 A 
ATOM     89  C   UNL     1      -9.841  14.544  -0.269  1.00  0.00     0.131 A 
ATOM     90  C   UNL     1      -8.292  16.398   1.076  1.00  0.00     0.055 A 
ATOM     91  C   UNL     1     -10.423  15.728   0.186  1.00  0.00     0.041 A 
ATOM     92  F   UNL     1     -10.640  13.656  -0.882  1.00  0.00    -0.206 F 
ATOM     93  C   UNL     1      -9.651  16.655   0.879  1.00  0.00     0.022 A 
BRANCH  90  94
ATOM     94  S   UNL     1      -7.304  17.498   2.126  1.00  0.00     0.124 S 
ATOM     95  O   UNL     1      -6.850  16.589   3.174  1.00  0.00    -0.237 OA
ATOM     96  O   UNL     1      -6.276  17.970   1.204  1.00  0.00    -0.237 OA
ATOM     97  O   UNL     1      -8.263  18.514   2.558  1.00  0.00    -0.744 OA
ENDBRANCH  90  94
ENDBRANCH  64  87
ENDBRANCH  38  39
ENDBRANCH  31  33
ENDBRANCH  30  31
ENDBRANCH  29  30
ENDBRANCH  28  29
ENDBRANCH  27  28
ENDBRANCH  26  27
ENDBRANCH  25  26
ENDBRANCH  24  25
ENDBRANCH   1  24
TORSDOF 28
