REMARK SMILES O=C(OCCOCCOCCOCCOC(=O)c1ccc(-c2c3nc(c(-c4cc(S(=O)(=O)[O-])ccc4F)c4ccc([nH]4)c(-c4cc(S(=O)(=O)[O-])ccc4F)c4nc(c(-c5cc(S(=O)(=O)[O-])ccc5F)c5ccc2[nH]5)C=C4)C=C3)cc1)C1=Cc2c(ccc(Cl)c2Sc2ccccc2)O[C@H]1C(F)(F)F
REMARK SMILES IDX 10 1 9 2 8 3 7 4 6 5 5 6 4 7 3 8 2 9 1 10 81 11 82 12 98 13
REMARK SMILES IDX 83 14 97 15 84 16 89 17 85 18 87 19 86 20 88 21 99 22 100 23
REMARK SMILES IDX 101 24 102 25 90 26 91 27 92 28 96 29 93 30 95 31 94 32
REMARK SMILES IDX 11 33 12 34 13 35 14 36 15 37 16 38 17 39 18 40 19 41 80 42
REMARK SMILES IDX 20 43 79 44 21 45 22 46 23 47 73 48 24 49 78 50 72 51 74 52
REMARK SMILES IDX 25 53 77 54 71 55 70 56 26 58 58 59 38 60 57 61 39 62 42 63
REMARK SMILES IDX 56 64 75 65 40 66 41 67 55 69 76 70 43 71 27 72 28 73 36 74
REMARK SMILES IDX 29 75 35 76 37 77 34 78 30 79 31 80 32 81 33 82 59 83 60 84
REMARK SMILES IDX 68 85 61 86 67 87 69 88 66 89 62 90 63 91 64 92 65 93 44 94
REMARK SMILES IDX 45 95 53 96 46 97 52 98 54 99 51 100 47 101 48 102 49 103
REMARK SMILES IDX 50 104
REMARK H PARENT 74 57 42 68
REMARK Flexibility Score: inf
ROOT
ATOM      1  C   UNL     1       4.684  -3.891   0.787  1.00  0.00     0.188 C 
ENDROOT
BRANCH   1   2
ATOM      2  O   UNL     1       3.381  -4.436   0.694  1.00  0.00    -0.377 OA
BRANCH   2   3
ATOM      3  C   UNL     1       2.425  -3.618   0.053  1.00  0.00     0.188 C 
BRANCH   3   4
ATOM      4  C   UNL     1       2.675  -3.280  -1.424  1.00  0.00     0.188 C 
BRANCH   4   5
ATOM      5  O   UNL     1       3.736  -2.360  -1.677  1.00  0.00    -0.376 OA
BRANCH   5   6
ATOM      6  C   UNL     1       3.470  -1.016  -1.295  1.00  0.00     0.202 C 
BRANCH   6   7
ATOM      7  C   UNL     1       2.477  -0.309  -2.231  1.00  0.00     0.261 C 
BRANCH   7   8
ATOM      8  O   UNL     1       3.108   0.539  -3.214  1.00  0.00    -0.460 OA
BRANCH   8   9
ATOM      9  C   UNL     1       3.094   1.881  -2.961  1.00  0.00     0.338 C 
ATOM     10  O   UNL     1       2.547   2.715  -3.640  1.00  0.00    -0.246 OA
BRANCH   9  11
ATOM     11  C   UNL     1       4.029   2.200  -1.867  1.00  0.00     0.087 C 
ATOM     12  C   UNL     1       3.519   2.128  -0.633  1.00  0.00     0.028 C 
ATOM     13  C   UNL     1       5.481   2.344  -2.194  1.00  0.00     0.316 C 
ATOM     14  C   UNL     1       4.415   1.760   0.454  1.00  0.00     0.033 A 
ATOM     15  O   UNL     1       6.333   2.291  -1.024  1.00  0.00    -0.475 OA
ATOM     16  C   UNL     1       5.803   1.858   0.167  1.00  0.00     0.129 A 
ATOM     17  C   UNL     1       3.964   1.199   1.686  1.00  0.00     0.042 A 
ATOM     18  C   UNL     1       6.760   1.496   1.107  1.00  0.00     0.049 A 
ATOM     19  C   UNL     1       4.982   0.785   2.595  1.00  0.00     0.055 A 
ATOM     20  C   UNL     1       6.350   0.952   2.314  1.00  0.00     0.025 A 
ATOM     21  Cl  UNL     1       4.641   0.017   4.116  1.00  0.00    -0.083 Cl
BRANCH  13  22
ATOM     22  C   UNL     1       6.024   1.412  -3.298  1.00  0.00     0.430 C 
ATOM     23  F   UNL     1       5.927   0.109  -2.967  1.00  0.00    -0.167 F 
ATOM     24  F   UNL     1       5.364   1.594  -4.467  1.00  0.00    -0.167 F 
ATOM     25  F   UNL     1       7.329   1.669  -3.559  1.00  0.00    -0.167 F 
ENDBRANCH  13  22
BRANCH  17  26
ATOM     26  S   UNL     1       2.238   1.111   2.301  1.00  0.00    -0.088 SA
BRANCH  26  27
ATOM     27  C   UNL     1       1.006   0.698   1.080  1.00  0.00     0.012 A 
ATOM     28  C   UNL     1       0.213   1.708   0.522  1.00  0.00     0.015 A 
ATOM     29  C   UNL     1       0.646  -0.620   0.779  1.00  0.00     0.015 A 
ATOM     30  C   UNL     1      -0.770   1.421  -0.437  1.00  0.00     0.001 A 
ATOM     31  C   UNL     1      -0.309  -0.920  -0.210  1.00  0.00     0.001 A 
ATOM     32  C   UNL     1      -0.999   0.109  -0.840  1.00  0.00     0.000 A 
ENDBRANCH  26  27
ENDBRANCH  17  26
ENDBRANCH   9  11
ENDBRANCH   8   9
ENDBRANCH   7   8
ENDBRANCH   6   7
ENDBRANCH   5   6
ENDBRANCH   4   5
ENDBRANCH   3   4
ENDBRANCH   2   3
ENDBRANCH   1   2
BRANCH   1  33
ATOM     33  C   UNL     1       5.703  -4.756   0.044  1.00  0.00     0.188 C 
BRANCH  33  34
ATOM     34  O   UNL     1       5.286  -5.493  -1.090  1.00  0.00    -0.376 OA
BRANCH  34  35
ATOM     35  C   UNL     1       4.238  -6.452  -1.059  1.00  0.00     0.202 C 
BRANCH  35  36
ATOM     36  C   UNL     1       3.754  -7.313   0.128  1.00  0.00     0.261 C 
BRANCH  36  37
ATOM     37  O   UNL     1       3.954  -6.840   1.452  1.00  0.00    -0.460 OA
BRANCH  37  38
ATOM     38  C   UNL     1       5.124  -7.210   2.007  1.00  0.00     0.338 C 
ATOM     39  O   UNL     1       5.985  -7.905   1.497  1.00  0.00    -0.246 OA
BRANCH  38  40
ATOM     40  C   UNL     1       5.293  -6.470   3.273  1.00  0.00     0.060 A 
ATOM     41  C   UNL     1       6.530  -5.858   3.500  1.00  0.00     0.016 A 
ATOM     42  C   UNL     1       4.278  -6.414   4.235  1.00  0.00     0.016 A 
ATOM     43  C   UNL     1       6.787  -5.248   4.721  1.00  0.00     0.010 A 
ATOM     44  C   UNL     1       4.548  -5.833   5.476  1.00  0.00     0.010 A 
ATOM     45  C   UNL     1       5.824  -5.304   5.737  1.00  0.00    -0.014 A 
BRANCH  45  46
ATOM     46  C   UNL     1       6.291  -5.138   7.131  1.00  0.00     0.031 A 
ATOM     47  C   UNL     1       6.831  -6.364   7.820  1.00  0.00     0.074 A 
ATOM     48  C   UNL     1       6.305  -3.940   7.737  1.00  0.00     0.049 A 
ATOM     49  N   UNL     1       7.338  -6.494   9.017  1.00  0.00    -0.248 NA
ATOM     50  C   UNL     1       6.799  -7.615   7.041  1.00  0.00     0.031 C 
ATOM     51  C   UNL     1       5.857  -2.684   7.140  1.00  0.00     0.029 A 
ATOM     52  N   UNL     1       6.720  -3.589   8.996  1.00  0.00    -0.354 N 
ATOM     53  C   UNL     1       7.694  -7.834   9.128  1.00  0.00     0.074 A 
ATOM     54  C   UNL     1       7.314  -8.483   7.894  1.00  0.00     0.031 C 
ATOM     55  C   UNL     1       6.013  -1.696   8.040  1.00  0.00     0.029 A 
ATOM     56  C   UNL     1       6.543  -2.256   9.284  1.00  0.00     0.049 A 
ATOM     57  H   UNL     1       7.108  -4.231   9.633  1.00  0.00     0.167 HD
ATOM     58  C   UNL     1       8.290  -8.468  10.166  1.00  0.00     0.034 A 
ATOM     59  C   UNL     1       6.766  -1.583  10.431  1.00  0.00     0.034 A 
ATOM     60  C   UNL     1       8.620  -7.815  11.406  1.00  0.00     0.049 A 
ATOM     61  C   UNL     1       7.332  -2.333  11.616  1.00  0.00     0.074 A 
ATOM     62  C   UNL     1       9.205  -8.355  12.536  1.00  0.00     0.029 A 
ATOM     63  N   UNL     1       8.369  -6.477  11.685  1.00  0.00    -0.354 N 
ATOM     64  N   UNL     1       7.677  -3.598  11.710  1.00  0.00    -0.248 NA
ATOM     65  C   UNL     1       7.546  -1.562  12.848  1.00  0.00     0.031 C 
ATOM     66  C   UNL     1       9.238  -7.365  13.523  1.00  0.00     0.029 A 
ATOM     67  C   UNL     1       8.753  -6.183  12.982  1.00  0.00     0.049 A 
ATOM     68  H   UNL     1       7.975  -5.833  11.053  1.00  0.00     0.167 HD
ATOM     69  C   UNL     1       8.175  -3.764  13.001  1.00  0.00     0.074 A 
ATOM     70  C   UNL     1       8.098  -2.467  13.642  1.00  0.00     0.031 C 
ATOM     71  C   UNL     1       8.657  -4.882  13.604  1.00  0.00     0.034 A 
BRANCH  58  72
ATOM     72  C   UNL     1       8.537  -9.948  10.015  1.00  0.00     0.023 A 
ATOM     73  C   UNL     1       9.424 -10.457   9.048  1.00  0.00     0.031 A 
ATOM     74  C   UNL     1       7.827 -10.866  10.807  1.00  0.00     0.131 A 
ATOM     75  C   UNL     1       9.521 -11.843   8.851  1.00  0.00     0.055 A 
ATOM     76  C   UNL     1       7.989 -12.245  10.659  1.00  0.00     0.041 A 
ATOM     77  F   UNL     1       6.944 -10.439  11.723  1.00  0.00    -0.206 F 
ATOM     78  C   UNL     1       8.829 -12.740   9.666  1.00  0.00     0.022 A 
BRANCH  75  79
ATOM     79  S   UNL     1      10.451 -12.453   7.418  1.00  0.00     0.124 S 
ATOM     80  O   UNL     1       9.732 -11.827   6.311  1.00  0.00    -0.237 OA
ATOM     81  O   UNL     1      11.795 -11.948   7.674  1.00  0.00    -0.237 OA
ATOM     82  O   UNL     1      10.303 -13.905   7.506  1.00  0.00    -0.744 OA
ENDBRANCH  75  79
ENDBRANCH  58  72
BRANCH  59  83
ATOM     83  C   UNL     1       6.412  -0.138  10.543  1.00  0.00     0.023 A 
ATOM     84  C   UNL     1       7.388   0.839  10.798  1.00  0.00     0.031 A 
ATOM     85  C   UNL     1       5.070   0.279  10.462  1.00  0.00     0.131 A 
ATOM     86  C   UNL     1       7.004   2.174  11.009  1.00  0.00     0.055 A 
ATOM     87  C   UNL     1       4.699   1.615  10.620  1.00  0.00     0.041 A 
ATOM     88  F   UNL     1       4.095  -0.614  10.227  1.00  0.00    -0.206 F 
ATOM     89  C   UNL     1       5.668   2.570  10.909  1.00  0.00     0.022 A 
BRANCH  86  90
ATOM     90  S   UNL     1       8.269   3.378  11.503  1.00  0.00     0.124 S 
ATOM     91  O   UNL     1       8.777   2.786  12.735  1.00  0.00    -0.237 OA
ATOM     92  O   UNL     1       9.173   3.354  10.358  1.00  0.00    -0.237 OA
ATOM     93  O   UNL     1       7.513   4.617  11.671  1.00  0.00    -0.744 OA
ENDBRANCH  86  90
ENDBRANCH  59  83
BRANCH  71  94
ATOM     94  C   UNL     1       9.181  -4.737  15.012  1.00  0.00     0.023 A 
ATOM     95  C   UNL     1       8.334  -4.437  16.092  1.00  0.00     0.031 A 
ATOM     96  C   UNL     1      10.552  -4.913  15.275  1.00  0.00     0.131 A 
ATOM     97  C   UNL     1       8.873  -4.272  17.377  1.00  0.00     0.055 A 
ATOM     98  C   UNL     1      11.072  -4.810  16.565  1.00  0.00     0.041 A 
ATOM     99  F   UNL     1      11.407  -5.201  14.280  1.00  0.00    -0.206 F 
ATOM    100  C   UNL     1      10.233  -4.474  17.623  1.00  0.00     0.022 A 
BRANCH  97 101
ATOM    101  S   UNL     1       7.786  -3.700  18.712  1.00  0.00     0.124 S 
ATOM    102  O   UNL     1       7.295  -2.432  18.182  1.00  0.00    -0.237 OA
ATOM    103  O   UNL     1       6.805  -4.777  18.799  1.00  0.00    -0.237 OA
ATOM    104  O   UNL     1       8.684  -3.586  19.860  1.00  0.00    -0.744 OA
ENDBRANCH  97 101
ENDBRANCH  71  94
ENDBRANCH  45  46
ENDBRANCH  38  40
ENDBRANCH  37  38
ENDBRANCH  36  37
ENDBRANCH  35  36
ENDBRANCH  34  35
ENDBRANCH  33  34
ENDBRANCH   1  33
TORSDOF 26
