REMARK SMILES NC(=O)C[C@H](NC(=O)C1(c2ccccc2)CCN(C(=O)[C@@H]2CCC[NH2+]2)CC1)C(=O)OCCOCCOCCOCCOC(=O)c1ccc(-c2c3nc(c(-c4cc(S(=O)(=O)[O-])ccc4F)c4ccc([nH]4)c(-c4cc(S(=O)(=O)[O-])ccc4F)c4nc(c(-c5cc(S(=O)(=O)[O-])ccc5F)c5ccc2[nH]5)C=C4)C=C3)cc1
REMARK SMILES IDX 36 1 35 2 34 3 33 4 32 5 31 6 30 7 28 8 29 9 5 10 4 11 2 12
REMARK SMILES IDX 1 13 3 16 6 17 7 18 8 20 9 21 16 22 27 23 17 24 26 25 18 26
REMARK SMILES IDX 19 27 20 28 10 29 11 30 15 31 12 32 14 33 13 34 21 35 22 36
REMARK SMILES IDX 25 37 23 38 24 39 37 42 38 43 39 44 40 45 41 46 42 47 43 48
REMARK SMILES IDX 44 49 45 50 46 51 107 52 47 53 106 54 48 55 49 56 50 57
REMARK SMILES IDX 100 58 51 59 105 60 99 61 101 62 52 63 104 64 98 65 97 66
REMARK SMILES IDX 53 68 85 69 65 70 84 71 66 72 69 73 83 74 102 75 67 76 68 77
REMARK SMILES IDX 82 79 103 80 70 81 54 82 55 83 63 84 56 85 62 86 64 87 61 88
REMARK SMILES IDX 57 89 58 90 59 91 60 92 86 93 87 94 95 95 88 96 94 97 96 98
REMARK SMILES IDX 93 99 89 100 90 101 91 102 92 103 71 104 72 105 80 106
REMARK SMILES IDX 73 107 79 108 81 109 78 110 74 111 75 112 76 113 77 114
REMARK H PARENT 1 14 1 15 6 19 25 40 25 41 101 67 69 78
REMARK Flexibility Score: inf
ROOT
ATOM      1  O   UNL     1       2.299  -4.619  -3.331  1.00  0.00    -0.377 OA
ENDROOT
BRANCH   1   2
ATOM      2  C   UNL     1       1.437  -3.778  -4.059  1.00  0.00     0.188 C 
BRANCH   2   3
ATOM      3  C   UNL     1       1.995  -3.187  -5.363  1.00  0.00     0.188 C 
BRANCH   3   4
ATOM      4  O   UNL     1       3.163  -3.703  -5.974  1.00  0.00    -0.376 OA
BRANCH   4   5
ATOM      5  C   UNL     1       4.302  -4.045  -5.196  1.00  0.00     0.202 C 
BRANCH   5   6
ATOM      6  C   UNL     1       4.840  -3.094  -4.115  1.00  0.00     0.261 C 
BRANCH   6   7
ATOM      7  O   UNL     1       3.844  -2.550  -3.229  1.00  0.00    -0.462 OA
BRANCH   7   8
ATOM      8  C   UNL     1       3.655  -1.220  -3.312  1.00  0.00     0.329 C 
ATOM      9  O   UNL     1       4.312  -0.459  -4.019  1.00  0.00    -0.250 OA
BRANCH   8  10
ATOM     10  C   UNL     1       2.545  -0.669  -2.392  1.00  0.00     0.201 C 
BRANCH  10  11
ATOM     11  C   UNL     1       3.250   0.052  -1.240  1.00  0.00     0.136 C 
BRANCH  11  12
ATOM     12  C   UNL     1       4.107  -0.916  -0.457  1.00  0.00     0.220 C 
ATOM     13  N   UNL     1       3.453  -1.701   0.442  1.00  0.00    -0.370 N 
ATOM     14  H   UNL     1       3.955  -2.353   0.983  1.00  0.00     0.159 HD
ATOM     15  H   UNL     1       2.478  -1.618   0.550  1.00  0.00     0.159 HD
ATOM     16  O   UNL     1       5.313  -1.025  -0.635  1.00  0.00    -0.275 OA
ENDBRANCH  11  12
ENDBRANCH  10  11
BRANCH  10  17
ATOM     17  N   UNL     1       1.389  -1.429  -1.853  1.00  0.00    -0.342 N 
ATOM     18  C   UNL     1       0.024  -1.351  -1.891  1.00  0.00     0.231 C 
ATOM     19  H   UNL     1       1.687  -2.202  -1.321  1.00  0.00     0.164 HD
ATOM     20  O   UNL     1      -0.533  -2.142  -1.111  1.00  0.00    -0.274 OA
BRANCH  18  21
ATOM     21  C   UNL     1      -0.894  -0.406  -2.769  1.00  0.00     0.077 C 
ATOM     22  C   UNL     1      -0.200   0.562  -3.749  1.00  0.00     0.043 C 
ATOM     23  C   UNL     1      -1.748   0.454  -1.784  1.00  0.00     0.043 C 
ATOM     24  C   UNL     1       0.443   1.794  -3.119  1.00  0.00     0.121 C 
ATOM     25  C   UNL     1      -0.978   1.599  -1.153  1.00  0.00     0.121 C 
ATOM     26  N   UNL     1      -0.423   2.470  -2.187  1.00  0.00    -0.337 N 
ATOM     27  C   UNL     1      -0.391   3.859  -2.223  1.00  0.00     0.280 C 
ATOM     28  O   UNL     1       0.337   4.458  -3.025  1.00  0.00    -0.268 OA
BRANCH  21  29
ATOM     29  C   UNL     1      -1.875  -1.298  -3.636  1.00  0.00    -0.032 A 
ATOM     30  C   UNL     1      -3.247  -1.456  -3.345  1.00  0.00     0.005 A 
ATOM     31  C   UNL     1      -1.418  -1.917  -4.813  1.00  0.00     0.005 A 
ATOM     32  C   UNL     1      -4.113  -2.144  -4.208  1.00  0.00     0.000 A 
ATOM     33  C   UNL     1      -2.274  -2.629  -5.664  1.00  0.00     0.000 A 
ATOM     34  C   UNL     1      -3.627  -2.731  -5.369  1.00  0.00     0.000 A 
ENDBRANCH  21  29
BRANCH  27  35
ATOM     35  C   UNL     1      -1.246   4.690  -1.269  1.00  0.00     0.272 C 
ATOM     36  C   UNL     1      -0.844   4.604   0.189  1.00  0.00     0.081 C 
ATOM     37  N   UNL     1      -2.686   4.369  -1.365  1.00  0.00    -0.336 N 
ATOM     38  C   UNL     1      -2.137   4.932   0.904  1.00  0.00     0.068 C 
ATOM     39  C   UNL     1      -3.233   4.405  -0.009  1.00  0.00     0.261 C 
ATOM     40  H   UNL     1      -2.810   3.439  -1.766  1.00  0.00     0.346 HD
ATOM     41  H   UNL     1      -3.166   5.040  -1.965  1.00  0.00     0.346 HD
ENDBRANCH  27  35
ENDBRANCH  18  21
ENDBRANCH  10  17
ENDBRANCH   8  10
ENDBRANCH   7   8
ENDBRANCH   6   7
ENDBRANCH   5   6
ENDBRANCH   4   5
ENDBRANCH   3   4
ENDBRANCH   2   3
ENDBRANCH   1   2
BRANCH   1  42
ATOM     42  C   UNL     1       2.126  -6.016  -3.520  1.00  0.00     0.188 C 
BRANCH  42  43
ATOM     43  C   UNL     1       1.640  -6.495  -4.904  1.00  0.00     0.188 C 
BRANCH  43  44
ATOM     44  O   UNL     1       0.496  -5.815  -5.413  1.00  0.00    -0.376 OA
BRANCH  44  45
ATOM     45  C   UNL     1      -0.795  -6.357  -5.160  1.00  0.00     0.202 C 
BRANCH  45  46
ATOM     46  C   UNL     1      -1.280  -6.421  -3.700  1.00  0.00     0.261 C 
BRANCH  46  47
ATOM     47  O   UNL     1      -0.518  -7.267  -2.827  1.00  0.00    -0.460 OA
BRANCH  47  48
ATOM     48  C   UNL     1      -0.359  -8.558  -3.201  1.00  0.00     0.338 C 
ATOM     49  O   UNL     1      -0.888  -9.117  -4.135  1.00  0.00    -0.246 OA
BRANCH  48  50
ATOM     50  C   UNL     1       0.769  -9.104  -2.417  1.00  0.00     0.060 A 
ATOM     51  C   UNL     1       1.883  -9.587  -3.114  1.00  0.00     0.016 A 
ATOM     52  C   UNL     1       0.741  -9.117  -1.020  1.00  0.00     0.016 A 
ATOM     53  C   UNL     1       2.966 -10.109  -2.415  1.00  0.00     0.010 A 
ATOM     54  C   UNL     1       1.815  -9.675  -0.320  1.00  0.00     0.010 A 
ATOM     55  C   UNL     1       2.915 -10.200  -1.019  1.00  0.00    -0.014 A 
BRANCH  55  56
ATOM     56  C   UNL     1       3.921 -11.046  -0.338  1.00  0.00     0.031 A 
ATOM     57  C   UNL     1       3.560 -12.477  -0.050  1.00  0.00     0.074 A 
ATOM     58  C   UNL     1       5.152 -10.577  -0.073  1.00  0.00     0.049 A 
ATOM     59  N   UNL     1       4.281 -13.424   0.489  1.00  0.00    -0.248 NA
ATOM     60  C   UNL     1       2.201 -12.895  -0.429  1.00  0.00     0.031 C 
ATOM     61  C   UNL     1       5.621  -9.225  -0.371  1.00  0.00     0.029 A 
ATOM     62  N   UNL     1       6.238 -11.194   0.493  1.00  0.00    -0.354 N 
ATOM     63  C   UNL     1       3.467 -14.551   0.508  1.00  0.00     0.074 A 
ATOM     64  C   UNL     1       2.184 -14.156  -0.030  1.00  0.00     0.031 C 
ATOM     65  C   UNL     1       6.905  -9.116   0.013  1.00  0.00     0.029 A 
ATOM     66  C   UNL     1       7.336 -10.376   0.616  1.00  0.00     0.049 A 
ATOM     67  H   UNL     1       6.232 -12.135   0.783  1.00  0.00     0.167 HD
ATOM     68  C   UNL     1       3.769 -15.804   0.927  1.00  0.00     0.034 A 
ATOM     69  C   UNL     1       8.541 -10.617   1.169  1.00  0.00     0.034 A 
ATOM     70  C   UNL     1       5.050 -16.169   1.480  1.00  0.00     0.049 A 
ATOM     71  C   UNL     1       8.818 -11.995   1.727  1.00  0.00     0.074 A 
ATOM     72  C   UNL     1       5.469 -17.405   1.940  1.00  0.00     0.029 A 
ATOM     73  N   UNL     1       6.114 -15.295   1.665  1.00  0.00    -0.354 N 
ATOM     74  N   UNL     1       8.044 -13.057   1.735  1.00  0.00    -0.248 NA
ATOM     75  C   UNL     1      10.135 -12.207   2.338  1.00  0.00     0.031 C 
ATOM     76  C   UNL     1       6.751 -17.258   2.480  1.00  0.00     0.029 A 
ATOM     77  C   UNL     1       7.173 -15.954   2.271  1.00  0.00     0.049 A 
ATOM     78  H   UNL     1       6.117 -14.346   1.404  1.00  0.00     0.167 HD
ATOM     79  C   UNL     1       8.794 -14.070   2.327  1.00  0.00     0.074 A 
ATOM     80  C   UNL     1      10.088 -13.496   2.635  1.00  0.00     0.031 C 
ATOM     81  C   UNL     1       8.450 -15.358   2.592  1.00  0.00     0.034 A 
BRANCH  68  82
ATOM     82  C   UNL     1       2.674 -16.841   0.858  1.00  0.00     0.023 A 
ATOM     83  C   UNL     1       2.106 -17.245  -0.364  1.00  0.00     0.031 A 
ATOM     84  C   UNL     1       2.162 -17.409   2.038  1.00  0.00     0.131 A 
ATOM     85  C   UNL     1       1.018 -18.131  -0.372  1.00  0.00     0.055 A 
ATOM     86  C   UNL     1       1.136 -18.355   2.018  1.00  0.00     0.041 A 
ATOM     87  F   UNL     1       2.642 -17.040   3.237  1.00  0.00    -0.206 F 
ATOM     88  C   UNL     1       0.547 -18.710   0.808  1.00  0.00     0.022 A 
BRANCH  85  89
ATOM     89  S   UNL     1       0.126 -18.397  -1.930  1.00  0.00     0.124 S 
ATOM     90  O   UNL     1      -0.282 -17.036  -2.272  1.00  0.00    -0.237 OA
ATOM     91  O   UNL     1       1.149 -18.990  -2.782  1.00  0.00    -0.237 OA
ATOM     92  O   UNL     1      -0.967 -19.290  -1.551  1.00  0.00    -0.744 OA
ENDBRANCH  85  89
ENDBRANCH  68  82
BRANCH  69  93
ATOM     93  C   UNL     1       9.564  -9.535   1.266  1.00  0.00     0.023 A 
ATOM     94  C   UNL     1      10.818  -9.656   0.646  1.00  0.00     0.031 A 
ATOM     95  C   UNL     1       9.323  -8.385   2.040  1.00  0.00     0.131 A 
ATOM     96  C   UNL     1      11.799  -8.672   0.851  1.00  0.00     0.055 A 
ATOM     97  C   UNL     1      10.280  -7.379   2.190  1.00  0.00     0.041 A 
ATOM     98  F   UNL     1       8.145  -8.219   2.663  1.00  0.00    -0.206 F 
ATOM     99  C   UNL     1      11.532  -7.527   1.605  1.00  0.00     0.022 A 
BRANCH  96 100
ATOM    100  S   UNL     1      13.467  -8.961   0.201  1.00  0.00     0.124 S 
ATOM    101  O   UNL     1      13.823 -10.219   0.846  1.00  0.00    -0.237 OA
ATOM    102  O   UNL     1      13.225  -9.023  -1.237  1.00  0.00    -0.237 OA
ATOM    103  O   UNL     1      14.217  -7.792   0.655  1.00  0.00    -0.744 OA
ENDBRANCH  96 100
ENDBRANCH  69  93
BRANCH  81 104
ATOM    104  C   UNL     1       9.511 -16.235   3.219  1.00  0.00     0.023 A 
ATOM    105  C   UNL     1      10.029 -15.966   4.498  1.00  0.00     0.031 A 
ATOM    106  C   UNL     1      10.031 -17.336   2.516  1.00  0.00     0.131 A 
ATOM    107  C   UNL     1      11.089 -16.737   5.000  1.00  0.00     0.055 A 
ATOM    108  C   UNL     1      11.030 -18.149   3.054  1.00  0.00     0.041 A 
ATOM    109  F   UNL     1       9.578 -17.641   1.290  1.00  0.00    -0.206 F 
ATOM    110  C   UNL     1      11.578 -17.839   4.295  1.00  0.00     0.022 A 
BRANCH 107 111
ATOM    111  S   UNL     1      11.908 -16.196   6.525  1.00  0.00     0.124 S 
ATOM    112  O   UNL     1      12.319 -14.839   6.182  1.00  0.00    -0.237 OA
ATOM    113  O   UNL     1      10.837 -16.308   7.511  1.00  0.00    -0.237 OA
ATOM    114  O   UNL     1      13.000 -17.154   6.685  1.00  0.00    -0.744 OA
ENDBRANCH 107 111
ENDBRANCH  81 104
ENDBRANCH  55  56
ENDBRANCH  48  50
ENDBRANCH  47  48
ENDBRANCH  46  47
ENDBRANCH  45  46
ENDBRANCH  44  45
ENDBRANCH  43  44
ENDBRANCH  42  43
ENDBRANCH   1  42
TORSDOF 29
