REMARK SMILES COc1ccc([C@@H](CC(=O)OCCOCCOCCOCCOC(=O)c2ccc(-c3c4nc(c(-c5cc(S(=O)(=O)[O-])ccc5F)c5ccc([nH]5)c(-c5cc(S(=O)(=O)[O-])ccc5F)c5nc(c(-c6cc(S(=O)(=O)[O-])ccc6F)c6ccc3[nH]6)C=C5)C=C4)cc2)NC(=O)c2ccc(Cl)c([N+](=O)[O-])c2)cc1
REMARK SMILES IDX 16 1 15 2 14 3 13 4 12 5 11 6 9 7 10 8 8 9 7 10 6 11 3 12
REMARK SMILES IDX 4 13 103 14 5 15 102 16 2 17 1 18 89 19 90 20 91 22 92 23
REMARK SMILES IDX 93 24 101 25 94 26 97 27 95 28 96 29 98 30 99 31 100 32
REMARK SMILES IDX 17 33 18 34 19 35 20 36 21 37 22 38 23 39 24 40 25 41 26 42
REMARK SMILES IDX 27 43 88 44 28 45 87 46 29 47 30 48 31 49 81 50 32 51 86 52
REMARK SMILES IDX 80 53 82 54 33 55 85 56 79 57 78 58 34 60 66 61 46 62 65 63
REMARK SMILES IDX 47 64 50 65 64 66 83 67 48 68 49 69 63 71 84 72 51 73 35 74
REMARK SMILES IDX 36 75 44 76 37 77 43 78 45 79 42 80 38 81 39 82 40 83 41 84
REMARK SMILES IDX 67 85 68 86 76 87 69 88 75 89 77 90 74 91 70 92 71 93 72 94
REMARK SMILES IDX 73 95 52 96 53 97 61 98 54 99 60 100 62 101 59 102 55 103
REMARK SMILES IDX 56 104 57 105 58 106
REMARK H PARENT 89 21 82 59 50 70
REMARK Flexibility Score: inf
ROOT
ATOM      1  C   UNL     1      -0.686   6.253  -5.205  1.00  0.00     0.188 C 
ENDROOT
BRANCH   1   2
ATOM      2  C   UNL     1      -1.386   6.129  -6.559  1.00  0.00     0.188 C 
BRANCH   2   3
ATOM      3  O   UNL     1      -2.534   5.310  -6.637  1.00  0.00    -0.376 OA
BRANCH   3   4
ATOM      4  C   UNL     1      -2.385   3.894  -6.700  1.00  0.00     0.202 C 
BRANCH   4   5
ATOM      5  C   UNL     1      -1.034   3.236  -7.021  1.00  0.00     0.261 C 
BRANCH   5   6
ATOM      6  O   UNL     1       0.029   3.568  -6.098  1.00  0.00    -0.463 OA
BRANCH   6   7
ATOM      7  C   UNL     1       1.250   3.760  -6.630  1.00  0.00     0.308 C 
ATOM      8  O   UNL     1       1.470   3.708  -7.841  1.00  0.00    -0.252 OA
BRANCH   7   9
ATOM      9  C   UNL     1       2.382   4.135  -5.689  1.00  0.00     0.152 C 
BRANCH   9  10
ATOM     10  C   UNL     1       2.405   4.155  -4.146  1.00  0.00     0.123 C 
BRANCH  10  11
ATOM     11  C   UNL     1       1.991   2.914  -3.380  1.00  0.00    -0.025 A 
ATOM     12  C   UNL     1       1.254   0.688  -1.814  1.00  0.00     0.118 A 
ATOM     13  C   UNL     1       0.319   1.302  -2.634  1.00  0.00     0.047 A 
ATOM     14  C   UNL     1       2.562   1.161  -1.773  1.00  0.00     0.047 A 
ATOM     15  C   UNL     1       0.680   2.421  -3.386  1.00  0.00     0.010 A 
ATOM     16  C   UNL     1       2.925   2.267  -2.549  1.00  0.00     0.010 A 
BRANCH  12  17
ATOM     17  O   UNL     1       0.843  -0.414  -1.121  1.00  0.00    -0.497 OA
ATOM     18  C   UNL     1       1.016  -0.264   0.286  1.00  0.00     0.278 C 
ENDBRANCH  12  17
ENDBRANCH  10  11
BRANCH  10  19
ATOM     19  N   UNL     1       1.818   5.356  -3.554  1.00  0.00    -0.345 N 
ATOM     20  C   UNL     1       2.365   6.504  -3.041  1.00  0.00     0.252 C 
ATOM     21  H   UNL     1       0.834   5.336  -3.515  1.00  0.00     0.164 HD
ATOM     22  O   UNL     1       1.652   7.403  -2.603  1.00  0.00    -0.269 OA
BRANCH  20  23
ATOM     23  C   UNL     1       3.827   6.711  -2.952  1.00  0.00     0.046 A 
ATOM     24  C   UNL     1       4.351   7.154  -1.733  1.00  0.00     0.016 A 
ATOM     25  C   UNL     1       4.671   6.577  -4.053  1.00  0.00     0.101 A 
ATOM     26  C   UNL     1       5.723   7.380  -1.596  1.00  0.00     0.028 A 
ATOM     27  C   UNL     1       6.060   6.784  -3.911  1.00  0.00     0.288 A 
ATOM     28  C   UNL     1       6.595   7.173  -2.674  1.00  0.00     0.118 A 
ATOM     29  Cl  UNL     1       8.273   7.394  -2.327  1.00  0.00    -0.077 Cl
BRANCH  27  30
ATOM     30  N   UNL     1       6.888   6.554  -5.100  1.00  0.00     0.064 N 
ATOM     31  O   UNL     1       8.008   7.071  -5.168  1.00  0.00    -0.258 OA
ATOM     32  O   UNL     1       6.390   5.862  -6.001  1.00  0.00    -0.258 OA
ENDBRANCH  27  30
ENDBRANCH  20  23
ENDBRANCH  10  19
ENDBRANCH   9  10
ENDBRANCH   7   9
ENDBRANCH   6   7
ENDBRANCH   5   6
ENDBRANCH   4   5
ENDBRANCH   3   4
ENDBRANCH   2   3
ENDBRANCH   1   2
BRANCH   1  33
ATOM     33  O   UNL     1      -0.865   5.226  -4.242  1.00  0.00    -0.377 OA
BRANCH  33  34
ATOM     34  C   UNL     1      -2.120   5.056  -3.585  1.00  0.00     0.188 C 
BRANCH  34  35
ATOM     35  C   UNL     1      -3.158   6.181  -3.627  1.00  0.00     0.188 C 
BRANCH  35  36
ATOM     36  O   UNL     1      -2.577   7.471  -3.618  1.00  0.00    -0.376 OA
BRANCH  36  37
ATOM     37  C   UNL     1      -2.396   8.136  -2.378  1.00  0.00     0.202 C 
BRANCH  37  38
ATOM     38  C   UNL     1      -1.554   7.471  -1.277  1.00  0.00     0.261 C 
BRANCH  38  39
ATOM     39  O   UNL     1      -1.971   6.184  -0.796  1.00  0.00    -0.460 OA
BRANCH  39  40
ATOM     40  C   UNL     1      -3.224   6.059  -0.327  1.00  0.00     0.338 C 
ATOM     41  O   UNL     1      -4.074   6.937  -0.256  1.00  0.00    -0.246 OA
BRANCH  40  42
ATOM     42  C   UNL     1      -3.471   4.631  -0.058  1.00  0.00     0.060 A 
ATOM     43  C   UNL     1      -4.536   3.996  -0.707  1.00  0.00     0.016 A 
ATOM     44  C   UNL     1      -2.697   3.942   0.881  1.00  0.00     0.016 A 
ATOM     45  C   UNL     1      -4.891   2.697  -0.346  1.00  0.00     0.010 A 
ATOM     46  C   UNL     1      -3.058   2.642   1.246  1.00  0.00     0.010 A 
ATOM     47  C   UNL     1      -4.198   2.041   0.680  1.00  0.00    -0.014 A 
BRANCH  47  48
ATOM     48  C   UNL     1      -4.828   0.866   1.337  1.00  0.00     0.031 A 
ATOM     49  C   UNL     1      -5.581   1.092   2.624  1.00  0.00     0.074 A 
ATOM     50  C   UNL     1      -4.795  -0.357   0.781  1.00  0.00     0.049 A 
ATOM     51  N   UNL     1      -6.234   0.241   3.374  1.00  0.00    -0.248 NA
ATOM     52  C   UNL     1      -5.584   2.470   3.135  1.00  0.00     0.031 C 
ATOM     53  C   UNL     1      -4.146  -0.691  -0.484  1.00  0.00     0.029 A 
ATOM     54  N   UNL     1      -5.336  -1.542   1.210  1.00  0.00    -0.354 N 
ATOM     55  C   UNL     1      -6.724   0.982   4.446  1.00  0.00     0.074 A 
ATOM     56  C   UNL     1      -6.233   2.333   4.278  1.00  0.00     0.031 C 
ATOM     57  C   UNL     1      -4.345  -1.996  -0.740  1.00  0.00     0.029 A 
ATOM     58  C   UNL     1      -5.102  -2.595   0.358  1.00  0.00     0.049 A 
ATOM     59  H   UNL     1      -5.845  -1.631   2.048  1.00  0.00     0.167 HD
ATOM     60  C   UNL     1      -7.526   0.582   5.465  1.00  0.00     0.034 A 
ATOM     61  C   UNL     1      -5.455  -3.893   0.460  1.00  0.00     0.034 A 
ATOM     62  C   UNL     1      -7.987  -0.776   5.630  1.00  0.00     0.049 A 
ATOM     63  C   UNL     1      -6.257  -4.346   1.657  1.00  0.00     0.074 A 
ATOM     64  C   UNL     1      -8.796  -1.300   6.622  1.00  0.00     0.029 A 
ATOM     65  N   UNL     1      -7.664  -1.833   4.786  1.00  0.00    -0.354 N 
ATOM     66  N   UNL     1      -6.716  -3.640   2.666  1.00  0.00    -0.248 NA
ATOM     67  C   UNL     1      -6.597  -5.772   1.718  1.00  0.00     0.031 C 
ATOM     68  C   UNL     1      -8.889  -2.683   6.429  1.00  0.00     0.029 A 
ATOM     69  C   UNL     1      -8.226  -3.011   5.256  1.00  0.00     0.049 A 
ATOM     70  H   UNL     1      -7.116  -1.756   3.971  1.00  0.00     0.167 HD
ATOM     71  C   UNL     1      -7.442  -4.532   3.456  1.00  0.00     0.074 A 
ATOM     72  C   UNL     1      -7.357  -5.822   2.802  1.00  0.00     0.031 C 
ATOM     73  C   UNL     1      -8.129  -4.300   4.606  1.00  0.00     0.034 A 
BRANCH  60  74
ATOM     74  C   UNL     1      -7.883   1.623   6.504  1.00  0.00     0.023 A 
ATOM     75  C   UNL     1      -8.562   2.808   6.163  1.00  0.00     0.031 A 
ATOM     76  C   UNL     1      -7.458   1.476   7.836  1.00  0.00     0.131 A 
ATOM     77  C   UNL     1      -8.683   3.843   7.103  1.00  0.00     0.055 A 
ATOM     78  C   UNL     1      -7.681   2.466   8.796  1.00  0.00     0.041 A 
ATOM     79  F   UNL     1      -6.784   0.382   8.224  1.00  0.00    -0.206 F 
ATOM     80  C   UNL     1      -8.273   3.670   8.426  1.00  0.00     0.022 A 
BRANCH  77  81
ATOM     81  S   UNL     1      -9.174   5.489   6.515  1.00  0.00     0.124 S 
ATOM     82  O   UNL     1      -8.176   5.739   5.477  1.00  0.00    -0.237 OA
ATOM     83  O   UNL     1     -10.537   5.264   6.051  1.00  0.00    -0.237 OA
ATOM     84  O   UNL     1      -9.047   6.330   7.704  1.00  0.00    -0.744 OA
ENDBRANCH  77  81
ENDBRANCH  60  74
BRANCH  61  85
ATOM     85  C   UNL     1      -5.060  -4.862  -0.600  1.00  0.00     0.023 A 
ATOM     86  C   UNL     1      -6.028  -5.503  -1.391  1.00  0.00     0.031 A 
ATOM     87  C   UNL     1      -3.709  -5.187  -0.819  1.00  0.00     0.131 A 
ATOM     88  C   UNL     1      -5.635  -6.460  -2.339  1.00  0.00     0.055 A 
ATOM     89  C   UNL     1      -3.320  -6.102  -1.799  1.00  0.00     0.041 A 
ATOM     90  F   UNL     1      -2.745  -4.607  -0.087  1.00  0.00    -0.206 F 
ATOM     91  C   UNL     1      -4.287  -6.751  -2.560  1.00  0.00     0.022 A 
BRANCH  88  92
ATOM     92  S   UNL     1      -6.920  -7.367  -3.242  1.00  0.00     0.124 S 
ATOM     93  O   UNL     1      -7.626  -8.039  -2.158  1.00  0.00    -0.237 OA
ATOM     94  O   UNL     1      -7.643  -6.288  -3.908  1.00  0.00    -0.237 OA
ATOM     95  O   UNL     1      -6.158  -8.242  -4.130  1.00  0.00    -0.744 OA
ENDBRANCH  88  92
ENDBRANCH  61  85
BRANCH  73  96
ATOM     96  C   UNL     1      -8.904  -5.458   5.195  1.00  0.00     0.023 A 
ATOM     97  C   UNL     1      -8.272  -6.623   5.667  1.00  0.00     0.031 A 
ATOM     98  C   UNL     1     -10.309  -5.401   5.262  1.00  0.00     0.131 A 
ATOM     99  C   UNL     1      -9.045  -7.707   6.113  1.00  0.00     0.055 A 
ATOM    100  C   UNL     1     -11.067  -6.452   5.779  1.00  0.00     0.041 A 
ATOM    101  F   UNL     1     -10.971  -4.318   4.824  1.00  0.00    -0.206 F 
ATOM    102  C   UNL     1     -10.437  -7.622   6.191  1.00  0.00     0.022 A 
BRANCH  99 103
ATOM    103  S   UNL     1      -8.214  -9.281   6.468  1.00  0.00     0.124 S 
ATOM    104  O   UNL     1      -7.517  -9.545   5.213  1.00  0.00    -0.237 OA
ATOM    105  O   UNL     1      -7.369  -8.938   7.607  1.00  0.00    -0.237 OA
ATOM    106  O   UNL     1      -9.318 -10.192   6.766  1.00  0.00    -0.744 OA
ENDBRANCH  99 103
ENDBRANCH  73  96
ENDBRANCH  47  48
ENDBRANCH  40  42
ENDBRANCH  39  40
ENDBRANCH  38  39
ENDBRANCH  37  38
ENDBRANCH  36  37
ENDBRANCH  35  36
ENDBRANCH  34  35
ENDBRANCH  33  34
ENDBRANCH   1  33
TORSDOF 29
