REMARK SMILES C[C@H](NC(=O)OC(C)(C)C)C(=O)N[C@@H](C)C(=O)N1CCC[C@H]1C(=O)OCCOCCOCCOCCOC(=O)c1ccc(-c2c3nc(c(-c4cc(S(=O)(=O)[O-])ccc4F)c4ccc([nH]4)c(-c4cc(S(=O)(=O)[O-])ccc4F)c4nc(c(-c5cc(S(=O)(=O)[O-])ccc5F)c5ccc2[nH]5)C=C4)C=C3)cc1
REMARK SMILES IDX 29 1 28 2 27 3 26 4 25 5 23 6 24 7 22 8 18 9 19 10 20 11
REMARK SMILES IDX 21 12 16 13 17 14 14 15 15 16 13 17 11 18 12 19 2 21 1 22
REMARK SMILES IDX 3 23 4 24 5 26 6 27 7 28 8 29 9 30 10 31 30 32 31 33 32 34
REMARK SMILES IDX 33 35 34 36 35 37 36 38 37 39 38 40 39 41 40 42 41 43 102 44
REMARK SMILES IDX 42 45 101 46 43 47 44 48 45 49 95 50 46 51 100 52 94 53
REMARK SMILES IDX 96 54 47 55 99 56 93 57 92 58 48 60 80 61 60 62 79 63 61 64
REMARK SMILES IDX 64 65 78 66 97 67 62 68 63 69 77 71 98 72 65 73 49 74 50 75
REMARK SMILES IDX 58 76 51 77 57 78 59 79 56 80 52 81 53 82 54 83 55 84 81 85
REMARK SMILES IDX 82 86 90 87 83 88 89 89 91 90 88 91 84 92 85 93 86 94 87 95
REMARK SMILES IDX 66 96 67 97 75 98 68 99 74 100 76 101 73 102 69 103 70 104
REMARK SMILES IDX 71 105 72 106
REMARK H PARENT 13 20 3 25 96 59 64 70
REMARK Flexibility Score: inf
ROOT
ATOM      1  C   UNL     1      -2.094   5.032  -6.135  1.00  0.00     0.188 C 
ENDROOT
BRANCH   1   2
ATOM      2  O   UNL     1      -1.385   6.254  -6.087  1.00  0.00    -0.376 OA
BRANCH   2   3
ATOM      3  C   UNL     1      -1.245   7.052  -4.914  1.00  0.00     0.202 C 
BRANCH   3   4
ATOM      4  C   UNL     1      -2.120   6.932  -3.661  1.00  0.00     0.261 C 
BRANCH   4   5
ATOM      5  O   UNL     1      -2.446   5.593  -3.313  1.00  0.00    -0.462 OA
BRANCH   5   6
ATOM      6  C   UNL     1      -3.761   5.252  -3.333  1.00  0.00     0.328 C 
ATOM      7  O   UNL     1      -4.670   6.027  -3.615  1.00  0.00    -0.250 OA
BRANCH   6   8
ATOM      8  C   UNL     1      -3.917   3.723  -3.317  1.00  0.00     0.195 C 
ATOM      9  N   UNL     1      -3.421   2.905  -2.213  1.00  0.00    -0.327 N 
ATOM     10  C   UNL     1      -4.514   2.193  -1.591  1.00  0.00     0.120 C 
ATOM     11  C   UNL     1      -5.551   2.049  -2.688  1.00  0.00     0.024 C 
ATOM     12  C   UNL     1      -5.385   3.311  -3.518  1.00  0.00     0.039 C 
BRANCH   9  13
ATOM     13  C   UNL     1      -2.074   2.809  -1.916  1.00  0.00     0.245 C 
ATOM     14  O   UNL     1      -1.369   3.813  -1.812  1.00  0.00    -0.272 OA
BRANCH  13  15
ATOM     15  C   UNL     1      -1.454   1.427  -1.607  1.00  0.00     0.168 C 
ATOM     16  C   UNL     1      -1.813   0.344  -2.617  1.00  0.00     0.041 C 
BRANCH  15  17
ATOM     17  N   UNL     1      -1.745   1.049  -0.229  1.00  0.00    -0.343 N 
ATOM     18  C   UNL     1      -0.907   0.999   0.848  1.00  0.00     0.243 C 
ATOM     19  O   UNL     1      -1.437   1.021   1.961  1.00  0.00    -0.273 OA
ATOM     20  H   UNL     1      -2.679   0.793  -0.050  1.00  0.00     0.164 HD
BRANCH  18  21
ATOM     21  C   UNL     1       0.619   0.902   0.672  1.00  0.00     0.171 C 
ATOM     22  C   UNL     1       1.230   2.221   0.197  1.00  0.00     0.042 C 
BRANCH  21  23
ATOM     23  N   UNL     1       0.890  -0.250  -0.196  1.00  0.00    -0.310 N 
ATOM     24  C   UNL     1       2.099  -0.814  -0.454  1.00  0.00     0.408 C 
ATOM     25  H   UNL     1       0.112  -0.658  -0.640  1.00  0.00     0.167 HD
ATOM     26  O   UNL     1       2.202  -1.798  -1.181  1.00  0.00    -0.225 OA
BRANCH  24  27
ATOM     27  O   UNL     1       3.103  -0.153   0.137  1.00  0.00    -0.444 OA
BRANCH  27  28
ATOM     28  C   UNL     1       4.504  -0.405  -0.136  1.00  0.00     0.106 C 
ATOM     29  C   UNL     1       5.027  -1.670   0.529  1.00  0.00     0.056 C 
ATOM     30  C   UNL     1       4.788  -0.495  -1.644  1.00  0.00     0.056 C 
ATOM     31  C   UNL     1       5.184   0.788   0.550  1.00  0.00     0.056 C 
ENDBRANCH  27  28
ENDBRANCH  24  27
ENDBRANCH  21  23
ENDBRANCH  18  21
ENDBRANCH  15  17
ENDBRANCH  13  15
ENDBRANCH   9  13
ENDBRANCH   6   8
ENDBRANCH   5   6
ENDBRANCH   4   5
ENDBRANCH   3   4
ENDBRANCH   2   3
ENDBRANCH   1   2
BRANCH   1  32
ATOM     32  C   UNL     1      -1.412   3.688  -5.799  1.00  0.00     0.188 C 
BRANCH  32  33
ATOM     33  O   UNL     1      -0.542   3.595  -4.696  1.00  0.00    -0.377 OA
BRANCH  33  34
ATOM     34  C   UNL     1       0.631   4.401  -4.689  1.00  0.00     0.188 C 
BRANCH  34  35
ATOM     35  C   UNL     1       1.240   4.894  -6.028  1.00  0.00     0.188 C 
BRANCH  35  36
ATOM     36  O   UNL     1       0.822   4.209  -7.199  1.00  0.00    -0.376 OA
BRANCH  36  37
ATOM     37  C   UNL     1       1.538   3.063  -7.639  1.00  0.00     0.202 C 
BRANCH  37  38
ATOM     38  C   UNL     1       1.838   1.954  -6.626  1.00  0.00     0.261 C 
BRANCH  38  39
ATOM     39  O   UNL     1       2.589   2.356  -5.473  1.00  0.00    -0.460 OA
BRANCH  39  40
ATOM     40  C   UNL     1       3.713   3.100  -5.626  1.00  0.00     0.338 C 
ATOM     41  O   UNL     1       4.258   3.410  -6.667  1.00  0.00    -0.246 OA
BRANCH  40  42
ATOM     42  C   UNL     1       4.104   3.577  -4.280  1.00  0.00     0.060 A 
ATOM     43  C   UNL     1       4.406   4.908  -3.954  1.00  0.00     0.016 A 
ATOM     44  C   UNL     1       4.186   2.609  -3.308  1.00  0.00     0.016 A 
ATOM     45  C   UNL     1       4.865   5.242  -2.654  1.00  0.00     0.010 A 
ATOM     46  C   UNL     1       4.684   2.943  -2.062  1.00  0.00     0.010 A 
ATOM     47  C   UNL     1       5.066   4.237  -1.703  1.00  0.00    -0.014 A 
BRANCH  47  48
ATOM     48  C   UNL     1       5.723   4.388  -0.362  1.00  0.00     0.031 A 
ATOM     49  C   UNL     1       7.072   3.729  -0.115  1.00  0.00     0.074 A 
ATOM     50  C   UNL     1       5.033   4.818   0.715  1.00  0.00     0.049 A 
ATOM     51  N   UNL     1       7.728   3.553   1.008  1.00  0.00    -0.248 NA
ATOM     52  C   UNL     1       7.706   3.095  -1.280  1.00  0.00     0.031 C 
ATOM     53  C   UNL     1       3.652   5.291   0.700  1.00  0.00     0.029 A 
ATOM     54  N   UNL     1       5.384   4.857   2.048  1.00  0.00    -0.354 N 
ATOM     55  C   UNL     1       8.828   2.757   0.693  1.00  0.00     0.074 A 
ATOM     56  C   UNL     1       8.695   2.421  -0.711  1.00  0.00     0.031 C 
ATOM     57  C   UNL     1       3.272   5.574   1.960  1.00  0.00     0.029 A 
ATOM     58  C   UNL     1       4.378   5.299   2.879  1.00  0.00     0.049 A 
ATOM     59  H   UNL     1       6.274   4.594   2.376  1.00  0.00     0.167 HD
ATOM     60  C   UNL     1       9.863   2.359   1.481  1.00  0.00     0.034 A 
ATOM     61  C   UNL     1       4.345   5.471   4.219  1.00  0.00     0.034 A 
ATOM     62  C   UNL     1      10.011   2.721   2.873  1.00  0.00     0.049 A 
ATOM     63  C   UNL     1       5.557   5.147   5.067  1.00  0.00     0.074 A 
ATOM     64  C   UNL     1      11.114   2.544   3.695  1.00  0.00     0.029 A 
ATOM     65  N   UNL     1       9.031   3.309   3.656  1.00  0.00    -0.354 N 
ATOM     66  N   UNL     1       6.686   4.578   4.716  1.00  0.00    -0.248 NA
ATOM     67  C   UNL     1       5.496   5.515   6.491  1.00  0.00     0.031 C 
ATOM     68  C   UNL     1      10.776   2.957   4.987  1.00  0.00     0.029 A 
ATOM     69  C   UNL     1       9.496   3.479   4.954  1.00  0.00     0.049 A 
ATOM     70  H   UNL     1       8.136   3.569   3.339  1.00  0.00     0.167 HD
ATOM     71  C   UNL     1       7.482   4.572   5.863  1.00  0.00     0.074 A 
ATOM     72  C   UNL     1       6.710   5.194   6.914  1.00  0.00     0.031 C 
ATOM     73  C   UNL     1       8.746   4.103   6.019  1.00  0.00     0.034 A 
BRANCH  60  74
ATOM     74  C   UNL     1      10.957   1.520   0.851  1.00  0.00     0.023 A 
ATOM     75  C   UNL     1      11.662   1.974  -0.276  1.00  0.00     0.031 A 
ATOM     76  C   UNL     1      11.328   0.272   1.387  1.00  0.00     0.131 A 
ATOM     77  C   UNL     1      12.617   1.154  -0.891  1.00  0.00     0.055 A 
ATOM     78  C   UNL     1      12.362  -0.492   0.836  1.00  0.00     0.041 A 
ATOM     79  F   UNL     1      10.696  -0.230   2.460  1.00  0.00    -0.206 F 
ATOM     80  C   UNL     1      12.999  -0.062  -0.324  1.00  0.00     0.022 A 
BRANCH  77  81
ATOM     81  S   UNL     1      13.224   1.638  -2.528  1.00  0.00     0.124 S 
ATOM     82  O   UNL     1      11.984   1.673  -3.300  1.00  0.00    -0.237 OA
ATOM     83  O   UNL     1      13.846   2.930  -2.265  1.00  0.00    -0.237 OA
ATOM     84  O   UNL     1      14.144   0.561  -2.885  1.00  0.00    -0.744 OA
ENDBRANCH  77  81
ENDBRANCH  60  74
BRANCH  61  85
ATOM     85  C   UNL     1       3.135   6.047   4.874  1.00  0.00     0.023 A 
ATOM     86  C   UNL     1       3.188   7.327   5.450  1.00  0.00     0.031 A 
ATOM     87  C   UNL     1       1.943   5.315   5.000  1.00  0.00     0.131 A 
ATOM     88  C   UNL     1       2.098   7.813   6.185  1.00  0.00     0.055 A 
ATOM     89  C   UNL     1       0.837   5.828   5.682  1.00  0.00     0.041 A 
ATOM     90  F   UNL     1       1.839   4.090   4.463  1.00  0.00    -0.206 F 
ATOM     91  C   UNL     1       0.916   7.078   6.294  1.00  0.00     0.022 A 
BRANCH  88  92
ATOM     92  S   UNL     1       2.293   9.376   7.084  1.00  0.00     0.124 S 
ATOM     93  O   UNL     1       3.403   9.066   7.978  1.00  0.00    -0.237 OA
ATOM     94  O   UNL     1       2.582  10.313   6.004  1.00  0.00    -0.237 OA
ATOM     95  O   UNL     1       0.997   9.558   7.734  1.00  0.00    -0.744 OA
ENDBRANCH  88  92
ENDBRANCH  61  85
BRANCH  73  96
ATOM     96  C   UNL     1       9.427   4.314   7.355  1.00  0.00     0.023 A 
ATOM     97  C   UNL     1       8.972   3.710   8.541  1.00  0.00     0.031 A 
ATOM     98  C   UNL     1      10.564   5.141   7.437  1.00  0.00     0.131 A 
ATOM     99  C   UNL     1       9.618   3.981   9.761  1.00  0.00     0.055 A 
ATOM    100  C   UNL     1      11.240   5.355   8.640  1.00  0.00     0.041 A 
ATOM    101  F   UNL     1      11.044   5.753   6.343  1.00  0.00    -0.206 F 
ATOM    102  C   UNL     1      10.760   4.784   9.813  1.00  0.00     0.022 A 
BRANCH  99 103
ATOM    103  S   UNL     1       8.893   3.345  11.299  1.00  0.00     0.124 S 
ATOM    104  O   UNL     1       7.557   3.932  11.270  1.00  0.00    -0.237 OA
ATOM    105  O   UNL     1       8.961   1.901  11.103  1.00  0.00    -0.237 OA
ATOM    106  O   UNL     1       9.778   3.870  12.339  1.00  0.00    -0.744 OA
ENDBRANCH  99 103
ENDBRANCH  73  96
ENDBRANCH  47  48
ENDBRANCH  40  42
ENDBRANCH  39  40
ENDBRANCH  38  39
ENDBRANCH  37  38
ENDBRANCH  36  37
ENDBRANCH  35  36
ENDBRANCH  34  35
ENDBRANCH  33  34
ENDBRANCH  32  33
ENDBRANCH   1  32
TORSDOF 30
