REMARK SMILES C[C@H](NC(=O)N1CC[C@@H](C(=O)OCCOCCOCCOCCOC(=O)c2ccc(-c3c4nc(c(-c5cc(S(=O)(=O)[O-])ccc5F)c5ccc([nH]5)c(-c5cc(S(=O)(=O)[O-])ccc5F)c5nc(c(-c6cc(S(=O)(=O)[O-])ccc6F)c6ccc3[nH]6)C=C5)C=C4)cc2)[C@H]1C)c1ccc(Cl)cc1
REMARK SMILES IDX 18 1 17 2 16 3 15 4 14 5 13 6 12 7 10 8 11 9 9 10 6 11 7 12
REMARK SMILES IDX 90 13 8 14 91 15 4 16 3 17 5 19 2 20 1 21 92 22 93 23 98 24
REMARK SMILES IDX 94 25 97 26 95 27 96 28 19 29 20 30 21 31 22 32 23 33 24 34
REMARK SMILES IDX 25 35 26 36 27 37 28 38 89 39 29 40 88 41 30 42 31 43 32 44
REMARK SMILES IDX 82 45 33 46 87 47 81 48 83 49 34 50 86 51 80 52 79 53 35 55
REMARK SMILES IDX 67 56 47 57 66 58 48 59 51 60 65 61 84 62 49 63 50 64 64 66
REMARK SMILES IDX 85 67 52 68 36 69 37 70 45 71 38 72 44 73 46 74 43 75 39 76
REMARK SMILES IDX 40 77 41 78 42 79 68 80 69 81 77 82 70 83 76 84 78 85 75 86
REMARK SMILES IDX 71 87 72 88 73 89 74 90 53 91 54 92 62 93 55 94 61 95 63 96
REMARK SMILES IDX 60 97 56 98 57 99 58 100 59 101
REMARK H PARENT 3 18 83 54 51 65
REMARK Flexibility Score: inf
ROOT
ATOM      1  O   UNL     1       1.868   4.245   3.304  1.00  0.00    -0.377 OA
ENDROOT
BRANCH   1   2
ATOM      2  C   UNL     1       3.078   3.788   3.888  1.00  0.00     0.188 C 
BRANCH   2   3
ATOM      3  C   UNL     1       4.219   4.776   4.202  1.00  0.00     0.188 C 
BRANCH   3   4
ATOM      4  O   UNL     1       3.846   6.119   4.413  1.00  0.00    -0.376 OA
BRANCH   4   5
ATOM      5  C   UNL     1       3.943   7.095   3.389  1.00  0.00     0.202 C 
BRANCH   5   6
ATOM      6  C   UNL     1       4.151   6.771   1.904  1.00  0.00     0.261 C 
BRANCH   6   7
ATOM      7  O   UNL     1       3.923   5.409   1.546  1.00  0.00    -0.463 OA
BRANCH   7   8
ATOM      8  C   UNL     1       4.914   4.750   0.911  1.00  0.00     0.311 C 
ATOM      9  O   UNL     1       6.040   5.204   0.732  1.00  0.00    -0.252 OA
BRANCH   8  10
ATOM     10  C   UNL     1       4.537   3.339   0.503  1.00  0.00     0.123 C 
ATOM     11  N   UNL     1       3.164   1.686  -0.513  1.00  0.00    -0.321 N 
ATOM     12  C   UNL     1       4.428   1.743  -1.237  1.00  0.00     0.122 C 
ATOM     13  C   UNL     1       3.063   2.849   0.430  1.00  0.00     0.098 C 
ATOM     14  C   UNL     1       5.005   3.106  -0.935  1.00  0.00     0.039 C 
ATOM     15  C   UNL     1       2.120   3.983  -0.010  1.00  0.00     0.032 C 
BRANCH  11  16
ATOM     16  C   UNL     1       2.553   0.447  -0.449  1.00  0.00     0.318 C 
ATOM     17  N   UNL     1       1.230   0.331  -0.154  1.00  0.00    -0.331 N 
ATOM     18  H   UNL     1       0.908  -0.555   0.130  1.00  0.00     0.165 HD
ATOM     19  O   UNL     1       3.152  -0.592  -0.742  1.00  0.00    -0.249 OA
BRANCH  17  20
ATOM     20  C   UNL     1       0.260   1.392  -0.222  1.00  0.00     0.111 C 
ATOM     21  C   UNL     1       0.220   1.988  -1.644  1.00  0.00     0.036 C 
BRANCH  20  22
ATOM     22  C   UNL     1      -1.171   1.143   0.214  1.00  0.00    -0.026 A 
ATOM     23  C   UNL     1      -1.934   2.304   0.486  1.00  0.00     0.007 A 
ATOM     24  C   UNL     1      -1.808  -0.098   0.262  1.00  0.00     0.007 A 
ATOM     25  C   UNL     1      -3.299   2.240   0.736  1.00  0.00     0.021 A 
ATOM     26  C   UNL     1      -3.181  -0.164   0.546  1.00  0.00     0.021 A 
ATOM     27  C   UNL     1      -3.919   1.002   0.765  1.00  0.00     0.041 A 
ATOM     28  Cl  UNL     1      -5.611   0.913   1.060  1.00  0.00    -0.084 Cl
ENDBRANCH  20  22
ENDBRANCH  17  20
ENDBRANCH  11  16
ENDBRANCH   8  10
ENDBRANCH   7   8
ENDBRANCH   6   7
ENDBRANCH   5   6
ENDBRANCH   4   5
ENDBRANCH   3   4
ENDBRANCH   2   3
ENDBRANCH   1   2
BRANCH   1  29
ATOM     29  C   UNL     1       1.143   5.310   3.917  1.00  0.00     0.188 C 
BRANCH  29  30
ATOM     30  C   UNL     1       1.233   5.561   5.438  1.00  0.00     0.188 C 
BRANCH  30  31
ATOM     31  O   UNL     1       1.884   4.537   6.171  1.00  0.00    -0.376 OA
BRANCH  31  32
ATOM     32  C   UNL     1       1.062   3.585   6.831  1.00  0.00     0.202 C 
BRANCH  32  33
ATOM     33  C   UNL     1       0.094   2.756   5.970  1.00  0.00     0.261 C 
BRANCH  33  34
ATOM     34  O   UNL     1      -0.877   3.491   5.209  1.00  0.00    -0.460 OA
BRANCH  34  35
ATOM     35  C   UNL     1      -1.750   4.263   5.890  1.00  0.00     0.338 C 
ATOM     36  O   UNL     1      -1.812   4.409   7.102  1.00  0.00    -0.246 OA
BRANCH  35  37
ATOM     37  C   UNL     1      -2.514   5.051   4.905  1.00  0.00     0.060 A 
ATOM     38  C   UNL     1      -2.365   6.444   4.875  1.00  0.00     0.016 A 
ATOM     39  C   UNL     1      -3.384   4.411   4.021  1.00  0.00     0.016 A 
ATOM     40  C   UNL     1      -3.111   7.206   3.974  1.00  0.00     0.010 A 
ATOM     41  C   UNL     1      -4.149   5.179   3.139  1.00  0.00     0.010 A 
ATOM     42  C   UNL     1      -4.037   6.581   3.129  1.00  0.00    -0.014 A 
BRANCH  42  43
ATOM     43  C   UNL     1      -5.035   7.396   2.390  1.00  0.00     0.031 A 
ATOM     44  C   UNL     1      -6.418   7.521   2.971  1.00  0.00     0.074 A 
ATOM     45  C   UNL     1      -4.723   8.026   1.243  1.00  0.00     0.049 A 
ATOM     46  N   UNL     1      -7.477   8.111   2.483  1.00  0.00    -0.248 NA
ATOM     47  C   UNL     1      -6.631   6.884   4.281  1.00  0.00     0.031 C 
ATOM     48  C   UNL     1      -3.404   8.030   0.613  1.00  0.00     0.029 A 
ATOM     49  N   UNL     1      -5.500   8.782   0.400  1.00  0.00    -0.354 N 
ATOM     50  C   UNL     1      -8.485   7.910   3.421  1.00  0.00     0.074 A 
ATOM     51  C   UNL     1      -7.918   7.110   4.485  1.00  0.00     0.031 C 
ATOM     52  C   UNL     1      -3.467   8.746  -0.523  1.00  0.00     0.029 A 
ATOM     53  C   UNL     1      -4.839   9.212  -0.727  1.00  0.00     0.049 A 
ATOM     54  H   UNL     1      -6.443   8.996   0.585  1.00  0.00     0.167 HD
ATOM     55  C   UNL     1      -9.764   8.360   3.399  1.00  0.00     0.034 A 
ATOM     56  C   UNL     1      -5.296   9.877  -1.809  1.00  0.00     0.034 A 
ATOM     57  C   UNL     1     -10.318   9.143   2.323  1.00  0.00     0.049 A 
ATOM     58  C   UNL     1      -6.754  10.277  -1.863  1.00  0.00     0.074 A 
ATOM     59  C   UNL     1     -11.597   9.656   2.201  1.00  0.00     0.029 A 
ATOM     60  N   UNL     1      -9.632   9.513   1.173  1.00  0.00    -0.354 N 
ATOM     61  N   UNL     1      -7.699  10.083  -0.971  1.00  0.00    -0.248 NA
ATOM     62  C   UNL     1      -7.205  10.992  -3.065  1.00  0.00     0.031 C 
ATOM     63  C   UNL     1     -11.710  10.258   0.945  1.00  0.00     0.029 A 
ATOM     64  C   UNL     1     -10.473  10.213   0.322  1.00  0.00     0.049 A 
ATOM     65  H   UNL     1      -8.687   9.308   0.989  1.00  0.00     0.167 HD
ATOM     66  C   UNL     1      -8.843  10.690  -1.488  1.00  0.00     0.074 A 
ATOM     67  C   UNL     1      -8.467  11.260  -2.764  1.00  0.00     0.031 C 
ATOM     68  C   UNL     1     -10.088  10.778  -0.952  1.00  0.00     0.034 A 
BRANCH  55  69
ATOM     69  C   UNL     1     -10.660   7.960   4.547  1.00  0.00     0.023 A 
ATOM     70  C   UNL     1     -10.399   8.361   5.869  1.00  0.00     0.031 A 
ATOM     71  C   UNL     1     -11.778   7.137   4.318  1.00  0.00     0.131 A 
ATOM     72  C   UNL     1     -11.198   7.880   6.917  1.00  0.00     0.055 A 
ATOM     73  C   UNL     1     -12.621   6.734   5.355  1.00  0.00     0.041 A 
ATOM     74  F   UNL     1     -12.063   6.699   3.082  1.00  0.00    -0.206 F 
ATOM     75  C   UNL     1     -12.324   7.092   6.666  1.00  0.00     0.022 A 
BRANCH  72  76
ATOM     76  S   UNL     1     -10.656   8.170   8.623  1.00  0.00     0.124 S 
ATOM     77  O   UNL     1      -9.331   7.554   8.620  1.00  0.00    -0.237 OA
ATOM     78  O   UNL     1     -10.683   9.624   8.720  1.00  0.00    -0.237 OA
ATOM     79  O   UNL     1     -11.658   7.471   9.425  1.00  0.00    -0.744 OA
ENDBRANCH  72  76
ENDBRANCH  55  69
BRANCH  56  80
ATOM     80  C   UNL     1      -4.389  10.172  -2.958  1.00  0.00     0.023 A 
ATOM     81  C   UNL     1      -4.121  11.492  -3.355  1.00  0.00     0.031 A 
ATOM     82  C   UNL     1      -3.827   9.131  -3.721  1.00  0.00     0.131 A 
ATOM     83  C   UNL     1      -3.357  11.736  -4.508  1.00  0.00     0.055 A 
ATOM     84  C   UNL     1      -3.018   9.380  -4.831  1.00  0.00     0.041 A 
ATOM     85  F   UNL     1      -4.054   7.849  -3.392  1.00  0.00    -0.206 F 
ATOM     86  C   UNL     1      -2.791  10.690  -5.239  1.00  0.00     0.022 A 
BRANCH  83  87
ATOM     87  S   UNL     1      -3.198  13.444  -5.100  1.00  0.00     0.124 S 
ATOM     88  O   UNL     1      -4.593  13.819  -5.300  1.00  0.00    -0.237 OA
ATOM     89  O   UNL     1      -2.513  14.087  -3.984  1.00  0.00    -0.237 OA
ATOM     90  O   UNL     1      -2.406  13.308  -6.321  1.00  0.00    -0.744 OA
ENDBRANCH  83  87
ENDBRANCH  56  80
BRANCH  68  91
ATOM     91  C   UNL     1     -11.122  11.578  -1.710  1.00  0.00     0.023 A 
ATOM     92  C   UNL     1     -11.608  11.176  -2.967  1.00  0.00     0.031 A 
ATOM     93  C   UNL     1     -11.637  12.764  -1.153  1.00  0.00     0.131 A 
ATOM     94  C   UNL     1     -12.538  11.979  -3.646  1.00  0.00     0.055 A 
ATOM     95  C   UNL     1     -12.613  13.521  -1.802  1.00  0.00     0.041 A 
ATOM     96  F   UNL     1     -11.207  13.201   0.042  1.00  0.00    -0.206 F 
ATOM     97  C   UNL     1     -13.060  13.137  -3.062  1.00  0.00     0.022 A 
BRANCH  94  98
ATOM     98  S   UNL     1     -12.990  11.544  -5.348  1.00  0.00     0.124 S 
ATOM     99  O   UNL     1     -11.693  11.555  -6.017  1.00  0.00    -0.237 OA
ATOM    100  O   UNL     1     -13.610  10.234  -5.182  1.00  0.00    -0.237 OA
ATOM    101  O   UNL     1     -13.902  12.615  -5.746  1.00  0.00    -0.744 OA
ENDBRANCH  94  98
ENDBRANCH  68  91
ENDBRANCH  42  43
ENDBRANCH  35  37
ENDBRANCH  34  35
ENDBRANCH  33  34
ENDBRANCH  32  33
ENDBRANCH  31  32
ENDBRANCH  30  31
ENDBRANCH  29  30
ENDBRANCH   1  29
TORSDOF 26
