REMARK SMILES CC(C)CCn1cc(C(=O)OCCOCCOCCOCCOC(=O)c2ccc(-c3c4nc(c(-c5cc(S(=O)(=O)[O-])ccc5F)c5ccc([nH]5)c(-c5cc(S(=O)(=O)[O-])ccc5F)c5nc(c(-c6cc(S(=O)(=O)[O-])ccc6F)c6ccc3[nH]6)C=C5)C=C4)cc2)c(-c2ccoc2)n1
REMARK SMILES IDX 17 1 16 2 15 3 14 4 13 5 12 6 11 7 9 8 10 9 8 10 6 11 7 12
REMARK SMILES IDX 95 13 89 14 5 15 4 16 2 17 1 18 3 19 90 20 91 21 94 22 92 23
REMARK SMILES IDX 93 24 18 25 19 26 20 27 21 28 22 29 23 30 24 31 25 32 26 33
REMARK SMILES IDX 27 34 88 35 28 36 87 37 29 38 30 39 31 40 81 41 32 42 86 43
REMARK SMILES IDX 80 44 82 45 33 46 85 47 79 48 78 49 34 51 66 52 46 53 65 54
REMARK SMILES IDX 47 55 50 56 64 57 83 58 48 59 49 60 63 62 84 63 51 64 35 65
REMARK SMILES IDX 36 66 44 67 37 68 43 69 45 70 42 71 38 72 39 73 40 74 41 75
REMARK SMILES IDX 67 76 68 77 76 78 69 79 75 80 77 81 74 82 70 83 71 84 72 85
REMARK SMILES IDX 73 86 52 87 53 88 61 89 54 90 60 91 62 92 59 93 55 94 56 95
REMARK SMILES IDX 57 96 58 97
REMARK H PARENT 82 50 50 61
REMARK Flexibility Score: inf
ROOT
ATOM      1  O   UNL     1      -1.107   7.210   1.415  1.00  0.00    -0.377 OA
ENDROOT
BRANCH   1   2
ATOM      2  C   UNL     1      -0.135   6.687   0.520  1.00  0.00     0.188 C 
BRANCH   2   3
ATOM      3  C   UNL     1       0.022   7.552  -0.747  1.00  0.00     0.188 C 
BRANCH   3   4
ATOM      4  O   UNL     1      -0.640   8.801  -0.635  1.00  0.00    -0.376 OA
BRANCH   4   5
ATOM      5  C   UNL     1      -1.935   8.971  -1.171  1.00  0.00     0.202 C 
BRANCH   5   6
ATOM      6  C   UNL     1      -3.049   7.916  -1.039  1.00  0.00     0.261 C 
BRANCH   6   7
ATOM      7  O   UNL     1      -2.686   6.533  -1.064  1.00  0.00    -0.460 OA
BRANCH   7   8
ATOM      8  C   UNL     1      -2.270   5.984  -2.240  1.00  0.00     0.342 C 
ATOM      9  O   UNL     1      -2.255   6.554  -3.309  1.00  0.00    -0.246 OA
BRANCH   8  10
ATOM     10  C   UNL     1      -1.718   4.662  -1.996  1.00  0.00     0.106 A 
ATOM     11  N   UNL     1      -1.379   2.642  -1.184  1.00  0.00    -0.271 N 
ATOM     12  C   UNL     1      -2.260   3.684  -1.176  1.00  0.00     0.125 A 
ATOM     13  N   UNL     1      -0.262   2.913  -1.866  1.00  0.00    -0.172 NA
ATOM     14  C   UNL     1      -0.470   4.121  -2.388  1.00  0.00     0.110 A 
BRANCH  11  15
ATOM     15  C   UNL     1      -1.540   1.348  -0.544  1.00  0.00     0.144 C 
BRANCH  15  16
ATOM     16  C   UNL     1      -1.002   0.166  -1.368  1.00  0.00     0.027 C 
BRANCH  16  17
ATOM     17  C   UNL     1       0.534  -0.007  -1.379  1.00  0.00    -0.016 C 
ATOM     18  C   UNL     1       1.097  -0.312   0.008  1.00  0.00     0.007 C 
ATOM     19  C   UNL     1       0.928  -1.109  -2.365  1.00  0.00     0.007 C 
ENDBRANCH  16  17
ENDBRANCH  15  16
ENDBRANCH  11  15
BRANCH  14  20
ATOM     20  C   UNL     1       0.595   4.765  -3.135  1.00  0.00     0.041 A 
ATOM     21  C   UNL     1       0.658   4.893  -4.540  1.00  0.00     0.052 A 
ATOM     22  C   UNL     1       1.787   5.244  -2.641  1.00  0.00     0.205 A 
ATOM     23  C   UNL     1       1.881   5.466  -4.808  1.00  0.00     0.195 A 
ATOM     24  O   UNL     1       2.568   5.696  -3.658  1.00  0.00    -0.472 OA
ENDBRANCH  14  20
ENDBRANCH   8  10
ENDBRANCH   7   8
ENDBRANCH   6   7
ENDBRANCH   5   6
ENDBRANCH   4   5
ENDBRANCH   3   4
ENDBRANCH   2   3
ENDBRANCH   1   2
BRANCH   1  25
ATOM     25  C   UNL     1      -0.702   8.294   2.257  1.00  0.00     0.188 C 
BRANCH  25  26
ATOM     26  C   UNL     1       0.462   9.260   1.883  1.00  0.00     0.188 C 
BRANCH  26  27
ATOM     27  O   UNL     1       1.534   8.680   1.142  1.00  0.00    -0.376 OA
BRANCH  27  28
ATOM     28  C   UNL     1       2.825   8.553   1.708  1.00  0.00     0.202 C 
BRANCH  28  29
ATOM     29  C   UNL     1       2.958   7.375   2.664  1.00  0.00     0.261 C 
BRANCH  29  30
ATOM     30  O   UNL     1       1.934   7.354   3.641  1.00  0.00    -0.460 OA
BRANCH  30  31
ATOM     31  C   UNL     1       1.924   8.420   4.466  1.00  0.00     0.338 C 
ATOM     32  O   UNL     1       2.585   9.438   4.375  1.00  0.00    -0.246 OA
BRANCH  31  33
ATOM     33  C   UNL     1       1.043   8.114   5.587  1.00  0.00     0.060 A 
ATOM     34  C   UNL     1       0.897   9.130   6.531  1.00  0.00     0.016 A 
ATOM     35  C   UNL     1       0.777   6.765   5.860  1.00  0.00     0.016 A 
ATOM     36  C   UNL     1       0.787   8.754   7.843  1.00  0.00     0.010 A 
ATOM     37  C   UNL     1       0.714   6.391   7.170  1.00  0.00     0.010 A 
ATOM     38  C   UNL     1       0.823   7.389   8.134  1.00  0.00    -0.014 A 
BRANCH  38  39
ATOM     39  C   UNL     1       0.947   7.002   9.514  1.00  0.00     0.031 A 
ATOM     40  C   UNL     1      -0.344   7.020  10.216  1.00  0.00     0.074 A 
ATOM     41  C   UNL     1       2.110   6.557  10.015  1.00  0.00     0.049 A 
ATOM     42  N   UNL     1      -0.738   7.844  11.125  1.00  0.00    -0.248 NA
ATOM     43  C   UNL     1      -1.412   6.167   9.668  1.00  0.00     0.031 C 
ATOM     44  C   UNL     1       3.337   6.229   9.284  1.00  0.00     0.029 A 
ATOM     45  N   UNL     1       2.390   6.171  11.284  1.00  0.00    -0.354 N 
ATOM     46  C   UNL     1      -2.022   7.428  11.446  1.00  0.00     0.074 A 
ATOM     47  C   UNL     1      -2.462   6.625  10.344  1.00  0.00     0.031 C 
ATOM     48  C   UNL     1       4.132   5.478  10.080  1.00  0.00     0.029 A 
ATOM     49  C   UNL     1       3.518   5.371  11.395  1.00  0.00     0.049 A 
ATOM     50  H   UNL     1       1.842   6.435  12.058  1.00  0.00     0.167 HD
ATOM     51  C   UNL     1      -2.473   7.500  12.726  1.00  0.00     0.034 A 
ATOM     52  C   UNL     1       3.846   4.592  12.459  1.00  0.00     0.034 A 
ATOM     53  C   UNL     1      -1.683   8.450  13.490  1.00  0.00     0.049 A 
ATOM     54  C   UNL     1       3.085   5.111  13.629  1.00  0.00     0.074 A 
ATOM     55  C   UNL     1      -1.365   9.786  13.316  1.00  0.00     0.029 A 
ATOM     56  N   UNL     1      -0.758   7.968  14.393  1.00  0.00    -0.354 N 
ATOM     57  N   UNL     1       3.281   6.292  14.151  1.00  0.00    -0.248 NA
ATOM     58  C   UNL     1       1.781   4.526  13.916  1.00  0.00     0.031 C 
ATOM     59  C   UNL     1      -0.008   9.907  13.736  1.00  0.00     0.029 A 
ATOM     60  C   UNL     1       0.413   8.666  14.217  1.00  0.00     0.049 A 
ATOM     61  H   UNL     1      -0.910   7.250  15.050  1.00  0.00     0.167 HD
ATOM     62  C   UNL     1       2.014   6.773  14.454  1.00  0.00     0.074 A 
ATOM     63  C   UNL     1       1.144   5.601  14.392  1.00  0.00     0.031 C 
ATOM     64  C   UNL     1       1.739   8.112  14.436  1.00  0.00     0.034 A 
BRANCH  51  65
ATOM     65  C   UNL     1      -3.316   6.413  13.372  1.00  0.00     0.023 A 
ATOM     66  C   UNL     1      -3.556   6.558  14.747  1.00  0.00     0.031 A 
ATOM     67  C   UNL     1      -3.645   5.145  12.833  1.00  0.00     0.131 A 
ATOM     68  C   UNL     1      -3.917   5.456  15.539  1.00  0.00     0.055 A 
ATOM     69  C   UNL     1      -4.065   4.066  13.616  1.00  0.00     0.041 A 
ATOM     70  F   UNL     1      -3.528   4.833  11.539  1.00  0.00    -0.206 F 
ATOM     71  C   UNL     1      -4.160   4.205  14.986  1.00  0.00     0.022 A 
BRANCH  68  72
ATOM     72  S   UNL     1      -3.861   5.659  17.332  1.00  0.00     0.124 S 
ATOM     73  O   UNL     1      -2.522   6.212  17.515  1.00  0.00    -0.237 OA
ATOM     74  O   UNL     1      -4.974   6.574  17.560  1.00  0.00    -0.237 OA
ATOM     75  O   UNL     1      -4.053   4.300  17.830  1.00  0.00    -0.744 OA
ENDBRANCH  68  72
ENDBRANCH  51  65
BRANCH  52  76
ATOM     76  C   UNL     1       4.491   3.251  12.408  1.00  0.00     0.023 A 
ATOM     77  C   UNL     1       5.114   2.668  13.529  1.00  0.00     0.031 A 
ATOM     78  C   UNL     1       4.310   2.416  11.280  1.00  0.00     0.131 A 
ATOM     79  C   UNL     1       5.536   1.317  13.486  1.00  0.00     0.055 A 
ATOM     80  C   UNL     1       4.744   1.090  11.237  1.00  0.00     0.041 A 
ATOM     81  F   UNL     1       3.627   2.833  10.203  1.00  0.00    -0.206 F 
ATOM     82  C   UNL     1       5.353   0.531  12.346  1.00  0.00     0.022 A 
BRANCH  79  83
ATOM     83  S   UNL     1       6.246   0.528  14.966  1.00  0.00     0.124 S 
ATOM     84  O   UNL     1       7.538   1.194  15.082  1.00  0.00    -0.237 OA
ATOM     85  O   UNL     1       5.258   0.841  15.992  1.00  0.00    -0.237 OA
ATOM     86  O   UNL     1       6.315  -0.887  14.597  1.00  0.00    -0.744 OA
ENDBRANCH  79  83
ENDBRANCH  52  76
BRANCH  64  87
ATOM     87  C   UNL     1       2.899   9.090  14.419  1.00  0.00     0.023 A 
ATOM     88  C   UNL     1       3.912   9.128  13.433  1.00  0.00     0.031 A 
ATOM     89  C   UNL     1       2.898  10.109  15.389  1.00  0.00     0.131 A 
ATOM     90  C   UNL     1       4.877  10.156  13.453  1.00  0.00     0.055 A 
ATOM     91  C   UNL     1       3.843  11.135  15.393  1.00  0.00     0.041 A 
ATOM     92  F   UNL     1       1.946  10.148  16.336  1.00  0.00    -0.206 F 
ATOM     93  C   UNL     1       4.840  11.159  14.427  1.00  0.00     0.022 A 
BRANCH  90  94
ATOM     94  S   UNL     1       6.212  10.203  12.213  1.00  0.00     0.124 S 
ATOM     95  O   UNL     1       6.699   8.830  12.180  1.00  0.00    -0.237 OA
ATOM     96  O   UNL     1       5.512  10.664  11.016  1.00  0.00    -0.237 OA
ATOM     97  O   UNL     1       7.158  11.171  12.771  1.00  0.00    -0.744 OA
ENDBRANCH  90  94
ENDBRANCH  64  87
ENDBRANCH  38  39
ENDBRANCH  31  33
ENDBRANCH  30  31
ENDBRANCH  29  30
ENDBRANCH  28  29
ENDBRANCH  27  28
ENDBRANCH  26  27
ENDBRANCH  25  26
ENDBRANCH   1  25
TORSDOF 27
