REMARK SMILES O=C(CSc1ccc2ccccc2n1)NCc1ccc(C(=O)OCCOCCOCCOCCOC(=O)c2ccc(-c3c4nc(c(-c5cc(S(=O)(=O)[O-])ccc5F)c5ccc([nH]5)c(-c5cc(S(=O)(=O)[O-])ccc5F)c5nc(c(-c6cc(S(=O)(=O)[O-])ccc6F)c6ccc3[nH]6)C=C5)C=C4)cc2)cc1
REMARK SMILES IDX 28 1 27 2 26 3 25 4 24 5 23 6 21 7 22 8 20 9 17 10 18 11
REMARK SMILES IDX 102 12 19 13 101 14 16 15 15 16 1 17 2 18 3 20 4 21 5 22
REMARK SMILES IDX 6 23 14 24 7 25 13 26 8 27 12 28 9 29 11 30 10 31 29 32
REMARK SMILES IDX 30 33 31 34 32 35 33 36 34 37 35 38 36 39 37 40 38 41 39 42
REMARK SMILES IDX 100 43 40 44 99 45 41 46 42 47 43 48 93 49 44 50 98 51 92 52
REMARK SMILES IDX 94 53 45 54 97 55 91 56 90 57 46 59 78 60 58 61 77 62 59 63
REMARK SMILES IDX 62 64 76 65 95 66 60 67 61 68 75 70 96 71 63 72 47 73 48 74
REMARK SMILES IDX 56 75 49 76 55 77 57 78 54 79 50 80 51 81 52 82 53 83 79 84
REMARK SMILES IDX 80 85 88 86 81 87 87 88 89 89 86 90 82 91 83 92 84 93 85 94
REMARK SMILES IDX 64 95 65 96 73 97 66 98 72 99 74 100 71 101 67 102 68 103
REMARK SMILES IDX 69 104 70 105
REMARK H PARENT 15 19 94 58 62 69
REMARK Flexibility Score: inf
ROOT
ATOM      1  C   UNL     1       3.862   6.895  -1.117  1.00  0.00     0.188 C 
ENDROOT
BRANCH   1   2
ATOM      2  C   UNL     1       4.923   7.291  -2.162  1.00  0.00     0.188 C 
BRANCH   2   3
ATOM      3  O   UNL     1       4.879   8.655  -2.534  1.00  0.00    -0.376 OA
BRANCH   3   4
ATOM      4  C   UNL     1       4.232   9.061  -3.726  1.00  0.00     0.202 C 
BRANCH   4   5
ATOM      5  C   UNL     1       2.845   8.537  -4.138  1.00  0.00     0.261 C 
BRANCH   5   6
ATOM      6  O   UNL     1       2.535   7.183  -3.801  1.00  0.00    -0.460 OA
BRANCH   6   7
ATOM      7  C   UNL     1       3.088   6.214  -4.557  1.00  0.00     0.338 C 
ATOM      8  O   UNL     1       3.820   6.364  -5.519  1.00  0.00    -0.246 OA
BRANCH   7   9
ATOM      9  C   UNL     1       2.835   4.912  -3.893  1.00  0.00     0.060 A 
ATOM     10  C   UNL     1       2.437   2.401  -2.708  1.00  0.00    -0.029 A 
ATOM     11  C   UNL     1       3.690   2.741  -3.236  1.00  0.00     0.006 A 
ATOM     12  C   UNL     1       1.414   3.364  -2.700  1.00  0.00     0.006 A 
ATOM     13  C   UNL     1       3.884   3.986  -3.837  1.00  0.00     0.016 A 
ATOM     14  C   UNL     1       1.610   4.616  -3.288  1.00  0.00     0.016 A 
BRANCH  10  15
ATOM     15  C   UNL     1       2.145   0.996  -2.261  1.00  0.00     0.151 C 
BRANCH  15  16
ATOM     16  N   UNL     1       2.818   0.606  -1.047  1.00  0.00    -0.351 N 
ATOM     17  O   UNL     1       0.896   0.221   0.141  1.00  0.00    -0.274 OA
ATOM     18  C   UNL     1       2.116   0.119   0.034  1.00  0.00     0.230 C 
ATOM     19  H   UNL     1       3.798   0.689  -0.989  1.00  0.00     0.163 HD
BRANCH  18  20
ATOM     20  C   UNL     1       2.941  -0.608   1.079  1.00  0.00     0.176 C 
BRANCH  20  21
ATOM     21  S   UNL     1       4.049  -1.856   0.328  1.00  0.00    -0.096 SA
BRANCH  21  22
ATOM     22  C   UNL     1       2.933  -3.163  -0.160  1.00  0.00     0.097 A 
ATOM     23  C   UNL     1       1.756  -2.946  -0.862  1.00  0.00     0.036 A 
ATOM     24  N   UNL     1       3.389  -4.412   0.098  1.00  0.00    -0.241 NA
ATOM     25  C   UNL     1       1.023  -4.040  -1.313  1.00  0.00     0.013 A 
ATOM     26  C   UNL     1       2.690  -5.472  -0.353  1.00  0.00     0.072 A 
ATOM     27  C   UNL     1       1.490  -5.331  -1.077  1.00  0.00     0.000 A 
ATOM     28  C   UNL     1       3.160  -6.760  -0.127  1.00  0.00     0.029 A 
ATOM     29  C   UNL     1       0.803  -6.459  -1.559  1.00  0.00     0.010 A 
ATOM     30  C   UNL     1       2.485  -7.888  -0.608  1.00  0.00     0.002 A 
ATOM     31  C   UNL     1       1.306  -7.737  -1.328  1.00  0.00     0.001 A 
ENDBRANCH  21  22
ENDBRANCH  20  21
ENDBRANCH  18  20
ENDBRANCH  15  16
ENDBRANCH  10  15
ENDBRANCH   7   9
ENDBRANCH   6   7
ENDBRANCH   5   6
ENDBRANCH   4   5
ENDBRANCH   3   4
ENDBRANCH   2   3
ENDBRANCH   1   2
BRANCH   1  32
ATOM     32  O   UNL     1       2.769   7.783  -0.958  1.00  0.00    -0.377 OA
BRANCH  32  33
ATOM     33  C   UNL     1       2.995   9.109  -0.477  1.00  0.00     0.188 C 
BRANCH  33  34
ATOM     34  C   UNL     1       4.383   9.616  -0.011  1.00  0.00     0.188 C 
BRANCH  34  35
ATOM     35  O   UNL     1       5.304   8.598   0.348  1.00  0.00    -0.376 OA
BRANCH  35  36
ATOM     36  C   UNL     1       5.601   8.427   1.721  1.00  0.00     0.202 C 
BRANCH  36  37
ATOM     37  C   UNL     1       4.453   7.934   2.611  1.00  0.00     0.261 C 
BRANCH  37  38
ATOM     38  O   UNL     1       3.251   8.715   2.578  1.00  0.00    -0.460 OA
BRANCH  38  39
ATOM     39  C   UNL     1       3.332   9.984   3.048  1.00  0.00     0.338 C 
ATOM     40  O   UNL     1       4.314  10.532   3.498  1.00  0.00    -0.246 OA
BRANCH  39  41
ATOM     41  C   UNL     1       2.047  10.650   2.734  1.00  0.00     0.060 A 
ATOM     42  C   UNL     1       2.048  11.779   1.905  1.00  0.00     0.016 A 
ATOM     43  C   UNL     1       0.849  10.144   3.243  1.00  0.00     0.016 A 
ATOM     44  C   UNL     1       0.848  12.427   1.610  1.00  0.00     0.010 A 
ATOM     45  C   UNL     1      -0.348  10.805   2.962  1.00  0.00     0.010 A 
ATOM     46  C   UNL     1      -0.351  11.968   2.172  1.00  0.00    -0.014 A 
BRANCH  46  47
ATOM     47  C   UNL     1      -1.570  12.813   2.106  1.00  0.00     0.031 A 
ATOM     48  C   UNL     1      -1.916  13.653   3.304  1.00  0.00     0.074 A 
ATOM     49  C   UNL     1      -2.346  12.844   1.010  1.00  0.00     0.049 A 
ATOM     50  N   UNL     1      -2.956  14.416   3.517  1.00  0.00    -0.248 NA
ATOM     51  C   UNL     1      -0.957  13.613   4.418  1.00  0.00     0.031 C 
ATOM     52  C   UNL     1      -2.090  12.110  -0.227  1.00  0.00     0.029 A 
ATOM     53  N   UNL     1      -3.518  13.517   0.767  1.00  0.00    -0.354 N 
ATOM     54  C   UNL     1      -2.782  14.942   4.794  1.00  0.00     0.074 A 
ATOM     55  C   UNL     1      -1.560  14.370   5.319  1.00  0.00     0.031 C 
ATOM     56  C   UNL     1      -3.085  12.362  -1.095  1.00  0.00     0.029 A 
ATOM     57  C   UNL     1      -4.069  13.239  -0.461  1.00  0.00     0.049 A 
ATOM     58  H   UNL     1      -3.926  14.140   1.412  1.00  0.00     0.167 HD
ATOM     59  C   UNL     1      -3.564  15.826   5.461  1.00  0.00     0.034 A 
ATOM     60  C   UNL     1      -5.247  13.621  -0.997  1.00  0.00     0.034 A 
ATOM     61  C   UNL     1      -4.791  16.366   4.927  1.00  0.00     0.049 A 
ATOM     62  C   UNL     1      -6.156  14.527  -0.202  1.00  0.00     0.074 A 
ATOM     63  C   UNL     1      -5.655  17.279   5.505  1.00  0.00     0.029 A 
ATOM     64  N   UNL     1      -5.343  16.023   3.697  1.00  0.00    -0.354 N 
ATOM     65  N   UNL     1      -5.979  15.031   0.999  1.00  0.00    -0.248 NA
ATOM     66  C   UNL     1      -7.420  14.922  -0.837  1.00  0.00     0.031 C 
ATOM     67  C   UNL     1      -6.769  17.418   4.670  1.00  0.00     0.029 A 
ATOM     68  C   UNL     1      -6.557  16.672   3.521  1.00  0.00     0.049 A 
ATOM     69  H   UNL     1      -4.933  15.410   3.046  1.00  0.00     0.167 HD
ATOM     70  C   UNL     1      -7.096  15.827   1.248  1.00  0.00     0.074 A 
ATOM     71  C   UNL     1      -7.933  15.742   0.069  1.00  0.00     0.031 C 
ATOM     72  C   UNL     1      -7.396  16.568   2.348  1.00  0.00     0.034 A 
BRANCH  59  73
ATOM     73  C   UNL     1      -3.141  16.198   6.864  1.00  0.00     0.023 A 
ATOM     74  C   UNL     1      -1.907  16.820   7.127  1.00  0.00     0.031 A 
ATOM     75  C   UNL     1      -3.954  15.866   7.962  1.00  0.00     0.131 A 
ATOM     76  C   UNL     1      -1.480  16.996   8.452  1.00  0.00     0.055 A 
ATOM     77  C   UNL     1      -3.566  16.135   9.276  1.00  0.00     0.041 A 
ATOM     78  F   UNL     1      -5.131  15.247   7.780  1.00  0.00    -0.206 F 
ATOM     79  C   UNL     1      -2.312  16.684   9.529  1.00  0.00     0.022 A 
BRANCH  76  80
ATOM     80  S   UNL     1       0.251  17.455   8.748  1.00  0.00     0.124 S 
ATOM     81  O   UNL     1       0.963  16.392   8.042  1.00  0.00    -0.237 OA
ATOM     82  O   UNL     1       0.331  18.783   8.152  1.00  0.00    -0.237 OA
ATOM     83  O   UNL     1       0.373  17.414  10.204  1.00  0.00    -0.744 OA
ENDBRANCH  76  80
ENDBRANCH  59  73
BRANCH  60  84
ATOM     84  C   UNL     1      -5.657  13.111  -2.338  1.00  0.00     0.023 A 
ATOM     85  C   UNL     1      -5.825  13.976  -3.431  1.00  0.00     0.031 A 
ATOM     86  C   UNL     1      -5.913  11.742  -2.537  1.00  0.00     0.131 A 
ATOM     87  C   UNL     1      -6.263  13.467  -4.665  1.00  0.00     0.055 A 
ATOM     88  C   UNL     1      -6.298  11.234  -3.778  1.00  0.00     0.041 A 
ATOM     89  F   UNL     1      -5.775  10.872  -1.523  1.00  0.00    -0.206 F 
ATOM     90  C   UNL     1      -6.483  12.100  -4.850  1.00  0.00     0.022 A 
BRANCH  87  91
ATOM     91  S   UNL     1      -6.606  14.629  -6.015  1.00  0.00     0.124 S 
ATOM     92  O   UNL     1      -7.654  15.460  -5.433  1.00  0.00    -0.237 OA
ATOM     93  O   UNL     1      -5.308  15.270  -6.201  1.00  0.00    -0.237 OA
ATOM     94  O   UNL     1      -7.032  13.761  -7.111  1.00  0.00    -0.744 OA
ENDBRANCH  87  91
ENDBRANCH  60  84
BRANCH  72  95
ATOM     95  C   UNL     1      -8.666  17.389   2.307  1.00  0.00     0.023 A 
ATOM     96  C   UNL     1      -9.939  16.795   2.243  1.00  0.00     0.031 A 
ATOM     97  C   UNL     1      -8.597  18.794   2.334  1.00  0.00     0.131 A 
ATOM     98  C   UNL     1     -11.084  17.602   2.150  1.00  0.00     0.055 A 
ATOM     99  C   UNL     1      -9.743  19.590   2.314  1.00  0.00     0.041 A 
ATOM    100  F   UNL     1      -7.410  19.420   2.388  1.00  0.00    -0.206 F 
ATOM    101  C   UNL     1     -10.996  18.995   2.207  1.00  0.00     0.022 A 
BRANCH  98 102
ATOM    102  S   UNL     1     -12.688  16.810   1.845  1.00  0.00     0.124 S 
ATOM    103  O   UNL     1     -12.437  16.087   0.603  1.00  0.00    -0.237 OA
ATOM    104  O   UNL     1     -12.862  15.987   3.038  1.00  0.00    -0.237 OA
ATOM    105  O   UNL     1     -13.611  17.937   1.731  1.00  0.00    -0.744 OA
ENDBRANCH  98 102
ENDBRANCH  72  95
ENDBRANCH  46  47
ENDBRANCH  39  41
ENDBRANCH  38  39
ENDBRANCH  37  38
ENDBRANCH  36  37
ENDBRANCH  35  36
ENDBRANCH  34  35
ENDBRANCH  33  34
ENDBRANCH  32  33
ENDBRANCH   1  32
TORSDOF 28
