REMARK SMILES Cc1ccc([C@@H](C)Nc2ccc(N)cc2C(=O)OCCOCCOCCOCCOC(=O)c2ccc(-c3c4nc(c(-c5cc(S(=O)(=O)[O-])ccc5F)c5ccc([nH]5)c(-c5cc(S(=O)(=O)[O-])ccc5F)c5nc(c(-c6cc(S(=O)(=O)[O-])ccc6F)c6ccc3[nH]6)C=C5)C=C4)cc2)cc1F
REMARK SMILES IDX 24 1 23 2 22 3 21 4 20 5 19 6 18 7 16 8 17 9 15 10 9 11
REMARK SMILES IDX 10 12 11 13 14 14 12 15 8 16 6 18 7 19 5 20 1 21 2 22 3 23
REMARK SMILES IDX 97 24 4 25 96 26 98 27 13 28 25 31 26 32 27 33 28 34 29 35
REMARK SMILES IDX 30 36 31 37 32 38 33 39 34 40 95 41 35 42 94 43 36 44 37 45
REMARK SMILES IDX 38 46 88 47 39 48 93 49 87 50 89 51 40 52 92 53 86 54 85 55
REMARK SMILES IDX 41 57 73 58 53 59 72 60 54 61 57 62 71 63 90 64 55 65 56 66
REMARK SMILES IDX 70 68 91 69 58 70 42 71 43 72 51 73 44 74 50 75 52 76 49 77
REMARK SMILES IDX 45 78 46 79 47 80 48 81 74 82 75 83 83 84 76 85 82 86 84 87
REMARK SMILES IDX 81 88 77 89 78 90 79 91 80 92 59 93 60 94 68 95 61 96 67 97
REMARK SMILES IDX 69 98 66 99 62 100 63 101 64 102 65 103
REMARK H PARENT 8 17 13 29 13 30 89 56 57 67
REMARK Flexibility Score: inf
ROOT
ATOM      1  O   UNL     1       0.181  -3.625  -1.814  1.00  0.00    -0.377 OA
ENDROOT
BRANCH   1   2
ATOM      2  C   UNL     1      -1.091  -4.215  -1.658  1.00  0.00     0.188 C 
BRANCH   2   3
ATOM      3  C   UNL     1      -1.717  -4.828  -2.930  1.00  0.00     0.188 C 
BRANCH   3   4
ATOM      4  O   UNL     1      -1.924  -4.034  -4.090  1.00  0.00    -0.376 OA
BRANCH   4   5
ATOM      5  C   UNL     1      -2.812  -2.925  -4.112  1.00  0.00     0.202 C 
BRANCH   5   6
ATOM      6  C   UNL     1      -4.031  -2.872  -3.189  1.00  0.00     0.261 C 
BRANCH   6   7
ATOM      7  O   UNL     1      -3.719  -3.211  -1.831  1.00  0.00    -0.460 OA
BRANCH   7   8
ATOM      8  C   UNL     1      -4.624  -3.973  -1.175  1.00  0.00     0.340 C 
ATOM      9  O   UNL     1      -5.724  -4.298  -1.592  1.00  0.00    -0.246 OA
BRANCH   8  10
ATOM     10  C   UNL     1      -4.002  -4.612   0.007  1.00  0.00     0.085 A 
ATOM     11  C   UNL     1      -3.574  -3.992   1.191  1.00  0.00     0.049 A 
ATOM     12  C   UNL     1      -3.102  -4.886   2.192  1.00  0.00     0.029 A 
ATOM     13  C   UNL     1      -3.016  -6.274   2.030  1.00  0.00     0.027 A 
ATOM     14  C   UNL     1      -3.903  -6.026  -0.153  1.00  0.00     0.043 A 
ATOM     15  C   UNL     1      -3.374  -6.857   0.830  1.00  0.00     0.032 A 
BRANCH  11  16
ATOM     16  N   UNL     1      -3.578  -2.679   1.590  1.00  0.00    -0.378 N 
ATOM     17  H   UNL     1      -3.369  -2.626   2.551  1.00  0.00     0.161 HD
BRANCH  16  18
ATOM     18  C   UNL     1      -3.791  -1.332   1.063  1.00  0.00     0.106 C 
ATOM     19  C   UNL     1      -4.868  -1.167   0.009  1.00  0.00     0.036 C 
BRANCH  18  20
ATOM     20  C   UNL     1      -2.494  -0.562   0.824  1.00  0.00    -0.023 A 
ATOM     21  C   UNL     1       1.030   1.966   0.740  1.00  0.00     0.047 C 
ATOM     22  C   UNL     1      -0.175   1.081   0.747  1.00  0.00    -0.015 A 
ATOM     23  C   UNL     1      -1.407   1.575   0.317  1.00  0.00     0.007 A 
ATOM     24  C   UNL     1      -0.102  -0.247   1.161  1.00  0.00     0.126 A 
ATOM     25  C   UNL     1      -2.550   0.770   0.368  1.00  0.00     0.006 A 
ATOM     26  C   UNL     1      -1.234  -1.063   1.191  1.00  0.00     0.045 A 
ATOM     27  F   UNL     1       1.059  -0.755   1.598  1.00  0.00    -0.207 F 
ENDBRANCH  18  20
ENDBRANCH  16  18
ENDBRANCH  11  16
BRANCH  15  28
ATOM     28  N   UNL     1      -3.345  -8.232   0.676  1.00  0.00    -0.399 N 
ATOM     29  H   UNL     1      -2.965  -8.800   1.386  1.00  0.00     0.156 HD
ATOM     30  H   UNL     1      -3.704  -8.643  -0.143  1.00  0.00     0.156 HD
ENDBRANCH  15  28
ENDBRANCH   8  10
ENDBRANCH   7   8
ENDBRANCH   6   7
ENDBRANCH   5   6
ENDBRANCH   4   5
ENDBRANCH   3   4
ENDBRANCH   2   3
ENDBRANCH   1   2
BRANCH   1  31
ATOM     31  C   UNL     1       0.179  -2.463  -2.617  1.00  0.00     0.188 C 
BRANCH  31  32
ATOM     32  C   UNL     1       0.928  -2.620  -3.953  1.00  0.00     0.188 C 
BRANCH  32  33
ATOM     33  O   UNL     1       1.505  -3.856  -4.378  1.00  0.00    -0.376 OA
BRANCH  33  34
ATOM     34  C   UNL     1       1.905  -4.879  -3.481  1.00  0.00     0.202 C 
BRANCH  34  35
ATOM     35  C   UNL     1       3.023  -4.656  -2.457  1.00  0.00     0.261 C 
BRANCH  35  36
ATOM     36  O   UNL     1       2.824  -3.522  -1.630  1.00  0.00    -0.460 OA
BRANCH  36  37
ATOM     37  C   UNL     1       3.379  -2.421  -2.169  1.00  0.00     0.338 C 
ATOM     38  O   UNL     1       4.114  -2.366  -3.138  1.00  0.00    -0.246 OA
BRANCH  37  39
ATOM     39  C   UNL     1       2.995  -1.234  -1.395  1.00  0.00     0.060 A 
ATOM     40  C   UNL     1       2.851  -0.071  -2.172  1.00  0.00     0.016 A 
ATOM     41  C   UNL     1       3.513  -1.226  -0.107  1.00  0.00     0.016 A 
ATOM     42  C   UNL     1       3.651   0.998  -1.878  1.00  0.00     0.010 A 
ATOM     43  C   UNL     1       4.294  -0.151   0.203  1.00  0.00     0.010 A 
ATOM     44  C   UNL     1       4.466   0.847  -0.773  1.00  0.00    -0.014 A 
BRANCH  44  45
ATOM     45  C   UNL     1       5.718   1.545  -0.677  1.00  0.00     0.031 A 
ATOM     46  C   UNL     1       5.749   2.803   0.049  1.00  0.00     0.074 A 
ATOM     47  C   UNL     1       6.807   0.848  -1.062  1.00  0.00     0.049 A 
ATOM     48  N   UNL     1       6.763   3.584   0.084  1.00  0.00    -0.248 NA
ATOM     49  C   UNL     1       4.587   3.310   0.765  1.00  0.00     0.031 C 
ATOM     50  C   UNL     1       8.175   1.016  -0.606  1.00  0.00     0.029 A 
ATOM     51  N   UNL     1       6.902  -0.087  -2.103  1.00  0.00    -0.354 N 
ATOM     52  C   UNL     1       6.522   4.478   1.099  1.00  0.00     0.074 A 
ATOM     53  C   UNL     1       5.112   4.366   1.386  1.00  0.00     0.031 C 
ATOM     54  C   UNL     1       8.994   0.434  -1.497  1.00  0.00     0.029 A 
ATOM     55  C   UNL     1       8.182   0.079  -2.652  1.00  0.00     0.049 A 
ATOM     56  H   UNL     1       6.212  -0.729  -2.389  1.00  0.00     0.167 HD
ATOM     57  C   UNL     1       7.595   5.057   1.704  1.00  0.00     0.034 A 
ATOM     58  C   UNL     1       8.381   0.549  -3.920  1.00  0.00     0.034 A 
ATOM     59  C   UNL     1       8.835   4.698   1.002  1.00  0.00     0.049 A 
ATOM     60  C   UNL     1       9.124   1.881  -3.953  1.00  0.00     0.074 A 
ATOM     61  C   UNL     1       9.845   3.776   1.228  1.00  0.00     0.029 A 
ATOM     62  N   UNL     1       8.962   5.069  -0.328  1.00  0.00    -0.354 N 
ATOM     63  N   UNL     1       9.480   2.559  -2.895  1.00  0.00    -0.248 NA
ATOM     64  C   UNL     1       9.440   2.595  -5.188  1.00  0.00     0.031 C 
ATOM     65  C   UNL     1      10.580   3.606   0.014  1.00  0.00     0.029 A 
ATOM     66  C   UNL     1      10.028   4.435  -0.944  1.00  0.00     0.049 A 
ATOM     67  H   UNL     1       8.365   5.708  -0.781  1.00  0.00     0.167 HD
ATOM     68  C   UNL     1       9.967   3.787  -3.261  1.00  0.00     0.074 A 
ATOM     69  C   UNL     1       9.935   3.753  -4.714  1.00  0.00     0.031 C 
ATOM     70  C   UNL     1      10.302   4.747  -2.345  1.00  0.00     0.034 A 
BRANCH  57  71
ATOM     71  C   UNL     1       7.515   5.692   3.074  1.00  0.00     0.023 A 
ATOM     72  C   UNL     1       6.321   6.164   3.662  1.00  0.00     0.031 A 
ATOM     73  C   UNL     1       8.659   5.779   3.890  1.00  0.00     0.131 A 
ATOM     74  C   UNL     1       6.262   6.568   5.008  1.00  0.00     0.055 A 
ATOM     75  C   UNL     1       8.615   6.237   5.213  1.00  0.00     0.041 A 
ATOM     76  F   UNL     1       9.865   5.385   3.457  1.00  0.00    -0.206 F 
ATOM     77  C   UNL     1       7.410   6.609   5.789  1.00  0.00     0.022 A 
BRANCH  74  78
ATOM     78  S   UNL     1       4.672   6.955   5.803  1.00  0.00     0.124 S 
ATOM     79  O   UNL     1       4.696   6.094   6.985  1.00  0.00    -0.237 OA
ATOM     80  O   UNL     1       4.794   8.384   6.072  1.00  0.00    -0.237 OA
ATOM     81  O   UNL     1       3.677   6.585   4.799  1.00  0.00    -0.744 OA
ENDBRANCH  74  78
ENDBRANCH  57  71
BRANCH  58  82
ATOM     82  C   UNL     1       7.334   0.138  -4.901  1.00  0.00     0.023 A 
ATOM     83  C   UNL     1       6.247   0.976  -5.207  1.00  0.00     0.031 A 
ATOM     84  C   UNL     1       7.239  -1.226  -5.253  1.00  0.00     0.131 A 
ATOM     85  C   UNL     1       5.079   0.423  -5.765  1.00  0.00     0.055 A 
ATOM     86  C   UNL     1       6.075  -1.768  -5.802  1.00  0.00     0.041 A 
ATOM     87  F   UNL     1       8.253  -2.065  -4.984  1.00  0.00    -0.206 F 
ATOM     88  C   UNL     1       4.978  -0.946  -6.035  1.00  0.00     0.022 A 
BRANCH  85  89
ATOM     89  S   UNL     1       3.601   1.447  -6.026  1.00  0.00     0.124 S 
ATOM     90  O   UNL     1       3.594   1.593  -7.479  1.00  0.00    -0.237 OA
ATOM     91  O   UNL     1       2.526   0.625  -5.474  1.00  0.00    -0.237 OA
ATOM     92  O   UNL     1       3.893   2.657  -5.267  1.00  0.00    -0.744 OA
ENDBRANCH  85  89
ENDBRANCH  58  82
BRANCH  70  93
ATOM     93  C   UNL     1      10.849   6.123  -2.667  1.00  0.00     0.023 A 
ATOM     94  C   UNL     1      10.633   7.188  -1.757  1.00  0.00     0.031 A 
ATOM     95  C   UNL     1      11.670   6.424  -3.763  1.00  0.00     0.131 A 
ATOM     96  C   UNL     1      11.137   8.473  -1.975  1.00  0.00     0.055 A 
ATOM     97  C   UNL     1      12.146   7.721  -4.007  1.00  0.00     0.041 A 
ATOM     98  F   UNL     1      12.098   5.466  -4.599  1.00  0.00    -0.206 F 
ATOM     99  C   UNL     1      11.872   8.756  -3.118  1.00  0.00     0.022 A 
BRANCH  96 100
ATOM    100  S   UNL     1      10.888   9.787  -0.749  1.00  0.00     0.124 S 
ATOM    101  O   UNL     1      12.263  10.101  -0.365  1.00  0.00    -0.237 OA
ATOM    102  O   UNL     1      10.210  10.810  -1.539  1.00  0.00    -0.237 OA
ATOM    103  O   UNL     1      10.077   9.155   0.285  1.00  0.00    -0.744 OA
ENDBRANCH  96 100
ENDBRANCH  70  93
ENDBRANCH  44  45
ENDBRANCH  37  39
ENDBRANCH  36  37
ENDBRANCH  35  36
ENDBRANCH  34  35
ENDBRANCH  33  34
ENDBRANCH  32  33
ENDBRANCH  31  32
ENDBRANCH   1  31
TORSDOF 27
