REMARK SMILES O=C(OCCOCCOCCOCCOC(=O)[C@H]1CS[C@H](c2cc(F)ccc2F)[NH2+]1)c1ccc(-c2c3nc(c(-c4cc(S(=O)(=O)[O-])ccc4F)c4ccc([nH]4)c(-c4cc(S(=O)(=O)[O-])ccc4F)c4nc(c(-c5cc(S(=O)(=O)[O-])ccc5F)c5ccc2[nH]5)C=C4)C=C3)cc1
REMARK SMILES IDX 8 1 7 2 6 3 5 4 4 5 3 6 2 7 1 8 31 9 32 10 93 11 33 12 92 13
REMARK SMILES IDX 34 14 35 15 36 16 86 17 37 18 91 19 85 20 87 21 38 22 90 23
REMARK SMILES IDX 84 24 83 25 39 27 71 28 51 29 70 30 52 31 55 32 69 33 88 34
REMARK SMILES IDX 53 35 54 36 68 38 89 39 56 40 40 41 41 42 49 43 42 44 48 45
REMARK SMILES IDX 50 46 47 47 43 48 44 49 45 50 46 51 72 52 73 53 81 54 74 55
REMARK SMILES IDX 80 56 82 57 79 58 75 59 76 60 77 61 78 62 57 63 58 64 66 65
REMARK SMILES IDX 59 66 65 67 67 68 64 69 60 70 61 71 62 72 63 73 9 74 10 75
REMARK SMILES IDX 11 76 12 77 13 78 14 79 15 80 16 81 17 82 18 83 19 84 30 85
REMARK SMILES IDX 20 86 21 87 22 90 23 91 28 92 24 93 27 94 29 95 25 96 26 97
REMARK H PARENT 87 26 55 37 30 88 30 89
REMARK Flexibility Score: inf
ROOT
ATOM      1  C   UNL     1       1.974   2.334   1.794  1.00  0.00     0.188 C 
ENDROOT
BRANCH   1   2
ATOM      2  C   UNL     1       2.325   1.809   0.398  1.00  0.00     0.188 C 
BRANCH   2   3
ATOM      3  O   UNL     1       3.579   1.126   0.423  1.00  0.00    -0.376 OA
BRANCH   3   4
ATOM      4  C   UNL     1       4.406   1.321  -0.725  1.00  0.00     0.202 C 
BRANCH   4   5
ATOM      5  C   UNL     1       4.114   0.351  -1.869  1.00  0.00     0.261 C 
BRANCH   5   6
ATOM      6  O   UNL     1       2.727  -0.021  -1.915  1.00  0.00    -0.460 OA
BRANCH   6   7
ATOM      7  C   UNL     1       2.160  -1.116  -1.344  1.00  0.00     0.338 C 
ATOM      8  O   UNL     1       0.956  -1.309  -1.506  1.00  0.00    -0.246 OA
BRANCH   7   9
ATOM      9  C   UNL     1       2.937  -2.132  -0.571  1.00  0.00     0.060 A 
ATOM     10  C   UNL     1       4.030  -1.841   0.246  1.00  0.00     0.016 A 
ATOM     11  C   UNL     1       2.490  -3.462  -0.619  1.00  0.00     0.016 A 
ATOM     12  C   UNL     1       4.734  -2.837   0.901  1.00  0.00     0.010 A 
ATOM     13  C   UNL     1       3.158  -4.469   0.087  1.00  0.00     0.010 A 
ATOM     14  C   UNL     1       4.308  -4.159   0.823  1.00  0.00    -0.014 A 
BRANCH  14  15
ATOM     15  C   UNL     1       5.191  -5.191   1.400  1.00  0.00     0.031 A 
ATOM     16  C   UNL     1       5.999  -6.029   0.454  1.00  0.00     0.074 A 
ATOM     17  C   UNL     1       5.388  -5.237   2.731  1.00  0.00     0.049 A 
ATOM     18  N   UNL     1       6.811  -7.018   0.706  1.00  0.00    -0.248 NA
ATOM     19  C   UNL     1       5.885  -5.691  -0.976  1.00  0.00     0.031 C 
ATOM     20  C   UNL     1       4.754  -4.344   3.706  1.00  0.00     0.029 A 
ATOM     21  N   UNL     1       6.205  -6.029   3.492  1.00  0.00    -0.354 N 
ATOM     22  C   UNL     1       7.285  -7.438  -0.531  1.00  0.00     0.074 A 
ATOM     23  C   UNL     1       6.661  -6.606  -1.535  1.00  0.00     0.031 C 
ATOM     24  C   UNL     1       5.231  -4.620   4.930  1.00  0.00     0.029 A 
ATOM     25  C   UNL     1       6.133  -5.762   4.841  1.00  0.00     0.049 A 
ATOM     26  H   UNL     1       6.788  -6.725   3.111  1.00  0.00     0.167 HD
ATOM     27  C   UNL     1       8.162  -8.435  -0.796  1.00  0.00     0.034 A 
ATOM     28  C   UNL     1       6.702  -6.405   5.880  1.00  0.00     0.034 A 
ATOM     29  C   UNL     1       8.749  -9.246   0.240  1.00  0.00     0.049 A 
ATOM     30  C   UNL     1       7.576  -7.594   5.559  1.00  0.00     0.074 A 
ATOM     31  C   UNL     1       9.556 -10.362   0.121  1.00  0.00     0.029 A 
ATOM     32  N   UNL     1       8.584  -9.015   1.603  1.00  0.00    -0.354 N 
ATOM     33  N   UNL     1       7.930  -8.064   4.382  1.00  0.00    -0.248 NA
ATOM     34  C   UNL     1       8.115  -8.346   6.697  1.00  0.00     0.031 C 
ATOM     35  C   UNL     1       9.834 -10.835   1.410  1.00  0.00     0.029 A 
ATOM     36  C   UNL     1       9.258  -9.976   2.335  1.00  0.00     0.049 A 
ATOM     37  H   UNL     1       8.063  -8.275   1.989  1.00  0.00     0.167 HD
ATOM     38  C   UNL     1       8.742  -9.163   4.641  1.00  0.00     0.074 A 
ATOM     39  C   UNL     1       8.854  -9.258   6.084  1.00  0.00     0.031 C 
ATOM     40  C   UNL     1       9.332 -10.029   3.776  1.00  0.00     0.034 A 
BRANCH  27  41
ATOM     41  C   UNL     1       8.426  -8.742  -2.248  1.00  0.00     0.023 A 
ATOM     42  C   UNL     1       9.079  -7.829  -3.096  1.00  0.00     0.031 A 
ATOM     43  C   UNL     1       7.923  -9.925  -2.817  1.00  0.00     0.131 A 
ATOM     44  C   UNL     1       9.142  -8.078  -4.476  1.00  0.00     0.055 A 
ATOM     45  C   UNL     1       8.056 -10.202  -4.179  1.00  0.00     0.041 A 
ATOM     46  F   UNL     1       7.260 -10.817  -2.064  1.00  0.00    -0.206 F 
ATOM     47  C   UNL     1       8.655  -9.269  -5.020  1.00  0.00     0.022 A 
BRANCH  44  48
ATOM     48  S   UNL     1       9.735  -6.760  -5.575  1.00  0.00     0.124 S 
ATOM     49  O   UNL     1       8.739  -5.715  -5.344  1.00  0.00    -0.237 OA
ATOM     50  O   UNL     1      11.072  -6.492  -5.058  1.00  0.00    -0.237 OA
ATOM     51  O   UNL     1       9.690  -7.372  -6.901  1.00  0.00    -0.744 OA
ENDBRANCH  44  48
ENDBRANCH  27  41
BRANCH  28  52
ATOM     52  C   UNL     1       6.398  -6.020   7.293  1.00  0.00     0.023 A 
ATOM     53  C   UNL     1       7.416  -5.683   8.201  1.00  0.00     0.031 A 
ATOM     54  C   UNL     1       5.078  -6.059   7.784  1.00  0.00     0.131 A 
ATOM     55  C   UNL     1       7.106  -5.454   9.553  1.00  0.00     0.055 A 
ATOM     56  C   UNL     1       4.767  -5.765   9.114  1.00  0.00     0.041 A 
ATOM     57  F   UNL     1       4.059  -6.388   6.974  1.00  0.00    -0.206 F 
ATOM     58  C   UNL     1       5.788  -5.477  10.012  1.00  0.00     0.022 A 
BRANCH  55  59
ATOM     59  S   UNL     1       8.466  -5.244  10.737  1.00  0.00     0.124 S 
ATOM     60  O   UNL     1       9.267  -6.436  10.486  1.00  0.00    -0.237 OA
ATOM     61  O   UNL     1       9.048  -3.977  10.306  1.00  0.00    -0.237 OA
ATOM     62  O   UNL     1       7.788  -5.208  12.031  1.00  0.00    -0.744 OA
ENDBRANCH  55  59
ENDBRANCH  28  52
BRANCH  40  63
ATOM     63  C   UNL     1      10.166 -11.120   4.394  1.00  0.00     0.023 A 
ATOM     64  C   UNL     1       9.580 -12.148   5.151  1.00  0.00     0.031 A 
ATOM     65  C   UNL     1      11.563 -11.117   4.239  1.00  0.00     0.131 A 
ATOM     66  C   UNL     1      10.395 -13.096   5.783  1.00  0.00     0.055 A 
ATOM     67  C   UNL     1      12.363 -12.101   4.817  1.00  0.00     0.041 A 
ATOM     68  F   UNL     1      12.169 -10.155   3.523  1.00  0.00    -0.206 F 
ATOM     69  C   UNL     1      11.781 -13.089   5.607  1.00  0.00     0.022 A 
BRANCH  66  70
ATOM     70  S   UNL     1       9.624 -14.277   6.921  1.00  0.00     0.124 S 
ATOM     71  O   UNL     1       8.999 -13.392   7.899  1.00  0.00    -0.237 OA
ATOM     72  O   UNL     1       8.711 -15.004   6.045  1.00  0.00    -0.237 OA
ATOM     73  O   UNL     1      10.755 -15.056   7.421  1.00  0.00    -0.744 OA
ENDBRANCH  66  70
ENDBRANCH  40  63
ENDBRANCH  14  15
ENDBRANCH   7   9
ENDBRANCH   6   7
ENDBRANCH   5   6
ENDBRANCH   4   5
ENDBRANCH   3   4
ENDBRANCH   2   3
ENDBRANCH   1   2
BRANCH   1  74
ATOM     74  O   UNL     1       2.849   3.349   2.303  1.00  0.00    -0.377 OA
BRANCH  74  75
ATOM     75  C   UNL     1       4.242   3.043   2.269  1.00  0.00     0.188 C 
BRANCH  75  76
ATOM     76  C   UNL     1       4.771   1.883   3.146  1.00  0.00     0.188 C 
BRANCH  76  77
ATOM     77  O   UNL     1       3.784   0.945   3.568  1.00  0.00    -0.376 OA
BRANCH  77  78
ATOM     78  C   UNL     1       3.640   0.829   4.987  1.00  0.00     0.202 C 
BRANCH  78  79
ATOM     79  C   UNL     1       2.824   1.967   5.619  1.00  0.00     0.261 C 
BRANCH  79  80
ATOM     80  O   UNL     1       3.321   3.248   5.200  1.00  0.00    -0.459 OA
BRANCH  80  81
ATOM     81  C   UNL     1       4.143   3.955   6.024  1.00  0.00     0.365 C 
ATOM     82  O   UNL     1       4.314   3.749   7.207  1.00  0.00    -0.245 OA
BRANCH  81  83
ATOM     83  C   UNL     1       4.865   5.012   5.176  1.00  0.00     0.304 C 
ATOM     84  C   UNL     1       3.887   6.046   4.630  1.00  0.00     0.153 C 
ATOM     85  N   UNL     1       6.028   5.614   5.882  1.00  0.00    -0.319 N 
ATOM     86  S   UNL     1       4.567   7.645   5.112  1.00  0.00    -0.087 SA
ATOM     87  C   UNL     1       6.229   6.965   5.372  1.00  0.00     0.277 C 
ATOM     88  H   UNL     1       6.862   5.054   5.711  1.00  0.00     0.348 HD
ATOM     89  H   UNL     1       5.851   5.642   6.886  1.00  0.00     0.348 HD
BRANCH  87  90
ATOM     90  C   UNL     1       7.110   7.154   4.144  1.00  0.00     0.059 A 
ATOM     91  C   UNL     1       7.529   8.471   3.844  1.00  0.00     0.053 A 
ATOM     92  C   UNL     1       7.545   6.145   3.272  1.00  0.00     0.133 A 
ATOM     93  C   UNL     1       8.329   8.745   2.736  1.00  0.00     0.123 A 
ATOM     94  C   UNL     1       8.347   6.426   2.157  1.00  0.00     0.043 A 
ATOM     95  F   UNL     1       7.215   4.862   3.457  1.00  0.00    -0.206 F 
ATOM     96  F   UNL     1       8.702  10.007   2.489  1.00  0.00    -0.207 F 
ATOM     97  C   UNL     1       8.743   7.731   1.886  1.00  0.00     0.042 A 
ENDBRANCH  87  90
ENDBRANCH  81  83
ENDBRANCH  80  81
ENDBRANCH  79  80
ENDBRANCH  78  79
ENDBRANCH  77  78
ENDBRANCH  76  77
ENDBRANCH  75  76
ENDBRANCH  74  75
ENDBRANCH   1  74
TORSDOF 24
