REMARK SMILES CCc1ncc(C[N@H+]2CCC[C@@H](c3cccc(C(=O)OCCOCCOCCOCCOC(=O)c4ccc(-c5c6nc(c(-c7cc(S(=O)(=O)[O-])ccc7F)c7ccc([nH]7)c(-c7cc(S(=O)(=O)[O-])ccc7F)c7nc(c(-c8cc(S(=O)(=O)[O-])ccc8F)c8ccc5[nH]8)C=C7)C=C6)cc4)c3)C2)cn1
REMARK SMILES IDX 25 1 24 2 23 3 22 4 21 5 20 6 18 7 19 8 17 9 13 10 14 11
REMARK SMILES IDX 98 12 15 13 16 14 12 15 8 16 9 17 99 18 10 20 11 21 7 22
REMARK SMILES IDX 6 23 3 24 4 25 101 26 5 27 100 28 2 29 1 30 26 31 27 32
REMARK SMILES IDX 28 33 29 34 30 35 31 36 32 37 33 38 34 39 35 40 36 41 97 42
REMARK SMILES IDX 37 43 96 44 38 45 39 46 40 47 90 48 41 49 95 50 89 51 91 52
REMARK SMILES IDX 42 53 94 54 88 55 87 56 43 58 75 59 55 60 74 61 56 62 59 63
REMARK SMILES IDX 73 64 92 65 57 66 58 67 72 69 93 70 60 71 44 72 45 73 53 74
REMARK SMILES IDX 46 75 52 76 54 77 51 78 47 79 48 80 49 81 50 82 76 83 77 84
REMARK SMILES IDX 85 85 78 86 84 87 86 88 83 89 79 90 80 91 81 92 82 93 61 94
REMARK SMILES IDX 62 95 70 96 63 97 69 98 71 99 68 100 64 101 65 102 66 103
REMARK SMILES IDX 67 104
REMARK H PARENT 8 19 91 57 59 68
REMARK Flexibility Score: inf
ROOT
ATOM      1  C   UNL     1      -4.109 -10.842   4.248  1.00  0.00     0.188 C 
ENDROOT
BRANCH   1   2
ATOM      2  C   UNL     1      -3.874 -11.923   3.174  1.00  0.00     0.188 C 
BRANCH   2   3
ATOM      3  O   UNL     1      -3.660 -13.216   3.707  1.00  0.00    -0.376 OA
BRANCH   3   4
ATOM      4  C   UNL     1      -2.357 -13.765   3.764  1.00  0.00     0.202 C 
BRANCH   4   5
ATOM      5  C   UNL     1      -1.160 -12.979   4.327  1.00  0.00     0.261 C 
BRANCH   5   6
ATOM      6  O   UNL     1      -1.154 -11.569   4.101  1.00  0.00    -0.460 OA
BRANCH   6   7
ATOM      7  C   UNL     1      -0.756 -11.123   2.891  1.00  0.00     0.338 C 
ATOM      8  O   UNL     1      -0.357 -11.791   1.955  1.00  0.00    -0.246 OA
BRANCH   7   9
ATOM      9  C   UNL     1      -1.139  -9.691   2.813  1.00  0.00     0.060 A 
ATOM     10  C   UNL     1      -1.449  -7.509   3.848  1.00  0.00    -0.038 A 
ATOM     11  C   UNL     1      -2.120  -7.087   2.687  1.00  0.00     0.004 A 
ATOM     12  C   UNL     1      -0.974  -8.829   3.906  1.00  0.00     0.020 A 
ATOM     13  C   UNL     1      -2.291  -7.949   1.601  1.00  0.00     0.001 A 
ATOM     14  C   UNL     1      -1.785  -9.245   1.655  1.00  0.00     0.016 A 
BRANCH  10  15
ATOM     15  C   UNL     1      -1.054  -6.533   4.951  1.00  0.00     0.074 C 
ATOM     16  N   UNL     1       0.717  -4.752   5.316  1.00  0.00    -0.331 N 
ATOM     17  C   UNL     1      -0.323  -3.777   5.660  1.00  0.00     0.262 C 
ATOM     18  C   UNL     1       0.204  -5.806   4.438  1.00  0.00     0.270 C 
ATOM     19  H   UNL     1       0.991  -5.185   6.199  1.00  0.00     0.348 HD
ATOM     20  C   UNL     1      -1.545  -4.457   6.288  1.00  0.00     0.062 C 
ATOM     21  C   UNL     1      -2.134  -5.518   5.357  1.00  0.00     0.020 C 
BRANCH  16  22
ATOM     22  C   UNL     1       1.949  -4.139   4.773  1.00  0.00     0.302 C 
BRANCH  22  23
ATOM     23  C   UNL     1       1.797  -3.382   3.483  1.00  0.00     0.043 A 
ATOM     24  C   UNL     1       1.217  -2.031   1.193  1.00  0.00     0.127 A 
ATOM     25  N   UNL     1       1.326  -1.321   2.333  1.00  0.00    -0.241 NA
ATOM     26  N   UNL     1       1.429  -3.356   1.101  1.00  0.00    -0.241 NA
ATOM     27  C   UNL     1       1.627  -2.015   3.449  1.00  0.00     0.124 A 
ATOM     28  C   UNL     1       1.729  -3.996   2.249  1.00  0.00     0.124 A 
BRANCH  24  29
ATOM     29  C   UNL     1       0.680  -1.343  -0.033  1.00  0.00     0.074 C 
ATOM     30  C   UNL     1       1.122   0.106  -0.162  1.00  0.00     0.012 C 
ENDBRANCH  24  29
ENDBRANCH  22  23
ENDBRANCH  16  22
ENDBRANCH  10  15
ENDBRANCH   7   9
ENDBRANCH   6   7
ENDBRANCH   5   6
ENDBRANCH   4   5
ENDBRANCH   3   4
ENDBRANCH   2   3
ENDBRANCH   1   2
BRANCH   1  31
ATOM     31  O   UNL     1      -3.708 -11.152   5.571  1.00  0.00    -0.377 OA
BRANCH  31  32
ATOM     32  C   UNL     1      -4.304 -12.257   6.250  1.00  0.00     0.188 C 
BRANCH  32  33
ATOM     33  C   UNL     1      -5.533 -13.024   5.697  1.00  0.00     0.188 C 
BRANCH  33  34
ATOM     34  O   UNL     1      -6.266 -12.345   4.690  1.00  0.00    -0.376 OA
BRANCH  34  35
ATOM     35  C   UNL     1      -7.532 -11.815   5.035  1.00  0.00     0.202 C 
BRANCH  35  36
ATOM     36  C   UNL     1      -7.544 -10.680   6.067  1.00  0.00     0.261 C 
BRANCH  36  37
ATOM     37  O   UNL     1      -6.898 -10.958   7.318  1.00  0.00    -0.460 OA
BRANCH  37  38
ATOM     38  C   UNL     1      -7.448 -11.928   8.089  1.00  0.00     0.338 C 
ATOM     39  O   UNL     1      -8.431 -12.587   7.839  1.00  0.00    -0.246 OA
BRANCH  38  40
ATOM     40  C   UNL     1      -6.514 -12.173   9.212  1.00  0.00     0.060 A 
ATOM     41  C   UNL     1      -5.934 -13.440   9.356  1.00  0.00     0.016 A 
ATOM     42  C   UNL     1      -6.202 -11.145  10.103  1.00  0.00     0.016 A 
ATOM     43  C   UNL     1      -5.058 -13.688  10.414  1.00  0.00     0.010 A 
ATOM     44  C   UNL     1      -5.342 -11.401  11.173  1.00  0.00     0.010 A 
ATOM     45  C   UNL     1      -4.788 -12.682  11.351  1.00  0.00    -0.014 A 
BRANCH  45  46
ATOM     46  C   UNL     1      -4.093 -13.015  12.619  1.00  0.00     0.031 A 
ATOM     47  C   UNL     1      -4.931 -13.244  13.848  1.00  0.00     0.074 A 
ATOM     48  C   UNL     1      -2.754 -13.124  12.681  1.00  0.00     0.049 A 
ATOM     49  N   UNL     1      -4.559 -13.469  15.081  1.00  0.00    -0.248 NA
ATOM     50  C   UNL     1      -6.389 -13.206  13.655  1.00  0.00     0.031 C 
ATOM     51  C   UNL     1      -1.842 -12.978  11.548  1.00  0.00     0.029 A 
ATOM     52  N   UNL     1      -1.927 -13.374  13.748  1.00  0.00    -0.354 N 
ATOM     53  C   UNL     1      -5.735 -13.591  15.813  1.00  0.00     0.074 A 
ATOM     54  C   UNL     1      -6.830 -13.376  14.891  1.00  0.00     0.031 C 
ATOM     55  C   UNL     1      -0.579 -13.132  11.984  1.00  0.00     0.029 A 
ATOM     56  C   UNL     1      -0.589 -13.339  13.432  1.00  0.00     0.049 A 
ATOM     57  H   UNL     1      -2.261 -13.561  14.655  1.00  0.00     0.167 HD
ATOM     58  C   UNL     1      -5.886 -13.863  17.133  1.00  0.00     0.034 A 
ATOM     59  C   UNL     1       0.499 -13.431  14.225  1.00  0.00     0.034 A 
ATOM     60  C   UNL     1      -4.782 -14.059  18.040  1.00  0.00     0.049 A 
ATOM     61  C   UNL     1       0.307 -13.630  15.712  1.00  0.00     0.074 A 
ATOM     62  C   UNL     1      -4.822 -14.353  19.391  1.00  0.00     0.029 A 
ATOM     63  N   UNL     1      -3.440 -13.963  17.694  1.00  0.00    -0.354 N 
ATOM     64  N   UNL     1      -0.810 -13.751  16.395  1.00  0.00    -0.248 NA
ATOM     65  C   UNL     1       1.522 -13.710  16.535  1.00  0.00     0.031 C 
ATOM     66  C   UNL     1      -3.511 -14.348  19.879  1.00  0.00     0.029 A 
ATOM     67  C   UNL     1      -2.645 -14.150  18.815  1.00  0.00     0.049 A 
ATOM     68  H   UNL     1      -3.103 -13.788  16.786  1.00  0.00     0.167 HD
ATOM     69  C   UNL     1      -0.427 -13.958  17.719  1.00  0.00     0.074 A 
ATOM     70  C   UNL     1       1.021 -13.958  17.736  1.00  0.00     0.031 C 
ATOM     71  C   UNL     1      -1.200 -14.139  18.821  1.00  0.00     0.034 A 
BRANCH  58  72
ATOM     72  C   UNL     1      -7.294 -13.902  17.677  1.00  0.00     0.023 A 
ATOM     73  C   UNL     1      -8.235 -14.850  17.240  1.00  0.00     0.031 A 
ATOM     74  C   UNL     1      -7.710 -12.955  18.630  1.00  0.00     0.131 A 
ATOM     75  C   UNL     1      -9.559 -14.786  17.700  1.00  0.00     0.055 A 
ATOM     76  C   UNL     1      -9.005 -12.950  19.149  1.00  0.00     0.041 A 
ATOM     77  F   UNL     1      -6.865 -12.006  19.065  1.00  0.00    -0.206 F 
ATOM     78  C   UNL     1      -9.944 -13.861  18.673  1.00  0.00     0.022 A 
BRANCH  75  79
ATOM     79  S   UNL     1     -10.807 -15.829  16.898  1.00  0.00     0.124 S 
ATOM     80  O   UNL     1     -10.695 -15.405  15.504  1.00  0.00    -0.237 OA
ATOM     81  O   UNL     1     -10.333 -17.175  17.196  1.00  0.00    -0.237 OA
ATOM     82  O   UNL     1     -12.053 -15.445  17.559  1.00  0.00    -0.744 OA
ENDBRANCH  75  79
ENDBRANCH  58  72
BRANCH  59  83
ATOM     83  C   UNL     1       1.871 -13.291  13.653  1.00  0.00     0.023 A 
ATOM     84  C   UNL     1       2.808 -14.333  13.743  1.00  0.00     0.031 A 
ATOM     85  C   UNL     1       2.290 -12.081  13.068  1.00  0.00     0.131 A 
ATOM     86  C   UNL     1       4.126 -14.131  13.303  1.00  0.00     0.055 A 
ATOM     87  C   UNL     1       3.584 -11.906  12.575  1.00  0.00     0.041 A 
ATOM     88  F   UNL     1       1.440 -11.046  12.965  1.00  0.00    -0.206 F 
ATOM     89  C   UNL     1       4.516 -12.931  12.704  1.00  0.00     0.022 A 
BRANCH  86  90
ATOM     90  S   UNL     1       5.356 -15.427  13.619  1.00  0.00     0.124 S 
ATOM     91  O   UNL     1       5.296 -15.544  15.071  1.00  0.00    -0.237 OA
ATOM     92  O   UNL     1       4.815 -16.549  12.860  1.00  0.00    -0.237 OA
ATOM     93  O   UNL     1       6.593 -14.857  13.088  1.00  0.00    -0.744 OA
ENDBRANCH  86  90
ENDBRANCH  59  83
BRANCH  71  94
ATOM     94  C   UNL     1      -0.494 -14.408  20.130  1.00  0.00     0.023 A 
ATOM     95  C   UNL     1       0.323 -13.445  20.749  1.00  0.00     0.031 A 
ATOM     96  C   UNL     1      -0.644 -15.653  20.769  1.00  0.00     0.131 A 
ATOM     97  C   UNL     1       1.002 -13.763  21.936  1.00  0.00     0.055 A 
ATOM     98  C   UNL     1      -0.021 -15.938  21.985  1.00  0.00     0.041 A 
ATOM     99  F   UNL     1      -1.407 -16.614  20.224  1.00  0.00    -0.206 F 
ATOM    100  C   UNL     1       0.819 -14.995  22.568  1.00  0.00     0.022 A 
BRANCH  97 101
ATOM    101  S   UNL     1       2.213 -12.581  22.590  1.00  0.00     0.124 S 
ATOM    102  O   UNL     1       3.137 -12.442  21.469  1.00  0.00    -0.237 OA
ATOM    103  O   UNL     1       1.385 -11.415  22.882  1.00  0.00    -0.237 OA
ATOM    104  O   UNL     1       2.758 -13.262  23.763  1.00  0.00    -0.744 OA
ENDBRANCH  97 101
ENDBRANCH  71  94
ENDBRANCH  45  46
ENDBRANCH  38  40
ENDBRANCH  37  38
ENDBRANCH  36  37
ENDBRANCH  35  36
ENDBRANCH  34  35
ENDBRANCH  33  34
ENDBRANCH  32  33
ENDBRANCH  31  32
ENDBRANCH   1  31
TORSDOF 27
