REMARK SMILES CN(CC(=O)OCCOCCOCCOCCOC(=O)c1ccc(-c2c3nc(c(-c4cc(S(=O)(=O)[O-])ccc4F)c4ccc([nH]4)c(-c4cc(S(=O)(=O)[O-])ccc4F)c4nc(c(-c5cc(S(=O)(=O)[O-])ccc5F)c5ccc2[nH]5)C=C4)C=C3)cc1)c1nc2cc(N)ccc2[nH]1
REMARK SMILES IDX 12 1 11 2 10 3 9 4 8 5 7 6 6 7 4 8 5 9 3 10 2 11 1 12 84 13
REMARK SMILES IDX 85 14 93 15 86 16 92 17 87 19 91 20 88 21 90 22 89 23 13 26
REMARK SMILES IDX 14 27 15 28 16 29 17 30 18 31 19 32 20 33 21 34 22 35 83 36
REMARK SMILES IDX 23 37 82 38 24 39 25 40 26 41 76 42 27 43 81 44 75 45 77 46
REMARK SMILES IDX 28 47 80 48 74 49 73 50 29 52 61 53 41 54 60 55 42 56 45 57
REMARK SMILES IDX 59 58 78 59 43 60 44 61 58 63 79 64 46 65 30 66 31 67 39 68
REMARK SMILES IDX 32 69 38 70 40 71 37 72 33 73 34 74 35 75 36 76 62 77 63 78
REMARK SMILES IDX 71 79 64 80 70 81 72 82 69 83 65 84 66 85 67 86 68 87 47 88
REMARK SMILES IDX 48 89 56 90 49 91 55 92 57 93 54 94 50 95 51 96 52 97 53 98
REMARK H PARENT 93 18 89 24 89 25 77 51 45 62
REMARK Flexibility Score: inf
ROOT
ATOM      1  O   UNL     1      -2.550  -2.228   2.053  1.00  0.00    -0.377 OA
ENDROOT
BRANCH   1   2
ATOM      2  C   UNL     1      -1.677  -1.553   2.931  1.00  0.00     0.188 C 
BRANCH   2   3
ATOM      3  C   UNL     1      -2.318  -0.794   4.104  1.00  0.00     0.188 C 
BRANCH   3   4
ATOM      4  O   UNL     1      -3.614  -0.216   3.991  1.00  0.00    -0.376 OA
BRANCH   4   5
ATOM      5  C   UNL     1      -4.198  -0.083   2.709  1.00  0.00     0.202 C 
BRANCH   5   6
ATOM      6  C   UNL     1      -3.569   0.934   1.738  1.00  0.00     0.261 C 
BRANCH   6   7
ATOM      7  O   UNL     1      -2.129   0.908   1.583  1.00  0.00    -0.462 OA
BRANCH   7   8
ATOM      8  C   UNL     1      -1.416   1.841   2.278  1.00  0.00     0.325 C 
ATOM      9  O   UNL     1      -1.946   2.727   2.948  1.00  0.00    -0.250 OA
BRANCH   8  10
ATOM     10  C   UNL     1       0.102   1.839   2.016  1.00  0.00     0.241 C 
BRANCH  10  11
ATOM     11  N   UNL     1       0.850   0.560   1.930  1.00  0.00    -0.334 N 
ATOM     12  C   UNL     1       1.096  -0.007   0.614  1.00  0.00     0.147 C 
BRANCH  11  13
ATOM     13  C   UNL     1       1.250  -0.065   3.070  1.00  0.00     0.204 A 
ATOM     14  N   UNL     1       0.794   0.126   4.287  1.00  0.00    -0.213 NA
ATOM     15  N   UNL     1       2.162  -1.102   3.071  1.00  0.00    -0.324 N 
ATOM     16  C   UNL     1       1.220  -0.957   5.023  1.00  0.00     0.093 A 
ATOM     17  C   UNL     1       2.125  -1.720   4.298  1.00  0.00     0.067 A 
ATOM     18  H   UNL     1       2.743  -1.356   2.318  1.00  0.00     0.170 HD
ATOM     19  C   UNL     1       0.798  -1.407   6.285  1.00  0.00     0.056 A 
ATOM     20  C   UNL     1       2.725  -2.876   4.805  1.00  0.00     0.030 A 
ATOM     21  C   UNL     1       1.237  -2.659   6.742  1.00  0.00     0.034 A 
ATOM     22  C   UNL     1       2.259  -3.325   6.053  1.00  0.00     0.028 A 
BRANCH  21  23
ATOM     23  N   UNL     1       0.711  -3.197   7.914  1.00  0.00    -0.399 N 
ATOM     24  H   UNL     1      -0.007  -2.725   8.394  1.00  0.00     0.156 HD
ATOM     25  H   UNL     1       1.057  -4.050   8.262  1.00  0.00     0.156 HD
ENDBRANCH  21  23
ENDBRANCH  11  13
ENDBRANCH  10  11
ENDBRANCH   8  10
ENDBRANCH   7   8
ENDBRANCH   6   7
ENDBRANCH   5   6
ENDBRANCH   4   5
ENDBRANCH   3   4
ENDBRANCH   2   3
ENDBRANCH   1   2
BRANCH   1  26
ATOM     26  C   UNL     1      -2.807  -3.603   2.260  1.00  0.00     0.188 C 
BRANCH  26  27
ATOM     27  C   UNL     1      -2.982  -4.064   3.708  1.00  0.00     0.188 C 
BRANCH  27  28
ATOM     28  O   UNL     1      -1.834  -4.193   4.550  1.00  0.00    -0.376 OA
BRANCH  28  29
ATOM     29  C   UNL     1      -0.545  -4.394   3.985  1.00  0.00     0.202 C 
BRANCH  29  30
ATOM     30  C   UNL     1       0.044  -5.785   4.166  1.00  0.00     0.261 C 
BRANCH  30  31
ATOM     31  O   UNL     1      -0.295  -6.555   3.008  1.00  0.00    -0.460 OA
BRANCH  31  32
ATOM     32  C   UNL     1      -1.546  -7.063   3.049  1.00  0.00     0.338 C 
ATOM     33  O   UNL     1      -2.206  -7.287   4.050  1.00  0.00    -0.246 OA
BRANCH  32  34
ATOM     34  C   UNL     1      -2.095  -7.061   1.676  1.00  0.00     0.060 A 
ATOM     35  C   UNL     1      -3.484  -6.934   1.538  1.00  0.00     0.016 A 
ATOM     36  C   UNL     1      -1.272  -7.131   0.544  1.00  0.00     0.016 A 
ATOM     37  C   UNL     1      -4.064  -6.941   0.276  1.00  0.00     0.010 A 
ATOM     38  C   UNL     1      -1.853  -7.160  -0.721  1.00  0.00     0.010 A 
ATOM     39  C   UNL     1      -3.251  -7.121  -0.847  1.00  0.00    -0.014 A 
BRANCH  39  40
ATOM     40  C   UNL     1      -3.861  -7.606  -2.099  1.00  0.00     0.031 A 
ATOM     41  C   UNL     1      -3.923  -9.096  -2.288  1.00  0.00     0.074 A 
ATOM     42  C   UNL     1      -4.333  -6.755  -3.022  1.00  0.00     0.049 A 
ATOM     43  N   UNL     1      -4.304  -9.790  -3.324  1.00  0.00    -0.248 NA
ATOM     44  C   UNL     1      -3.475  -9.911  -1.145  1.00  0.00     0.031 C 
ATOM     45  C   UNL     1      -4.379  -5.300  -2.886  1.00  0.00     0.029 A 
ATOM     46  N   UNL     1      -4.857  -6.998  -4.263  1.00  0.00    -0.354 N 
ATOM     47  C   UNL     1      -4.129 -11.123  -2.963  1.00  0.00     0.074 A 
ATOM     48  C   UNL     1      -3.573 -11.136  -1.630  1.00  0.00     0.031 C 
ATOM     49  C   UNL     1      -4.897  -4.778  -4.012  1.00  0.00     0.029 A 
ATOM     50  C   UNL     1      -5.170  -5.857  -4.960  1.00  0.00     0.049 A 
ATOM     51  H   UNL     1      -4.996  -7.905  -4.621  1.00  0.00     0.167 HD
ATOM     52  C   UNL     1      -4.410 -12.233  -3.686  1.00  0.00     0.034 A 
ATOM     53  C   UNL     1      -5.597  -5.716  -6.230  1.00  0.00     0.034 A 
ATOM     54  C   UNL     1      -4.937 -12.177  -5.024  1.00  0.00     0.049 A 
ATOM     55  C   UNL     1      -5.794  -6.962  -7.063  1.00  0.00     0.074 A 
ATOM     56  C   UNL     1      -5.267 -13.220  -5.868  1.00  0.00     0.029 A 
ATOM     57  N   UNL     1      -5.191 -11.000  -5.722  1.00  0.00    -0.354 N 
ATOM     58  N   UNL     1      -5.626  -8.221  -6.720  1.00  0.00    -0.248 NA
ATOM     59  C   UNL     1      -6.233  -6.771  -8.450  1.00  0.00     0.031 C 
ATOM     60  C   UNL     1      -5.638 -12.677  -7.102  1.00  0.00     0.029 A 
ATOM     61  C   UNL     1      -5.632 -11.293  -7.000  1.00  0.00     0.049 A 
ATOM     62  H   UNL     1      -5.073 -10.093  -5.360  1.00  0.00     0.167 HD
ATOM     63  C   UNL     1      -5.985  -8.971  -7.837  1.00  0.00     0.074 A 
ATOM     64  C   UNL     1      -6.370  -8.023  -8.864  1.00  0.00     0.031 C 
ATOM     65  C   UNL     1      -6.010 -10.320  -8.000  1.00  0.00     0.034 A 
BRANCH  52  66
ATOM     66  C   UNL     1      -4.069 -13.566  -3.065  1.00  0.00     0.023 A 
ATOM     67  C   UNL     1      -4.657 -13.999  -1.863  1.00  0.00     0.031 A 
ATOM     68  C   UNL     1      -3.079 -14.382  -3.641  1.00  0.00     0.131 A 
ATOM     69  C   UNL     1      -4.184 -15.159  -1.230  1.00  0.00     0.055 A 
ATOM     70  C   UNL     1      -2.681 -15.584  -3.055  1.00  0.00     0.041 A 
ATOM     71  F   UNL     1      -2.457 -14.008  -4.770  1.00  0.00    -0.206 F 
ATOM     72  C   UNL     1      -3.220 -15.969  -1.831  1.00  0.00     0.022 A 
BRANCH  69  73
ATOM     73  S   UNL     1      -4.712 -15.490   0.475  1.00  0.00     0.124 S 
ATOM     74  O   UNL     1      -4.288 -14.269   1.157  1.00  0.00    -0.237 OA
ATOM     75  O   UNL     1      -6.151 -15.674   0.330  1.00  0.00    -0.237 OA
ATOM     76  O   UNL     1      -3.961 -16.690   0.839  1.00  0.00    -0.744 OA
ENDBRANCH  69  73
ENDBRANCH  52  66
BRANCH  53  77
ATOM     77  C   UNL     1      -5.845  -4.361  -6.800  1.00  0.00     0.023 A 
ATOM     78  C   UNL     1      -7.129  -3.982  -7.218  1.00  0.00     0.031 A 
ATOM     79  C   UNL     1      -4.798  -3.437  -6.970  1.00  0.00     0.131 A 
ATOM     80  C   UNL     1      -7.329  -2.730  -7.821  1.00  0.00     0.055 A 
ATOM     81  C   UNL     1      -5.011  -2.172  -7.521  1.00  0.00     0.041 A 
ATOM     82  F   UNL     1      -3.548  -3.748  -6.589  1.00  0.00    -0.206 F 
ATOM     83  C   UNL     1      -6.282  -1.816  -7.961  1.00  0.00     0.022 A 
BRANCH  80  84
ATOM     84  S   UNL     1      -8.968  -2.344  -8.494  1.00  0.00     0.124 S 
ATOM     85  O   UNL     1      -9.152  -3.423  -9.458  1.00  0.00    -0.237 OA
ATOM     86  O   UNL     1      -9.805  -2.398  -7.300  1.00  0.00    -0.237 OA
ATOM     87  O   UNL     1      -8.793  -1.013  -9.071  1.00  0.00    -0.744 OA
ENDBRANCH  80  84
ENDBRANCH  53  77
BRANCH  65  88
ATOM     88  C   UNL     1      -6.535 -10.849  -9.310  1.00  0.00     0.023 A 
ATOM     89  C   UNL     1      -5.826 -10.697 -10.513  1.00  0.00     0.031 A 
ATOM     90  C   UNL     1      -7.749 -11.559  -9.338  1.00  0.00     0.131 A 
ATOM     91  C   UNL     1      -6.356 -11.219 -11.702  1.00  0.00     0.055 A 
ATOM     92  C   UNL     1      -8.241 -12.128 -10.512  1.00  0.00     0.041 A 
ATOM     93  F   UNL     1      -8.464 -11.732  -8.214  1.00  0.00    -0.206 F 
ATOM     94  C   UNL     1      -7.547 -11.952 -11.705  1.00  0.00     0.022 A 
BRANCH  91  95
ATOM     95  S   UNL     1      -5.498 -10.878 -13.262  1.00  0.00     0.124 S 
ATOM     96  O   UNL     1      -5.548  -9.421 -13.323  1.00  0.00    -0.237 OA
ATOM     97  O   UNL     1      -4.181 -11.461 -13.031  1.00  0.00    -0.237 OA
ATOM     98  O   UNL     1      -6.314 -11.569 -14.260  1.00  0.00    -0.744 OA
ENDBRANCH  91  95
ENDBRANCH  65  88
ENDBRANCH  39  40
ENDBRANCH  32  34
ENDBRANCH  31  32
ENDBRANCH  30  31
ENDBRANCH  29  30
ENDBRANCH  28  29
ENDBRANCH  27  28
ENDBRANCH  26  27
ENDBRANCH   1  26
TORSDOF 26
