REMARK SMILES CCc1ccsc1-c1nnnn1C[C@H](CC(C)C)C(=O)OCCOCCOCCOCCOC(=O)c1ccc(-c2c3nc(c(-c4cc(S(=O)(=O)[O-])ccc4F)c4ccc([nH]4)c(-c4cc(S(=O)(=O)[O-])ccc4F)c4nc(c(-c5cc(S(=O)(=O)[O-])ccc5F)c5ccc2[nH]5)C=C4)C=C3)cc1
REMARK SMILES IDX 26 1 25 2 24 3 23 4 22 5 21 6 19 7 20 8 14 9 13 10 12 11
REMARK SMILES IDX 8 12 9 13 10 14 11 15 7 16 3 17 4 18 5 19 6 20 2 21 1 22
REMARK SMILES IDX 15 23 16 24 17 25 18 26 27 27 28 28 29 29 30 30 31 31 32 32
REMARK SMILES IDX 33 33 34 34 35 35 36 36 37 37 98 38 38 39 97 40 39 41 40 42
REMARK SMILES IDX 41 43 91 44 42 45 96 46 90 47 92 48 43 49 95 50 89 51 88 52
REMARK SMILES IDX 44 54 76 55 56 56 75 57 57 58 60 59 74 60 93 61 58 62 59 63
REMARK SMILES IDX 73 65 94 66 61 67 45 68 46 69 54 70 47 71 53 72 55 73 52 74
REMARK SMILES IDX 48 75 49 76 50 77 51 78 77 79 78 80 86 81 79 82 85 83 87 84
REMARK SMILES IDX 84 85 80 86 81 87 82 88 83 89 62 90 63 91 71 92 64 93 70 94
REMARK SMILES IDX 72 95 69 96 65 97 66 98 67 99 68 100
REMARK H PARENT 92 53 60 64
REMARK Flexibility Score: inf
ROOT
ATOM      1  C   UNL     1      -2.575  -1.385   2.803  1.00  0.00     0.188 C 
ENDROOT
BRANCH   1   2
ATOM      2  C   UNL     1      -3.605  -1.154   3.928  1.00  0.00     0.188 C 
BRANCH   2   3
ATOM      3  O   UNL     1      -4.887  -1.768   3.932  1.00  0.00    -0.376 OA
BRANCH   3   4
ATOM      4  C   UNL     1      -5.559  -2.096   2.727  1.00  0.00     0.202 C 
BRANCH   4   5
ATOM      5  C   UNL     1      -5.859  -0.999   1.702  1.00  0.00     0.261 C 
BRANCH   5   6
ATOM      6  O   UNL     1      -4.722  -0.240   1.264  1.00  0.00    -0.463 OA
BRANCH   6   7
ATOM      7  C   UNL     1      -4.533   0.954   1.861  1.00  0.00     0.310 C 
ATOM      8  O   UNL     1      -5.219   1.406   2.772  1.00  0.00    -0.252 OA
BRANCH   7   9
ATOM      9  C   UNL     1      -3.494   1.817   1.167  1.00  0.00     0.121 C 
BRANCH   9  10
ATOM     10  C   UNL     1      -4.291   2.745   0.265  1.00  0.00     0.164 C 
BRANCH  10  11
ATOM     11  N   UNL     1      -5.548   2.283  -0.261  1.00  0.00    -0.224 N 
ATOM     12  C   UNL     1      -6.794   2.801  -0.039  1.00  0.00     0.192 A 
ATOM     13  N   UNL     1      -7.663   2.016  -0.642  1.00  0.00    -0.108 NA
ATOM     14  N   UNL     1      -6.920   1.065  -1.308  1.00  0.00    -0.023 NA
ATOM     15  N   UNL     1      -5.621   1.253  -1.117  1.00  0.00    -0.045 NA
BRANCH  12  16
ATOM     16  C   UNL     1      -7.074   3.960   0.755  1.00  0.00     0.077 A 
ATOM     17  C   UNL     1      -6.474   5.222   0.725  1.00  0.00    -0.026 A 
ATOM     18  C   UNL     1      -6.921   6.004   1.851  1.00  0.00     0.016 A 
ATOM     19  C   UNL     1      -7.858   5.362   2.626  1.00  0.00     0.066 A 
ATOM     20  S   UNL     1      -8.241   3.824   2.007  1.00  0.00    -0.140 S 
BRANCH  17  21
ATOM     21  C   UNL     1      -5.409   5.765  -0.210  1.00  0.00     0.034 C 
ATOM     22  C   UNL     1      -5.493   5.368  -1.675  1.00  0.00     0.009 C 
ENDBRANCH  17  21
ENDBRANCH  12  16
ENDBRANCH  10  11
ENDBRANCH   9  10
BRANCH   9  23
ATOM     23  C   UNL     1      -2.231   1.188   0.545  1.00  0.00     0.020 C 
BRANCH  23  24
ATOM     24  C   UNL     1      -1.479   1.994  -0.538  1.00  0.00    -0.017 C 
ATOM     25  C   UNL     1      -1.112   3.424  -0.117  1.00  0.00     0.007 C 
ATOM     26  C   UNL     1      -0.194   1.261  -0.939  1.00  0.00     0.007 C 
ENDBRANCH  23  24
ENDBRANCH   9  23
ENDBRANCH   7   9
ENDBRANCH   6   7
ENDBRANCH   5   6
ENDBRANCH   4   5
ENDBRANCH   3   4
ENDBRANCH   2   3
ENDBRANCH   1   2
BRANCH   1  27
ATOM     27  O   UNL     1      -2.995  -2.163   1.702  1.00  0.00    -0.377 OA
BRANCH  27  28
ATOM     28  C   UNL     1      -2.649  -3.544   1.720  1.00  0.00     0.188 C 
BRANCH  28  29
ATOM     29  C   UNL     1      -2.740  -4.284   3.075  1.00  0.00     0.188 C 
BRANCH  29  30
ATOM     30  O   UNL     1      -2.261  -3.550   4.196  1.00  0.00    -0.376 OA
BRANCH  30  31
ATOM     31  C   UNL     1      -0.947  -3.708   4.706  1.00  0.00     0.202 C 
BRANCH  31  32
ATOM     32  C   UNL     1       0.251  -3.385   3.815  1.00  0.00     0.261 C 
BRANCH  32  33
ATOM     33  O   UNL     1       0.167  -3.876   2.494  1.00  0.00    -0.460 OA
BRANCH  33  34
ATOM     34  C   UNL     1       0.145  -5.220   2.394  1.00  0.00     0.338 C 
ATOM     35  O   UNL     1      -0.106  -6.021   3.271  1.00  0.00    -0.246 OA
BRANCH  34  36
ATOM     36  C   UNL     1       0.647  -5.577   1.071  1.00  0.00     0.060 A 
ATOM     37  C   UNL     1       0.576  -6.927   0.736  1.00  0.00     0.016 A 
ATOM     38  C   UNL     1       1.505  -4.674   0.424  1.00  0.00     0.016 A 
ATOM     39  C   UNL     1       1.564  -7.428  -0.073  1.00  0.00     0.010 A 
ATOM     40  C   UNL     1       2.508  -5.184  -0.354  1.00  0.00     0.010 A 
ATOM     41  C   UNL     1       2.573  -6.564  -0.517  1.00  0.00    -0.014 A 
BRANCH  41  42
ATOM     42  C   UNL     1       3.613  -7.109  -1.356  1.00  0.00     0.031 A 
ATOM     43  C   UNL     1       3.082  -7.390  -2.701  1.00  0.00     0.074 A 
ATOM     44  C   UNL     1       4.895  -7.243  -0.971  1.00  0.00     0.049 A 
ATOM     45  N   UNL     1       2.712  -8.541  -3.150  1.00  0.00    -0.248 NA
ATOM     46  C   UNL     1       2.623  -6.253  -3.521  1.00  0.00     0.031 C 
ATOM     47  C   UNL     1       5.515  -6.777   0.269  1.00  0.00     0.029 A 
ATOM     48  N   UNL     1       5.948  -7.756  -1.664  1.00  0.00    -0.354 N 
ATOM     49  C   UNL     1       2.309  -8.290  -4.450  1.00  0.00     0.074 A 
ATOM     50  C   UNL     1       1.972  -6.896  -4.491  1.00  0.00     0.031 C 
ATOM     51  C   UNL     1       6.862  -6.825   0.138  1.00  0.00     0.029 A 
ATOM     52  C   UNL     1       7.198  -7.427  -1.144  1.00  0.00     0.049 A 
ATOM     53  H   UNL     1       5.835  -8.314  -2.467  1.00  0.00     0.167 HD
ATOM     54  C   UNL     1       2.693  -9.138  -5.441  1.00  0.00     0.034 A 
ATOM     55  C   UNL     1       8.406  -7.582  -1.757  1.00  0.00     0.034 A 
ATOM     56  C   UNL     1       3.079 -10.427  -4.887  1.00  0.00     0.049 A 
ATOM     57  C   UNL     1       8.227  -8.644  -2.783  1.00  0.00     0.074 A 
ATOM     58  C   UNL     1       2.472 -11.330  -4.031  1.00  0.00     0.029 A 
ATOM     59  N   UNL     1       4.419 -10.754  -4.874  1.00  0.00    -0.354 N 
ATOM     60  N   UNL     1       7.969  -9.888  -2.483  1.00  0.00    -0.248 NA
ATOM     61  C   UNL     1       7.832  -8.241  -4.124  1.00  0.00     0.031 C 
ATOM     62  C   UNL     1       3.521 -11.821  -3.198  1.00  0.00     0.029 A 
ATOM     63  C   UNL     1       4.728 -11.285  -3.647  1.00  0.00     0.049 A 
ATOM     64  H   UNL     1       5.048 -10.628  -5.621  1.00  0.00     0.167 HD
ATOM     65  C   UNL     1       6.987 -10.275  -3.383  1.00  0.00     0.074 A 
ATOM     66  C   UNL     1       7.020  -9.257  -4.433  1.00  0.00     0.031 C 
ATOM     67  C   UNL     1       6.047 -11.207  -3.041  1.00  0.00     0.034 A 
BRANCH  54  68
ATOM     68  C   UNL     1       3.181  -8.658  -6.796  1.00  0.00     0.023 A 
ATOM     69  C   UNL     1       3.616  -9.657  -7.681  1.00  0.00     0.031 A 
ATOM     70  C   UNL     1       3.541  -7.333  -7.149  1.00  0.00     0.131 A 
ATOM     71  C   UNL     1       4.493  -9.354  -8.734  1.00  0.00     0.055 A 
ATOM     72  C   UNL     1       4.358  -7.030  -8.240  1.00  0.00     0.041 A 
ATOM     73  F   UNL     1       3.200  -6.256  -6.436  1.00  0.00    -0.206 F 
ATOM     74  C   UNL     1       4.875  -8.047  -9.016  1.00  0.00     0.022 A 
BRANCH  71  75
ATOM     75  S   UNL     1       5.279 -10.733  -9.593  1.00  0.00     0.124 S 
ATOM     76  O   UNL     1       5.941 -11.412  -8.484  1.00  0.00    -0.237 OA
ATOM     77  O   UNL     1       4.128 -11.415 -10.175  1.00  0.00    -0.237 OA
ATOM     78  O   UNL     1       6.164 -10.073 -10.549  1.00  0.00    -0.744 OA
ENDBRANCH  71  75
ENDBRANCH  54  68
BRANCH  55  79
ATOM     79  C   UNL     1       9.578  -6.650  -1.738  1.00  0.00     0.023 A 
ATOM     80  C   UNL     1      10.851  -7.005  -2.247  1.00  0.00     0.031 A 
ATOM     81  C   UNL     1       9.385  -5.281  -1.444  1.00  0.00     0.131 A 
ATOM     82  C   UNL     1      11.848  -6.014  -2.447  1.00  0.00     0.055 A 
ATOM     83  C   UNL     1      10.370  -4.311  -1.643  1.00  0.00     0.041 A 
ATOM     84  F   UNL     1       8.196  -4.814  -1.035  1.00  0.00    -0.206 F 
ATOM     85  C   UNL     1      11.602  -4.671  -2.158  1.00  0.00     0.022 A 
BRANCH  82  86
ATOM     86  S   UNL     1      13.464  -6.437  -3.185  1.00  0.00     0.124 S 
ATOM     87  O   UNL     1      14.108  -7.188  -2.113  1.00  0.00    -0.237 OA
ATOM     88  O   UNL     1      13.084  -7.192  -4.372  1.00  0.00    -0.237 OA
ATOM     89  O   UNL     1      14.065  -5.130  -3.461  1.00  0.00    -0.744 OA
ENDBRANCH  82  86
ENDBRANCH  55  79
BRANCH  67  90
ATOM     90  C   UNL     1       6.316 -12.111  -1.852  1.00  0.00     0.023 A 
ATOM     91  C   UNL     1       6.619 -11.687  -0.537  1.00  0.00     0.031 A 
ATOM     92  C   UNL     1       6.172 -13.495  -2.069  1.00  0.00     0.131 A 
ATOM     93  C   UNL     1       6.781 -12.640   0.491  1.00  0.00     0.055 A 
ATOM     94  C   UNL     1       6.308 -14.430  -1.046  1.00  0.00     0.041 A 
ATOM     95  F   UNL     1       5.867 -13.965  -3.290  1.00  0.00    -0.206 F 
ATOM     96  C   UNL     1       6.623 -14.006   0.237  1.00  0.00     0.022 A 
BRANCH  93  97
ATOM     97  S   UNL     1       7.243 -12.130   2.179  1.00  0.00     0.124 S 
ATOM     98  O   UNL     1       8.292 -11.141   1.967  1.00  0.00    -0.237 OA
ATOM     99  O   UNL     1       5.981 -11.620   2.709  1.00  0.00    -0.237 OA
ATOM    100  O   UNL     1       7.699 -13.378   2.797  1.00  0.00    -0.744 OA
ENDBRANCH  93  97
ENDBRANCH  67  90
ENDBRANCH  41  42
ENDBRANCH  34  36
ENDBRANCH  33  34
ENDBRANCH  32  33
ENDBRANCH  31  32
ENDBRANCH  30  31
ENDBRANCH  29  30
ENDBRANCH  28  29
ENDBRANCH  27  28
ENDBRANCH   1  27
TORSDOF 29
