REMARK SMILES CCc1cc(OC(F)(F)F)cc2c1O[C@@H](C(F)(F)F)C(C(=O)OCCOCCOCCOCCOC(=O)c1ccc(-c3c4nc(c(-c5cc(S(=O)(=O)[O-])ccc5F)c5ccc([nH]5)c(-c5cc(S(=O)(=O)[O-])ccc5F)c5nc(c(-c6cc(S(=O)(=O)[O-])ccc6F)c6ccc3[nH]6)C=C5)C=C4)cc1)=C2
REMARK SMILES IDX 30 1 29 2 28 3 27 4 26 5 25 6 24 7 23 8 21 9 22 10 20 11
REMARK SMILES IDX 3 12 4 13 13 14 5 15 12 16 14 17 11 18 101 19 15 20 2 21
REMARK SMILES IDX 1 22 6 23 7 24 8 25 9 26 10 27 16 28 17 29 18 30 19 31 31 32
REMARK SMILES IDX 32 33 33 34 34 35 35 36 36 37 37 38 38 39 39 40 100 41 40 42
REMARK SMILES IDX 99 43 41 44 42 45 43 46 93 47 44 48 98 49 92 50 94 51 45 52
REMARK SMILES IDX 97 53 91 54 90 55 46 57 78 58 58 59 77 60 59 61 62 62 76 63
REMARK SMILES IDX 95 64 60 65 61 66 75 68 96 69 63 70 47 71 48 72 56 73 49 74
REMARK SMILES IDX 55 75 57 76 54 77 50 78 51 79 52 80 53 81 79 82 80 83 88 84
REMARK SMILES IDX 81 85 87 86 89 87 86 88 82 89 83 90 84 91 85 92 64 93 65 94
REMARK SMILES IDX 73 95 66 96 72 97 74 98 71 99 67 100 68 101 69 102 70 103
REMARK H PARENT 94 56 62 67
REMARK Flexibility Score: inf
ROOT
ATOM      1  C   UNL     1       6.040  -0.463   7.619  1.00  0.00     0.188 C 
ENDROOT
BRANCH   1   2
ATOM      2  O   UNL     1       5.138  -0.867   6.588  1.00  0.00    -0.377 OA
BRANCH   2   3
ATOM      3  C   UNL     1       4.954  -0.029   5.463  1.00  0.00     0.188 C 
BRANCH   3   4
ATOM      4  C   UNL     1       4.536   1.428   5.728  1.00  0.00     0.188 C 
BRANCH   4   5
ATOM      5  O   UNL     1       4.602   1.815   7.091  1.00  0.00    -0.376 OA
BRANCH   5   6
ATOM      6  C   UNL     1       3.380   2.018   7.781  1.00  0.00     0.202 C 
BRANCH   6   7
ATOM      7  C   UNL     1       2.479   0.791   7.984  1.00  0.00     0.261 C 
BRANCH   7   8
ATOM      8  O   UNL     1       2.200   0.036   6.795  1.00  0.00    -0.460 OA
BRANCH   8   9
ATOM      9  C   UNL     1       1.388   0.602   5.877  1.00  0.00     0.338 C 
ATOM     10  O   UNL     1       0.827   1.678   5.974  1.00  0.00    -0.246 OA
BRANCH   9  11
ATOM     11  C   UNL     1       1.414  -0.203   4.641  1.00  0.00     0.087 C 
ATOM     12  C   UNL     1       0.744  -2.180   1.021  1.00  0.00    -0.002 A 
ATOM     13  C   UNL     1       0.775  -3.589   1.004  1.00  0.00     0.054 A 
ATOM     14  C   UNL     1       0.974  -1.538   2.242  1.00  0.00     0.131 A 
ATOM     15  C   UNL     1       1.041  -4.329   2.162  1.00  0.00     0.130 A 
ATOM     16  C   UNL     1       1.239  -2.265   3.418  1.00  0.00     0.021 A 
ATOM     17  O   UNL     1       0.837  -0.177   2.289  1.00  0.00    -0.475 OA
ATOM     18  C   UNL     1       1.298  -3.659   3.363  1.00  0.00     0.058 A 
ATOM     19  C   UNL     1       1.306  -1.543   4.693  1.00  0.00     0.027 C 
ATOM     20  C   UNL     1       1.635   0.471   3.309  1.00  0.00     0.316 C 
BRANCH  12  21
ATOM     21  C   UNL     1       0.357  -1.472  -0.263  1.00  0.00     0.036 C 
ATOM     22  C   UNL     1       0.841  -0.042  -0.481  1.00  0.00     0.009 C 
ENDBRANCH  12  21
BRANCH  15  23
ATOM     23  O   UNL     1       1.056  -5.694   2.249  1.00  0.00    -0.406 OA
BRANCH  23  24
ATOM     24  C   UNL     1       0.453  -6.421   1.191  1.00  0.00     0.573 C 
ATOM     25  F   UNL     1      -0.804  -5.988   0.945  1.00  0.00    -0.132 F 
ATOM     26  F   UNL     1       1.186  -6.325   0.060  1.00  0.00    -0.132 F 
ATOM     27  F   UNL     1       0.384  -7.726   1.535  1.00  0.00    -0.132 F 
ENDBRANCH  23  24
ENDBRANCH  15  23
BRANCH  20  28
ATOM     28  C   UNL     1       1.429   1.988   3.157  1.00  0.00     0.430 C 
ATOM     29  F   UNL     1       2.270   2.704   3.934  1.00  0.00    -0.167 F 
ATOM     30  F   UNL     1       1.718   2.358   1.877  1.00  0.00    -0.167 F 
ATOM     31  F   UNL     1       0.166   2.383   3.403  1.00  0.00    -0.167 F 
ENDBRANCH  20  28
ENDBRANCH   9  11
ENDBRANCH   8   9
ENDBRANCH   7   8
ENDBRANCH   6   7
ENDBRANCH   5   6
ENDBRANCH   4   5
ENDBRANCH   3   4
ENDBRANCH   2   3
ENDBRANCH   1   2
BRANCH   1  32
ATOM     32  C   UNL     1       7.094   0.654   7.406  1.00  0.00     0.188 C 
BRANCH  32  33
ATOM     33  O   UNL     1       7.358   0.990   6.050  1.00  0.00    -0.376 OA
BRANCH  33  34
ATOM     34  C   UNL     1       8.616   0.594   5.529  1.00  0.00     0.202 C 
BRANCH  34  35
ATOM     35  C   UNL     1       8.770  -0.914   5.297  1.00  0.00     0.261 C 
BRANCH  35  36
ATOM     36  O   UNL     1       8.621  -1.736   6.465  1.00  0.00    -0.460 OA
BRANCH  36  37
ATOM     37  C   UNL     1       9.515  -1.536   7.467  1.00  0.00     0.338 C 
ATOM     38  O   UNL     1      10.446  -0.766   7.468  1.00  0.00    -0.246 OA
BRANCH  37  39
ATOM     39  C   UNL     1       9.026  -2.281   8.649  1.00  0.00     0.060 A 
ATOM     40  C   UNL     1       8.765  -1.577   9.832  1.00  0.00     0.016 A 
ATOM     41  C   UNL     1       8.806  -3.658   8.579  1.00  0.00     0.016 A 
ATOM     42  C   UNL     1       8.313  -2.258  10.962  1.00  0.00     0.010 A 
ATOM     43  C   UNL     1       8.377  -4.343   9.719  1.00  0.00     0.010 A 
ATOM     44  C   UNL     1       8.161  -3.651  10.924  1.00  0.00    -0.014 A 
BRANCH  44  45
ATOM     45  C   UNL     1       7.997  -4.402  12.193  1.00  0.00     0.031 A 
ATOM     46  C   UNL     1       9.228  -4.991  12.828  1.00  0.00     0.074 A 
ATOM     47  C   UNL     1       6.797  -4.530  12.787  1.00  0.00     0.049 A 
ATOM     48  N   UNL     1       9.344  -5.708  13.914  1.00  0.00    -0.248 NA
ATOM     49  C   UNL     1      10.500  -4.735  12.134  1.00  0.00     0.031 C 
ATOM     50  C   UNL     1       5.544  -3.964  12.293  1.00  0.00     0.029 A 
ATOM     51  N   UNL     1       6.439  -5.185  13.940  1.00  0.00    -0.354 N 
ATOM     52  C   UNL     1      10.700  -5.990  14.036  1.00  0.00     0.074 A 
ATOM     53  C   UNL     1      11.358  -5.404  12.888  1.00  0.00     0.031 C 
ATOM     54  C   UNL     1       4.552  -4.302  13.136  1.00  0.00     0.029 A 
ATOM     55  C   UNL     1       5.091  -5.139  14.207  1.00  0.00     0.049 A 
ATOM     56  H   UNL     1       7.088  -5.644  14.521  1.00  0.00     0.167 HD
ATOM     57  C   UNL     1      11.341  -6.666  15.021  1.00  0.00     0.034 A 
ATOM     58  C   UNL     1       4.376  -5.726  15.190  1.00  0.00     0.034 A 
ATOM     59  C   UNL     1      10.669  -7.261  16.149  1.00  0.00     0.049 A 
ATOM     60  C   UNL     1       5.099  -6.561  16.223  1.00  0.00     0.074 A 
ATOM     61  C   UNL     1      11.219  -7.960  17.209  1.00  0.00     0.029 A 
ATOM     62  N   UNL     1       9.295  -7.244  16.357  1.00  0.00    -0.354 N 
ATOM     63  N   UNL     1       6.385  -6.809  16.337  1.00  0.00    -0.248 NA
ATOM     64  C   UNL     1       4.274  -7.188  17.264  1.00  0.00     0.031 C 
ATOM     65  C   UNL     1      10.175  -8.433  18.011  1.00  0.00     0.029 A 
ATOM     66  C   UNL     1       8.977  -7.954  17.505  1.00  0.00     0.049 A 
ATOM     67  H   UNL     1       8.642  -6.793  15.774  1.00  0.00     0.167 HD
ATOM     68  C   UNL     1       6.521  -7.594  17.481  1.00  0.00     0.074 A 
ATOM     69  C   UNL     1       5.191  -7.761  18.029  1.00  0.00     0.031 C 
ATOM     70  C   UNL     1       7.643  -8.125  18.033  1.00  0.00     0.034 A 
BRANCH  57  71
ATOM     71  C   UNL     1      12.834  -6.842  14.881  1.00  0.00     0.023 A 
ATOM     72  C   UNL     1      13.713  -5.744  14.882  1.00  0.00     0.031 A 
ATOM     73  C   UNL     1      13.382  -8.124  14.705  1.00  0.00     0.131 A 
ATOM     74  C   UNL     1      15.081  -5.943  14.639  1.00  0.00     0.055 A 
ATOM     75  C   UNL     1      14.755  -8.323  14.548  1.00  0.00     0.041 A 
ATOM     76  F   UNL     1      12.590  -9.207  14.667  1.00  0.00    -0.206 F 
ATOM     77  C   UNL     1      15.612  -7.227  14.499  1.00  0.00     0.022 A 
BRANCH  74  78
ATOM     78  S   UNL     1      16.131  -4.491  14.356  1.00  0.00     0.124 S 
ATOM     79  O   UNL     1      15.468  -3.865  13.215  1.00  0.00    -0.237 OA
ATOM     80  O   UNL     1      16.031  -3.778  15.624  1.00  0.00    -0.237 OA
ATOM     81  O   UNL     1      17.442  -5.068  14.065  1.00  0.00    -0.744 OA
ENDBRANCH  74  78
ENDBRANCH  57  71
BRANCH  58  82
ATOM     82  C   UNL     1       2.889  -5.592  15.233  1.00  0.00     0.023 A 
ATOM     83  C   UNL     1       2.242  -4.987  16.322  1.00  0.00     0.031 A 
ATOM     84  C   UNL     1       2.088  -6.135  14.212  1.00  0.00     0.131 A 
ATOM     85  C   UNL     1       0.840  -4.984  16.391  1.00  0.00     0.055 A 
ATOM     86  C   UNL     1       0.694  -6.078  14.256  1.00  0.00     0.041 A 
ATOM     87  F   UNL     1       2.652  -6.732  13.150  1.00  0.00    -0.206 F 
ATOM     88  C   UNL     1       0.061  -5.512  15.358  1.00  0.00     0.022 A 
BRANCH  85  89
ATOM     89  S   UNL     1       0.043  -4.365  17.899  1.00  0.00     0.124 S 
ATOM     90  O   UNL     1       0.616  -5.238  18.916  1.00  0.00    -0.237 OA
ATOM     91  O   UNL     1       0.484  -2.974  17.924  1.00  0.00    -0.237 OA
ATOM     92  O   UNL     1      -1.381  -4.560  17.636  1.00  0.00    -0.744 OA
ENDBRANCH  85  89
ENDBRANCH  58  82
BRANCH  70  93
ATOM     93  C   UNL     1       7.480  -8.900  19.321  1.00  0.00     0.023 A 
ATOM     94  C   UNL     1       6.760 -10.106  19.376  1.00  0.00     0.031 A 
ATOM     95  C   UNL     1       8.047  -8.416  20.514  1.00  0.00     0.131 A 
ATOM     96  C   UNL     1       6.573 -10.754  20.607  1.00  0.00     0.055 A 
ATOM     97  C   UNL     1       7.916  -9.102  21.723  1.00  0.00     0.041 A 
ATOM     98  F   UNL     1       8.743  -7.268  20.525  1.00  0.00    -0.206 F 
ATOM     99  C   UNL     1       7.163 -10.270  21.777  1.00  0.00     0.022 A 
BRANCH  96 100
ATOM    100  S   UNL     1       5.457 -12.182  20.678  1.00  0.00     0.124 S 
ATOM    101  O   UNL     1       4.210 -11.618  20.171  1.00  0.00    -0.237 OA
ATOM    102  O   UNL     1       6.123 -13.143  19.805  1.00  0.00    -0.237 OA
ATOM    103  O   UNL     1       5.445 -12.539  22.096  1.00  0.00    -0.744 OA
ENDBRANCH  96 100
ENDBRANCH  70  93
ENDBRANCH  44  45
ENDBRANCH  37  39
ENDBRANCH  36  37
ENDBRANCH  35  36
ENDBRANCH  34  35
ENDBRANCH  33  34
ENDBRANCH  32  33
ENDBRANCH   1  32
TORSDOF 27
