REMARK SMILES COc1ccc2[nH]c(C(=O)c3cc(C)ccn3)c(CC(=O)OCCOCCOCCOCCOC(=O)c3ccc(-c4c5nc(c(-c6cc(S(=O)(=O)[O-])ccc6F)c6ccc([nH]6)c(-c6cc(S(=O)(=O)[O-])ccc6F)c6nc(c(-c7cc(S(=O)(=O)[O-])ccc7F)c7ccc4[nH]7)C=C6)C=C5)cc3)c2c1
REMARK SMILES IDX 28 1 27 2 26 3 25 4 24 5 23 6 22 7 20 8 21 9 19 10 18 11
REMARK SMILES IDX 3 12 4 13 101 14 5 15 100 16 6 17 7 18 8 19 2 21 1 22 9 23
REMARK SMILES IDX 10 24 11 25 12 26 17 27 13 28 16 29 14 30 15 31 29 32 30 33
REMARK SMILES IDX 31 34 32 35 33 36 34 37 35 38 36 39 37 40 38 41 99 42 39 43
REMARK SMILES IDX 98 44 40 45 41 46 42 47 92 48 43 49 97 50 91 51 93 52 44 53
REMARK SMILES IDX 96 54 90 55 89 56 45 58 77 59 57 60 76 61 58 62 61 63 75 64
REMARK SMILES IDX 94 65 59 66 60 67 74 69 95 70 62 71 46 72 47 73 55 74 48 75
REMARK SMILES IDX 54 76 56 77 53 78 49 79 50 80 51 81 52 82 78 83 79 84 87 85
REMARK SMILES IDX 80 86 86 87 88 88 85 89 81 90 82 91 83 92 84 93 63 94 64 95
REMARK SMILES IDX 72 96 65 97 71 98 73 99 70 100 66 101 67 102 68 103 69 104
REMARK H PARENT 7 20 93 57 61 68
REMARK Flexibility Score: inf
ROOT
ATOM      1  O   UNL     1      -0.502   7.050  -4.712  1.00  0.00    -0.377 OA
ENDROOT
BRANCH   1   2
ATOM      2  C   UNL     1      -1.124   6.021  -5.451  1.00  0.00     0.188 C 
BRANCH   2   3
ATOM      3  C   UNL     1      -2.364   6.105  -6.369  1.00  0.00     0.188 C 
BRANCH   3   4
ATOM      4  O   UNL     1      -3.558   6.722  -5.940  1.00  0.00    -0.376 OA
BRANCH   4   5
ATOM      5  C   UNL     1      -4.219   6.367  -4.746  1.00  0.00     0.202 C 
BRANCH   5   6
ATOM      6  C   UNL     1      -4.064   5.013  -4.025  1.00  0.00     0.261 C 
BRANCH   6   7
ATOM      7  O   UNL     1      -2.942   4.185  -4.389  1.00  0.00    -0.463 OA
BRANCH   7   8
ATOM      8  C   UNL     1      -3.179   3.091  -5.148  1.00  0.00     0.310 C 
ATOM      9  O   UNL     1      -4.318   2.716  -5.427  1.00  0.00    -0.252 OA
BRANCH   8  10
ATOM     10  C   UNL     1      -1.960   2.345  -5.698  1.00  0.00     0.161 C 
BRANCH  10  11
ATOM     11  C   UNL     1      -0.523   2.735  -5.368  1.00  0.00     0.000 A 
ATOM     12  C   UNL     1       0.835   1.157  -2.136  1.00  0.00     0.119 A 
ATOM     13  C   UNL     1       2.103   1.729  -2.212  1.00  0.00     0.048 A 
ATOM     14  C   UNL     1      -0.137   1.468  -3.099  1.00  0.00     0.057 A 
ATOM     15  C   UNL     1       2.436   2.602  -3.255  1.00  0.00     0.030 A 
ATOM     16  C   UNL     1       0.183   2.309  -4.185  1.00  0.00     0.008 A 
ATOM     17  C   UNL     1       1.465   2.843  -4.234  1.00  0.00     0.046 A 
ATOM     18  N   UNL     1       1.536   3.592  -5.379  1.00  0.00    -0.352 N 
ATOM     19  C   UNL     1       0.447   3.351  -6.194  1.00  0.00     0.093 A 
ATOM     20  H   UNL     1       2.265   4.219  -5.592  1.00  0.00     0.167 HD
BRANCH  12  21
ATOM     21  O   UNL     1       0.434   0.227  -1.214  1.00  0.00    -0.497 OA
ATOM     22  C   UNL     1       1.178   0.157  -0.005  1.00  0.00     0.278 C 
ENDBRANCH  12  21
BRANCH  19  23
ATOM     23  C   UNL     1       0.352   3.770  -7.604  1.00  0.00     0.227 C 
ATOM     24  O   UNL     1      -0.617   3.474  -8.302  1.00  0.00    -0.285 OA
BRANCH  23  25
ATOM     25  C   UNL     1       1.414   4.644  -8.239  1.00  0.00     0.113 A 
ATOM     26  C   UNL     1       2.775   4.338  -8.222  1.00  0.00     0.036 A 
ATOM     27  N   UNL     1       0.931   5.757  -8.854  1.00  0.00    -0.253 NA
ATOM     28  C   UNL     1       3.679   5.232  -8.825  1.00  0.00    -0.047 A 
ATOM     29  C   UNL     1       1.819   6.596  -9.430  1.00  0.00     0.112 A 
ATOM     30  C   UNL     1       5.159   4.985  -8.851  1.00  0.00     0.044 C 
ATOM     31  C   UNL     1       3.185   6.398  -9.411  1.00  0.00     0.023 A 
ENDBRANCH  23  25
ENDBRANCH  19  23
ENDBRANCH  10  11
ENDBRANCH   8  10
ENDBRANCH   7   8
ENDBRANCH   6   7
ENDBRANCH   5   6
ENDBRANCH   4   5
ENDBRANCH   3   4
ENDBRANCH   2   3
ENDBRANCH   1   2
BRANCH   1  32
ATOM     32  C   UNL     1      -1.286   8.126  -4.272  1.00  0.00     0.188 C 
BRANCH  32  33
ATOM     33  C   UNL     1      -1.474   9.174  -5.366  1.00  0.00     0.188 C 
BRANCH  33  34
ATOM     34  O   UNL     1      -1.265   8.656  -6.669  1.00  0.00    -0.376 OA
BRANCH  34  35
ATOM     35  C   UNL     1       0.026   8.793  -7.254  1.00  0.00     0.202 C 
BRANCH  35  36
ATOM     36  C   UNL     1       1.295   8.233  -6.572  1.00  0.00     0.261 C 
BRANCH  36  37
ATOM     37  O   UNL     1       1.568   8.682  -5.244  1.00  0.00    -0.460 OA
BRANCH  37  38
ATOM     38  C   UNL     1       1.796   9.995  -5.080  1.00  0.00     0.338 C 
ATOM     39  O   UNL     1       1.896  10.844  -5.949  1.00  0.00    -0.246 OA
BRANCH  38  40
ATOM     40  C   UNL     1       1.665  10.239  -3.637  1.00  0.00     0.060 A 
ATOM     41  C   UNL     1       0.625  11.069  -3.209  1.00  0.00     0.016 A 
ATOM     42  C   UNL     1       2.499   9.589  -2.719  1.00  0.00     0.016 A 
ATOM     43  C   UNL     1       0.413  11.259  -1.854  1.00  0.00     0.010 A 
ATOM     44  C   UNL     1       2.317   9.819  -1.357  1.00  0.00     0.010 A 
ATOM     45  C   UNL     1       1.291  10.679  -0.931  1.00  0.00    -0.014 A 
BRANCH  45  46
ATOM     46  C   UNL     1       1.278  11.218   0.441  1.00  0.00     0.031 A 
ATOM     47  C   UNL     1       2.206  12.362   0.732  1.00  0.00     0.074 A 
ATOM     48  C   UNL     1       0.387  10.774   1.342  1.00  0.00     0.049 A 
ATOM     49  N   UNL     1       2.352  13.055   1.827  1.00  0.00    -0.248 NA
ATOM     50  C   UNL     1       3.086  12.785  -0.372  1.00  0.00     0.031 C 
ATOM     51  C   UNL     1      -0.592   9.713   1.107  1.00  0.00     0.029 A 
ATOM     52  N   UNL     1       0.152  11.172   2.630  1.00  0.00    -0.354 N 
ATOM     53  C   UNL     1       3.338  13.995   1.544  1.00  0.00     0.074 A 
ATOM     54  C   UNL     1       3.781  13.759   0.190  1.00  0.00     0.031 C 
ATOM     55  C   UNL     1      -1.325   9.544   2.221  1.00  0.00     0.029 A 
ATOM     56  C   UNL     1      -0.841  10.456   3.254  1.00  0.00     0.049 A 
ATOM     57  H   UNL     1       0.647  11.902   3.067  1.00  0.00     0.167 HD
ATOM     58  C   UNL     1       3.819  14.970   2.350  1.00  0.00     0.034 A 
ATOM     59  C   UNL     1      -1.282  10.525   4.526  1.00  0.00     0.034 A 
ATOM     60  C   UNL     1       3.361  15.161   3.702  1.00  0.00     0.049 A 
ATOM     61  C   UNL     1      -0.662  11.561   5.434  1.00  0.00     0.074 A 
ATOM     62  C   UNL     1       3.767  16.105   4.624  1.00  0.00     0.029 A 
ATOM     63  N   UNL     1       2.401  14.373   4.329  1.00  0.00    -0.354 N 
ATOM     64  N   UNL     1       0.267  12.452   5.161  1.00  0.00    -0.248 NA
ATOM     65  C   UNL     1      -1.156  11.612   6.815  1.00  0.00     0.031 C 
ATOM     66  C   UNL     1       3.119  15.835   5.833  1.00  0.00     0.029 A 
ATOM     67  C   UNL     1       2.233  14.784   5.641  1.00  0.00     0.049 A 
ATOM     68  H   UNL     1       1.912  13.633   3.903  1.00  0.00     0.167 HD
ATOM     69  C   UNL     1       0.447  13.186   6.330  1.00  0.00     0.074 A 
ATOM     70  C   UNL     1      -0.486  12.647   7.299  1.00  0.00     0.031 C 
ATOM     71  C   UNL     1       1.301  14.213   6.585  1.00  0.00     0.034 A 
BRANCH  58  72
ATOM     72  C   UNL     1       4.934  15.831   1.810  1.00  0.00     0.023 A 
ATOM     73  C   UNL     1       4.761  16.670   0.694  1.00  0.00     0.031 A 
ATOM     74  C   UNL     1       6.210  15.776   2.399  1.00  0.00     0.131 A 
ATOM     75  C   UNL     1       5.859  17.365   0.164  1.00  0.00     0.055 A 
ATOM     76  C   UNL     1       7.278  16.534   1.917  1.00  0.00     0.041 A 
ATOM     77  F   UNL     1       6.446  14.965   3.442  1.00  0.00    -0.206 F 
ATOM     78  C   UNL     1       7.110  17.325   0.785  1.00  0.00     0.022 A 
BRANCH  75  79
ATOM     79  S   UNL     1       5.670  18.204  -1.434  1.00  0.00     0.124 S 
ATOM     80  O   UNL     1       5.288  17.095  -2.305  1.00  0.00    -0.237 OA
ATOM     81  O   UNL     1       4.629  19.186  -1.154  1.00  0.00    -0.237 OA
ATOM     82  O   UNL     1       6.999  18.757  -1.690  1.00  0.00    -0.744 OA
ENDBRANCH  75  79
ENDBRANCH  58  72
BRANCH  59  83
ATOM     83  C   UNL     1      -2.313   9.569   5.027  1.00  0.00     0.023 A 
ATOM     84  C   UNL     1      -3.546  10.015   5.528  1.00  0.00     0.031 A 
ATOM     85  C   UNL     1      -2.052   8.186   5.062  1.00  0.00     0.131 A 
ATOM     86  C   UNL     1      -4.448   9.095   6.087  1.00  0.00     0.055 A 
ATOM     87  C   UNL     1      -2.979   7.269   5.561  1.00  0.00     0.041 A 
ATOM     88  F   UNL     1      -0.887   7.702   4.603  1.00  0.00    -0.206 F 
ATOM     89  C   UNL     1      -4.181   7.725   6.092  1.00  0.00     0.022 A 
BRANCH  86  90
ATOM     90  S   UNL     1      -5.937   9.729   6.908  1.00  0.00     0.124 S 
ATOM     91  O   UNL     1      -5.366  10.632   7.901  1.00  0.00    -0.237 OA
ATOM     92  O   UNL     1      -6.648  10.358   5.801  1.00  0.00    -0.237 OA
ATOM     93  O   UNL     1      -6.566   8.525   7.447  1.00  0.00    -0.744 OA
ENDBRANCH  86  90
ENDBRANCH  59  83
BRANCH  71  94
ATOM     94  C   UNL     1       1.227  14.835   7.958  1.00  0.00     0.023 A 
ATOM     95  C   UNL     1       1.570  14.114   9.114  1.00  0.00     0.031 A 
ATOM     96  C   UNL     1       0.801  16.167   8.108  1.00  0.00     0.131 A 
ATOM     97  C   UNL     1       1.415  14.707  10.375  1.00  0.00     0.055 A 
ATOM     98  C   UNL     1       0.725  16.776   9.360  1.00  0.00     0.041 A 
ATOM     99  F   UNL     1       0.459  16.901   7.037  1.00  0.00    -0.206 F 
ATOM    100  C   UNL     1       1.017  16.040  10.504  1.00  0.00     0.022 A 
BRANCH  97 101
ATOM    101  S   UNL     1       1.629  13.674  11.849  1.00  0.00     0.124 S 
ATOM    102  O   UNL     1       0.644  12.620  11.623  1.00  0.00    -0.237 OA
ATOM    103  O   UNL     1       3.027  13.271  11.749  1.00  0.00    -0.237 OA
ATOM    104  O   UNL     1       1.322  14.583  12.951  1.00  0.00    -0.744 OA
ENDBRANCH  97 101
ENDBRANCH  71  94
ENDBRANCH  45  46
ENDBRANCH  38  40
ENDBRANCH  37  38
ENDBRANCH  36  37
ENDBRANCH  35  36
ENDBRANCH  34  35
ENDBRANCH  33  34
ENDBRANCH  32  33
ENDBRANCH   1  32
TORSDOF 27
