REMARK SMILES COc1ccc(-c2nc3ccc(C)cc3[nH]2)c(C(=O)OCCOCCOCCOCCOC(=O)c2ccc(-c3c4nc(c(-c5cc(S(=O)(=O)[O-])ccc5F)c5ccc([nH]5)c(-c5cc(S(=O)(=O)[O-])ccc5F)c5nc(c(-c6cc(S(=O)(=O)[O-])ccc6F)c6ccc3[nH]6)C=C5)C=C4)cc2)c1OC
REMARK SMILES IDX 27 1 26 2 25 3 24 4 23 5 22 6 21 7 20 8 18 9 19 10 17 11
REMARK SMILES IDX 3 12 4 13 98 14 5 15 6 16 2 17 1 18 99 19 100 20 7 21 8 22
REMARK SMILES IDX 16 23 9 24 15 25 10 27 14 28 11 29 12 30 13 31 28 32 29 33
REMARK SMILES IDX 30 34 31 35 32 36 33 37 34 38 35 39 36 40 97 41 37 42 96 43
REMARK SMILES IDX 38 44 39 45 40 46 90 47 41 48 95 49 89 50 91 51 42 52 94 53
REMARK SMILES IDX 88 54 87 55 43 57 75 58 55 59 74 60 56 61 59 62 73 63 92 64
REMARK SMILES IDX 57 65 58 66 72 68 93 69 60 70 44 71 45 72 53 73 46 74 52 75
REMARK SMILES IDX 54 76 51 77 47 78 48 79 49 80 50 81 76 82 77 83 85 84 78 85
REMARK SMILES IDX 84 86 86 87 83 88 79 89 80 90 81 91 82 92 61 93 62 94 70 95
REMARK SMILES IDX 63 96 69 97 71 98 68 99 64 100 65 101 66 102 67 103
REMARK H PARENT 16 26 91 56 59 67
REMARK Flexibility Score: inf
ROOT
ATOM      1  C   UNL     1       6.928   3.458  -1.837  1.00  0.00     0.188 C 
ENDROOT
BRANCH   1   2
ATOM      2  O   UNL     1       5.529   3.608  -2.036  1.00  0.00    -0.377 OA
BRANCH   2   3
ATOM      3  C   UNL     1       4.798   3.997  -0.882  1.00  0.00     0.188 C 
BRANCH   3   4
ATOM      4  C   UNL     1       5.428   4.974   0.118  1.00  0.00     0.188 C 
BRANCH   4   5
ATOM      5  O   UNL     1       6.635   4.507   0.730  1.00  0.00    -0.376 OA
BRANCH   5   6
ATOM      6  C   UNL     1       6.559   4.420   2.154  1.00  0.00     0.202 C 
BRANCH   6   7
ATOM      7  C   UNL     1       5.894   3.114   2.596  1.00  0.00     0.261 C 
BRANCH   7   8
ATOM      8  O   UNL     1       4.554   2.996   2.085  1.00  0.00    -0.460 OA
BRANCH   8   9
ATOM      9  C   UNL     1       3.550   3.606   2.755  1.00  0.00     0.342 C 
ATOM     10  O   UNL     1       3.632   4.171   3.834  1.00  0.00    -0.246 OA
BRANCH   9  11
ATOM     11  C   UNL     1       2.332   3.604   1.897  1.00  0.00     0.116 A 
ATOM     12  C   UNL     1       0.820   2.458   0.379  1.00  0.00     0.161 A 
ATOM     13  C   UNL     1       0.119   3.652   0.191  1.00  0.00     0.051 A 
ATOM     14  C   UNL     1       1.925   2.417   1.242  1.00  0.00     0.176 A 
ATOM     15  C   UNL     1       0.513   4.823   0.842  1.00  0.00     0.017 A 
ATOM     16  C   UNL     1       1.641   4.827   1.673  1.00  0.00     0.036 A 
BRANCH  12  17
ATOM     17  O   UNL     1       0.446   1.427  -0.440  1.00  0.00    -0.493 OA
ATOM     18  C   UNL     1      -0.064   0.288   0.246  1.00  0.00     0.278 C 
ENDBRANCH  12  17
BRANCH  14  19
ATOM     19  O   UNL     1       2.576   1.243   1.530  1.00  0.00    -0.492 OA
ATOM     20  C   UNL     1       3.187   0.603   0.404  1.00  0.00     0.278 C 
ENDBRANCH  14  19
BRANCH  16  21
ATOM     21  C   UNL     1       2.238   6.122   2.014  1.00  0.00     0.139 A 
ATOM     22  N   UNL     1       3.304   6.584   1.402  1.00  0.00    -0.228 NA
ATOM     23  N   UNL     1       1.814   7.039   2.951  1.00  0.00    -0.338 N 
ATOM     24  C   UNL     1       3.727   7.664   2.109  1.00  0.00     0.089 A 
ATOM     25  C   UNL     1       2.778   8.026   3.052  1.00  0.00     0.066 A 
ATOM     26  H   UNL     1       0.972   6.999   3.459  1.00  0.00     0.168 HD
ATOM     27  C   UNL     1       4.932   8.365   1.999  1.00  0.00     0.031 A 
ATOM     28  C   UNL     1       2.939   9.149   3.872  1.00  0.00     0.031 A 
ATOM     29  C   UNL     1       5.140   9.456   2.842  1.00  0.00     0.006 A 
ATOM     30  C   UNL     1       4.149   9.867   3.747  1.00  0.00    -0.049 A 
ATOM     31  C   UNL     1       4.430  11.068   4.605  1.00  0.00     0.044 C 
ENDBRANCH  16  21
ENDBRANCH   9  11
ENDBRANCH   8   9
ENDBRANCH   7   8
ENDBRANCH   6   7
ENDBRANCH   5   6
ENDBRANCH   4   5
ENDBRANCH   3   4
ENDBRANCH   2   3
ENDBRANCH   1   2
BRANCH   1  32
ATOM     32  C   UNL     1       7.681   4.788  -2.034  1.00  0.00     0.188 C 
BRANCH  32  33
ATOM     33  O   UNL     1       6.809   5.891  -2.282  1.00  0.00    -0.376 OA
BRANCH  33  34
ATOM     34  C   UNL     1       6.579   6.253  -3.638  1.00  0.00     0.202 C 
BRANCH  34  35
ATOM     35  C   UNL     1       5.942   5.221  -4.585  1.00  0.00     0.261 C 
BRANCH  35  36
ATOM     36  O   UNL     1       6.636   3.973  -4.746  1.00  0.00    -0.460 OA
BRANCH  36  37
ATOM     37  C   UNL     1       7.916   3.991  -5.175  1.00  0.00     0.338 C 
ATOM     38  O   UNL     1       8.555   4.962  -5.535  1.00  0.00    -0.246 OA
BRANCH  37  39
ATOM     39  C   UNL     1       8.476   2.645  -4.900  1.00  0.00     0.060 A 
ATOM     40  C   UNL     1       9.639   2.541  -4.125  1.00  0.00     0.016 A 
ATOM     41  C   UNL     1       7.803   1.493  -5.320  1.00  0.00     0.016 A 
ATOM     42  C   UNL     1      10.141   1.283  -3.782  1.00  0.00     0.010 A 
ATOM     43  C   UNL     1       8.324   0.235  -5.004  1.00  0.00     0.010 A 
ATOM     44  C   UNL     1       9.510   0.126  -4.258  1.00  0.00    -0.014 A 
BRANCH  44  45
ATOM     45  C   UNL     1      10.228  -1.172  -4.208  1.00  0.00     0.031 A 
ATOM     46  C   UNL     1      11.100  -1.519  -5.386  1.00  0.00     0.074 A 
ATOM     47  C   UNL     1      10.123  -2.011  -3.162  1.00  0.00     0.049 A 
ATOM     48  N   UNL     1      11.793  -2.600  -5.620  1.00  0.00    -0.248 NA
ATOM     49  C   UNL     1      11.195  -0.500  -6.445  1.00  0.00     0.031 C 
ATOM     50  C   UNL     1       9.344  -1.763  -1.950  1.00  0.00     0.029 A 
ATOM     51  N   UNL     1      10.671  -3.254  -2.960  1.00  0.00    -0.354 N 
ATOM     52  C   UNL     1      12.409  -2.392  -6.850  1.00  0.00     0.074 A 
ATOM     53  C   UNL     1      11.981  -1.096  -7.326  1.00  0.00     0.031 C 
ATOM     54  C   UNL     1       9.452  -2.830  -1.137  1.00  0.00     0.029 A 
ATOM     55  C   UNL     1      10.278  -3.850  -1.783  1.00  0.00     0.049 A 
ATOM     56  H   UNL     1      11.289  -3.679  -3.597  1.00  0.00     0.167 HD
ATOM     57  C   UNL     1      13.258  -3.206  -7.520  1.00  0.00     0.034 A 
ATOM     58  C   UNL     1      10.536  -5.085  -1.304  1.00  0.00     0.034 A 
ATOM     59  C   UNL     1      13.654  -4.507  -7.048  1.00  0.00     0.049 A 
ATOM     60  C   UNL     1      11.416  -6.014  -2.114  1.00  0.00     0.074 A 
ATOM     61  C   UNL     1      14.509  -5.417  -7.643  1.00  0.00     0.029 A 
ATOM     62  N   UNL     1      13.207  -5.091  -5.870  1.00  0.00    -0.354 N 
ATOM     63  N   UNL     1      12.007  -5.798  -3.268  1.00  0.00    -0.248 NA
ATOM     64  C   UNL     1      11.668  -7.349  -1.554  1.00  0.00     0.031 C 
ATOM     65  C   UNL     1      14.525  -6.576  -6.862  1.00  0.00     0.029 A 
ATOM     66  C   UNL     1      13.743  -6.361  -5.737  1.00  0.00     0.049 A 
ATOM     67  H   UNL     1      12.598  -4.665  -5.223  1.00  0.00     0.167 HD
ATOM     68  C   UNL     1      12.728  -6.957  -3.550  1.00  0.00     0.074 A 
ATOM     69  C   UNL     1      12.508  -7.862  -2.442  1.00  0.00     0.031 C 
ATOM     70  C   UNL     1      13.508  -7.248  -4.623  1.00  0.00     0.034 A 
BRANCH  57  71
ATOM     71  C   UNL     1      13.756  -2.729  -8.860  1.00  0.00     0.023 A 
ATOM     72  C   UNL     1      14.597  -1.608  -8.981  1.00  0.00     0.031 A 
ATOM     73  C   UNL     1      13.358  -3.387 -10.036  1.00  0.00     0.131 A 
ATOM     74  C   UNL     1      14.964  -1.145 -10.253  1.00  0.00     0.055 A 
ATOM     75  C   UNL     1      13.785  -2.964 -11.296  1.00  0.00     0.041 A 
ATOM     76  F   UNL     1      12.533  -4.444  -9.981  1.00  0.00    -0.206 F 
ATOM     77  C   UNL     1      14.584  -1.830 -11.410  1.00  0.00     0.022 A 
BRANCH  74  78
ATOM     78  S   UNL     1      15.848   0.434 -10.383  1.00  0.00     0.124 S 
ATOM     79  O   UNL     1      14.885   1.360  -9.792  1.00  0.00    -0.237 OA
ATOM     80  O   UNL     1      17.056   0.185  -9.605  1.00  0.00    -0.237 OA
ATOM     81  O   UNL     1      16.054   0.594 -11.821  1.00  0.00    -0.744 OA
ENDBRANCH  74  78
ENDBRANCH  57  71
BRANCH  58  82
ATOM     82  C   UNL     1       9.926  -5.556  -0.024  1.00  0.00     0.023 A 
ATOM     83  C   UNL     1      10.721  -5.928   1.073  1.00  0.00     0.031 A 
ATOM     84  C   UNL     1       8.534  -5.725   0.089  1.00  0.00     0.131 A 
ATOM     85  C   UNL     1      10.127  -6.502   2.209  1.00  0.00     0.055 A 
ATOM     86  C   UNL     1       7.942  -6.244   1.243  1.00  0.00     0.041 A 
ATOM     87  F   UNL     1       7.724  -5.394  -0.929  1.00  0.00    -0.206 F 
ATOM     88  C   UNL     1       8.742  -6.651   2.306  1.00  0.00     0.022 A 
BRANCH  85  89
ATOM     89  S   UNL     1      11.200  -7.154   3.519  1.00  0.00     0.124 S 
ATOM     90  O   UNL     1      12.024  -8.106   2.781  1.00  0.00    -0.237 OA
ATOM     91  O   UNL     1      11.874  -5.948   3.985  1.00  0.00    -0.237 OA
ATOM     92  O   UNL     1      10.259  -7.747   4.467  1.00  0.00    -0.744 OA
ENDBRANCH  85  89
ENDBRANCH  58  82
BRANCH  70  93
ATOM     93  C   UNL     1      14.223  -8.577  -4.617  1.00  0.00     0.023 A 
ATOM     94  C   UNL     1      13.530  -9.795  -4.721  1.00  0.00     0.031 A 
ATOM     95  C   UNL     1      15.625  -8.621  -4.510  1.00  0.00     0.131 A 
ATOM     96  C   UNL     1      14.235 -11.007  -4.663  1.00  0.00     0.055 A 
ATOM     97  C   UNL     1      16.326  -9.827  -4.513  1.00  0.00     0.041 A 
ATOM     98  F   UNL     1      16.338  -7.487  -4.410  1.00  0.00    -0.206 F 
ATOM     99  C   UNL     1      15.630 -11.030  -4.577  1.00  0.00     0.022 A 
BRANCH  96 100
ATOM    100  S   UNL     1      13.298 -12.560  -4.619  1.00  0.00     0.124 S 
ATOM    101  O   UNL     1      12.474 -12.384  -3.427  1.00  0.00    -0.237 OA
ATOM    102  O   UNL     1      12.589 -12.534  -5.894  1.00  0.00    -0.237 OA
ATOM    103  O   UNL     1      14.336 -13.584  -4.509  1.00  0.00    -0.744 OA
ENDBRANCH  96 100
ENDBRANCH  70  93
ENDBRANCH  44  45
ENDBRANCH  37  39
ENDBRANCH  36  37
ENDBRANCH  35  36
ENDBRANCH  34  35
ENDBRANCH  33  34
ENDBRANCH  32  33
ENDBRANCH   1  32
TORSDOF 26
