REMARK SMILES O=C(NC1(C(=O)OCCOCCOCCOCCOC(=O)c2ccc(-c3c4nc(c(-c5cc(S(=O)(=O)[O-])ccc5F)c5ccc([nH]5)c(-c5cc(S(=O)(=O)[O-])ccc5F)c5nc(c(-c6cc(S(=O)(=O)[O-])ccc6F)c6ccc3[nH]6)C=C5)C=C4)cc2)Cc2ccccc2C1)OCC1c2ccccc2-c2ccccc21
REMARK SMILES IDX 12 1 11 2 10 3 9 4 8 5 7 6 5 7 6 8 4 9 85 10 92 11 86 12
REMARK SMILES IDX 91 13 87 14 90 15 88 16 89 17 3 18 1 19 2 20 93 22 94 23
REMARK SMILES IDX 95 24 96 25 107 26 97 27 101 28 102 29 106 30 98 31 100 32
REMARK SMILES IDX 103 33 105 34 99 35 104 36 13 37 14 38 15 39 16 40 17 41
REMARK SMILES IDX 18 42 19 43 20 44 21 45 22 46 23 47 84 48 24 49 83 50 25 51
REMARK SMILES IDX 26 52 27 53 77 54 28 55 82 56 76 57 78 58 29 59 81 60 75 61
REMARK SMILES IDX 74 62 30 64 62 65 42 66 61 67 43 68 46 69 60 70 79 71 44 72
REMARK SMILES IDX 45 73 59 75 80 76 47 77 31 78 32 79 40 80 33 81 39 82 41 83
REMARK SMILES IDX 38 84 34 85 35 86 36 87 37 88 63 89 64 90 72 91 65 92 71 93
REMARK SMILES IDX 73 94 70 95 66 96 67 97 68 98 69 99 48 100 49 101 57 102
REMARK SMILES IDX 50 103 56 104 58 105 55 106 51 107 52 108 53 109 54 110
REMARK H PARENT 3 21 78 63 46 74
REMARK Flexibility Score: inf
ROOT
ATOM      1  C   UNL     1       4.067  -2.001   4.127  1.00  0.00     0.188 C 
ENDROOT
BRANCH   1   2
ATOM      2  C   UNL     1       3.693  -3.311   3.431  1.00  0.00     0.188 C 
BRANCH   2   3
ATOM      3  O   UNL     1       4.638  -4.359   3.355  1.00  0.00    -0.376 OA
BRANCH   3   4
ATOM      4  C   UNL     1       5.854  -4.218   2.626  1.00  0.00     0.202 C 
BRANCH   4   5
ATOM      5  C   UNL     1       6.001  -3.288   1.412  1.00  0.00     0.261 C 
BRANCH   5   6
ATOM      6  O   UNL     1       5.913  -1.876   1.703  1.00  0.00    -0.461 OA
BRANCH   6   7
ATOM      7  C   UNL     1       4.823  -1.245   1.210  1.00  0.00     0.332 C 
ATOM      8  O   UNL     1       3.982  -1.835   0.525  1.00  0.00    -0.249 OA
BRANCH   7   9
ATOM      9  C   UNL     1       4.751   0.302   1.425  1.00  0.00     0.149 C 
ATOM     10  C   UNL     1       5.859   0.828   0.481  1.00  0.00     0.076 C 
ATOM     11  C   UNL     1       5.029   1.054   2.754  1.00  0.00     0.076 C 
ATOM     12  C   UNL     1       6.975   1.169   1.415  1.00  0.00    -0.042 A 
ATOM     13  C   UNL     1       6.470   1.435   2.680  1.00  0.00    -0.042 A 
ATOM     14  C   UNL     1       8.305   1.378   1.109  1.00  0.00     0.004 A 
ATOM     15  C   UNL     1       7.254   2.061   3.632  1.00  0.00     0.004 A 
ATOM     16  C   UNL     1       9.121   1.959   2.076  1.00  0.00     0.000 A 
ATOM     17  C   UNL     1       8.588   2.333   3.318  1.00  0.00     0.000 A 
BRANCH   9  18
ATOM     18  N   UNL     1       3.298   0.542   1.125  1.00  0.00    -0.305 N 
ATOM     19  O   UNL     1       1.633   0.472  -0.425  1.00  0.00    -0.225 OA
ATOM     20  C   UNL     1       2.766   0.807  -0.088  1.00  0.00     0.408 C 
ATOM     21  H   UNL     1       2.675   0.502   1.885  1.00  0.00     0.168 HD
BRANCH  20  22
ATOM     22  O   UNL     1       3.604   1.528  -0.828  1.00  0.00    -0.449 OA
BRANCH  22  23
ATOM     23  C   UNL     1       3.911   1.033  -2.127  1.00  0.00     0.248 C 
BRANCH  23  24
ATOM     24  C   UNL     1       4.978   1.938  -2.779  1.00  0.00     0.088 C 
ATOM     25  C   UNL     1       6.429   1.438  -2.756  1.00  0.00    -0.029 A 
ATOM     26  C   UNL     1       5.148   3.361  -2.223  1.00  0.00    -0.029 A 
ATOM     27  C   UNL     1       6.932   0.152  -2.908  1.00  0.00     0.005 A 
ATOM     28  C   UNL     1       7.302   2.523  -2.509  1.00  0.00    -0.014 A 
ATOM     29  C   UNL     1       6.519   3.701  -2.198  1.00  0.00    -0.014 A 
ATOM     30  C   UNL     1       4.203   4.242  -1.712  1.00  0.00     0.005 A 
ATOM     31  C   UNL     1       8.315  -0.041  -2.799  1.00  0.00     0.000 A 
ATOM     32  C   UNL     1       8.676   2.337  -2.440  1.00  0.00     0.009 A 
ATOM     33  C   UNL     1       6.940   4.955  -1.780  1.00  0.00     0.009 A 
ATOM     34  C   UNL     1       4.634   5.482  -1.228  1.00  0.00     0.000 A 
ATOM     35  C   UNL     1       9.180   1.043  -2.585  1.00  0.00     0.001 A 
ATOM     36  C   UNL     1       5.986   5.851  -1.298  1.00  0.00     0.001 A 
ENDBRANCH  23  24
ENDBRANCH  22  23
ENDBRANCH  20  22
ENDBRANCH   9  18
ENDBRANCH   7   9
ENDBRANCH   6   7
ENDBRANCH   5   6
ENDBRANCH   4   5
ENDBRANCH   3   4
ENDBRANCH   2   3
ENDBRANCH   1   2
BRANCH   1  37
ATOM     37  O   UNL     1       5.439  -1.678   4.164  1.00  0.00    -0.377 OA
BRANCH  37  38
ATOM     38  C   UNL     1       6.283  -2.194   5.184  1.00  0.00     0.188 C 
BRANCH  38  39
ATOM     39  C   UNL     1       5.712  -3.205   6.185  1.00  0.00     0.188 C 
BRANCH  39  40
ATOM     40  O   UNL     1       4.441  -2.845   6.706  1.00  0.00    -0.376 OA
BRANCH  40  41
ATOM     41  C   UNL     1       4.385  -2.026   7.866  1.00  0.00     0.202 C 
BRANCH  41  42
ATOM     42  C   UNL     1       5.059  -0.644   7.806  1.00  0.00     0.261 C 
BRANCH  42  43
ATOM     43  O   UNL     1       6.497  -0.619   7.738  1.00  0.00    -0.460 OA
BRANCH  43  44
ATOM     44  C   UNL     1       7.207  -1.407   8.572  1.00  0.00     0.338 C 
ATOM     45  O   UNL     1       6.782  -2.074   9.496  1.00  0.00    -0.246 OA
BRANCH  44  46
ATOM     46  C   UNL     1       8.586  -1.487   8.051  1.00  0.00     0.060 A 
ATOM     47  C   UNL     1       9.114  -2.745   7.732  1.00  0.00     0.016 A 
ATOM     48  C   UNL     1       9.361  -0.334   7.910  1.00  0.00     0.016 A 
ATOM     49  C   UNL     1      10.440  -2.859   7.316  1.00  0.00     0.010 A 
ATOM     50  C   UNL     1      10.696  -0.452   7.515  1.00  0.00     0.010 A 
ATOM     51  C   UNL     1      11.251  -1.718   7.256  1.00  0.00    -0.014 A 
BRANCH  51  52
ATOM     52  C   UNL     1      12.722  -1.875   7.159  1.00  0.00     0.031 A 
ATOM     53  C   UNL     1      13.518  -1.866   8.436  1.00  0.00     0.074 A 
ATOM     54  C   UNL     1      13.335  -2.049   5.975  1.00  0.00     0.049 A 
ATOM     55  N   UNL     1      14.812  -1.927   8.614  1.00  0.00    -0.248 NA
ATOM     56  C   UNL     1      12.742  -1.769   9.683  1.00  0.00     0.031 C 
ATOM     57  C   UNL     1      12.663  -2.132   4.680  1.00  0.00     0.029 A 
ATOM     58  N   UNL     1      14.667  -2.181   5.674  1.00  0.00    -0.354 N 
ATOM     59  C   UNL     1      15.006  -1.873   9.990  1.00  0.00     0.074 A 
ATOM     60  C   UNL     1      13.699  -1.734  10.596  1.00  0.00     0.031 C 
ATOM     61  C   UNL     1      13.591  -2.289   3.719  1.00  0.00     0.029 A 
ATOM     62  C   UNL     1      14.921  -2.276   4.326  1.00  0.00     0.049 A 
ATOM     63  H   UNL     1      15.374  -2.206   6.359  1.00  0.00     0.167 HD
ATOM     64  C   UNL     1      16.168  -1.942  10.685  1.00  0.00     0.034 A 
ATOM     65  C   UNL     1      16.095  -2.316   3.662  1.00  0.00     0.034 A 
ATOM     66  C   UNL     1      17.463  -2.060  10.064  1.00  0.00     0.049 A 
ATOM     67  C   UNL     1      17.384  -2.286   4.451  1.00  0.00     0.074 A 
ATOM     68  C   UNL     1      18.706  -2.138  10.669  1.00  0.00     0.029 A 
ATOM     69  N   UNL     1      17.686  -2.100   8.693  1.00  0.00    -0.354 N 
ATOM     70  N   UNL     1      17.559  -2.236   5.753  1.00  0.00    -0.248 NA
ATOM     71  C   UNL     1      18.635  -2.326   3.681  1.00  0.00     0.031 C 
ATOM     72  C   UNL     1      19.681  -2.148   9.666  1.00  0.00     0.029 A 
ATOM     73  C   UNL     1      19.047  -2.165   8.433  1.00  0.00     0.049 A 
ATOM     74  H   UNL     1      16.981  -2.084   8.006  1.00  0.00     0.167 HD
ATOM     75  C   UNL     1      18.938  -2.272   5.955  1.00  0.00     0.074 A 
ATOM     76  C   UNL     1      19.545  -2.361   4.643  1.00  0.00     0.031 C 
ATOM     77  C   UNL     1      19.639  -2.243   7.118  1.00  0.00     0.034 A 
BRANCH  64  78
ATOM     78  C   UNL     1      16.081  -1.827  12.188  1.00  0.00     0.023 A 
ATOM     79  C   UNL     1      15.407  -2.784  12.967  1.00  0.00     0.031 A 
ATOM     80  C   UNL     1      16.642  -0.719  12.847  1.00  0.00     0.131 A 
ATOM     81  C   UNL     1      15.247  -2.577  14.346  1.00  0.00     0.055 A 
ATOM     82  C   UNL     1      16.552  -0.562  14.232  1.00  0.00     0.041 A 
ATOM     83  F   UNL     1      17.274   0.241  12.154  1.00  0.00    -0.206 F 
ATOM     84  C   UNL     1      15.837  -1.486  14.988  1.00  0.00     0.022 A 
BRANCH  81  85
ATOM     85  S   UNL     1      14.126  -3.671  15.262  1.00  0.00     0.124 S 
ATOM     86  O   UNL     1      12.871  -3.479  14.540  1.00  0.00    -0.237 OA
ATOM     87  O   UNL     1      14.761  -4.974  15.107  1.00  0.00    -0.237 OA
ATOM     88  O   UNL     1      14.145  -3.123  16.617  1.00  0.00    -0.744 OA
ENDBRANCH  81  85
ENDBRANCH  64  78
BRANCH  65  89
ATOM     89  C   UNL     1      16.121  -2.337   2.170  1.00  0.00     0.023 A 
ATOM     90  C   UNL     1      16.673  -3.419   1.466  1.00  0.00     0.031 A 
ATOM     91  C   UNL     1      15.646  -1.242   1.426  1.00  0.00     0.131 A 
ATOM     92  C   UNL     1      16.779  -3.362   0.067  1.00  0.00     0.055 A 
ATOM     93  C   UNL     1      15.704  -1.213   0.032  1.00  0.00     0.041 A 
ATOM     94  F   UNL     1      15.112  -0.178   2.048  1.00  0.00    -0.206 F 
ATOM     95  C   UNL     1      16.286  -2.273  -0.656  1.00  0.00     0.022 A 
BRANCH  92  96
ATOM     96  S   UNL     1      17.654  -4.698  -0.794  1.00  0.00     0.124 S 
ATOM     97  O   UNL     1      18.972  -4.638  -0.172  1.00  0.00    -0.237 OA
ATOM     98  O   UNL     1      16.837  -5.859  -0.459  1.00  0.00    -0.237 OA
ATOM     99  O   UNL     1      17.605  -4.288  -2.196  1.00  0.00    -0.744 OA
ENDBRANCH  92  96
ENDBRANCH  65  89
BRANCH  77 100
ATOM    100  C   UNL     1      21.142  -2.359   7.022  1.00  0.00     0.023 A 
ATOM    101  C   UNL     1      21.931  -1.357   6.431  1.00  0.00     0.031 A 
ATOM    102  C   UNL     1      21.795  -3.497   7.533  1.00  0.00     0.131 A 
ATOM    103  C   UNL     1      23.318  -1.536   6.316  1.00  0.00     0.055 A 
ATOM    104  C   UNL     1      23.181  -3.639   7.474  1.00  0.00     0.041 A 
ATOM    105  F   UNL     1      21.093  -4.487   8.107  1.00  0.00    -0.206 F 
ATOM    106  C   UNL     1      23.950  -2.662   6.850  1.00  0.00     0.022 A 
BRANCH 103 107
ATOM    107  S   UNL     1      24.279  -0.320   5.372  1.00  0.00     0.124 S 
ATOM    108  O   UNL     1      23.631  -0.369   4.066  1.00  0.00    -0.237 OA
ATOM    109  O   UNL     1      24.075   0.903   6.140  1.00  0.00    -0.237 OA
ATOM    110  O   UNL     1      25.640  -0.854   5.410  1.00  0.00    -0.744 OA
ENDBRANCH 103 107
ENDBRANCH  77 100
ENDBRANCH  51  52
ENDBRANCH  44  46
ENDBRANCH  43  44
ENDBRANCH  42  43
ENDBRANCH  41  42
ENDBRANCH  40  41
ENDBRANCH  39  40
ENDBRANCH  38  39
ENDBRANCH  37  38
ENDBRANCH   1  37
TORSDOF 27
