REMARK SMILES O=C(CCCC[C@@H]1CCSS1)OCCOCCOCCOCCOC(=O)c1ccc(-c2c3nc(c(-c4cc(S(=O)(=O)[O-])ccc4F)c4ccc([nH]4)c(-c4cc(S(=O)(=O)[O-])ccc4F)c4nc(c(-c5cc(S(=O)(=O)[O-])ccc5F)c5ccc2[nH]5)C=C4)C=C3)cc1
REMARK SMILES IDX 17 1 16 2 15 3 14 4 13 5 12 6 2 7 1 8 3 9 4 10 5 11 6 12
REMARK SMILES IDX 7 13 8 14 11 15 9 16 10 17 18 18 19 19 20 20 21 21 22 22
REMARK SMILES IDX 23 23 24 24 25 25 26 26 27 27 28 28 89 29 29 30 88 31 30 32
REMARK SMILES IDX 31 33 32 34 82 35 33 36 87 37 81 38 83 39 34 40 86 41 80 42
REMARK SMILES IDX 79 43 35 45 67 46 47 47 66 48 48 49 51 50 65 51 84 52 49 53
REMARK SMILES IDX 50 54 64 56 85 57 52 58 36 59 37 60 45 61 38 62 44 63 46 64
REMARK SMILES IDX 43 65 39 66 40 67 41 68 42 69 68 70 69 71 77 72 70 73 76 74
REMARK SMILES IDX 78 75 75 76 71 77 72 78 73 79 74 80 53 81 54 82 62 83 55 84
REMARK SMILES IDX 61 85 63 86 60 87 56 88 57 89 58 90 59 91
REMARK H PARENT 83 44 51 55
REMARK Flexibility Score: inf
ROOT
ATOM      1  C   UNL     1       2.130  -1.913   2.115  1.00  0.00     0.188 C 
ENDROOT
BRANCH   1   2
ATOM      2  C   UNL     1       2.435  -1.421   0.705  1.00  0.00     0.188 C 
BRANCH   2   3
ATOM      3  O   UNL     1       3.579  -0.582   0.582  1.00  0.00    -0.376 OA
BRANCH   3   4
ATOM      4  C   UNL     1       3.703   0.510   1.478  1.00  0.00     0.202 C 
BRANCH   4   5
ATOM      5  C   UNL     1       3.544   1.829   0.753  1.00  0.00     0.261 C 
BRANCH   5   6
ATOM      6  O   UNL     1       2.325   1.919  -0.002  1.00  0.00    -0.463 OA
BRANCH   6   7
ATOM      7  C   UNL     1       2.038   1.424  -1.220  1.00  0.00     0.305 C 
ATOM      8  O   UNL     1       0.890   1.580  -1.647  1.00  0.00    -0.252 OA
BRANCH   7   9
ATOM      9  C   UNL     1       3.022   0.616  -2.051  1.00  0.00     0.123 C 
BRANCH   9  10
ATOM     10  C   UNL     1       4.128   1.318  -2.835  1.00  0.00     0.012 C 
BRANCH  10  11
ATOM     11  C   UNL     1       5.489   1.548  -2.160  1.00  0.00     0.002 C 
BRANCH  11  12
ATOM     12  C   UNL     1       6.092   0.353  -1.405  1.00  0.00     0.015 C 
BRANCH  12  13
ATOM     13  C   UNL     1       6.842  -0.659  -2.277  1.00  0.00     0.059 C 
ATOM     14  C   UNL     1       6.879  -2.045  -1.610  1.00  0.00     0.027 C 
ATOM     15  S   UNL     1       8.574  -0.132  -2.529  1.00  0.00    -0.091 SA
ATOM     16  C   UNL     1       7.945  -2.923  -2.248  1.00  0.00     0.083 C 
ATOM     17  S   UNL     1       9.464  -1.949  -2.203  1.00  0.00    -0.094 SA
ENDBRANCH  12  13
ENDBRANCH  11  12
ENDBRANCH  10  11
ENDBRANCH   9  10
ENDBRANCH   7   9
ENDBRANCH   6   7
ENDBRANCH   5   6
ENDBRANCH   4   5
ENDBRANCH   3   4
ENDBRANCH   2   3
ENDBRANCH   1   2
BRANCH   1  18
ATOM     18  O   UNL     1       3.112  -2.685   2.792  1.00  0.00    -0.377 OA
BRANCH  18  19
ATOM     19  C   UNL     1       4.484  -2.582   2.462  1.00  0.00     0.188 C 
BRANCH  19  20
ATOM     20  C   UNL     1       5.093  -3.839   1.825  1.00  0.00     0.188 C 
BRANCH  20  21
ATOM     21  O   UNL     1       4.296  -4.574   0.909  1.00  0.00    -0.376 OA
BRANCH  21  22
ATOM     22  C   UNL     1       3.073  -5.137   1.383  1.00  0.00     0.202 C 
BRANCH  22  23
ATOM     23  C   UNL     1       2.993  -5.849   2.753  1.00  0.00     0.261 C 
BRANCH  23  24
ATOM     24  O   UNL     1       3.282  -5.026   3.902  1.00  0.00    -0.460 OA
BRANCH  24  25
ATOM     25  C   UNL     1       4.404  -5.345   4.596  1.00  0.00     0.338 C 
ATOM     26  O   UNL     1       5.126  -6.303   4.390  1.00  0.00    -0.246 OA
BRANCH  25  27
ATOM     27  C   UNL     1       4.793  -4.247   5.517  1.00  0.00     0.060 A 
ATOM     28  C   UNL     1       6.089  -3.721   5.389  1.00  0.00     0.016 A 
ATOM     29  C   UNL     1       3.960  -3.803   6.545  1.00  0.00     0.016 A 
ATOM     30  C   UNL     1       6.574  -2.790   6.309  1.00  0.00     0.010 A 
ATOM     31  C   UNL     1       4.462  -2.897   7.494  1.00  0.00     0.010 A 
ATOM     32  C   UNL     1       5.787  -2.426   7.408  1.00  0.00    -0.014 A 
BRANCH  32  33
ATOM     33  C   UNL     1       6.461  -1.821   8.591  1.00  0.00     0.031 A 
ATOM     34  C   UNL     1       6.937  -2.757   9.675  1.00  0.00     0.074 A 
ATOM     35  C   UNL     1       6.719  -0.503   8.682  1.00  0.00     0.049 A 
ATOM     36  N   UNL     1       7.556  -2.494  10.797  1.00  0.00    -0.248 NA
ATOM     37  C   UNL     1       6.671  -4.188   9.457  1.00  0.00     0.031 C 
ATOM     38  C   UNL     1       6.379   0.497   7.673  1.00  0.00     0.029 A 
ATOM     39  N   UNL     1       7.337   0.218   9.675  1.00  0.00    -0.354 N 
ATOM     40  C   UNL     1       7.745  -3.725  11.421  1.00  0.00     0.074 A 
ATOM     41  C   UNL     1       7.139  -4.725  10.570  1.00  0.00     0.031 C 
ATOM     42  C   UNL     1       6.794   1.704   8.100  1.00  0.00     0.029 A 
ATOM     43  C   UNL     1       7.397   1.570   9.426  1.00  0.00     0.049 A 
ATOM     44  H   UNL     1       7.704  -0.195  10.490  1.00  0.00     0.167 HD
ATOM     45  C   UNL     1       8.373  -3.999  12.591  1.00  0.00     0.034 A 
ATOM     46  C   UNL     1       7.869   2.580  10.188  1.00  0.00     0.034 A 
ATOM     47  C   UNL     1       8.962  -2.992  13.438  1.00  0.00     0.049 A 
ATOM     48  C   UNL     1       8.473   2.261  11.540  1.00  0.00     0.074 A 
ATOM     49  C   UNL     1       9.631  -3.159  14.638  1.00  0.00     0.029 A 
ATOM     50  N   UNL     1       8.937  -1.626  13.187  1.00  0.00    -0.354 N 
ATOM     51  N   UNL     1       8.653   1.094  12.116  1.00  0.00    -0.248 NA
ATOM     52  C   UNL     1       8.945   3.401  12.339  1.00  0.00     0.031 C 
ATOM     53  C   UNL     1       9.928  -1.894  15.154  1.00  0.00     0.029 A 
ATOM     54  C   UNL     1       9.540  -0.938  14.229  1.00  0.00     0.049 A 
ATOM     55  H   UNL     1       8.547  -1.207  12.385  1.00  0.00     0.167 HD
ATOM     56  C   UNL     1       9.302   1.359  13.322  1.00  0.00     0.074 A 
ATOM     57  C   UNL     1       9.489   2.794  13.383  1.00  0.00     0.031 C 
ATOM     58  C   UNL     1       9.716   0.495  14.286  1.00  0.00     0.034 A 
BRANCH  45  59
ATOM     59  C   UNL     1       8.382  -5.440  13.051  1.00  0.00     0.023 A 
ATOM     60  C   UNL     1       9.010  -6.457  12.310  1.00  0.00     0.031 A 
ATOM     61  C   UNL     1       7.705  -5.808  14.228  1.00  0.00     0.131 A 
ATOM     62  C   UNL     1       8.877  -7.796  12.708  1.00  0.00     0.055 A 
ATOM     63  C   UNL     1       7.656  -7.132  14.667  1.00  0.00     0.041 A 
ATOM     64  F   UNL     1       7.061  -4.887  14.963  1.00  0.00    -0.206 F 
ATOM     65  C   UNL     1       8.229  -8.138  13.896  1.00  0.00     0.022 A 
BRANCH  62  66
ATOM     66  S   UNL     1       9.414  -9.098  11.563  1.00  0.00     0.124 S 
ATOM     67  O   UNL     1       8.625  -8.788  10.374  1.00  0.00    -0.237 OA
ATOM     68  O   UNL     1      10.848  -8.856  11.461  1.00  0.00    -0.237 OA
ATOM     69  O   UNL     1       9.036 -10.333  12.248  1.00  0.00    -0.744 OA
ENDBRANCH  62  66
ENDBRANCH  45  59
BRANCH  46  70
ATOM     70  C   UNL     1       7.776   3.998   9.725  1.00  0.00     0.023 A 
ATOM     71  C   UNL     1       8.929   4.779   9.535  1.00  0.00     0.031 A 
ATOM     72  C   UNL     1       6.527   4.618   9.541  1.00  0.00     0.131 A 
ATOM     73  C   UNL     1       8.809   6.143   9.224  1.00  0.00     0.055 A 
ATOM     74  C   UNL     1       6.414   5.960   9.173  1.00  0.00     0.041 A 
ATOM     75  F   UNL     1       5.391   3.924   9.718  1.00  0.00    -0.206 F 
ATOM     76  C   UNL     1       7.560   6.735   9.027  1.00  0.00     0.022 A 
BRANCH  73  77
ATOM     77  S   UNL     1      10.311   7.161   9.178  1.00  0.00     0.124 S 
ATOM     78  O   UNL     1      10.829   6.984  10.529  1.00  0.00    -0.237 OA
ATOM     79  O   UNL     1      11.073   6.526   8.108  1.00  0.00    -0.237 OA
ATOM     80  O   UNL     1       9.806   8.498   8.871  1.00  0.00    -0.744 OA
ENDBRANCH  73  77
ENDBRANCH  46  70
BRANCH  58  81
ATOM     81  C   UNL     1      10.473   1.076  15.461  1.00  0.00     0.023 A 
ATOM     82  C   UNL     1       9.881   1.981  16.360  1.00  0.00     0.031 A 
ATOM     83  C   UNL     1      11.820   0.728  15.672  1.00  0.00     0.131 A 
ATOM     84  C   UNL     1      10.652   2.562  17.380  1.00  0.00     0.055 A 
ATOM     85  C   UNL     1      12.560   1.250  16.735  1.00  0.00     0.041 A 
ATOM     86  F   UNL     1      12.444  -0.128  14.847  1.00  0.00    -0.206 F 
ATOM     87  C   UNL     1      11.981   2.186  17.585  1.00  0.00     0.022 A 
BRANCH  84  88
ATOM     88  S   UNL     1       9.931   3.911  18.355  1.00  0.00     0.124 S 
ATOM     89  O   UNL     1       9.549   4.864  17.318  1.00  0.00    -0.237 OA
ATOM     90  O   UNL     1       8.831   3.244  19.045  1.00  0.00    -0.237 OA
ATOM     91  O   UNL     1      11.033   4.339  19.216  1.00  0.00    -0.744 OA
ENDBRANCH  84  88
ENDBRANCH  58  81
ENDBRANCH  32  33
ENDBRANCH  25  27
ENDBRANCH  24  25
ENDBRANCH  23  24
ENDBRANCH  22  23
ENDBRANCH  21  22
ENDBRANCH  20  21
ENDBRANCH  19  20
ENDBRANCH  18  19
ENDBRANCH   1  18
TORSDOF 27
