REMARK SMILES Cc1sc(NC(=O)[C@@H]2CC=CC[C@H]2C(=O)OCCOCCOCCOCCOC(=O)c2ccc(-c3c4nc(c(-c5cc(S(=O)(=O)[O-])ccc5F)c5ccc([nH]5)c(-c5cc(S(=O)(=O)[O-])ccc5F)c5nc(c(-c6cc(S(=O)(=O)[O-])ccc6F)c6ccc3[nH]6)C=C5)C=C4)cc2)nc1-c1ccc(C(C)C)cc1
REMARK SMILES IDX 21 1 20 2 19 3 18 4 17 5 16 6 14 7 15 8 13 9 8 10 9 11 10 12
REMARK SMILES IDX 12 13 11 14 6 15 5 16 7 18 4 19 1 20 2 21 3 22 95 23 94 24
REMARK SMILES IDX 96 25 97 26 104 27 98 28 103 29 99 30 100 31 101 32 102 33
REMARK SMILES IDX 22 34 23 35 24 36 25 37 26 38 27 39 28 40 29 41 30 42 31 43
REMARK SMILES IDX 32 44 93 45 33 46 92 47 34 48 35 49 36 50 86 51 37 52 91 53
REMARK SMILES IDX 85 54 87 55 38 56 90 57 84 58 83 59 39 61 71 62 51 63 70 64
REMARK SMILES IDX 52 65 55 66 69 67 88 68 53 69 54 70 68 72 89 73 56 74 40 75
REMARK SMILES IDX 41 76 49 77 42 78 48 79 50 80 47 81 43 82 44 83 45 84 46 85
REMARK SMILES IDX 72 86 73 87 81 88 74 89 80 90 82 91 79 92 75 93 76 94 77 95
REMARK SMILES IDX 78 96 57 97 58 98 66 99 59 100 65 101 67 102 64 103 60 104
REMARK SMILES IDX 61 105 62 106 63 107
REMARK H PARENT 5 17 87 60 55 71
REMARK Flexibility Score: inf
ROOT
ATOM      1  C   UNL     1      -0.346   6.679  -2.410  1.00  0.00     0.188 C 
ENDROOT
BRANCH   1   2
ATOM      2  C   UNL     1       0.120   5.730  -3.518  1.00  0.00     0.188 C 
BRANCH   2   3
ATOM      3  O   UNL     1      -0.562   5.872  -4.764  1.00  0.00    -0.376 OA
BRANCH   3   4
ATOM      4  C   UNL     1      -1.959   5.573  -4.768  1.00  0.00     0.202 C 
BRANCH   4   5
ATOM      5  C   UNL     1      -2.340   4.131  -4.420  1.00  0.00     0.261 C 
BRANCH   5   6
ATOM      6  O   UNL     1      -2.064   3.755  -3.044  1.00  0.00    -0.463 OA
BRANCH   6   7
ATOM      7  C   UNL     1      -1.399   2.588  -2.895  1.00  0.00     0.310 C 
ATOM      8  O   UNL     1      -0.999   1.927  -3.854  1.00  0.00    -0.252 OA
BRANCH   7   9
ATOM      9  C   UNL     1      -1.044   2.171  -1.466  1.00  0.00     0.116 C 
ATOM     10  C   UNL     1      -1.852   2.539  -0.201  1.00  0.00     0.097 C 
ATOM     11  C   UNL     1      -1.058   2.028   1.039  1.00  0.00     0.041 C 
ATOM     12  C   UNL     1      -0.736   0.567   0.942  1.00  0.00    -0.030 C 
ATOM     13  C   UNL     1      -1.006   0.613  -1.532  1.00  0.00     0.043 C 
ATOM     14  C   UNL     1      -0.745  -0.080  -0.229  1.00  0.00    -0.030 C 
BRANCH  10  15
ATOM     15  C   UNL     1      -2.155   4.002   0.064  1.00  0.00     0.230 C 
ATOM     16  N   UNL     1      -3.332   4.597  -0.254  1.00  0.00    -0.302 N 
ATOM     17  H   UNL     1      -3.489   5.445   0.221  1.00  0.00     0.172 HD
ATOM     18  O   UNL     1      -1.314   4.703   0.646  1.00  0.00    -0.274 OA
BRANCH  16  19
ATOM     19  C   UNL     1      -4.342   4.247  -1.105  1.00  0.00     0.190 A 
ATOM     20  C   UNL     1      -6.116   2.224  -3.844  1.00  0.00     0.059 C 
ATOM     21  C   UNL     1      -5.660   3.201  -2.822  1.00  0.00     0.031 A 
ATOM     22  S   UNL     1      -4.748   2.647  -1.490  1.00  0.00    -0.101 S 
ATOM     23  C   UNL     1      -5.787   4.577  -2.729  1.00  0.00     0.086 A 
ATOM     24  N   UNL     1      -5.058   5.166  -1.707  1.00  0.00    -0.220 NA
BRANCH  23  25
ATOM     25  C   UNL     1      -6.545   5.383  -3.663  1.00  0.00     0.001 A 
ATOM     26  C   UNL     1      -5.950   6.460  -4.323  1.00  0.00     0.011 A 
ATOM     27  C   UNL     1      -7.885   5.086  -3.912  1.00  0.00     0.011 A 
ATOM     28  C   UNL     1      -6.690   7.227  -5.228  1.00  0.00     0.004 A 
ATOM     29  C   UNL     1      -8.633   5.867  -4.788  1.00  0.00     0.004 A 
ATOM     30  C   UNL     1      -8.046   6.947  -5.457  1.00  0.00    -0.045 A 
BRANCH  30  31
ATOM     31  C   UNL     1      -8.892   7.755  -6.422  1.00  0.00     0.013 C 
ATOM     32  C   UNL     1      -8.799   9.259  -6.162  1.00  0.00     0.012 C 
ATOM     33  C   UNL     1      -8.524   7.415  -7.866  1.00  0.00     0.012 C 
ENDBRANCH  30  31
ENDBRANCH  23  25
ENDBRANCH  16  19
ENDBRANCH  10  15
ENDBRANCH   7   9
ENDBRANCH   6   7
ENDBRANCH   5   6
ENDBRANCH   4   5
ENDBRANCH   3   4
ENDBRANCH   2   3
ENDBRANCH   1   2
BRANCH   1  34
ATOM     34  O   UNL     1      -1.687   6.423  -2.017  1.00  0.00    -0.377 OA
BRANCH  34  35
ATOM     35  C   UNL     1      -2.578   7.524  -1.833  1.00  0.00     0.188 C 
BRANCH  35  36
ATOM     36  C   UNL     1      -2.017   8.943  -1.776  1.00  0.00     0.188 C 
BRANCH  36  37
ATOM     37  O   UNL     1      -0.973   9.175  -0.833  1.00  0.00    -0.376 OA
BRANCH  37  38
ATOM     38  C   UNL     1      -1.050   8.518   0.433  1.00  0.00     0.202 C 
BRANCH  38  39
ATOM     39  C   UNL     1      -2.052   9.110   1.425  1.00  0.00     0.261 C 
BRANCH  39  40
ATOM     40  O   UNL     1      -3.395   8.646   1.190  1.00  0.00    -0.460 OA
BRANCH  40  41
ATOM     41  C   UNL     1      -4.232   9.551   0.629  1.00  0.00     0.338 C 
ATOM     42  O   UNL     1      -3.951  10.676   0.255  1.00  0.00    -0.246 OA
BRANCH  41  43
ATOM     43  C   UNL     1      -5.568   8.957   0.438  1.00  0.00     0.060 A 
ATOM     44  C   UNL     1      -6.190   9.098  -0.808  1.00  0.00     0.016 A 
ATOM     45  C   UNL     1      -6.255   8.396   1.518  1.00  0.00     0.016 A 
ATOM     46  C   UNL     1      -7.531   8.741  -0.958  1.00  0.00     0.010 A 
ATOM     47  C   UNL     1      -7.599   8.047   1.367  1.00  0.00     0.010 A 
ATOM     48  C   UNL     1      -8.256   8.263   0.143  1.00  0.00    -0.014 A 
BRANCH  48  49
ATOM     49  C   UNL     1      -9.733   8.147   0.064  1.00  0.00     0.031 A 
ATOM     50  C   UNL     1     -10.583   9.255   0.621  1.00  0.00     0.074 A 
ATOM     51  C   UNL     1     -10.310   7.068  -0.493  1.00  0.00     0.049 A 
ATOM     52  N   UNL     1     -11.885   9.345   0.696  1.00  0.00    -0.248 NA
ATOM     53  C   UNL     1      -9.863  10.403   1.192  1.00  0.00     0.031 C 
ATOM     54  C   UNL     1      -9.582   5.935  -1.052  1.00  0.00     0.029 A 
ATOM     55  N   UNL     1     -11.631   6.748  -0.682  1.00  0.00    -0.354 N 
ATOM     56  C   UNL     1     -12.144  10.543   1.352  1.00  0.00     0.074 A 
ATOM     57  C   UNL     1     -10.860  11.135   1.665  1.00  0.00     0.031 C 
ATOM     58  C   UNL     1     -10.467   5.056  -1.550  1.00  0.00     0.029 A 
ATOM     59  C   UNL     1     -11.821   5.544  -1.318  1.00  0.00     0.049 A 
ATOM     60  H   UNL     1     -12.372   7.326  -0.389  1.00  0.00     0.167 HD
ATOM     61  C   UNL     1     -13.343  11.092   1.668  1.00  0.00     0.034 A 
ATOM     62  C   UNL     1     -12.956   4.903  -1.664  1.00  0.00     0.034 A 
ATOM     63  C   UNL     1     -14.612  10.482   1.349  1.00  0.00     0.049 A 
ATOM     64  C   UNL     1     -14.277   5.528  -1.292  1.00  0.00     0.074 A 
ATOM     65  C   UNL     1     -15.887  10.960   1.598  1.00  0.00     0.029 A 
ATOM     66  N   UNL     1     -14.768   9.251   0.721  1.00  0.00    -0.354 N 
ATOM     67  N   UNL     1     -14.509   6.669  -0.684  1.00  0.00    -0.248 NA
ATOM     68  C   UNL     1     -15.487   4.772  -1.637  1.00  0.00     0.031 C 
ATOM     69  C   UNL     1     -16.809   9.990   1.186  1.00  0.00     0.029 A 
ATOM     70  C   UNL     1     -16.115   8.940   0.607  1.00  0.00     0.049 A 
ATOM     71  H   UNL     1     -14.030   8.683   0.403  1.00  0.00     0.167 HD
ATOM     72  C   UNL     1     -15.893   6.770  -0.584  1.00  0.00     0.074 A 
ATOM     73  C   UNL     1     -16.442   5.590  -1.220  1.00  0.00     0.031 C 
ATOM     74  C   UNL     1     -16.644   7.747  -0.012  1.00  0.00     0.034 A 
BRANCH  61  75
ATOM     75  C   UNL     1     -13.326  12.377   2.460  1.00  0.00     0.023 A 
ATOM     76  C   UNL     1     -12.784  13.566   1.942  1.00  0.00     0.031 A 
ATOM     77  C   UNL     1     -13.818  12.398   3.778  1.00  0.00     0.131 A 
ATOM     78  C   UNL     1     -12.675  14.701   2.761  1.00  0.00     0.055 A 
ATOM     79  C   UNL     1     -13.781  13.554   4.561  1.00  0.00     0.041 A 
ATOM     80  F   UNL     1     -14.326  11.288   4.336  1.00  0.00    -0.206 F 
ATOM     81  C   UNL     1     -13.191  14.710   4.059  1.00  0.00     0.022 A 
BRANCH  78  82
ATOM     82  S   UNL     1     -11.711  16.115   2.160  1.00  0.00     0.124 S 
ATOM     83  O   UNL     1     -10.408  15.502   1.915  1.00  0.00    -0.237 OA
ATOM     84  O   UNL     1     -12.458  16.525   0.977  1.00  0.00    -0.237 OA
ATOM     85  O   UNL     1     -11.748  17.056   3.278  1.00  0.00    -0.744 OA
ENDBRANCH  78  82
ENDBRANCH  61  75
BRANCH  62  86
ATOM     86  C   UNL     1     -12.907   3.595  -2.381  1.00  0.00     0.023 A 
ATOM     87  C   UNL     1     -13.449   3.459  -3.670  1.00  0.00     0.031 A 
ATOM     88  C   UNL     1     -12.356   2.451  -1.778  1.00  0.00     0.131 A 
ATOM     89  C   UNL     1     -13.462   2.203  -4.297  1.00  0.00     0.055 A 
ATOM     90  C   UNL     1     -12.321   1.216  -2.428  1.00  0.00     0.041 A 
ATOM     91  F   UNL     1     -11.824   2.521  -0.547  1.00  0.00    -0.206 F 
ATOM     92  C   UNL     1     -12.888   1.084  -3.691  1.00  0.00     0.022 A 
BRANCH  89  93
ATOM     93  S   UNL     1     -14.312   2.034  -5.891  1.00  0.00     0.124 S 
ATOM     94  O   UNL     1     -15.666   2.455  -5.552  1.00  0.00    -0.237 OA
ATOM     95  O   UNL     1     -13.548   2.946  -6.737  1.00  0.00    -0.237 OA
ATOM     96  O   UNL     1     -14.159   0.616  -6.209  1.00  0.00    -0.744 OA
ENDBRANCH  89  93
ENDBRANCH  62  86
BRANCH  74  97
ATOM     97  C   UNL     1     -18.143   7.580  -0.082  1.00  0.00     0.023 A 
ATOM     98  C   UNL     1     -18.805   6.555   0.617  1.00  0.00     0.031 A 
ATOM     99  C   UNL     1     -18.915   8.450  -0.872  1.00  0.00     0.131 A 
ATOM    100  C   UNL     1     -20.190   6.389   0.466  1.00  0.00     0.055 A 
ATOM    101  C   UNL     1     -20.300   8.317  -0.971  1.00  0.00     0.041 A 
ATOM    102  F   UNL     1     -18.333   9.444  -1.562  1.00  0.00    -0.206 F 
ATOM    103  C   UNL     1     -20.944   7.274  -0.311  1.00  0.00     0.022 A 
BRANCH 100 104
ATOM    104  S   UNL     1     -20.983   4.944   1.223  1.00  0.00     0.124 S 
ATOM    105  O   UNL     1     -20.262   3.840   0.597  1.00  0.00    -0.237 OA
ATOM    106  O   UNL     1     -20.721   5.152   2.643  1.00  0.00    -0.237 OA
ATOM    107  O   UNL     1     -22.384   5.074   0.826  1.00  0.00    -0.744 OA
ENDBRANCH 100 104
ENDBRANCH  74  97
ENDBRANCH  48  49
ENDBRANCH  41  43
ENDBRANCH  40  41
ENDBRANCH  39  40
ENDBRANCH  38  39
ENDBRANCH  37  38
ENDBRANCH  36  37
ENDBRANCH  35  36
ENDBRANCH  34  35
ENDBRANCH   1  34
TORSDOF 27
