REMARK SMILES CC[C@]1(C(=O)OCCOCCOCCOCCOC(=O)c2ccc(-c3c4nc(c(-c5cc(S(=O)(=O)[O-])ccc5F)c5ccc([nH]5)c(-c5cc(S(=O)(=O)[O-])ccc5F)c5nc(c(-c6cc(S(=O)(=O)[O-])ccc6F)c6ccc3[nH]6)C=C5)C=C4)cc2)CC[N@@H+](Cc2ccc(CC(C)C)cc2)C1
REMARK SMILES IDX 11 1 10 2 9 3 8 4 7 5 6 6 4 7 5 8 3 9 84 10 98 11 85 12
REMARK SMILES IDX 86 13 2 15 1 16 87 17 88 18 89 19 97 20 90 21 96 22 91 23
REMARK SMILES IDX 92 24 93 25 94 26 95 27 12 28 13 29 14 30 15 31 16 32 17 33
REMARK SMILES IDX 18 34 19 35 20 36 21 37 22 38 83 39 23 40 82 41 24 42 25 43
REMARK SMILES IDX 26 44 76 45 27 46 81 47 75 48 77 49 28 50 80 51 74 52 73 53
REMARK SMILES IDX 29 55 61 56 41 57 60 58 42 59 45 60 59 61 78 62 43 63 44 64
REMARK SMILES IDX 58 66 79 67 46 68 30 69 31 70 39 71 32 72 38 73 40 74 37 75
REMARK SMILES IDX 33 76 34 77 35 78 36 79 62 80 63 81 71 82 64 83 70 84 72 85
REMARK SMILES IDX 69 86 65 87 66 88 67 89 68 90 47 91 48 92 56 93 49 94 55 95
REMARK SMILES IDX 57 96 54 97 50 98 51 99 52 100 53 101
REMARK H PARENT 86 14 77 54 45 65
REMARK Flexibility Score: inf
ROOT
ATOM      1  C   UNL     1       4.271   1.130  -0.999  1.00  0.00     0.188 C 
ENDROOT
BRANCH   1   2
ATOM      2  C   UNL     1       3.733  -0.192  -0.440  1.00  0.00     0.188 C 
BRANCH   2   3
ATOM      3  O   UNL     1       3.953  -1.418  -1.133  1.00  0.00    -0.376 OA
BRANCH   3   4
ATOM      4  C   UNL     1       3.856  -1.451  -2.553  1.00  0.00     0.202 C 
BRANCH   4   5
ATOM      5  C   UNL     1       2.644  -0.824  -3.264  1.00  0.00     0.261 C 
BRANCH   5   6
ATOM      6  O   UNL     1       2.097   0.353  -2.638  1.00  0.00    -0.463 OA
BRANCH   6   7
ATOM      7  C   UNL     1       0.768   0.350  -2.384  1.00  0.00     0.318 C 
ATOM      8  O   UNL     1       0.021  -0.580  -2.678  1.00  0.00    -0.251 OA
BRANCH   7   9
ATOM      9  C   UNL     1       0.248   1.611  -1.679  1.00  0.00     0.122 C 
ATOM     10  C   UNL     1       1.163   2.845  -1.613  1.00  0.00     0.086 C 
ATOM     11  C   UNL     1      -0.882   2.142  -2.615  1.00  0.00     0.281 C 
ATOM     12  C   UNL     1       0.200   4.022  -1.707  1.00  0.00     0.263 C 
ATOM     13  N   UNL     1      -0.821   3.617  -2.673  1.00  0.00    -0.330 N 
ATOM     14  H   UNL     1      -1.723   4.021  -2.421  1.00  0.00     0.348 HD
BRANCH   9  15
ATOM     15  C   UNL     1      -0.273   1.327  -0.227  1.00  0.00     0.021 C 
ATOM     16  C   UNL     1      -0.159  -0.088   0.327  1.00  0.00     0.005 C 
ENDBRANCH   9  15
BRANCH  13  17
ATOM     17  C   UNL     1      -0.627   4.167  -4.041  1.00  0.00     0.299 C 
BRANCH  17  18
ATOM     18  C   UNL     1       0.752   3.986  -4.632  1.00  0.00     0.006 A 
ATOM     19  C   UNL     1       1.748   4.947  -4.384  1.00  0.00     0.010 A 
ATOM     20  C   UNL     1       1.093   2.780  -5.256  1.00  0.00     0.010 A 
ATOM     21  C   UNL     1       3.083   4.606  -4.517  1.00  0.00     0.004 A 
ATOM     22  C   UNL     1       2.423   2.447  -5.411  1.00  0.00     0.004 A 
ATOM     23  C   UNL     1       3.403   3.316  -4.931  1.00  0.00    -0.048 A 
BRANCH  23  24
ATOM     24  C   UNL     1       4.764   2.771  -4.703  1.00  0.00     0.038 C 
BRANCH  24  25
ATOM     25  C   UNL     1       5.660   2.759  -5.923  1.00  0.00    -0.013 C 
ATOM     26  C   UNL     1       6.099   4.194  -6.213  1.00  0.00     0.008 C 
ATOM     27  C   UNL     1       6.727   1.739  -5.544  1.00  0.00     0.008 C 
ENDBRANCH  24  25
ENDBRANCH  23  24
ENDBRANCH  17  18
ENDBRANCH  13  17
ENDBRANCH   7   9
ENDBRANCH   6   7
ENDBRANCH   5   6
ENDBRANCH   4   5
ENDBRANCH   3   4
ENDBRANCH   2   3
ENDBRANCH   1   2
BRANCH   1  28
ATOM     28  O   UNL     1       4.981   0.983  -2.200  1.00  0.00    -0.377 OA
BRANCH  28  29
ATOM     29  C   UNL     1       6.387   0.854  -2.146  1.00  0.00     0.188 C 
BRANCH  29  30
ATOM     30  C   UNL     1       7.037   0.170  -0.947  1.00  0.00     0.188 C 
BRANCH  30  31
ATOM     31  O   UNL     1       6.582   0.666   0.305  1.00  0.00    -0.376 OA
BRANCH  31  32
ATOM     32  C   UNL     1       7.349   1.690   0.922  1.00  0.00     0.202 C 
BRANCH  32  33
ATOM     33  C   UNL     1       7.296   3.107   0.315  1.00  0.00     0.261 C 
BRANCH  33  34
ATOM     34  O   UNL     1       7.764   3.314  -1.035  1.00  0.00    -0.460 OA
BRANCH  34  35
ATOM     35  C   UNL     1       9.016   2.917  -1.382  1.00  0.00     0.338 C 
ATOM     36  O   UNL     1       9.815   2.378  -0.647  1.00  0.00    -0.246 OA
BRANCH  35  37
ATOM     37  C   UNL     1       9.200   3.104  -2.859  1.00  0.00     0.060 A 
ATOM     38  C   UNL     1       9.769   2.078  -3.631  1.00  0.00     0.016 A 
ATOM     39  C   UNL     1       8.817   4.285  -3.496  1.00  0.00     0.016 A 
ATOM     40  C   UNL     1       9.936   2.219  -5.032  1.00  0.00     0.010 A 
ATOM     41  C   UNL     1       9.004   4.428  -4.887  1.00  0.00     0.010 A 
ATOM     42  C   UNL     1       9.537   3.391  -5.693  1.00  0.00    -0.014 A 
BRANCH  42  43
ATOM     43  C   UNL     1       9.898   3.714  -7.126  1.00  0.00     0.031 A 
ATOM     44  C   UNL     1      11.175   4.497  -7.284  1.00  0.00     0.074 A 
ATOM     45  C   UNL     1       9.171   3.473  -8.251  1.00  0.00     0.049 A 
ATOM     46  N   UNL     1      11.703   5.007  -8.363  1.00  0.00    -0.248 NA
ATOM     47  C   UNL     1      11.986   4.675  -6.067  1.00  0.00     0.031 C 
ATOM     48  C   UNL     1       8.042   2.567  -8.427  1.00  0.00     0.029 A 
ATOM     49  N   UNL     1       9.231   4.080  -9.495  1.00  0.00    -0.354 N 
ATOM     50  C   UNL     1      12.942   5.488  -7.972  1.00  0.00     0.074 A 
ATOM     51  C   UNL     1      13.040   5.315  -6.540  1.00  0.00     0.031 C 
ATOM     52  C   UNL     1       7.365   2.857  -9.548  1.00  0.00     0.029 A 
ATOM     53  C   UNL     1       8.109   3.862 -10.279  1.00  0.00     0.049 A 
ATOM     54  H   UNL     1      10.000   4.617  -9.795  1.00  0.00     0.167 HD
ATOM     55  C   UNL     1      13.937   5.973  -8.748  1.00  0.00     0.034 A 
ATOM     56  C   UNL     1       7.722   4.344 -11.479  1.00  0.00     0.034 A 
ATOM     57  C   UNL     1      13.802   6.213 -10.159  1.00  0.00     0.049 A 
ATOM     58  C   UNL     1       8.741   5.096 -12.280  1.00  0.00     0.074 A 
ATOM     59  C   UNL     1      14.745   6.706 -11.040  1.00  0.00     0.029 A 
ATOM     60  N   UNL     1      12.635   6.019 -10.889  1.00  0.00    -0.354 N 
ATOM     61  N   UNL     1       9.950   5.453 -11.922  1.00  0.00    -0.248 NA
ATOM     62  C   UNL     1       8.400   5.409 -13.673  1.00  0.00     0.031 C 
ATOM     63  C   UNL     1      14.124   6.902 -12.277  1.00  0.00     0.029 A 
ATOM     64  C   UNL     1      12.818   6.444 -12.195  1.00  0.00     0.049 A 
ATOM     65  H   UNL     1      11.802   5.637 -10.531  1.00  0.00     0.167 HD
ATOM     66  C   UNL     1      10.548   5.952 -13.070  1.00  0.00     0.074 A 
ATOM     67  C   UNL     1       9.556   5.877 -14.124  1.00  0.00     0.031 C 
ATOM     68  C   UNL     1      11.820   6.391 -13.236  1.00  0.00     0.034 A 
BRANCH  55  69
ATOM     69  C   UNL     1      15.225   6.307  -8.048  1.00  0.00     0.023 A 
ATOM     70  C   UNL     1      15.984   5.311  -7.404  1.00  0.00     0.031 A 
ATOM     71  C   UNL     1      15.655   7.639  -7.948  1.00  0.00     0.131 A 
ATOM     72  C   UNL     1      17.086   5.674  -6.620  1.00  0.00     0.055 A 
ATOM     73  C   UNL     1      16.805   7.983  -7.237  1.00  0.00     0.041 A 
ATOM     74  F   UNL     1      14.947   8.630  -8.511  1.00  0.00    -0.206 F 
ATOM     75  C   UNL     1      17.518   7.001  -6.554  1.00  0.00     0.022 A 
BRANCH  72  76
ATOM     76  S   UNL     1      17.843   4.415  -5.555  1.00  0.00     0.124 S 
ATOM     77  O   UNL     1      16.717   4.032  -4.705  1.00  0.00    -0.237 OA
ATOM     78  O   UNL     1      18.287   3.412  -6.515  1.00  0.00    -0.237 OA
ATOM     79  O   UNL     1      18.910   5.142  -4.871  1.00  0.00    -0.744 OA
ENDBRANCH  72  76
ENDBRANCH  55  69
BRANCH  56  80
ATOM     80  C   UNL     1       6.367   4.038 -12.035  1.00  0.00     0.023 A 
ATOM     81  C   UNL     1       6.191   3.170 -13.126  1.00  0.00     0.031 A 
ATOM     82  C   UNL     1       5.218   4.637 -11.486  1.00  0.00     0.131 A 
ATOM     83  C   UNL     1       4.907   2.954 -13.656  1.00  0.00     0.055 A 
ATOM     84  C   UNL     1       3.938   4.394 -11.997  1.00  0.00     0.041 A 
ATOM     85  F   UNL     1       5.323   5.474 -10.442  1.00  0.00    -0.206 F 
ATOM     86  C   UNL     1       3.778   3.555 -13.095  1.00  0.00     0.022 A 
BRANCH  83  87
ATOM     87  S   UNL     1       4.737   1.923 -15.141  1.00  0.00     0.124 S 
ATOM     88  O   UNL     1       5.652   2.579 -16.069  1.00  0.00    -0.237 OA
ATOM     89  O   UNL     1       5.153   0.615 -14.646  1.00  0.00    -0.237 OA
ATOM     90  O   UNL     1       3.320   2.038 -15.477  1.00  0.00    -0.744 OA
ENDBRANCH  83  87
ENDBRANCH  56  80
BRANCH  68  91
ATOM     91  C   UNL     1      12.224   6.802 -14.625  1.00  0.00     0.023 A 
ATOM     92  C   UNL     1      11.658   7.922 -15.253  1.00  0.00     0.031 A 
ATOM     93  C   UNL     1      13.199   6.067 -15.322  1.00  0.00     0.131 A 
ATOM     94  C   UNL     1      12.035   8.249 -16.561  1.00  0.00     0.055 A 
ATOM     95  C   UNL     1      13.620   6.437 -16.598  1.00  0.00     0.041 A 
ATOM     96  F   UNL     1      13.765   4.982 -14.768  1.00  0.00    -0.206 F 
ATOM     97  C   UNL     1      13.030   7.529 -17.229  1.00  0.00     0.022 A 
BRANCH  94  98
ATOM     98  S   UNL     1      11.150   9.584 -17.407  1.00  0.00     0.124 S 
ATOM     99  O   UNL     1       9.787   9.064 -17.446  1.00  0.00    -0.237 OA
ATOM    100  O   UNL     1      11.373  10.720 -16.518  1.00  0.00    -0.237 OA
ATOM    101  O   UNL     1      11.820   9.672 -18.703  1.00  0.00    -0.744 OA
ENDBRANCH  94  98
ENDBRANCH  68  91
ENDBRANCH  42  43
ENDBRANCH  35  37
ENDBRANCH  34  35
ENDBRANCH  33  34
ENDBRANCH  32  33
ENDBRANCH  31  32
ENDBRANCH  30  31
ENDBRANCH  29  30
ENDBRANCH  28  29
ENDBRANCH   1  28
TORSDOF 28
