REMARK SMILES Cc1c(Cl)cccc1NC(=O)NCc1cn([C@@H]2C[NH2+][C@H](C(=O)OCCOCCOCCOCCOC(=O)c3ccc(-c4c5nc(c(-c6cc(S(=O)(=O)[O-])ccc6F)c6ccc([nH]6)c(-c6cc(S(=O)(=O)[O-])ccc6F)c6nc(c(-c7cc(S(=O)(=O)[O-])ccc7F)c7ccc4[nH]7)C=C6)C=C5)cc3)C2)nn1
REMARK SMILES IDX 28 1 27 2 26 3 25 4 24 5 23 6 21 7 22 8 20 9 17 10 18 11
REMARK SMILES IDX 101 12 19 13 16 16 14 17 15 18 103 19 102 20 13 21 12 22
REMARK SMILES IDX 9 23 10 24 11 26 8 28 1 29 2 30 3 31 4 32 5 33 7 34 6 35
REMARK SMILES IDX 29 36 30 37 31 38 32 39 33 40 34 41 35 42 36 43 37 44 38 45
REMARK SMILES IDX 39 46 100 47 40 48 99 49 41 50 42 51 43 52 93 53 44 54 98 55
REMARK SMILES IDX 92 56 94 57 45 58 97 59 91 60 90 61 46 63 78 64 58 65 77 66
REMARK SMILES IDX 59 67 62 68 76 69 95 70 60 71 61 72 75 74 96 75 63 76 47 77
REMARK SMILES IDX 48 78 56 79 49 80 55 81 57 82 54 83 50 84 51 85 52 86 53 87
REMARK SMILES IDX 79 88 80 89 88 90 81 91 87 92 89 93 86 94 82 95 83 96 84 97
REMARK SMILES IDX 85 98 64 99 65 100 73 101 66 102 72 103 74 104 71 105 67 106
REMARK SMILES IDX 68 107 69 108 70 109
REMARK H PARENT 19 14 19 15 9 25 12 27 94 62 62 73
REMARK Flexibility Score: inf
ROOT
ATOM      1  C   UNL     1      -3.738  -8.752   2.246  1.00  0.00     0.188 C 
ENDROOT
BRANCH   1   2
ATOM      2  C   UNL     1      -5.094  -8.705   1.497  1.00  0.00     0.188 C 
BRANCH   2   3
ATOM      3  O   UNL     1      -5.189  -8.724   0.073  1.00  0.00    -0.376 OA
BRANCH   3   4
ATOM      4  C   UNL     1      -4.125  -8.235  -0.728  1.00  0.00     0.202 C 
BRANCH   4   5
ATOM      5  C   UNL     1      -3.734  -6.758  -0.581  1.00  0.00     0.261 C 
BRANCH   5   6
ATOM      6  O   UNL     1      -3.733  -6.299   0.777  1.00  0.00    -0.459 OA
BRANCH   6   7
ATOM      7  C   UNL     1      -4.684  -5.396   1.135  1.00  0.00     0.365 C 
ATOM      8  O   UNL     1      -5.409  -4.798   0.349  1.00  0.00    -0.245 OA
BRANCH   7   9
ATOM      9  C   UNL     1      -4.820  -5.307   2.672  1.00  0.00     0.295 C 
ATOM     10  C   UNL     1      -4.639  -3.063   3.560  1.00  0.00     0.170 C 
ATOM     11  C   UNL     1      -3.269  -3.723   3.428  1.00  0.00     0.289 C 
ATOM     12  C   UNL     1      -5.654  -4.123   3.135  1.00  0.00     0.110 C 
ATOM     13  N   UNL     1      -3.518  -5.164   3.362  1.00  0.00    -0.333 N 
ATOM     14  H   UNL     1      -3.566  -5.561   4.301  1.00  0.00     0.347 HD
ATOM     15  H   UNL     1      -2.772  -5.656   2.870  1.00  0.00     0.347 HD
BRANCH  10  16
ATOM     16  N   UNL     1      -4.743  -1.843   2.796  1.00  0.00    -0.243 N 
ATOM     17  C   UNL     1      -4.869  -0.348   1.243  1.00  0.00     0.102 A 
ATOM     18  C   UNL     1      -4.547  -1.668   1.460  1.00  0.00     0.137 A 
ATOM     19  N   UNL     1      -5.249   0.218   2.434  1.00  0.00    -0.134 NA
ATOM     20  N   UNL     1      -5.164  -0.709   3.380  1.00  0.00    -0.067 NA
BRANCH  17  21
ATOM     21  C   UNL     1      -4.974   0.367  -0.044  1.00  0.00     0.178 C 
BRANCH  21  22
ATOM     22  N   UNL     1      -4.524   1.733   0.045  1.00  0.00    -0.332 N 
ATOM     23  N   UNL     1      -2.219   2.081  -0.553  1.00  0.00    -0.308 N 
ATOM     24  C   UNL     1      -3.479   2.460  -0.318  1.00  0.00     0.319 C 
ATOM     25  H   UNL     1      -1.690   2.835  -0.898  1.00  0.00     0.171 HD
ATOM     26  O   UNL     1      -3.677   3.684  -0.361  1.00  0.00    -0.248 OA
ATOM     27  H   UNL     1      -5.188   2.288   0.514  1.00  0.00     0.165 HD
BRANCH  23  28
ATOM     28  C   UNL     1      -1.426   0.925  -0.452  1.00  0.00     0.047 A 
ATOM     29  C   UNL     1       0.543   2.388   0.330  1.00  0.00     0.048 C 
ATOM     30  C   UNL     1      -0.084   1.052   0.001  1.00  0.00    -0.009 A 
ATOM     31  C   UNL     1       0.711  -0.113   0.106  1.00  0.00     0.046 A 
ATOM     32  Cl  UNL     1       2.358  -0.056   0.641  1.00  0.00    -0.084 Cl
ATOM     33  C   UNL     1       0.207  -1.365  -0.241  1.00  0.00     0.021 A 
ATOM     34  C   UNL     1      -1.867  -0.323  -0.887  1.00  0.00     0.026 A 
ATOM     35  C   UNL     1      -1.075  -1.466  -0.760  1.00  0.00     0.004 A 
ENDBRANCH  23  28
ENDBRANCH  21  22
ENDBRANCH  17  21
ENDBRANCH  10  16
ENDBRANCH   7   9
ENDBRANCH   6   7
ENDBRANCH   5   6
ENDBRANCH   4   5
ENDBRANCH   3   4
ENDBRANCH   2   3
ENDBRANCH   1   2
BRANCH   1  36
ATOM     36  O   UNL     1      -2.607  -8.963   1.419  1.00  0.00    -0.377 OA
BRANCH  36  37
ATOM     37  C   UNL     1      -2.128 -10.303   1.400  1.00  0.00     0.188 C 
BRANCH  37  38
ATOM     38  C   UNL     1      -3.154 -11.383   1.004  1.00  0.00     0.188 C 
BRANCH  38  39
ATOM     39  O   UNL     1      -4.333 -11.385   1.813  1.00  0.00    -0.376 OA
BRANCH  39  40
ATOM     40  C   UNL     1      -4.524 -12.468   2.715  1.00  0.00     0.202 C 
BRANCH  40  41
ATOM     41  C   UNL     1      -3.884 -12.226   4.082  1.00  0.00     0.261 C 
BRANCH  41  42
ATOM     42  O   UNL     1      -2.494 -11.938   4.022  1.00  0.00    -0.460 OA
BRANCH  42  43
ATOM     43  C   UNL     1      -1.725 -12.869   3.419  1.00  0.00     0.338 C 
ATOM     44  O   UNL     1      -2.098 -13.877   2.852  1.00  0.00    -0.246 OA
BRANCH  43  45
ATOM     45  C   UNL     1      -0.316 -12.508   3.606  1.00  0.00     0.060 A 
ATOM     46  C   UNL     1       0.605 -13.450   3.151  1.00  0.00     0.016 A 
ATOM     47  C   UNL     1       0.038 -11.459   4.471  1.00  0.00     0.016 A 
ATOM     48  C   UNL     1       1.800 -13.536   3.815  1.00  0.00     0.010 A 
ATOM     49  C   UNL     1       1.234 -11.547   5.136  1.00  0.00     0.010 A 
ATOM     50  C   UNL     1       2.027 -12.661   4.880  1.00  0.00    -0.014 A 
BRANCH  50  51
ATOM     51  C   UNL     1       3.052 -13.046   5.819  1.00  0.00     0.031 A 
ATOM     52  C   UNL     1       4.424 -12.753   5.397  1.00  0.00     0.074 A 
ATOM     53  C   UNL     1       2.741 -13.618   6.995  1.00  0.00     0.049 A 
ATOM     54  N   UNL     1       5.361 -13.601   5.148  1.00  0.00    -0.248 NA
ATOM     55  C   UNL     1       4.755 -11.359   5.083  1.00  0.00     0.031 C 
ATOM     56  C   UNL     1       1.419 -13.732   7.616  1.00  0.00     0.029 A 
ATOM     57  N   UNL     1       3.581 -14.113   7.941  1.00  0.00    -0.354 N 
ATOM     58  C   UNL     1       6.475 -12.840   4.835  1.00  0.00     0.074 A 
ATOM     59  C   UNL     1       6.005 -11.492   4.644  1.00  0.00     0.031 C 
ATOM     60  C   UNL     1       1.578 -14.041   8.921  1.00  0.00     0.029 A 
ATOM     61  C   UNL     1       2.993 -14.250   9.187  1.00  0.00     0.049 A 
ATOM     62  H   UNL     1       4.519 -14.352   7.758  1.00  0.00     0.167 HD
ATOM     63  C   UNL     1       7.728 -13.347   4.958  1.00  0.00     0.034 A 
ATOM     64  C   UNL     1       3.639 -14.408  10.368  1.00  0.00     0.034 A 
ATOM     65  C   UNL     1       7.712 -14.790   5.018  1.00  0.00     0.049 A 
ATOM     66  C   UNL     1       4.984 -14.966  10.070  1.00  0.00     0.074 A 
ATOM     67  C   UNL     1       7.263 -15.780   4.163  1.00  0.00     0.029 A 
ATOM     68  N   UNL     1       7.891 -15.403   6.238  1.00  0.00    -0.354 N 
ATOM     69  N   UNL     1       5.176 -16.161   9.581  1.00  0.00    -0.248 NA
ATOM     70  C   UNL     1       6.100 -14.047   9.885  1.00  0.00     0.031 C 
ATOM     71  C   UNL     1       6.759 -16.808   5.009  1.00  0.00     0.029 A 
ATOM     72  C   UNL     1       6.961 -16.411   6.333  1.00  0.00     0.049 A 
ATOM     73  H   UNL     1       8.561 -15.163   6.918  1.00  0.00     0.167 HD
ATOM     74  C   UNL     1       6.215 -16.020   8.672  1.00  0.00     0.074 A 
ATOM     75  C   UNL     1       6.824 -14.735   8.996  1.00  0.00     0.031 C 
ATOM     76  C   UNL     1       6.304 -16.815   7.564  1.00  0.00     0.034 A 
BRANCH  63  77
ATOM     77  C   UNL     1       8.938 -12.526   5.312  1.00  0.00     0.023 A 
ATOM     78  C   UNL     1      10.182 -13.179   5.312  1.00  0.00     0.031 A 
ATOM     79  C   UNL     1       8.915 -11.238   5.896  1.00  0.00     0.131 A 
ATOM     80  C   UNL     1      11.300 -12.596   5.929  1.00  0.00     0.055 A 
ATOM     81  C   UNL     1      10.049 -10.627   6.433  1.00  0.00     0.041 A 
ATOM     82  F   UNL     1       7.785 -10.542   6.072  1.00  0.00    -0.206 F 
ATOM     83  C   UNL     1      11.246 -11.318   6.479  1.00  0.00     0.022 A 
BRANCH  80  84
ATOM     84  S   UNL     1      12.769 -13.623   6.178  1.00  0.00     0.124 S 
ATOM     85  O   UNL     1      12.193 -14.832   6.759  1.00  0.00    -0.237 OA
ATOM     86  O   UNL     1      13.282 -13.743   4.818  1.00  0.00    -0.237 OA
ATOM     87  O   UNL     1      13.586 -12.825   7.089  1.00  0.00    -0.744 OA
ENDBRANCH  80  84
ENDBRANCH  63  77
BRANCH  64  88
ATOM     88  C   UNL     1       3.224 -13.830  11.671  1.00  0.00     0.023 A 
ATOM     89  C   UNL     1       3.720 -14.306  12.897  1.00  0.00     0.031 A 
ATOM     90  C   UNL     1       2.457 -12.640  11.717  1.00  0.00     0.131 A 
ATOM     91  C   UNL     1       3.424 -13.619  14.096  1.00  0.00     0.055 A 
ATOM     92  C   UNL     1       2.140 -11.983  12.906  1.00  0.00     0.041 A 
ATOM     93  F   UNL     1       2.055 -12.021  10.596  1.00  0.00    -0.206 F 
ATOM     94  C   UNL     1       2.628 -12.470  14.105  1.00  0.00     0.022 A 
BRANCH  91  95
ATOM     95  S   UNL     1       4.186 -14.149  15.660  1.00  0.00     0.124 S 
ATOM     96  O   UNL     1       3.453 -15.373  15.961  1.00  0.00    -0.237 OA
ATOM     97  O   UNL     1       5.588 -14.306  15.287  1.00  0.00    -0.237 OA
ATOM     98  O   UNL     1       3.918 -13.030  16.564  1.00  0.00    -0.744 OA
ENDBRANCH  91  95
ENDBRANCH  64  88
BRANCH  76  99
ATOM     99  C   UNL     1       5.447 -18.064   7.499  1.00  0.00     0.023 A 
ATOM    100  C   UNL     1       4.038 -18.061   7.593  1.00  0.00     0.031 A 
ATOM    101  C   UNL     1       6.076 -19.282   7.187  1.00  0.00     0.131 A 
ATOM    102  C   UNL     1       3.314 -19.251   7.391  1.00  0.00     0.055 A 
ATOM    103  C   UNL     1       5.354 -20.456   6.968  1.00  0.00     0.041 A 
ATOM    104  F   UNL     1       7.411 -19.344   7.047  1.00  0.00    -0.206 F 
ATOM    105  C   UNL     1       3.968 -20.446   7.076  1.00  0.00     0.022 A 
BRANCH 102 106
ATOM    106  S   UNL     1       1.499 -19.257   7.537  1.00  0.00     0.124 S 
ATOM    107  O   UNL     1       1.255 -18.565   8.797  1.00  0.00    -0.237 OA
ATOM    108  O   UNL     1       1.085 -18.551   6.327  1.00  0.00    -0.237 OA
ATOM    109  O   UNL     1       1.164 -20.683   7.551  1.00  0.00    -0.744 OA
ENDBRANCH 102 106
ENDBRANCH  76  99
ENDBRANCH  50  51
ENDBRANCH  43  45
ENDBRANCH  42  43
ENDBRANCH  41  42
ENDBRANCH  40  41
ENDBRANCH  39  40
ENDBRANCH  38  39
ENDBRANCH  37  38
ENDBRANCH  36  37
ENDBRANCH   1  36
TORSDOF 27
