REMARK SMILES CC1=Nc2c(c(C)nn2-c2ccc(F)cc2)[C@H](c2ccc(C(=O)OCCOCCOCCOCCOC(=O)c3ccc(-c4c5nc(c(-c6cc(S(=O)(=O)[O-])ccc6F)c6ccc([nH]6)c(-c6cc(S(=O)(=O)[O-])ccc6F)c6nc(c(-c7cc(S(=O)(=O)[O-])ccc7F)c7ccc4[nH]7)C=C6)C=C5)cc3)cc2)S1
REMARK SMILES IDX 31 1 30 2 29 3 28 4 27 5 26 6 25 7 24 8 22 9 23 10 21 11
REMARK SMILES IDX 18 12 19 13 103 14 20 15 102 16 17 17 1 18 2 19 3 20 104 21
REMARK SMILES IDX 4 22 5 23 9 24 6 25 8 26 7 27 10 28 11 29 16 30 12 31 15 32
REMARK SMILES IDX 13 33 14 34 32 35 33 36 34 37 35 38 36 39 37 40 38 41 39 42
REMARK SMILES IDX 40 43 101 44 41 45 100 46 42 47 43 48 44 49 94 50 45 51
REMARK SMILES IDX 99 52 93 53 95 54 46 55 98 56 92 57 91 58 47 60 79 61 59 62
REMARK SMILES IDX 78 63 60 64 63 65 77 66 96 67 61 68 62 69 76 71 97 72 64 73
REMARK SMILES IDX 48 74 49 75 57 76 50 77 56 78 58 79 55 80 51 81 52 82 53 83
REMARK SMILES IDX 54 84 80 85 81 86 89 87 82 88 88 89 90 90 87 91 83 92 84 93
REMARK SMILES IDX 85 94 86 95 65 96 66 97 74 98 67 99 73 100 75 101 72 102
REMARK SMILES IDX 68 103 69 104 70 105 71 106
REMARK H PARENT 95 59 63 70
REMARK Flexibility Score: inf
ROOT
ATOM      1  C   UNL     1      -3.867  -5.597   6.740  1.00  0.00     0.188 C 
ENDROOT
BRANCH   1   2
ATOM      2  O   UNL     1      -2.608  -5.480   6.084  1.00  0.00    -0.377 OA
BRANCH   2   3
ATOM      3  C   UNL     1      -2.580  -5.963   4.751  1.00  0.00     0.188 C 
BRANCH   3   4
ATOM      4  C   UNL     1      -2.016  -7.394   4.623  1.00  0.00     0.188 C 
BRANCH   4   5
ATOM      5  O   UNL     1      -1.712  -8.188   5.763  1.00  0.00    -0.376 OA
BRANCH   5   6
ATOM      6  C   UNL     1      -1.139  -7.650   6.943  1.00  0.00     0.202 C 
BRANCH   6   7
ATOM      7  C   UNL     1      -0.030  -6.580   6.941  1.00  0.00     0.261 C 
BRANCH   7   8
ATOM      8  O   UNL     1       0.165  -5.854   5.727  1.00  0.00    -0.460 OA
BRANCH   8   9
ATOM      9  C   UNL     1       1.021  -6.408   4.851  1.00  0.00     0.338 C 
ATOM     10  O   UNL     1       1.710  -7.409   5.029  1.00  0.00    -0.246 OA
BRANCH   9  11
ATOM     11  C   UNL     1       0.889  -5.733   3.538  1.00  0.00     0.060 A 
ATOM     12  C   UNL     1       0.744  -4.573   0.964  1.00  0.00    -0.030 A 
ATOM     13  C   UNL     1       0.909  -5.961   1.131  1.00  0.00     0.006 A 
ATOM     14  C   UNL     1       0.548  -3.793   2.122  1.00  0.00     0.006 A 
ATOM     15  C   UNL     1       0.982  -6.534   2.399  1.00  0.00     0.016 A 
ATOM     16  C   UNL     1       0.632  -4.365   3.402  1.00  0.00     0.016 A 
BRANCH  12  17
ATOM     17  C   UNL     1       0.898  -3.994  -0.437  1.00  0.00     0.119 C 
ATOM     18  C   UNL     1       0.991   0.134  -0.117  1.00  0.00     0.075 C 
ATOM     19  C   UNL     1       0.602  -1.238  -0.599  1.00  0.00     0.074 C 
ATOM     20  N   UNL     1      -0.606  -1.403  -1.034  1.00  0.00    -0.227 NA
ATOM     21  S   UNL     1       1.868  -2.451  -0.493  1.00  0.00    -0.098 SA
ATOM     22  C   UNL     1      -1.006  -2.651  -1.373  1.00  0.00     0.161 A 
ATOM     23  C   UNL     1      -0.428  -3.865  -1.077  1.00  0.00     0.038 A 
ATOM     24  N   UNL     1      -2.180  -2.926  -2.058  1.00  0.00    -0.215 N 
ATOM     25  C   UNL     1      -1.324  -4.829  -1.612  1.00  0.00     0.067 A 
ATOM     26  N   UNL     1      -2.431  -4.260  -2.106  1.00  0.00    -0.171 NA
ATOM     27  C   UNL     1      -1.175  -6.304  -1.685  1.00  0.00     0.069 C 
BRANCH  24  28
ATOM     28  C   UNL     1      -3.036  -2.001  -2.705  1.00  0.00     0.067 A 
ATOM     29  C   UNL     1      -2.494  -0.905  -3.396  1.00  0.00     0.031 A 
ATOM     30  C   UNL     1      -4.423  -2.182  -2.638  1.00  0.00     0.031 A 
ATOM     31  C   UNL     1      -3.343   0.019  -4.001  1.00  0.00     0.041 A 
ATOM     32  C   UNL     1      -5.266  -1.221  -3.201  1.00  0.00     0.041 A 
ATOM     33  C   UNL     1      -4.720  -0.135  -3.880  1.00  0.00     0.123 A 
ATOM     34  F   UNL     1      -5.531   0.780  -4.427  1.00  0.00    -0.207 F 
ENDBRANCH  24  28
ENDBRANCH  12  17
ENDBRANCH   9  11
ENDBRANCH   8   9
ENDBRANCH   7   8
ENDBRANCH   6   7
ENDBRANCH   5   6
ENDBRANCH   4   5
ENDBRANCH   3   4
ENDBRANCH   2   3
ENDBRANCH   1   2
BRANCH   1  35
ATOM     35  C   UNL     1      -4.592  -6.965   6.675  1.00  0.00     0.188 C 
BRANCH  35  36
ATOM     36  O   UNL     1      -4.644  -7.541   5.370  1.00  0.00    -0.376 OA
BRANCH  36  37
ATOM     37  C   UNL     1      -5.893  -7.665   4.705  1.00  0.00     0.202 C 
BRANCH  37  38
ATOM     38  C   UNL     1      -6.358  -6.386   4.015  1.00  0.00     0.261 C 
BRANCH  38  39
ATOM     39  O   UNL     1      -6.328  -5.260   4.874  1.00  0.00    -0.460 OA
BRANCH  39  40
ATOM     40  C   UNL     1      -7.114  -5.336   5.957  1.00  0.00     0.338 C 
ATOM     41  O   UNL     1      -7.782  -6.308   6.324  1.00  0.00    -0.246 OA
BRANCH  40  42
ATOM     42  C   UNL     1      -7.121  -4.040   6.621  1.00  0.00     0.060 A 
ATOM     43  C   UNL     1      -7.958  -3.934   7.731  1.00  0.00     0.016 A 
ATOM     44  C   UNL     1      -6.658  -2.926   5.902  1.00  0.00     0.016 A 
ATOM     45  C   UNL     1      -8.620  -2.748   7.900  1.00  0.00     0.010 A 
ATOM     46  C   UNL     1      -7.343  -1.755   6.049  1.00  0.00     0.010 A 
ATOM     47  C   UNL     1      -8.390  -1.737   6.965  1.00  0.00    -0.014 A 
BRANCH  47  48
ATOM     48  C   UNL     1      -9.335  -0.655   6.915  1.00  0.00     0.031 A 
ATOM     49  C   UNL     1      -9.045   0.418   7.875  1.00  0.00     0.074 A 
ATOM     50  C   UNL     1     -10.314  -0.632   5.994  1.00  0.00     0.049 A 
ATOM     51  N   UNL     1      -9.733   0.756   8.909  1.00  0.00    -0.248 NA
ATOM     52  C   UNL     1      -7.733   1.076   7.769  1.00  0.00     0.031 C 
ATOM     53  C   UNL     1     -10.492  -1.497   4.824  1.00  0.00     0.029 A 
ATOM     54  N   UNL     1     -11.304   0.281   5.857  1.00  0.00    -0.354 N 
ATOM     55  C   UNL     1      -9.039   1.814   9.476  1.00  0.00     0.074 A 
ATOM     56  C   UNL     1      -7.734   1.823   8.870  1.00  0.00     0.031 C 
ATOM     57  C   UNL     1     -11.379  -0.915   3.982  1.00  0.00     0.029 A 
ATOM     58  C   UNL     1     -11.906   0.288   4.607  1.00  0.00     0.049 A 
ATOM     59  H   UNL     1     -11.575   0.889   6.582  1.00  0.00     0.167 HD
ATOM     60  C   UNL     1      -9.661   2.752  10.232  1.00  0.00     0.034 A 
ATOM     61  C   UNL     1     -12.681   1.288   4.114  1.00  0.00     0.034 A 
ATOM     62  C   UNL     1     -10.952   2.302  10.687  1.00  0.00     0.049 A 
ATOM     63  C   UNL     1     -13.181   2.054   5.291  1.00  0.00     0.074 A 
ATOM     64  C   UNL     1     -11.372   1.247  11.476  1.00  0.00     0.029 A 
ATOM     65  N   UNL     1     -12.066   2.708   9.988  1.00  0.00    -0.354 N 
ATOM     66  N   UNL     1     -13.968   1.550   6.204  1.00  0.00    -0.248 NA
ATOM     67  C   UNL     1     -12.426   3.227   5.713  1.00  0.00     0.031 C 
ATOM     68  C   UNL     1     -12.567   0.773  10.860  1.00  0.00     0.029 A 
ATOM     69  C   UNL     1     -12.846   1.596   9.766  1.00  0.00     0.049 A 
ATOM     70  H   UNL     1     -12.268   3.627   9.699  1.00  0.00     0.167 HD
ATOM     71  C   UNL     1     -13.508   2.064   7.409  1.00  0.00     0.074 A 
ATOM     72  C   UNL     1     -12.620   3.162   7.034  1.00  0.00     0.031 C 
ATOM     73  C   UNL     1     -13.662   1.381   8.582  1.00  0.00     0.034 A 
BRANCH  60  74
ATOM     74  C   UNL     1      -9.196   4.177  10.309  1.00  0.00     0.023 A 
ATOM     75  C   UNL     1      -9.721   5.002  11.313  1.00  0.00     0.031 A 
ATOM     76  C   UNL     1      -8.427   4.822   9.309  1.00  0.00     0.131 A 
ATOM     77  C   UNL     1      -9.487   6.388  11.291  1.00  0.00     0.055 A 
ATOM     78  C   UNL     1      -8.131   6.184   9.335  1.00  0.00     0.041 A 
ATOM     79  F   UNL     1      -8.004   4.186   8.207  1.00  0.00    -0.206 F 
ATOM     80  C   UNL     1      -8.678   6.981  10.322  1.00  0.00     0.022 A 
BRANCH  77  81
ATOM     81  S   UNL     1     -10.372   7.431  12.475  1.00  0.00     0.124 S 
ATOM     82  O   UNL     1     -11.762   7.085  12.199  1.00  0.00    -0.237 OA
ATOM     83  O   UNL     1      -9.833   6.967  13.749  1.00  0.00    -0.237 OA
ATOM     84  O   UNL     1      -9.981   8.786  12.091  1.00  0.00    -0.744 OA
ENDBRANCH  77  81
ENDBRANCH  60  74
BRANCH  61  85
ATOM     85  C   UNL     1     -12.673   1.830   2.724  1.00  0.00     0.023 A 
ATOM     86  C   UNL     1     -13.645   2.758   2.295  1.00  0.00     0.031 A 
ATOM     87  C   UNL     1     -11.564   1.641   1.867  1.00  0.00     0.131 A 
ATOM     88  C   UNL     1     -13.481   3.455   1.077  1.00  0.00     0.055 A 
ATOM     89  C   UNL     1     -11.415   2.321   0.656  1.00  0.00     0.041 A 
ATOM     90  F   UNL     1     -10.531   0.859   2.215  1.00  0.00    -0.206 F 
ATOM     91  C   UNL     1     -12.368   3.244   0.261  1.00  0.00     0.022 A 
BRANCH  88  92
ATOM     92  S   UNL     1     -14.652   4.764   0.599  1.00  0.00     0.124 S 
ATOM     93  O   UNL     1     -15.736   3.996  -0.004  1.00  0.00    -0.237 OA
ATOM     94  O   UNL     1     -14.948   5.410   1.873  1.00  0.00    -0.237 OA
ATOM     95  O   UNL     1     -13.878   5.581  -0.335  1.00  0.00    -0.744 OA
ENDBRANCH  88  92
ENDBRANCH  61  85
BRANCH  73  96
ATOM     96  C   UNL     1     -14.584   0.175   8.600  1.00  0.00     0.023 A 
ATOM     97  C   UNL     1     -14.398  -0.995   7.827  1.00  0.00     0.031 A 
ATOM     98  C   UNL     1     -15.616   0.166   9.555  1.00  0.00     0.131 A 
ATOM     99  C   UNL     1     -15.235  -2.114   8.026  1.00  0.00     0.055 A 
ATOM    100  C   UNL     1     -16.428  -0.948   9.762  1.00  0.00     0.041 A 
ATOM    101  F   UNL     1     -15.823   1.236  10.341  1.00  0.00    -0.206 F 
ATOM    102  C   UNL     1     -16.243  -2.093   8.996  1.00  0.00     0.022 A 
BRANCH  99 103
ATOM    103  S   UNL     1     -15.013  -3.629   7.036  1.00  0.00     0.124 S 
ATOM    104  O   UNL     1     -15.090  -3.147   5.662  1.00  0.00    -0.237 OA
ATOM    105  O   UNL     1     -13.706  -4.109   7.477  1.00  0.00    -0.237 OA
ATOM    106  O   UNL     1     -16.137  -4.474   7.447  1.00  0.00    -0.744 OA
ENDBRANCH  99 103
ENDBRANCH  73  96
ENDBRANCH  47  48
ENDBRANCH  40  42
ENDBRANCH  39  40
ENDBRANCH  38  39
ENDBRANCH  37  38
ENDBRANCH  36  37
ENDBRANCH  35  36
ENDBRANCH   1  35
TORSDOF 25
