REMARK SMILES COc1ccc(NC(=O)NCc2ccc(C(=O)OCCOCCOCCOCCOC(=O)c3ccc(-c4c5nc(c(-c6cc(S(=O)(=O)[O-])ccc6F)c6ccc([nH]6)c(-c6cc(S(=O)(=O)[O-])ccc6F)c6nc(c(-c7cc(S(=O)(=O)[O-])ccc7F)c7ccc4[nH]7)C=C6)C=C5)cc3)cc2)c(OC)c1
REMARK SMILES IDX 23 1 22 2 21 3 20 4 19 5 18 6 16 7 17 8 15 9 12 10 13 11
REMARK SMILES IDX 97 12 14 13 96 14 11 15 10 16 7 17 8 18 9 20 6 22 3 23 4 24
REMARK SMILES IDX 101 25 5 26 98 27 2 28 1 29 99 30 100 31 24 32 25 33 26 34
REMARK SMILES IDX 27 35 28 36 29 37 30 38 31 39 32 40 33 41 34 42 95 43 35 44
REMARK SMILES IDX 94 45 36 46 37 47 38 48 88 49 39 50 93 51 87 52 89 53 40 54
REMARK SMILES IDX 92 55 86 56 85 57 41 59 73 60 53 61 72 62 54 63 57 64 71 65
REMARK SMILES IDX 90 66 55 67 56 68 70 70 91 71 58 72 42 73 43 74 51 75 44 76
REMARK SMILES IDX 50 77 52 78 49 79 45 80 46 81 47 82 48 83 74 84 75 85 83 86
REMARK SMILES IDX 76 87 82 88 84 89 81 90 77 91 78 92 79 93 80 94 59 95 60 96
REMARK SMILES IDX 68 97 61 98 67 99 69 100 66 101 62 102 63 103 64 104 65 105
REMARK H PARENT 7 19 10 21 89 58 57 69
REMARK Flexibility Score: inf
ROOT
ATOM      1  C   UNL     1      -5.285   0.283  -2.236  1.00  0.00     0.188 C 
ENDROOT
BRANCH   1   2
ATOM      2  C   UNL     1      -5.107   1.541  -3.109  1.00  0.00     0.188 C 
BRANCH   2   3
ATOM      3  O   UNL     1      -6.301   2.275  -3.309  1.00  0.00    -0.376 OA
BRANCH   3   4
ATOM      4  C   UNL     1      -6.961   2.229  -4.561  1.00  0.00     0.202 C 
BRANCH   4   5
ATOM      5  C   UNL     1      -7.390   0.881  -5.162  1.00  0.00     0.261 C 
BRANCH   5   6
ATOM      6  O   UNL     1      -6.432  -0.178  -5.087  1.00  0.00    -0.460 OA
BRANCH   6   7
ATOM      7  C   UNL     1      -5.362  -0.077  -5.902  1.00  0.00     0.338 C 
ATOM      8  O   UNL     1      -5.128   0.820  -6.693  1.00  0.00    -0.246 OA
BRANCH   7   9
ATOM      9  C   UNL     1      -4.390  -1.129  -5.529  1.00  0.00     0.060 A 
ATOM     10  C   UNL     1      -2.473  -3.014  -4.766  1.00  0.00    -0.029 A 
ATOM     11  C   UNL     1      -2.085  -1.715  -5.127  1.00  0.00     0.006 A 
ATOM     12  C   UNL     1      -3.831  -3.360  -4.775  1.00  0.00     0.006 A 
ATOM     13  C   UNL     1      -3.037  -0.777  -5.508  1.00  0.00     0.016 A 
ATOM     14  C   UNL     1      -4.791  -2.416  -5.146  1.00  0.00     0.016 A 
BRANCH  10  15
ATOM     15  C   UNL     1      -1.426  -3.954  -4.242  1.00  0.00     0.153 C 
BRANCH  15  16
ATOM     16  N   UNL     1      -0.558  -4.503  -5.259  1.00  0.00    -0.334 N 
ATOM     17  N   UNL     1       1.693  -4.116  -4.549  1.00  0.00    -0.305 N 
ATOM     18  C   UNL     1       0.774  -4.583  -5.418  1.00  0.00     0.319 C 
ATOM     19  H   UNL     1       2.602  -4.105  -4.929  1.00  0.00     0.172 HD
ATOM     20  O   UNL     1       1.183  -5.035  -6.494  1.00  0.00    -0.248 OA
ATOM     21  H   UNL     1      -1.055  -4.911  -6.005  1.00  0.00     0.165 HD
BRANCH  17  22
ATOM     22  C   UNL     1       1.657  -3.640  -3.230  1.00  0.00     0.085 A 
ATOM     23  C   UNL     1       1.216  -2.169  -0.902  1.00  0.00     0.122 A 
ATOM     24  C   UNL     1       0.542  -3.372  -1.111  1.00  0.00     0.049 A 
ATOM     25  C   UNL     1       2.260  -1.818  -1.755  1.00  0.00     0.095 A 
ATOM     26  C   UNL     1       0.790  -4.129  -2.259  1.00  0.00     0.034 A 
ATOM     27  C   UNL     1       2.521  -2.591  -2.889  1.00  0.00     0.146 A 
BRANCH  23  28
ATOM     28  O   UNL     1       0.794  -1.433   0.170  1.00  0.00    -0.497 OA
ATOM     29  C   UNL     1       1.093  -0.039   0.117  1.00  0.00     0.278 C 
ENDBRANCH  23  28
BRANCH  27  30
ATOM     30  O   UNL     1       3.555  -2.300  -3.748  1.00  0.00    -0.494 OA
ATOM     31  C   UNL     1       4.779  -2.037  -3.056  1.00  0.00     0.278 C 
ENDBRANCH  27  30
ENDBRANCH  17  22
ENDBRANCH  15  16
ENDBRANCH  10  15
ENDBRANCH   7   9
ENDBRANCH   6   7
ENDBRANCH   5   6
ENDBRANCH   4   5
ENDBRANCH   3   4
ENDBRANCH   2   3
ENDBRANCH   1   2
BRANCH   1  32
ATOM     32  O   UNL     1      -6.601  -0.219  -2.075  1.00  0.00    -0.377 OA
BRANCH  32  33
ATOM     33  C   UNL     1      -7.621   0.610  -1.517  1.00  0.00     0.188 C 
BRANCH  33  34
ATOM     34  C   UNL     1      -7.324   1.961  -0.819  1.00  0.00     0.188 C 
BRANCH  34  35
ATOM     35  O   UNL     1      -5.973   2.138  -0.421  1.00  0.00    -0.376 OA
BRANCH  35  36
ATOM     36  C   UNL     1      -5.700   2.126   0.968  1.00  0.00     0.202 C 
BRANCH  36  37
ATOM     37  C   UNL     1      -5.904   0.781   1.677  1.00  0.00     0.261 C 
BRANCH  37  38
ATOM     38  O   UNL     1      -7.203   0.185   1.537  1.00  0.00    -0.460 OA
BRANCH  38  39
ATOM     39  C   UNL     1      -8.248   0.845   2.084  1.00  0.00     0.338 C 
ATOM     40  O   UNL     1      -8.205   1.901   2.695  1.00  0.00    -0.246 OA
BRANCH  39  41
ATOM     41  C   UNL     1      -9.483   0.166   1.643  1.00  0.00     0.060 A 
ATOM     42  C   UNL     1     -10.427   0.875   0.887  1.00  0.00     0.016 A 
ATOM     43  C   UNL     1      -9.694  -1.178   1.958  1.00  0.00     0.016 A 
ATOM     44  C   UNL     1     -11.602   0.246   0.471  1.00  0.00     0.010 A 
ATOM     45  C   UNL     1     -10.879  -1.800   1.558  1.00  0.00     0.010 A 
ATOM     46  C   UNL     1     -11.853  -1.082   0.840  1.00  0.00    -0.014 A 
BRANCH  46  47
ATOM     47  C   UNL     1     -13.210  -1.658   0.663  1.00  0.00     0.031 A 
ATOM     48  C   UNL     1     -14.135  -1.669   1.850  1.00  0.00     0.074 A 
ATOM     49  C   UNL     1     -13.620  -2.148  -0.519  1.00  0.00     0.049 A 
ATOM     50  N   UNL     1     -15.335  -2.172   1.968  1.00  0.00    -0.248 NA
ATOM     51  C   UNL     1     -13.623  -1.031   3.072  1.00  0.00     0.031 C 
ATOM     52  C   UNL     1     -12.835  -2.145  -1.752  1.00  0.00     0.029 A 
ATOM     53  N   UNL     1     -14.801  -2.752  -0.872  1.00  0.00    -0.354 N 
ATOM     54  C   UNL     1     -15.722  -1.919   3.281  1.00  0.00     0.074 A 
ATOM     55  C   UNL     1     -14.607  -1.260   3.926  1.00  0.00     0.031 C 
ATOM     56  C   UNL     1     -13.558  -2.725  -2.727  1.00  0.00     0.029 A 
ATOM     57  C   UNL     1     -14.834  -3.181  -2.178  1.00  0.00     0.049 A 
ATOM     58  H   UNL     1     -15.554  -2.867  -0.248  1.00  0.00     0.167 HD
ATOM     59  C   UNL     1     -16.901  -2.203   3.888  1.00  0.00     0.034 A 
ATOM     60  C   UNL     1     -15.775  -3.884  -2.842  1.00  0.00     0.034 A 
ATOM     61  C   UNL     1     -17.993  -2.881   3.233  1.00  0.00     0.049 A 
ATOM     62  C   UNL     1     -17.038  -4.288  -2.117  1.00  0.00     0.074 A 
ATOM     63  C   UNL     1     -19.235  -3.209   3.746  1.00  0.00     0.029 A 
ATOM     64  N   UNL     1     -17.966  -3.357   1.927  1.00  0.00    -0.354 N 
ATOM     65  N   UNL     1     -17.399  -4.039  -0.878  1.00  0.00    -0.248 NA
ATOM     66  C   UNL     1     -18.021  -5.066  -2.882  1.00  0.00     0.031 C 
ATOM     67  C   UNL     1     -19.922  -3.958   2.785  1.00  0.00     0.029 A 
ATOM     68  C   UNL     1     -19.152  -4.013   1.634  1.00  0.00     0.049 A 
ATOM     69  H   UNL     1     -17.215  -3.244   1.301  1.00  0.00     0.167 HD
ATOM     70  C   UNL     1     -18.667  -4.599  -0.730  1.00  0.00     0.074 A 
ATOM     71  C   UNL     1     -19.009  -5.190  -2.008  1.00  0.00     0.031 C 
ATOM     72  C   UNL     1     -19.479  -4.614   0.360  1.00  0.00     0.034 A 
BRANCH  59  73
ATOM     73  C   UNL     1     -17.029  -1.838   5.349  1.00  0.00     0.023 A 
ATOM     74  C   UNL     1     -16.928  -0.507   5.793  1.00  0.00     0.031 A 
ATOM     75  C   UNL     1     -17.194  -2.842   6.320  1.00  0.00     0.131 A 
ATOM     76  C   UNL     1     -16.897  -0.228   7.168  1.00  0.00     0.055 A 
ATOM     77  C   UNL     1     -17.261  -2.547   7.683  1.00  0.00     0.041 A 
ATOM     78  F   UNL     1     -17.270  -4.133   5.962  1.00  0.00    -0.206 F 
ATOM     79  C   UNL     1     -17.091  -1.235   8.116  1.00  0.00     0.022 A 
BRANCH  76  80
ATOM     80  S   UNL     1     -16.413   1.438   7.702  1.00  0.00     0.124 S 
ATOM     81  O   UNL     1     -15.111   1.587   7.055  1.00  0.00    -0.237 OA
ATOM     82  O   UNL     1     -17.490   2.264   7.169  1.00  0.00    -0.237 OA
ATOM     83  O   UNL     1     -16.367   1.331   9.158  1.00  0.00    -0.744 OA
ENDBRANCH  76  80
ENDBRANCH  59  73
BRANCH  60  84
ATOM     84  C   UNL     1     -15.554  -4.284  -4.262  1.00  0.00     0.023 A 
ATOM     85  C   UNL     1     -16.388  -3.812  -5.288  1.00  0.00     0.031 A 
ATOM     86  C   UNL     1     -14.528  -5.182  -4.609  1.00  0.00     0.131 A 
ATOM     87  C   UNL     1     -16.206  -4.268  -6.604  1.00  0.00     0.055 A 
ATOM     88  C   UNL     1     -14.316  -5.589  -5.927  1.00  0.00     0.041 A 
ATOM     89  F   UNL     1     -13.706  -5.671  -3.666  1.00  0.00    -0.206 F 
ATOM     90  C   UNL     1     -15.165  -5.139  -6.933  1.00  0.00     0.022 A 
BRANCH  87  91
ATOM     91  S   UNL     1     -17.400  -3.762  -7.872  1.00  0.00     0.124 S 
ATOM     92  O   UNL     1     -18.647  -4.294  -7.334  1.00  0.00    -0.237 OA
ATOM     93  O   UNL     1     -17.262  -2.310  -7.858  1.00  0.00    -0.237 OA
ATOM     94  O   UNL     1     -16.911  -4.420  -9.082  1.00  0.00    -0.744 OA
ENDBRANCH  87  91
ENDBRANCH  60  84
BRANCH  72  95
ATOM     95  C   UNL     1     -20.842  -5.250   0.201  1.00  0.00     0.023 A 
ATOM     96  C   UNL     1     -21.001  -6.622  -0.057  1.00  0.00     0.031 A 
ATOM     97  C   UNL     1     -22.004  -4.462   0.308  1.00  0.00     0.131 A 
ATOM     98  C   UNL     1     -22.286  -7.153  -0.256  1.00  0.00     0.055 A 
ATOM     99  C   UNL     1     -23.281  -5.009   0.179  1.00  0.00     0.041 A 
ATOM    100  F   UNL     1     -21.916  -3.143   0.548  1.00  0.00    -0.206 F 
ATOM    101  C   UNL     1     -23.427  -6.359  -0.119  1.00  0.00     0.022 A 
BRANCH  98 102
ATOM    102  S   UNL     1     -22.442  -8.876  -0.804  1.00  0.00     0.124 S 
ATOM    103  O   UNL     1     -21.666  -8.872  -2.040  1.00  0.00    -0.237 OA
ATOM    104  O   UNL     1     -21.860  -9.613   0.312  1.00  0.00    -0.237 OA
ATOM    105  O   UNL     1     -23.883  -9.051  -0.978  1.00  0.00    -0.744 OA
ENDBRANCH  98 102
ENDBRANCH  72  95
ENDBRANCH  46  47
ENDBRANCH  39  41
ENDBRANCH  38  39
ENDBRANCH  37  38
ENDBRANCH  36  37
ENDBRANCH  35  36
ENDBRANCH  34  35
ENDBRANCH  33  34
ENDBRANCH  32  33
ENDBRANCH   1  32
TORSDOF 28
