REMARK SMILES O=C(CSc1nnc(-c2ccncc2)s1)Nc1cccc(C(=O)OCCOCCOCCOCCOC(=O)c2ccc(-c3c4nc(c(-c5cc(S(=O)(=O)[O-])ccc5F)c5ccc([nH]5)c(-c5cc(S(=O)(=O)[O-])ccc5F)c5nc(c(-c6cc(S(=O)(=O)[O-])ccc6F)c6ccc3[nH]6)C=C5)C=C4)cc2)c1
REMARK SMILES IDX 29 1 28 2 27 3 26 4 25 5 24 6 22 7 23 8 21 9 17 10 18 11
REMARK SMILES IDX 102 12 19 13 20 14 16 15 1 16 2 17 3 19 4 20 5 21 6 22 15 23
REMARK SMILES IDX 7 24 8 25 9 26 10 27 14 28 11 29 13 30 12 31 30 32 31 33
REMARK SMILES IDX 32 34 33 35 34 36 35 37 36 38 37 39 38 40 39 41 40 42 101 43
REMARK SMILES IDX 41 44 100 45 42 46 43 47 44 48 94 49 45 50 99 51 93 52 95 53
REMARK SMILES IDX 46 54 98 55 92 56 91 57 47 59 79 60 59 61 78 62 60 63 63 64
REMARK SMILES IDX 77 65 96 66 61 67 62 68 76 70 97 71 64 72 48 73 49 74 57 75
REMARK SMILES IDX 50 76 56 77 58 78 55 79 51 80 52 81 53 82 54 83 80 84 81 85
REMARK SMILES IDX 89 86 82 87 88 88 90 89 87 90 83 91 84 92 85 93 86 94 65 95
REMARK SMILES IDX 66 96 74 97 67 98 73 99 75 100 72 101 68 102 69 103 70 104
REMARK SMILES IDX 71 105
REMARK H PARENT 16 18 95 58 63 69
REMARK Flexibility Score: inf
ROOT
ATOM      1  C   UNL     1       0.863  -4.744  -3.275  1.00  0.00     0.188 C 
ENDROOT
BRANCH   1   2
ATOM      2  C   UNL     1      -0.434  -5.545  -3.023  1.00  0.00     0.188 C 
BRANCH   2   3
ATOM      3  O   UNL     1      -1.533  -5.178  -3.840  1.00  0.00    -0.376 OA
BRANCH   3   4
ATOM      4  C   UNL     1      -2.663  -4.598  -3.215  1.00  0.00     0.202 C 
BRANCH   4   5
ATOM      5  C   UNL     1      -2.475  -3.174  -2.682  1.00  0.00     0.261 C 
BRANCH   5   6
ATOM      6  O   UNL     1      -1.341  -2.994  -1.825  1.00  0.00    -0.460 OA
BRANCH   6   7
ATOM      7  C   UNL     1      -1.379  -3.561  -0.598  1.00  0.00     0.338 C 
ATOM      8  O   UNL     1      -2.276  -4.236  -0.125  1.00  0.00    -0.246 OA
BRANCH   7   9
ATOM      9  C   UNL     1      -0.024  -3.418  -0.015  1.00  0.00     0.062 A 
ATOM     10  C   UNL     1       1.985  -2.107   0.322  1.00  0.00     0.042 A 
ATOM     11  C   UNL     1       2.626  -3.250   0.816  1.00  0.00     0.026 A 
ATOM     12  C   UNL     1       0.667  -2.207  -0.124  1.00  0.00     0.041 A 
ATOM     13  C   UNL     1       1.933  -4.459   0.936  1.00  0.00     0.003 A 
ATOM     14  C   UNL     1       0.599  -4.540   0.540  1.00  0.00     0.016 A 
BRANCH  10  15
ATOM     15  N   UNL     1       2.710  -0.899   0.298  1.00  0.00    -0.325 N 
ATOM     16  O   UNL     1       0.966   0.640   0.138  1.00  0.00    -0.274 OA
ATOM     17  C   UNL     1       2.164   0.371   0.192  1.00  0.00     0.234 C 
ATOM     18  H   UNL     1       3.690  -0.963   0.363  1.00  0.00     0.169 HD
BRANCH  17  19
ATOM     19  C   UNL     1       3.191   1.487   0.150  1.00  0.00     0.177 C 
BRANCH  19  20
ATOM     20  S   UNL     1       4.285   1.472   1.595  1.00  0.00    -0.084 SA
BRANCH  20  21
ATOM     21  C   UNL     1       3.127   1.431   2.905  1.00  0.00     0.175 A 
ATOM     22  N   UNL     1       2.983   0.348   3.635  1.00  0.00    -0.131 NA
ATOM     23  S   UNL     1       2.197   2.769   3.426  1.00  0.00    -0.086 S 
ATOM     24  N   UNL     1       2.128   0.554   4.700  1.00  0.00    -0.137 NA
ATOM     25  C   UNL     1       1.642   1.781   4.725  1.00  0.00     0.148 A 
BRANCH  25  26
ATOM     26  C   UNL     1       0.815   2.324   5.805  1.00  0.00     0.015 A 
ATOM     27  C   UNL     1      -0.304   3.126   5.568  1.00  0.00     0.031 A 
ATOM     28  C   UNL     1       1.148   2.020   7.130  1.00  0.00     0.031 A 
ATOM     29  C   UNL     1      -1.023   3.594   6.658  1.00  0.00     0.111 A 
ATOM     30  C   UNL     1       0.373   2.543   8.150  1.00  0.00     0.111 A 
ATOM     31  N   UNL     1      -0.704   3.327   7.943  1.00  0.00    -0.265 NA
ENDBRANCH  25  26
ENDBRANCH  20  21
ENDBRANCH  19  20
ENDBRANCH  17  19
ENDBRANCH  10  15
ENDBRANCH   7   9
ENDBRANCH   6   7
ENDBRANCH   5   6
ENDBRANCH   4   5
ENDBRANCH   3   4
ENDBRANCH   2   3
ENDBRANCH   1   2
BRANCH   1  32
ATOM     32  O   UNL     1       0.941  -3.752  -4.289  1.00  0.00    -0.377 OA
BRANCH  32  33
ATOM     33  C   UNL     1       0.155  -3.875  -5.467  1.00  0.00     0.188 C 
BRANCH  33  34
ATOM     34  C   UNL     1       0.030  -5.255  -6.147  1.00  0.00     0.188 C 
BRANCH  34  35
ATOM     35  O   UNL     1       0.808  -6.276  -5.535  1.00  0.00    -0.376 OA
BRANCH  35  36
ATOM     36  C   UNL     1       1.964  -6.692  -6.245  1.00  0.00     0.202 C 
BRANCH  36  37
ATOM     37  C   UNL     1       3.080  -5.649  -6.383  1.00  0.00     0.261 C 
BRANCH  37  38
ATOM     38  O   UNL     1       2.725  -4.428  -7.052  1.00  0.00    -0.460 OA
BRANCH  38  39
ATOM     39  C   UNL     1       2.337  -4.503  -8.346  1.00  0.00     0.338 C 
ATOM     40  O   UNL     1       2.267  -5.505  -9.034  1.00  0.00    -0.246 OA
BRANCH  39  41
ATOM     41  C   UNL     1       1.830  -3.166  -8.723  1.00  0.00     0.060 A 
ATOM     42  C   UNL     1       0.482  -3.009  -9.074  1.00  0.00     0.016 A 
ATOM     43  C   UNL     1       2.681  -2.060  -8.674  1.00  0.00     0.016 A 
ATOM     44  C   UNL     1      -0.018  -1.738  -9.373  1.00  0.00     0.010 A 
ATOM     45  C   UNL     1       2.186  -0.796  -8.998  1.00  0.00     0.010 A 
ATOM     46  C   UNL     1       0.837  -0.628  -9.360  1.00  0.00    -0.014 A 
BRANCH  46  47
ATOM     47  C   UNL     1       0.377   0.691  -9.863  1.00  0.00     0.031 A 
ATOM     48  C   UNL     1       0.703   1.067 -11.281  1.00  0.00     0.074 A 
ATOM     49  C   UNL     1      -0.295   1.546  -9.070  1.00  0.00     0.049 A 
ATOM     50  N   UNL     1       0.527   2.204 -11.902  1.00  0.00    -0.248 NA
ATOM     51  C   UNL     1       1.315   0.015 -12.107  1.00  0.00     0.031 C 
ATOM     52  C   UNL     1      -0.719   1.272  -7.698  1.00  0.00     0.029 A 
ATOM     53  N   UNL     1      -0.724   2.830  -9.304  1.00  0.00    -0.354 N 
ATOM     54  C   UNL     1       1.007   2.007 -13.191  1.00  0.00     0.074 A 
ATOM     55  C   UNL     1       1.510   0.651 -13.252  1.00  0.00     0.031 C 
ATOM     56  C   UNL     1      -1.330   2.364  -7.205  1.00  0.00     0.029 A 
ATOM     57  C   UNL     1      -1.295   3.430  -8.204  1.00  0.00     0.049 A 
ATOM     58  H   UNL     1      -0.632   3.279 -10.175  1.00  0.00     0.167 HD
ATOM     59  C   UNL     1       1.023   2.878 -14.230  1.00  0.00     0.034 A 
ATOM     60  C   UNL     1      -1.702   4.704  -8.017  1.00  0.00     0.034 A 
ATOM     61  C   UNL     1       0.538   4.234 -14.147  1.00  0.00     0.049 A 
ATOM     62  C   UNL     1      -1.556   5.694  -9.153  1.00  0.00     0.074 A 
ATOM     63  C   UNL     1       0.502   5.197 -15.140  1.00  0.00     0.029 A 
ATOM     64  N   UNL     1       0.021   4.825 -13.002  1.00  0.00    -0.354 N 
ATOM     65  N   UNL     1      -1.103   5.497 -10.370  1.00  0.00    -0.248 NA
ATOM     66  C   UNL     1      -1.973   7.078  -8.887  1.00  0.00     0.031 C 
ATOM     67  C   UNL     1       0.038   6.390 -14.576  1.00  0.00     0.029 A 
ATOM     68  C   UNL     1      -0.296   6.151 -13.253  1.00  0.00     0.049 A 
ATOM     69  H   UNL     1      -0.103   4.369 -12.138  1.00  0.00     0.167 HD
ATOM     70  C   UNL     1      -1.209   6.727 -11.019  1.00  0.00     0.074 A 
ATOM     71  C   UNL     1      -1.788   7.650 -10.067  1.00  0.00     0.031 C 
ATOM     72  C   UNL     1      -0.861   7.065 -12.288  1.00  0.00     0.034 A 
BRANCH  59  73
ATOM     73  C   UNL     1       1.634   2.405 -15.525  1.00  0.00     0.023 A 
ATOM     74  C   UNL     1       1.058   1.370 -16.280  1.00  0.00     0.031 A 
ATOM     75  C   UNL     1       2.816   2.995 -16.007  1.00  0.00     0.131 A 
ATOM     76  C   UNL     1       1.693   0.918 -17.446  1.00  0.00     0.055 A 
ATOM     77  C   UNL     1       3.403   2.591 -17.207  1.00  0.00     0.041 A 
ATOM     78  F   UNL     1       3.425   3.970 -15.314  1.00  0.00    -0.206 F 
ATOM     79  C   UNL     1       2.848   1.539 -17.929  1.00  0.00     0.022 A 
BRANCH  76  80
ATOM     80  S   UNL     1       1.058  -0.574 -18.259  1.00  0.00     0.124 S 
ATOM     81  O   UNL     1       1.179  -1.565 -17.192  1.00  0.00    -0.237 OA
ATOM     82  O   UNL     1      -0.300  -0.184 -18.619  1.00  0.00    -0.237 OA
ATOM     83  O   UNL     1       1.972  -0.767 -19.383  1.00  0.00    -0.744 OA
ENDBRANCH  76  80
ENDBRANCH  59  73
BRANCH  60  84
ATOM     84  C   UNL     1      -2.221   5.157  -6.691  1.00  0.00     0.023 A 
ATOM     85  C   UNL     1      -3.516   5.685  -6.561  1.00  0.00     0.031 A 
ATOM     86  C   UNL     1      -1.397   5.154  -5.551  1.00  0.00     0.131 A 
ATOM     87  C   UNL     1      -3.927   6.242  -5.339  1.00  0.00     0.055 A 
ATOM     88  C   UNL     1      -1.834   5.649  -4.320  1.00  0.00     0.041 A 
ATOM     89  F   UNL     1      -0.145   4.675  -5.617  1.00  0.00    -0.206 F 
ATOM     90  C   UNL     1      -3.101   6.213  -4.214  1.00  0.00     0.022 A 
BRANCH  87  91
ATOM     91  S   UNL     1      -5.516   7.117  -5.274  1.00  0.00     0.124 S 
ATOM     92  O   UNL     1      -5.338   8.129  -6.309  1.00  0.00    -0.237 OA
ATOM     93  O   UNL     1      -6.462   6.048  -5.576  1.00  0.00    -0.237 OA
ATOM     94  O   UNL     1      -5.568   7.626  -3.905  1.00  0.00    -0.744 OA
ENDBRANCH  87  91
ENDBRANCH  60  84
BRANCH  72  95
ATOM     95  C   UNL     1      -1.132   8.485 -12.724  1.00  0.00     0.023 A 
ATOM     96  C   UNL     1      -0.448   9.575 -12.159  1.00  0.00     0.031 A 
ATOM     97  C   UNL     1      -2.090   8.752 -13.719  1.00  0.00     0.131 A 
ATOM     98  C   UNL     1      -0.769  10.883 -12.552  1.00  0.00     0.055 A 
ATOM     99  C   UNL     1      -2.359  10.050 -14.152  1.00  0.00     0.041 A 
ATOM    100  F   UNL     1      -2.776   7.750 -14.293  1.00  0.00    -0.206 F 
ATOM    101  C   UNL     1      -1.706  11.127 -13.559  1.00  0.00     0.022 A 
BRANCH  98 102
ATOM    102  S   UNL     1      -0.007  12.271 -11.667  1.00  0.00     0.124 S 
ATOM    103  O   UNL     1      -0.448  12.036 -10.297  1.00  0.00    -0.237 OA
ATOM    104  O   UNL     1       1.415  12.063 -11.923  1.00  0.00    -0.237 OA
ATOM    105  O   UNL     1      -0.585  13.449 -12.312  1.00  0.00    -0.744 OA
ENDBRANCH  98 102
ENDBRANCH  72  95
ENDBRANCH  46  47
ENDBRANCH  39  41
ENDBRANCH  38  39
ENDBRANCH  37  38
ENDBRANCH  36  37
ENDBRANCH  35  36
ENDBRANCH  34  35
ENDBRANCH  33  34
ENDBRANCH  32  33
ENDBRANCH   1  32
TORSDOF 28
