REMARK SMILES CC1=C(CC(=O)OCCOCCOCCOCCOC(=O)c2ccc(-c3c4nc(c(-c5cc(S(=O)(=O)[O-])ccc5F)c5ccc([nH]5)c(-c5cc(S(=O)(=O)[O-])ccc5F)c5nc(c(-c6cc(S(=O)(=O)[O-])ccc6F)c6ccc3[nH]6)C=C5)C=C4)cc2)c2cc(F)ccc2/C1=C\c1cccc(OCc2ccccc2)c1
REMARK SMILES IDX 12 1 11 2 10 3 9 4 8 5 7 6 5 7 6 8 4 9 3 10 1 11 2 12 92 13
REMARK SMILES IDX 85 14 91 15 93 16 86 17 90 18 87 19 89 20 88 21 94 22 95 23
REMARK SMILES IDX 107 24 96 25 98 26 97 27 99 28 100 29 101 30 102 31 106 32
REMARK SMILES IDX 103 33 105 34 104 35 13 36 14 37 15 38 16 39 17 40 18 41
REMARK SMILES IDX 19 42 20 43 21 44 22 45 23 46 84 47 24 48 83 49 25 50 26 51
REMARK SMILES IDX 27 52 77 53 28 54 82 55 76 56 78 57 29 58 81 59 75 60 74 61
REMARK SMILES IDX 30 63 62 64 42 65 61 66 43 67 46 68 60 69 79 70 44 71 45 72
REMARK SMILES IDX 59 74 80 75 47 76 31 77 32 78 40 79 33 80 39 81 41 82 38 83
REMARK SMILES IDX 34 84 35 85 36 86 37 87 63 88 64 89 72 90 65 91 71 92 73 93
REMARK SMILES IDX 70 94 66 95 67 96 68 97 69 98 48 99 49 100 57 101 50 102
REMARK SMILES IDX 56 103 58 104 55 105 51 106 52 107 53 108 54 109
REMARK H PARENT 78 62 46 73
REMARK Flexibility Score: inf
ROOT
ATOM      1  C   UNL     1       0.312   2.162   4.767  1.00  0.00     0.188 C 
ENDROOT
BRANCH   1   2
ATOM      2  C   UNL     1      -0.533   1.324   5.747  1.00  0.00     0.188 C 
BRANCH   2   3
ATOM      3  O   UNL     1       0.184   0.541   6.668  1.00  0.00    -0.376 OA
BRANCH   3   4
ATOM      4  C   UNL     1       0.665  -0.745   6.336  1.00  0.00     0.202 C 
BRANCH   4   5
ATOM      5  C   UNL     1       0.865  -1.292   4.908  1.00  0.00     0.261 C 
BRANCH   5   6
ATOM      6  O   UNL     1       0.323  -0.561   3.797  1.00  0.00    -0.463 OA
BRANCH   6   7
ATOM      7  C   UNL     1      -0.841  -0.995   3.260  1.00  0.00     0.310 C 
ATOM      8  O   UNL     1      -1.489  -1.937   3.708  1.00  0.00    -0.252 OA
BRANCH   7   9
ATOM      9  C   UNL     1      -1.318  -0.210   2.026  1.00  0.00     0.159 C 
BRANCH   9  10
ATOM     10  C   UNL     1      -0.609   1.021   1.531  1.00  0.00    -0.025 C 
ATOM     11  C   UNL     1       1.256  -0.008   0.127  1.00  0.00     0.045 C 
ATOM     12  C   UNL     1       0.472   1.115   0.719  1.00  0.00    -0.039 C 
ATOM     13  C   UNL     1       0.797   2.532   0.465  1.00  0.00    -0.014 C 
ATOM     14  C   UNL     1      -1.078   2.404   1.788  1.00  0.00    -0.011 A 
ATOM     15  C   UNL     1      -0.204   3.333   1.187  1.00  0.00    -0.010 A 
ATOM     16  C   UNL     1       1.816   2.970  -0.300  1.00  0.00     0.017 C 
ATOM     17  C   UNL     1      -2.155   2.855   2.543  1.00  0.00     0.048 A 
ATOM     18  C   UNL     1      -0.372   4.702   1.367  1.00  0.00     0.012 A 
ATOM     19  C   UNL     1      -2.316   4.230   2.716  1.00  0.00     0.123 A 
ATOM     20  C   UNL     1      -1.439   5.151   2.143  1.00  0.00     0.040 A 
ATOM     21  F   UNL     1      -3.318   4.681   3.483  1.00  0.00    -0.207 F 
BRANCH  16  22
ATOM     22  C   UNL     1       2.142   4.371  -0.592  1.00  0.00    -0.021 A 
ATOM     23  C   UNL     1       3.067   5.062   0.195  1.00  0.00     0.008 A 
ATOM     24  C   UNL     1       1.488   5.037  -1.641  1.00  0.00     0.054 A 
ATOM     25  C   UNL     1       3.323   6.410  -0.054  1.00  0.00     0.004 A 
ATOM     26  C   UNL     1       1.758   6.380  -1.912  1.00  0.00     0.120 A 
ATOM     27  C   UNL     1       2.669   7.063  -1.103  1.00  0.00     0.046 A 
BRANCH  26  28
ATOM     28  O   UNL     1       1.210   7.131  -2.917  1.00  0.00    -0.489 OA
BRANCH  28  29
ATOM     29  C   UNL     1       0.354   6.491  -3.870  1.00  0.00     0.265 C 
BRANCH  29  30
ATOM     30  C   UNL     1       1.111   5.625  -4.852  1.00  0.00    -0.011 A 
ATOM     31  C   UNL     1       2.150   6.166  -5.623  1.00  0.00     0.007 A 
ATOM     32  C   UNL     1       0.809   4.262  -4.983  1.00  0.00     0.007 A 
ATOM     33  C   UNL     1       2.892   5.351  -6.479  1.00  0.00     0.000 A 
ATOM     34  C   UNL     1       1.563   3.446  -5.826  1.00  0.00     0.000 A 
ATOM     35  C   UNL     1       2.606   3.990  -6.571  1.00  0.00     0.000 A 
ENDBRANCH  29  30
ENDBRANCH  28  29
ENDBRANCH  26  28
ENDBRANCH  16  22
ENDBRANCH   9  10
ENDBRANCH   7   9
ENDBRANCH   6   7
ENDBRANCH   5   6
ENDBRANCH   4   5
ENDBRANCH   3   4
ENDBRANCH   2   3
ENDBRANCH   1   2
BRANCH   1  36
ATOM     36  O   UNL     1       1.644   2.586   4.991  1.00  0.00    -0.377 OA
BRANCH  36  37
ATOM     37  C   UNL     1       2.211   2.437   6.271  1.00  0.00     0.188 C 
BRANCH  37  38
ATOM     38  C   UNL     1       1.559   3.249   7.395  1.00  0.00     0.188 C 
BRANCH  38  39
ATOM     39  O   UNL     1       0.273   3.767   7.065  1.00  0.00    -0.376 OA
BRANCH  39  40
ATOM     40  C   UNL     1       0.200   5.171   6.846  1.00  0.00     0.202 C 
BRANCH  40  41
ATOM     41  C   UNL     1       0.772   5.687   5.517  1.00  0.00     0.261 C 
BRANCH  41  42
ATOM     42  O   UNL     1       2.162   5.433   5.283  1.00  0.00    -0.460 OA
BRANCH  42  43
ATOM     43  C   UNL     1       3.061   5.937   6.153  1.00  0.00     0.338 C 
ATOM     44  O   UNL     1       2.834   6.630   7.128  1.00  0.00    -0.246 OA
BRANCH  43  45
ATOM     45  C   UNL     1       4.358   5.319   5.813  1.00  0.00     0.060 A 
ATOM     46  C   UNL     1       4.832   5.358   4.498  1.00  0.00     0.016 A 
ATOM     47  C   UNL     1       5.062   4.625   6.804  1.00  0.00     0.016 A 
ATOM     48  C   UNL     1       6.021   4.703   4.174  1.00  0.00     0.010 A 
ATOM     49  C   UNL     1       6.238   3.951   6.474  1.00  0.00     0.010 A 
ATOM     50  C   UNL     1       6.735   4.004   5.162  1.00  0.00    -0.014 A 
BRANCH  50  51
ATOM     51  C   UNL     1       8.114   3.541   4.882  1.00  0.00     0.031 A 
ATOM     52  C   UNL     1       8.439   2.116   4.564  1.00  0.00     0.074 A 
ATOM     53  C   UNL     1       9.088   4.467   4.967  1.00  0.00     0.049 A 
ATOM     54  N   UNL     1       9.600   1.596   4.261  1.00  0.00    -0.248 NA
ATOM     55  C   UNL     1       7.333   1.149   4.594  1.00  0.00     0.031 C 
ATOM     56  C   UNL     1       8.862   5.872   5.311  1.00  0.00     0.029 A 
ATOM     57  N   UNL     1      10.443   4.378   4.788  1.00  0.00    -0.354 N 
ATOM     58  C   UNL     1       9.371   0.242   4.047  1.00  0.00     0.074 A 
ATOM     59  C   UNL     1       7.961   0.016   4.296  1.00  0.00     0.031 C 
ATOM     60  C   UNL     1      10.036   6.515   5.314  1.00  0.00     0.029 A 
ATOM     61  C   UNL     1      11.101   5.566   5.004  1.00  0.00     0.049 A 
ATOM     62  H   UNL     1      10.901   3.546   4.531  1.00  0.00     0.167 HD
ATOM     63  C   UNL     1      10.261  -0.706   3.666  1.00  0.00     0.034 A 
ATOM     64  C   UNL     1      12.415   5.863   4.963  1.00  0.00     0.034 A 
ATOM     65  C   UNL     1      11.665  -0.444   3.442  1.00  0.00     0.049 A 
ATOM     66  C   UNL     1      13.382   4.788   4.549  1.00  0.00     0.074 A 
ATOM     67  C   UNL     1      12.635  -1.324   2.993  1.00  0.00     0.029 A 
ATOM     68  N   UNL     1      12.303   0.770   3.659  1.00  0.00    -0.354 N 
ATOM     69  N   UNL     1      13.133   3.539   4.231  1.00  0.00    -0.248 NA
ATOM     70  C   UNL     1      14.799   5.157   4.463  1.00  0.00     0.031 C 
ATOM     71  C   UNL     1      13.866  -0.668   3.016  1.00  0.00     0.029 A 
ATOM     72  C   UNL     1      13.658   0.650   3.392  1.00  0.00     0.049 A 
ATOM     73  H   UNL     1      11.858   1.596   3.958  1.00  0.00     0.167 HD
ATOM     74  C   UNL     1      14.358   2.979   3.886  1.00  0.00     0.074 A 
ATOM     75  C   UNL     1      15.343   4.035   4.008  1.00  0.00     0.031 C 
ATOM     76  C   UNL     1      14.638   1.706   3.509  1.00  0.00     0.034 A 
BRANCH  63  77
ATOM     77  C   UNL     1       9.779  -2.119   3.431  1.00  0.00     0.023 A 
ATOM     78  C   UNL     1      10.315  -3.185   4.181  1.00  0.00     0.031 A 
ATOM     79  C   UNL     1       8.936  -2.430   2.349  1.00  0.00     0.131 A 
ATOM     80  C   UNL     1      10.040  -4.508   3.811  1.00  0.00     0.055 A 
ATOM     81  C   UNL     1       8.632  -3.750   2.009  1.00  0.00     0.041 A 
ATOM     82  F   UNL     1       8.406  -1.454   1.594  1.00  0.00    -0.206 F 
ATOM     83  C   UNL     1       9.197  -4.796   2.732  1.00  0.00     0.022 A 
BRANCH  80  84
ATOM     84  S   UNL     1      10.826  -5.907   4.659  1.00  0.00     0.124 S 
ATOM     85  O   UNL     1       9.666  -6.660   5.131  1.00  0.00    -0.237 OA
ATOM     86  O   UNL     1      11.579  -6.536   3.577  1.00  0.00    -0.237 OA
ATOM     87  O   UNL     1      11.625  -5.279   5.705  1.00  0.00    -0.744 OA
ENDBRANCH  80  84
ENDBRANCH  63  77
BRANCH  64  88
ATOM     88  C   UNL     1      12.840   7.262   5.253  1.00  0.00     0.023 A 
ATOM     89  C   UNL     1      12.584   7.845   6.509  1.00  0.00     0.031 A 
ATOM     90  C   UNL     1      13.365   8.078   4.239  1.00  0.00     0.131 A 
ATOM     91  C   UNL     1      12.780   9.220   6.691  1.00  0.00     0.055 A 
ATOM     92  C   UNL     1      13.631   9.432   4.449  1.00  0.00     0.041 A 
ATOM     93  F   UNL     1      13.604   7.572   3.019  1.00  0.00    -0.206 F 
ATOM     94  C   UNL     1      13.318  10.014   5.674  1.00  0.00     0.022 A 
BRANCH  91  95
ATOM     95  S   UNL     1      12.195  10.050   8.195  1.00  0.00     0.124 S 
ATOM     96  O   UNL     1      13.432  10.603   8.737  1.00  0.00    -0.237 OA
ATOM     97  O   UNL     1      11.253  11.024   7.651  1.00  0.00    -0.237 OA
ATOM     98  O   UNL     1      11.592   8.972   8.972  1.00  0.00    -0.744 OA
ENDBRANCH  91  95
ENDBRANCH  64  88
BRANCH  76  99
ATOM     99  C   UNL     1      16.071   1.346   3.193  1.00  0.00     0.023 A 
ATOM    100  C   UNL     1      16.415   0.888   1.906  1.00  0.00     0.031 A 
ATOM    101  C   UNL     1      17.054   1.304   4.197  1.00  0.00     0.131 A 
ATOM    102  C   UNL     1      17.691   0.360   1.671  1.00  0.00     0.055 A 
ATOM    103  C   UNL     1      18.342   0.829   3.943  1.00  0.00     0.041 A 
ATOM    104  F   UNL     1      16.775   1.720   5.443  1.00  0.00    -0.206 F 
ATOM    105  C   UNL     1      18.659   0.338   2.680  1.00  0.00     0.022 A 
BRANCH 102 106
ATOM    106  S   UNL     1      18.109  -0.406   0.081  1.00  0.00     0.124 S 
ATOM    107  O   UNL     1      19.231   0.418  -0.366  1.00  0.00    -0.237 OA
ATOM    108  O   UNL     1      18.456  -1.768   0.478  1.00  0.00    -0.237 OA
ATOM    109  O   UNL     1      16.889  -0.273  -0.707  1.00  0.00    -0.744 OA
ENDBRANCH 102 106
ENDBRANCH  76  99
ENDBRANCH  50  51
ENDBRANCH  43  45
ENDBRANCH  42  43
ENDBRANCH  41  42
ENDBRANCH  40  41
ENDBRANCH  39  40
ENDBRANCH  38  39
ENDBRANCH  37  38
ENDBRANCH  36  37
ENDBRANCH   1  36
TORSDOF 28
