REMARK SMILES O=C(OCCOCCOCCOCCOC(=O)[C@H]1CC2=c3ccccc3=N[C@H]2[C@@H](c2ccccc2)[NH2+]1)c1ccc(-c2c3nc(c(-c4cc(S(=O)(=O)[O-])ccc4F)c4ccc([nH]4)c(-c4cc(S(=O)(=O)[O-])ccc4F)c4nc(c(-c5cc(S(=O)(=O)[O-])ccc5F)c5ccc2[nH]5)C=C4)C=C3)cc1
REMARK SMILES IDX 8 1 7 2 6 3 5 4 4 5 3 6 2 7 1 8 37 9 38 10 99 11 39 12 98 13
REMARK SMILES IDX 40 14 41 15 42 16 92 17 43 18 97 19 91 20 93 21 44 22 96 23
REMARK SMILES IDX 90 24 89 25 45 27 77 28 57 29 76 30 58 31 61 32 75 33 94 34
REMARK SMILES IDX 59 35 60 36 74 38 95 39 62 40 46 41 47 42 55 43 48 44 54 45
REMARK SMILES IDX 56 46 53 47 49 48 50 49 51 50 52 51 78 52 79 53 87 54 80 55
REMARK SMILES IDX 86 56 88 57 85 58 81 59 82 60 83 61 84 62 63 63 64 64 72 65
REMARK SMILES IDX 65 66 71 67 73 68 70 69 66 70 67 71 68 72 69 73 9 74 10 75
REMARK SMILES IDX 11 76 12 77 13 78 14 79 15 80 16 81 17 82 18 83 19 84 36 85
REMARK SMILES IDX 20 86 29 87 21 90 28 91 22 92 26 93 27 94 23 95 25 96 24 97
REMARK SMILES IDX 30 98 31 99 35 100 32 101 34 102 33 103
REMARK H PARENT 93 26 61 37 36 88 36 89
REMARK Flexibility Score: inf
ROOT
ATOM      1  C   UNL     1       2.596   1.600   1.231  1.00  0.00     0.188 C 
ENDROOT
BRANCH   1   2
ATOM      2  C   UNL     1       3.035   0.172   1.466  1.00  0.00     0.188 C 
BRANCH   2   3
ATOM      3  O   UNL     1       4.387  -0.120   1.142  1.00  0.00    -0.376 OA
BRANCH   3   4
ATOM      4  C   UNL     1       4.979   0.190  -0.108  1.00  0.00     0.202 C 
BRANCH   4   5
ATOM      5  C   UNL     1       4.196   0.079  -1.417  1.00  0.00     0.261 C 
BRANCH   5   6
ATOM      6  O   UNL     1       2.880  -0.488  -1.366  1.00  0.00    -0.460 OA
BRANCH   6   7
ATOM      7  C   UNL     1       2.668  -1.830  -1.464  1.00  0.00     0.338 C 
ATOM      8  O   UNL     1       1.791  -2.297  -2.178  1.00  0.00    -0.246 OA
BRANCH   7   9
ATOM      9  C   UNL     1       3.246  -2.598  -0.340  1.00  0.00     0.060 A 
ATOM     10  C   UNL     1       2.378  -3.059   0.663  1.00  0.00     0.016 A 
ATOM     11  C   UNL     1       4.624  -2.725  -0.191  1.00  0.00     0.016 A 
ATOM     12  C   UNL     1       2.898  -3.564   1.858  1.00  0.00     0.010 A 
ATOM     13  C   UNL     1       5.143  -3.123   1.039  1.00  0.00     0.010 A 
ATOM     14  C   UNL     1       4.286  -3.584   2.058  1.00  0.00    -0.014 A 
BRANCH  14  15
ATOM     15  C   UNL     1       4.881  -4.466   3.087  1.00  0.00     0.031 A 
ATOM     16  C   UNL     1       5.175  -4.061   4.496  1.00  0.00     0.074 A 
ATOM     17  C   UNL     1       5.250  -5.673   2.617  1.00  0.00     0.049 A 
ATOM     18  N   UNL     1       5.636  -4.811   5.465  1.00  0.00    -0.248 NA
ATOM     19  C   UNL     1       4.931  -2.665   4.880  1.00  0.00     0.031 C 
ATOM     20  C   UNL     1       5.040  -6.118   1.233  1.00  0.00     0.029 A 
ATOM     21  N   UNL     1       5.930  -6.703   3.196  1.00  0.00    -0.354 N 
ATOM     22  C   UNL     1       5.689  -4.002   6.594  1.00  0.00     0.074 A 
ATOM     23  C   UNL     1       5.275  -2.678   6.167  1.00  0.00     0.031 C 
ATOM     24  C   UNL     1       5.673  -7.275   1.042  1.00  0.00     0.029 A 
ATOM     25  C   UNL     1       6.267  -7.690   2.304  1.00  0.00     0.049 A 
ATOM     26  H   UNL     1       6.155  -6.736   4.154  1.00  0.00     0.167 HD
ATOM     27  C   UNL     1       6.030  -4.362   7.859  1.00  0.00     0.034 A 
ATOM     28  C   UNL     1       6.957  -8.830   2.473  1.00  0.00     0.034 A 
ATOM     29  C   UNL     1       6.496  -5.692   8.205  1.00  0.00     0.049 A 
ATOM     30  C   UNL     1       7.303  -9.218   3.873  1.00  0.00     0.074 A 
ATOM     31  C   UNL     1       6.781  -6.206   9.459  1.00  0.00     0.029 A 
ATOM     32  N   UNL     1       6.773  -6.709   7.296  1.00  0.00    -0.354 N 
ATOM     33  N   UNL     1       7.169  -8.512   4.972  1.00  0.00    -0.248 NA
ATOM     34  C   UNL     1       7.815 -10.573   4.075  1.00  0.00     0.031 C 
ATOM     35  C   UNL     1       7.303  -7.494   9.302  1.00  0.00     0.029 A 
ATOM     36  C   UNL     1       7.269  -7.826   7.957  1.00  0.00     0.049 A 
ATOM     37  H   UNL     1       6.637  -6.646   6.323  1.00  0.00     0.167 HD
ATOM     38  C   UNL     1       7.575  -9.342   6.006  1.00  0.00     0.074 A 
ATOM     39  C   UNL     1       7.912 -10.617   5.397  1.00  0.00     0.031 C 
ATOM     40  C   UNL     1       7.663  -9.072   7.333  1.00  0.00     0.034 A 
BRANCH  27  41
ATOM     41  C   UNL     1       5.872  -3.358   8.986  1.00  0.00     0.023 A 
ATOM     42  C   UNL     1       6.961  -3.025   9.818  1.00  0.00     0.031 A 
ATOM     43  C   UNL     1       4.600  -2.875   9.351  1.00  0.00     0.131 A 
ATOM     44  C   UNL     1       6.751  -2.271  10.984  1.00  0.00     0.055 A 
ATOM     45  C   UNL     1       4.404  -2.089  10.489  1.00  0.00     0.041 A 
ATOM     46  F   UNL     1       3.518  -3.178   8.615  1.00  0.00    -0.206 F 
ATOM     47  C   UNL     1       5.480  -1.795  11.319  1.00  0.00     0.022 A 
BRANCH  44  48
ATOM     48  S   UNL     1       8.096  -1.950  12.163  1.00  0.00     0.124 S 
ATOM     49  O   UNL     1       8.143  -0.490  12.178  1.00  0.00    -0.237 OA
ATOM     50  O   UNL     1       7.585  -2.567  13.385  1.00  0.00    -0.237 OA
ATOM     51  O   UNL     1       9.253  -2.604  11.563  1.00  0.00    -0.744 OA
ENDBRANCH  44  48
ENDBRANCH  27  41
BRANCH  28  52
ATOM     52  C   UNL     1       7.149  -9.694   1.280  1.00  0.00     0.023 A 
ATOM     53  C   UNL     1       7.937  -9.245   0.201  1.00  0.00     0.031 A 
ATOM     54  C   UNL     1       6.336 -10.822   1.091  1.00  0.00     0.131 A 
ATOM     55  C   UNL     1       7.823  -9.874  -1.045  1.00  0.00     0.055 A 
ATOM     56  C   UNL     1       6.281 -11.487  -0.133  1.00  0.00     0.041 A 
ATOM     57  F   UNL     1       5.532 -11.247   2.078  1.00  0.00    -0.206 F 
ATOM     58  C   UNL     1       7.010 -11.000  -1.214  1.00  0.00     0.022 A 
BRANCH  55  59
ATOM     59  S   UNL     1       8.566  -9.137  -2.530  1.00  0.00     0.124 S 
ATOM     60  O   UNL     1       9.479 -10.187  -2.967  1.00  0.00    -0.237 OA
ATOM     61  O   UNL     1       7.394  -8.925  -3.377  1.00  0.00    -0.237 OA
ATOM     62  O   UNL     1       9.196  -7.918  -2.034  1.00  0.00    -0.744 OA
ENDBRANCH  55  59
ENDBRANCH  28  52
BRANCH  40  63
ATOM     63  C   UNL     1       8.228 -10.158   8.217  1.00  0.00     0.023 A 
ATOM     64  C   UNL     1       7.455 -10.724   9.247  1.00  0.00     0.031 A 
ATOM     65  C   UNL     1       9.564 -10.581   8.080  1.00  0.00     0.131 A 
ATOM     66  C   UNL     1       8.029 -11.667  10.109  1.00  0.00     0.055 A 
ATOM     67  C   UNL     1      10.114 -11.559   8.906  1.00  0.00     0.041 A 
ATOM     68  F   UNL     1      10.346 -10.066   7.117  1.00  0.00    -0.206 F 
ATOM     69  C   UNL     1       9.349 -12.099   9.934  1.00  0.00     0.022 A 
BRANCH  66  70
ATOM     70  S   UNL     1       7.114 -12.320  11.531  1.00  0.00     0.124 S 
ATOM     71  O   UNL     1       7.027 -13.742  11.206  1.00  0.00    -0.237 OA
ATOM     72  O   UNL     1       7.998 -11.989  12.645  1.00  0.00    -0.237 OA
ATOM     73  O   UNL     1       5.848 -11.596  11.498  1.00  0.00    -0.744 OA
ENDBRANCH  66  70
ENDBRANCH  40  63
ENDBRANCH  14  15
ENDBRANCH   7   9
ENDBRANCH   6   7
ENDBRANCH   5   6
ENDBRANCH   4   5
ENDBRANCH   3   4
ENDBRANCH   2   3
ENDBRANCH   1   2
BRANCH   1  74
ATOM     74  O   UNL     1       3.185   2.537   2.119  1.00  0.00    -0.377 OA
BRANCH  74  75
ATOM     75  C   UNL     1       4.597   2.484   2.248  1.00  0.00     0.188 C 
BRANCH  75  76
ATOM     76  C   UNL     1       5.215   1.693   3.398  1.00  0.00     0.188 C 
BRANCH  76  77
ATOM     77  O   UNL     1       4.637   1.726   4.695  1.00  0.00    -0.376 OA
BRANCH  77  78
ATOM     78  C   UNL     1       3.303   2.164   4.879  1.00  0.00     0.202 C 
BRANCH  78  79
ATOM     79  C   UNL     1       3.171   3.676   5.141  1.00  0.00     0.261 C 
BRANCH  79  80
ATOM     80  O   UNL     1       3.474   4.564   4.037  1.00  0.00    -0.459 OA
BRANCH  80  81
ATOM     81  C   UNL     1       4.747   5.058   3.998  1.00  0.00     0.365 C 
ATOM     82  O   UNL     1       5.638   4.744   4.780  1.00  0.00    -0.245 OA
BRANCH  81  83
ATOM     83  C   UNL     1       4.971   6.096   2.868  1.00  0.00     0.298 C 
ATOM     84  C   UNL     1       4.639   5.706   1.393  1.00  0.00     0.111 C 
ATOM     85  N   UNL     1       4.311   7.349   3.293  1.00  0.00    -0.326 N 
ATOM     86  C   UNL     1       3.767   6.719   0.728  1.00  0.00    -0.024 C 
ATOM     87  C   UNL     1       4.623   8.442   2.341  1.00  0.00     0.243 C 
ATOM     88  H   UNL     1       4.644   7.607   4.222  1.00  0.00     0.347 HD
ATOM     89  H   UNL     1       3.302   7.203   3.313  1.00  0.00     0.347 HD
ATOM     90  C   UNL     1       2.555   6.555   0.209  1.00  0.00     0.002 A 
ATOM     91  C   UNL     1       4.120   8.170   0.884  1.00  0.00     0.196 C 
ATOM     92  C   UNL     1       1.709   5.440  -0.064  1.00  0.00     0.010 A 
ATOM     93  C   UNL     1       2.071   7.941   0.126  1.00  0.00     0.066 A 
ATOM     94  N   UNL     1       2.872   8.890   0.501  1.00  0.00    -0.270 NA
ATOM     95  C   UNL     1       0.445   5.672  -0.454  1.00  0.00     0.001 A 
ATOM     96  C   UNL     1       0.673   8.117  -0.322  1.00  0.00     0.028 A 
ATOM     97  C   UNL     1      -0.069   7.026  -0.584  1.00  0.00     0.002 A 
BRANCH  87  98
ATOM     98  C   UNL     1       4.221   9.778   2.924  1.00  0.00     0.012 A 
ATOM     99  C   UNL     1       3.087   9.911   3.741  1.00  0.00     0.010 A 
ATOM    100  C   UNL     1       5.010  10.908   2.670  1.00  0.00     0.010 A 
ATOM    101  C   UNL     1       2.768  11.135   4.319  1.00  0.00     0.001 A 
ATOM    102  C   UNL     1       4.684  12.135   3.243  1.00  0.00     0.001 A 
ATOM    103  C   UNL     1       3.568  12.246   4.072  1.00  0.00     0.000 A 
ENDBRANCH  87  98
ENDBRANCH  81  83
ENDBRANCH  80  81
ENDBRANCH  79  80
ENDBRANCH  78  79
ENDBRANCH  77  78
ENDBRANCH  76  77
ENDBRANCH  75  76
ENDBRANCH  74  75
ENDBRANCH   1  74
TORSDOF 24
