REMARK SMILES O=C(OCCOCCOCCOCCOC(=O)[C@H]1CCC[C@@H]1C[NH2+][C@@H]1CCOC2(CCC2)C1)c1ccc(-c2c3nc(c(-c4cc(S(=O)(=O)[O-])ccc4F)c4ccc([nH]4)c(-c4cc(S(=O)(=O)[O-])ccc4F)c4nc(c(-c5cc(S(=O)(=O)[O-])ccc5F)c5ccc2[nH]5)C=C4)C=C3)cc1
REMARK SMILES IDX 9 1 8 2 7 3 6 4 5 5 4 6 3 7 2 8 1 9 34 10 35 11 96 12 36 13
REMARK SMILES IDX 95 14 37 15 38 16 39 17 89 18 40 19 94 20 88 21 90 22 41 23
REMARK SMILES IDX 93 24 87 25 86 26 42 28 74 29 54 30 73 31 55 32 58 33 72 34
REMARK SMILES IDX 91 35 56 36 57 37 71 39 92 40 59 41 43 42 44 43 52 44 45 45
REMARK SMILES IDX 51 46 53 47 50 48 46 49 47 50 48 51 49 52 75 53 76 54 84 55
REMARK SMILES IDX 77 56 83 57 85 58 82 59 78 60 79 61 80 62 81 63 60 64 61 65
REMARK SMILES IDX 69 66 62 67 68 68 70 69 67 70 63 71 64 72 65 73 66 74 10 75
REMARK SMILES IDX 11 76 12 77 13 78 14 79 15 80 16 81 17 82 18 83 19 84 22 85
REMARK SMILES IDX 20 86 21 87 23 88 24 89 25 92 26 93 33 94 27 95 29 96 28 97
REMARK SMILES IDX 30 98 32 99 31 100
REMARK H PARENT 90 27 58 38 24 90 24 91
REMARK Flexibility Score: inf
ROOT
ATOM      1  O   UNL     1       7.361  -0.329   6.596  1.00  0.00    -0.377 OA
ENDROOT
BRANCH   1   2
ATOM      2  C   UNL     1       8.579  -0.631   7.258  1.00  0.00     0.188 C 
BRANCH   2   3
ATOM      3  C   UNL     1       9.849  -0.206   6.522  1.00  0.00     0.188 C 
BRANCH   3   4
ATOM      4  O   UNL     1       9.946   1.204   6.350  1.00  0.00    -0.376 OA
BRANCH   4   5
ATOM      5  C   UNL     1      10.259   1.691   5.045  1.00  0.00     0.202 C 
BRANCH   5   6
ATOM      6  C   UNL     1      11.744   1.639   4.693  1.00  0.00     0.261 C 
BRANCH   6   7
ATOM      7  O   UNL     1      12.403   0.500   5.256  1.00  0.00    -0.460 OA
BRANCH   7   8
ATOM      8  C   UNL     1      12.887   0.352   6.515  1.00  0.00     0.338 C 
ATOM      9  O   UNL     1      13.358  -0.748   6.809  1.00  0.00    -0.246 OA
BRANCH   8  10
ATOM     10  C   UNL     1      12.847   1.402   7.593  1.00  0.00     0.060 A 
ATOM     11  C   UNL     1      12.083   2.573   7.587  1.00  0.00     0.016 A 
ATOM     12  C   UNL     1      13.614   1.140   8.744  1.00  0.00     0.016 A 
ATOM     13  C   UNL     1      12.077   3.456   8.655  1.00  0.00     0.010 A 
ATOM     14  C   UNL     1      13.644   2.037   9.816  1.00  0.00     0.010 A 
ATOM     15  C   UNL     1      12.891   3.212   9.752  1.00  0.00    -0.014 A 
BRANCH  15  16
ATOM     16  C   UNL     1      13.131   4.347  10.655  1.00  0.00     0.031 A 
ATOM     17  C   UNL     1      14.370   5.153  10.404  1.00  0.00     0.074 A 
ATOM     18  C   UNL     1      12.181   4.738  11.520  1.00  0.00     0.049 A 
ATOM     19  N   UNL     1      14.857   6.161  11.070  1.00  0.00    -0.248 NA
ATOM     20  C   UNL     1      15.161   4.780   9.215  1.00  0.00     0.031 C 
ATOM     21  C   UNL     1      10.865   4.110  11.668  1.00  0.00     0.029 A 
ATOM     22  N   UNL     1      12.159   5.774  12.413  1.00  0.00    -0.354 N 
ATOM     23  C   UNL     1      16.023   6.519  10.403  1.00  0.00     0.074 A 
ATOM     24  C   UNL     1      16.175   5.625   9.281  1.00  0.00     0.031 C 
ATOM     25  C   UNL     1      10.166   4.777  12.602  1.00  0.00     0.029 A 
ATOM     26  C   UNL     1      11.011   5.821  13.170  1.00  0.00     0.049 A 
ATOM     27  H   UNL     1      12.893   6.423  12.505  1.00  0.00     0.167 HD
ATOM     28  C   UNL     1      16.892   7.505  10.724  1.00  0.00     0.034 A 
ATOM     29  C   UNL     1      10.722   6.593  14.236  1.00  0.00     0.034 A 
ATOM     30  C   UNL     1      16.694   8.356  11.867  1.00  0.00     0.049 A 
ATOM     31  C   UNL     1      11.777   7.586  14.668  1.00  0.00     0.074 A 
ATOM     32  C   UNL     1      17.525   9.332  12.378  1.00  0.00     0.029 A 
ATOM     33  N   UNL     1      15.568   8.315  12.686  1.00  0.00    -0.354 N 
ATOM     34  N   UNL     1      12.935   7.857  14.105  1.00  0.00    -0.248 NA
ATOM     35  C   UNL     1      11.498   8.367  15.876  1.00  0.00     0.031 C 
ATOM     36  C   UNL     1      16.937   9.827  13.547  1.00  0.00     0.029 A 
ATOM     37  C   UNL     1      15.696   9.228  13.716  1.00  0.00     0.049 A 
ATOM     38  H   UNL     1      14.793   7.722  12.551  1.00  0.00     0.167 HD
ATOM     39  C   UNL     1      13.509   8.863  14.875  1.00  0.00     0.074 A 
ATOM     40  C   UNL     1      12.557   9.161  15.928  1.00  0.00     0.031 C 
ATOM     41  C   UNL     1      14.708   9.487  14.738  1.00  0.00     0.034 A 
BRANCH  28  42
ATOM     42  C   UNL     1      18.154   7.603   9.907  1.00  0.00     0.023 A 
ATOM     43  C   UNL     1      18.142   7.940   8.541  1.00  0.00     0.031 A 
ATOM     44  C   UNL     1      19.387   7.260  10.489  1.00  0.00     0.131 A 
ATOM     45  C   UNL     1      19.326   7.856   7.790  1.00  0.00     0.055 A 
ATOM     46  C   UNL     1      20.574   7.256   9.755  1.00  0.00     0.041 A 
ATOM     47  F   UNL     1      19.454   6.889  11.777  1.00  0.00    -0.206 F 
ATOM     48  C   UNL     1      20.546   7.541   8.394  1.00  0.00     0.022 A 
BRANCH  45  49
ATOM     49  S   UNL     1      19.227   8.014   5.985  1.00  0.00     0.124 S 
ATOM     50  O   UNL     1      18.370   6.883   5.635  1.00  0.00    -0.237 OA
ATOM     51  O   UNL     1      18.638   9.337   5.814  1.00  0.00    -0.237 OA
ATOM     52  O   UNL     1      20.618   7.891   5.552  1.00  0.00    -0.744 OA
ENDBRANCH  45  49
ENDBRANCH  28  42
BRANCH  29  53
ATOM     53  C   UNL     1       9.461   6.402  15.015  1.00  0.00     0.023 A 
ATOM     54  C   UNL     1       8.569   7.463  15.240  1.00  0.00     0.031 A 
ATOM     55  C   UNL     1       9.169   5.167  15.628  1.00  0.00     0.131 A 
ATOM     56  C   UNL     1       7.471   7.289  16.100  1.00  0.00     0.055 A 
ATOM     57  C   UNL     1       8.038   4.979  16.425  1.00  0.00     0.041 A 
ATOM     58  F   UNL     1       9.988   4.115  15.467  1.00  0.00    -0.206 F 
ATOM     59  C   UNL     1       7.191   6.051  16.681  1.00  0.00     0.022 A 
BRANCH  56  60
ATOM     60  S   UNL     1       6.486   8.743  16.557  1.00  0.00     0.124 S 
ATOM     61  O   UNL     1       7.509   9.643  17.076  1.00  0.00    -0.237 OA
ATOM     62  O   UNL     1       5.889   9.118  15.279  1.00  0.00    -0.237 OA
ATOM     63  O   UNL     1       5.550   8.222  17.551  1.00  0.00    -0.744 OA
ENDBRANCH  56  60
ENDBRANCH  29  53
BRANCH  41  64
ATOM     64  C   UNL     1      15.012  10.586  15.720  1.00  0.00     0.023 A 
ATOM     65  C   UNL     1      15.215  10.322  17.084  1.00  0.00     0.031 A 
ATOM     66  C   UNL     1      15.109  11.916  15.274  1.00  0.00     0.131 A 
ATOM     67  C   UNL     1      15.445  11.384  17.967  1.00  0.00     0.055 A 
ATOM     68  C   UNL     1      15.413  12.959  16.147  1.00  0.00     0.041 A 
ATOM     69  F   UNL     1      14.923  12.219  13.979  1.00  0.00    -0.206 F 
ATOM     70  C   UNL     1      15.569  12.697  17.505  1.00  0.00     0.022 A 
BRANCH  67  71
ATOM     71  S   UNL     1      15.480  11.036  19.745  1.00  0.00     0.124 S 
ATOM     72  O   UNL     1      14.162  10.448  19.964  1.00  0.00    -0.237 OA
ATOM     73  O   UNL     1      16.612  10.123  19.863  1.00  0.00    -0.237 OA
ATOM     74  O   UNL     1      15.681  12.353  20.347  1.00  0.00    -0.744 OA
ENDBRANCH  67  71
ENDBRANCH  41  64
ENDBRANCH  15  16
ENDBRANCH   8  10
ENDBRANCH   7   8
ENDBRANCH   6   7
ENDBRANCH   5   6
ENDBRANCH   4   5
ENDBRANCH   3   4
ENDBRANCH   2   3
ENDBRANCH   1   2
BRANCH   1  75
ATOM     75  C   UNL     1       7.195   1.016   6.170  1.00  0.00     0.188 C 
BRANCH  75  76
ATOM     76  C   UNL     1       7.513   2.179   7.158  1.00  0.00     0.188 C 
BRANCH  76  77
ATOM     77  O   UNL     1       7.567   1.778   8.513  1.00  0.00    -0.376 OA
BRANCH  77  78
ATOM     78  C   UNL     1       6.375   1.987   9.257  1.00  0.00     0.202 C 
BRANCH  78  79
ATOM     79  C   UNL     1       5.121   1.314   8.679  1.00  0.00     0.261 C 
BRANCH  79  80
ATOM     80  O   UNL     1       4.698   1.747   7.356  1.00  0.00    -0.463 OA
BRANCH  80  81
ATOM     81  C   UNL     1       4.545   3.075   7.081  1.00  0.00     0.309 C 
ATOM     82  O   UNL     1       4.585   3.953   7.919  1.00  0.00    -0.252 OA
BRANCH  81  83
ATOM     83  C   UNL     1       4.307   3.294   5.567  1.00  0.00     0.108 C 
ATOM     84  C   UNL     1       3.515   4.583   5.386  1.00  0.00     0.016 C 
ATOM     85  C   UNL     1       5.511   3.464   4.590  1.00  0.00     0.058 C 
ATOM     86  C   UNL     1       4.555   5.657   5.090  1.00  0.00     0.001 C 
ATOM     87  C   UNL     1       5.821   4.958   4.615  1.00  0.00     0.010 C 
BRANCH  85  88
ATOM     88  C   UNL     1       5.372   2.916   3.126  1.00  0.00     0.265 C 
BRANCH  88  89
ATOM     89  N   UNL     1       4.297   3.508   2.335  1.00  0.00    -0.343 N 
ATOM     90  H   UNL     1       4.586   4.453   2.085  1.00  0.00     0.346 HD
ATOM     91  H   UNL     1       3.472   3.448   2.932  1.00  0.00     0.346 HD
BRANCH  89  92
ATOM     92  C   UNL     1       3.911   2.819   1.088  1.00  0.00     0.187 C 
ATOM     93  C   UNL     1       2.714   3.569   0.461  1.00  0.00     0.093 C 
ATOM     94  C   UNL     1       3.517   1.330   1.199  1.00  0.00     0.100 C 
ATOM     95  C   UNL     1       1.412   3.323   1.223  1.00  0.00     0.167 C 
ATOM     96  C   UNL     1       2.232   1.161   2.016  1.00  0.00     0.074 C 
ATOM     97  O   UNL     1       1.168   1.923   1.389  1.00  0.00    -0.375 OA
ATOM     98  C   UNL     1       1.873  -0.319   2.365  1.00  0.00     0.036 C 
ATOM     99  C   UNL     1       2.407   1.363   3.533  1.00  0.00     0.036 C 
ATOM    100  C   UNL     1       1.568   0.129   3.806  1.00  0.00     0.006 C 
ENDBRANCH  89  92
ENDBRANCH  88  89
ENDBRANCH  85  88
ENDBRANCH  81  83
ENDBRANCH  80  81
ENDBRANCH  79  80
ENDBRANCH  78  79
ENDBRANCH  77  78
ENDBRANCH  76  77
ENDBRANCH  75  76
ENDBRANCH   1  75
TORSDOF 26
