REMARK SMILES Cc1c(CC(=O)OCCOCCOCCOCCOC(=O)c2ccc(-c3c4nc(c(-c5cc(S(=O)(=O)[O-])ccc5F)c5ccc([nH]5)c(-c5cc(S(=O)(=O)[O-])ccc5F)c5nc(c(-c6cc(S(=O)(=O)[O-])ccc6F)c6ccc3[nH]6)C=C5)C=C4)cc2)c2ccccc2n1C(=O)c1ccc(Cl)cc1
REMARK SMILES IDX 13 1 12 2 11 3 10 4 9 5 8 6 7 7 5 8 6 9 4 10 3 11 1 12 2 13
REMARK SMILES IDX 91 14 85 15 90 16 86 17 89 18 87 19 88 20 92 21 93 22 94 23
REMARK SMILES IDX 95 24 100 25 96 26 99 27 97 28 98 29 14 30 15 31 16 32 17 33
REMARK SMILES IDX 18 34 19 35 20 36 21 37 22 38 23 39 84 40 24 41 83 42 25 43
REMARK SMILES IDX 26 44 27 45 77 46 28 47 82 48 76 49 78 50 29 51 81 52 75 53
REMARK SMILES IDX 74 54 30 56 62 57 42 58 61 59 43 60 46 61 60 62 79 63 44 64
REMARK SMILES IDX 45 65 59 67 80 68 47 69 31 70 32 71 40 72 33 73 39 74 41 75
REMARK SMILES IDX 38 76 34 77 35 78 36 79 37 80 63 81 64 82 72 83 65 84 71 85
REMARK SMILES IDX 73 86 70 87 66 88 67 89 68 90 69 91 48 92 49 93 57 94 50 95
REMARK SMILES IDX 56 96 58 97 55 98 51 99 52 100 53 101 54 102
REMARK H PARENT 78 55 46 66
REMARK Flexibility Score: inf
ROOT
ATOM      1  O   UNL     1       2.368  -3.656   3.806  1.00  0.00    -0.377 OA
ENDROOT
BRANCH   1   2
ATOM      2  C   UNL     1       1.894  -4.069   2.557  1.00  0.00     0.188 C 
BRANCH   2   3
ATOM      3  C   UNL     1       2.383  -5.328   1.842  1.00  0.00     0.188 C 
BRANCH   3   4
ATOM      4  O   UNL     1       3.771  -5.526   1.738  1.00  0.00    -0.376 OA
BRANCH   4   5
ATOM      5  C   UNL     1       4.628  -4.788   0.885  1.00  0.00     0.202 C 
BRANCH   5   6
ATOM      6  C   UNL     1       4.307  -3.474   0.137  1.00  0.00     0.261 C 
BRANCH   6   7
ATOM      7  O   UNL     1       2.978  -2.931   0.189  1.00  0.00    -0.463 OA
BRANCH   7   8
ATOM      8  C   UNL     1       2.125  -3.259  -0.805  1.00  0.00     0.310 C 
ATOM      9  O   UNL     1       2.433  -4.007  -1.732  1.00  0.00    -0.252 OA
BRANCH   8  10
ATOM     10  C   UNL     1       0.707  -2.698  -0.702  1.00  0.00     0.160 C 
BRANCH  10  11
ATOM     11  C   UNL     1       0.234  -1.889   0.497  1.00  0.00    -0.008 A 
ATOM     12  C   UNL     1       1.185   0.422  -0.141  1.00  0.00     0.065 C 
ATOM     13  C   UNL     1       0.435  -0.532   0.737  1.00  0.00     0.028 A 
ATOM     14  N   UNL     1      -0.169  -0.173   1.960  1.00  0.00    -0.280 N 
ATOM     15  C   UNL     1      -0.617  -2.358   1.554  1.00  0.00     0.004 A 
ATOM     16  C   UNL     1      -0.727  -1.341   2.512  1.00  0.00     0.056 A 
ATOM     17  C   UNL     1      -1.233  -3.609   1.820  1.00  0.00     0.010 A 
ATOM     18  C   UNL     1      -1.345  -1.607   3.757  1.00  0.00     0.027 A 
ATOM     19  C   UNL     1      -1.810  -3.868   3.069  1.00  0.00     0.001 A 
ATOM     20  C   UNL     1      -1.844  -2.880   4.034  1.00  0.00     0.002 A 
BRANCH  14  21
ATOM     21  C   UNL     1      -0.263   1.142   2.517  1.00  0.00     0.262 C 
ATOM     22  O   UNL     1       0.107   2.108   1.853  1.00  0.00    -0.268 OA
BRANCH  21  23
ATOM     23  C   UNL     1      -0.841   1.483   3.831  1.00  0.00     0.040 A 
ATOM     24  C   UNL     1      -0.097   1.286   5.000  1.00  0.00     0.015 A 
ATOM     25  C   UNL     1      -2.131   2.028   3.891  1.00  0.00     0.015 A 
ATOM     26  C   UNL     1      -0.677   1.569   6.241  1.00  0.00     0.021 A 
ATOM     27  C   UNL     1      -2.702   2.317   5.134  1.00  0.00     0.021 A 
ATOM     28  C   UNL     1      -1.978   2.073   6.303  1.00  0.00     0.041 A 
ATOM     29  Cl  UNL     1      -2.703   2.386   7.832  1.00  0.00    -0.084 Cl
ENDBRANCH  21  23
ENDBRANCH  14  21
ENDBRANCH  10  11
ENDBRANCH   8  10
ENDBRANCH   7   8
ENDBRANCH   6   7
ENDBRANCH   5   6
ENDBRANCH   4   5
ENDBRANCH   3   4
ENDBRANCH   2   3
ENDBRANCH   1   2
BRANCH   1  30
ATOM     30  C   UNL     1       3.710  -3.936   4.066  1.00  0.00     0.188 C 
BRANCH  30  31
ATOM     31  C   UNL     1       3.882  -5.233   4.851  1.00  0.00     0.188 C 
BRANCH  31  32
ATOM     32  O   UNL     1       2.751  -5.922   5.377  1.00  0.00    -0.376 OA
BRANCH  32  33
ATOM     33  C   UNL     1       1.597  -5.230   5.831  1.00  0.00     0.202 C 
BRANCH  33  34
ATOM     34  C   UNL     1       1.647  -3.968   6.729  1.00  0.00     0.261 C 
BRANCH  34  35
ATOM     35  O   UNL     1       2.821  -3.162   6.619  1.00  0.00    -0.460 OA
BRANCH  35  36
ATOM     36  C   UNL     1       3.628  -3.022   7.699  1.00  0.00     0.338 C 
ATOM     37  O   UNL     1       3.388  -3.326   8.852  1.00  0.00    -0.246 OA
BRANCH  36  38
ATOM     38  C   UNL     1       4.967  -2.723   7.136  1.00  0.00     0.060 A 
ATOM     39  C   UNL     1       5.137  -1.674   6.226  1.00  0.00     0.016 A 
ATOM     40  C   UNL     1       5.908  -3.758   7.224  1.00  0.00     0.016 A 
ATOM     41  C   UNL     1       6.154  -1.776   5.277  1.00  0.00     0.010 A 
ATOM     42  C   UNL     1       6.907  -3.865   6.257  1.00  0.00     0.010 A 
ATOM     43  C   UNL     1       6.989  -2.913   5.240  1.00  0.00    -0.014 A 
BRANCH  43  44
ATOM     44  C   UNL     1       8.086  -2.920   4.261  1.00  0.00     0.031 A 
ATOM     45  C   UNL     1       9.036  -1.802   4.515  1.00  0.00     0.074 A 
ATOM     46  C   UNL     1       8.401  -3.866   3.350  1.00  0.00     0.049 A 
ATOM     47  N   UNL     1       9.339  -0.797   3.761  1.00  0.00    -0.248 NA
ATOM     48  C   UNL     1       9.568  -1.723   5.886  1.00  0.00     0.031 C 
ATOM     49  C   UNL     1       7.838  -5.209   3.204  1.00  0.00     0.029 A 
ATOM     50  N   UNL     1       9.402  -3.852   2.414  1.00  0.00    -0.354 N 
ATOM     51  C   UNL     1      10.234  -0.036   4.512  1.00  0.00     0.074 A 
ATOM     52  C   UNL     1      10.172  -0.541   5.859  1.00  0.00     0.031 C 
ATOM     53  C   UNL     1       8.644  -5.946   2.402  1.00  0.00     0.029 A 
ATOM     54  C   UNL     1       9.709  -5.100   1.885  1.00  0.00     0.049 A 
ATOM     55  H   UNL     1       9.865  -3.028   2.139  1.00  0.00     0.167 HD
ATOM     56  C   UNL     1      11.128   0.826   3.954  1.00  0.00     0.034 A 
ATOM     57  C   UNL     1      10.807  -5.441   1.160  1.00  0.00     0.034 A 
ATOM     58  C   UNL     1      10.781   1.157   2.603  1.00  0.00     0.049 A 
ATOM     59  C   UNL     1      11.466  -4.206   0.676  1.00  0.00     0.074 A 
ATOM     60  C   UNL     1       9.724   1.809   2.003  1.00  0.00     0.029 A 
ATOM     61  N   UNL     1      11.443   0.502   1.596  1.00  0.00    -0.354 N 
ATOM     62  N   UNL     1      10.991  -3.419  -0.245  1.00  0.00    -0.248 NA
ATOM     63  C   UNL     1      12.502  -3.631   1.519  1.00  0.00     0.031 C 
ATOM     64  C   UNL     1       9.541   1.151   0.756  1.00  0.00     0.029 A 
ATOM     65  C   UNL     1      10.515   0.156   0.648  1.00  0.00     0.049 A 
ATOM     66  H   UNL     1      12.409   0.315   1.560  1.00  0.00     0.167 HD
ATOM     67  C   UNL     1      11.330  -2.144   0.181  1.00  0.00     0.074 A 
ATOM     68  C   UNL     1      12.347  -2.344   1.209  1.00  0.00     0.031 C 
ATOM     69  C   UNL     1      10.564  -1.061  -0.139  1.00  0.00     0.034 A 
BRANCH  56  70
ATOM     70  C   UNL     1      12.481   1.108   4.559  1.00  0.00     0.023 A 
ATOM     71  C   UNL     1      13.039   0.308   5.576  1.00  0.00     0.031 A 
ATOM     72  C   UNL     1      13.344   2.063   3.993  1.00  0.00     0.131 A 
ATOM     73  C   UNL     1      14.346   0.491   6.034  1.00  0.00     0.055 A 
ATOM     74  C   UNL     1      14.681   2.195   4.393  1.00  0.00     0.041 A 
ATOM     75  F   UNL     1      12.932   2.861   2.995  1.00  0.00    -0.206 F 
ATOM     76  C   UNL     1      15.188   1.412   5.425  1.00  0.00     0.022 A 
BRANCH  73  77
ATOM     77  S   UNL     1      14.959  -0.476   7.441  1.00  0.00     0.124 S 
ATOM     78  O   UNL     1      16.046  -1.233   6.833  1.00  0.00    -0.237 OA
ATOM     79  O   UNL     1      15.360   0.577   8.372  1.00  0.00    -0.237 OA
ATOM     80  O   UNL     1      13.793  -1.252   7.856  1.00  0.00    -0.744 OA
ENDBRANCH  73  77
ENDBRANCH  56  70
BRANCH  57  81
ATOM     81  C   UNL     1      11.558  -6.721   1.222  1.00  0.00     0.023 A 
ATOM     82  C   UNL     1      11.612  -7.424   2.439  1.00  0.00     0.031 A 
ATOM     83  C   UNL     1      12.467  -7.102   0.218  1.00  0.00     0.131 A 
ATOM     84  C   UNL     1      12.561  -8.435   2.640  1.00  0.00     0.055 A 
ATOM     85  C   UNL     1      13.405  -8.126   0.415  1.00  0.00     0.041 A 
ATOM     86  F   UNL     1      12.506  -6.446  -0.951  1.00  0.00    -0.206 F 
ATOM     87  C   UNL     1      13.463  -8.791   1.637  1.00  0.00     0.022 A 
BRANCH  84  88
ATOM     88  S   UNL     1      12.691  -9.253   4.254  1.00  0.00     0.124 S 
ATOM     89  O   UNL     1      12.727 -10.665   3.882  1.00  0.00    -0.237 OA
ATOM     90  O   UNL     1      13.942  -8.704   4.764  1.00  0.00    -0.237 OA
ATOM     91  O   UNL     1      11.478  -8.829   4.948  1.00  0.00    -0.744 OA
ENDBRANCH  84  88
ENDBRANCH  57  81
BRANCH  69  92
ATOM     92  C   UNL     1       9.506  -1.199  -1.211  1.00  0.00     0.023 A 
ATOM     93  C   UNL     1       9.459  -0.188  -2.190  1.00  0.00     0.031 A 
ATOM     94  C   UNL     1       8.442  -2.121  -1.178  1.00  0.00     0.131 A 
ATOM     95  C   UNL     1       8.361  -0.083  -3.050  1.00  0.00     0.055 A 
ATOM     96  C   UNL     1       7.391  -2.063  -2.099  1.00  0.00     0.041 A 
ATOM     97  F   UNL     1       8.336  -3.042  -0.209  1.00  0.00    -0.206 F 
ATOM     98  C   UNL     1       7.333  -1.027  -3.025  1.00  0.00     0.022 A 
BRANCH  95  99
ATOM     99  S   UNL     1       8.161   1.377  -4.102  1.00  0.00     0.124 S 
ATOM    100  O   UNL     1       8.204   0.800  -5.442  1.00  0.00    -0.237 OA
ATOM    101  O   UNL     1       6.857   1.884  -3.679  1.00  0.00    -0.237 OA
ATOM    102  O   UNL     1       9.296   2.226  -3.750  1.00  0.00    -0.744 OA
ENDBRANCH  95  99
ENDBRANCH  69  92
ENDBRANCH  43  44
ENDBRANCH  36  38
ENDBRANCH  35  36
ENDBRANCH  34  35
ENDBRANCH  33  34
ENDBRANCH  32  33
ENDBRANCH  31  32
ENDBRANCH  30  31
ENDBRANCH   1  30
TORSDOF 26
