REMARK SMILES CC[C@@H](C)N1C(=O)c2ccc(C(=O)OCCOCCOCCOCCOC(=O)c3ccc(-c4c5nc(c(-c6cc(S(=O)(=O)[O-])ccc6F)c6ccc([nH]6)c(-c6cc(S(=O)(=O)[O-])ccc6F)c6nc(c(-c7cc(S(=O)(=O)[O-])ccc7F)c7ccc4[nH]7)C=C6)C=C5)cc3)cc2S1(=O)=O
REMARK SMILES IDX 21 1 20 2 19 3 18 4 17 5 16 6 15 7 14 8 12 9 13 10 11 11
REMARK SMILES IDX 5 12 6 13 94 14 7 15 8 16 93 17 95 18 96 19 9 20 92 21 10 22
REMARK SMILES IDX 3 23 4 24 2 25 1 26 22 27 23 28 24 29 25 30 26 31 27 32
REMARK SMILES IDX 28 33 29 34 30 35 91 36 31 37 90 38 32 39 33 40 34 41 84 42
REMARK SMILES IDX 35 43 89 44 83 45 85 46 36 47 88 48 82 49 81 50 37 52 69 53
REMARK SMILES IDX 49 54 68 55 50 56 53 57 67 58 86 59 51 60 52 61 66 63 87 64
REMARK SMILES IDX 54 65 38 66 39 67 47 68 40 69 46 70 48 71 45 72 41 73 42 74
REMARK SMILES IDX 43 75 44 76 70 77 71 78 79 79 72 80 78 81 80 82 77 83 73 84
REMARK SMILES IDX 74 85 75 86 76 87 55 88 56 89 64 90 57 91 63 92 65 93 62 94
REMARK SMILES IDX 58 95 59 96 60 97 61 98
REMARK H PARENT 85 51 53 62
REMARK Flexibility Score: inf
ROOT
ATOM      1  C   UNL     1       0.457   1.689  12.372  1.00  0.00     0.188 C 
ENDROOT
BRANCH   1   2
ATOM      2  O   UNL     1      -0.058   1.445  11.063  1.00  0.00    -0.377 OA
BRANCH   2   3
ATOM      3  C   UNL     1       0.388   2.274  10.007  1.00  0.00     0.188 C 
BRANCH   3   4
ATOM      4  C   UNL     1      -0.378   3.605   9.892  1.00  0.00     0.188 C 
BRANCH   4   5
ATOM      5  O   UNL     1      -1.084   4.043  11.034  1.00  0.00    -0.376 OA
BRANCH   5   6
ATOM      6  C   UNL     1      -2.301   3.464  11.473  1.00  0.00     0.202 C 
BRANCH   6   7
ATOM      7  C   UNL     1      -3.011   2.220  10.899  1.00  0.00     0.261 C 
BRANCH   7   8
ATOM      8  O   UNL     1      -2.459   1.595   9.746  1.00  0.00    -0.460 OA
BRANCH   8   9
ATOM      9  C   UNL     1      -2.858   2.074   8.554  1.00  0.00     0.338 C 
ATOM     10  O   UNL     1      -3.652   2.971   8.340  1.00  0.00    -0.246 OA
BRANCH   9  11
ATOM     11  C   UNL     1      -1.983   1.480   7.517  1.00  0.00     0.061 A 
ATOM     12  N   UNL     1       0.396   1.192   3.411  1.00  0.00    -0.229 N 
ATOM     13  C   UNL     1       0.372   0.072   4.301  1.00  0.00     0.269 C 
ATOM     14  S   UNL     1       0.035   2.631   4.231  1.00  0.00     0.267 S 
ATOM     15  O   UNL     1       0.806  -1.038   4.083  1.00  0.00    -0.268 OA
ATOM     16  C   UNL     1      -0.339   0.448   5.539  1.00  0.00     0.061 A 
ATOM     17  C   UNL     1      -0.638   1.799   5.593  1.00  0.00     0.101 A 
ATOM     18  O   UNL     1       1.270   3.256   4.647  1.00  0.00    -0.201 OA
ATOM     19  O   UNL     1      -1.036   3.334   3.572  1.00  0.00    -0.201 OA
ATOM     20  C   UNL     1      -0.796  -0.413   6.527  1.00  0.00     0.016 A 
ATOM     21  C   UNL     1      -1.476   2.345   6.542  1.00  0.00     0.038 A 
ATOM     22  C   UNL     1      -1.617   0.115   7.535  1.00  0.00     0.016 A 
BRANCH  12  23
ATOM     23  C   UNL     1       1.020   1.225   2.055  1.00  0.00     0.100 C 
ATOM     24  C   UNL     1       0.671   2.505   1.283  1.00  0.00     0.032 C 
BRANCH  23  25
ATOM     25  C   UNL     1       0.566  -0.018   1.254  1.00  0.00     0.023 C 
ATOM     26  C   UNL     1       1.076  -0.080  -0.180  1.00  0.00     0.006 C 
ENDBRANCH  23  25
ENDBRANCH  12  23
ENDBRANCH   9  11
ENDBRANCH   8   9
ENDBRANCH   7   8
ENDBRANCH   6   7
ENDBRANCH   5   6
ENDBRANCH   4   5
ENDBRANCH   3   4
ENDBRANCH   2   3
ENDBRANCH   1   2
BRANCH   1  27
ATOM     27  C   UNL     1       1.043   3.066  12.769  1.00  0.00     0.188 C 
BRANCH  27  28
ATOM     28  O   UNL     1       1.792   3.709  11.746  1.00  0.00    -0.376 OA
BRANCH  28  29
ATOM     29  C   UNL     1       3.205   3.735  11.852  1.00  0.00     0.202 C 
BRANCH  29  30
ATOM     30  C   UNL     1       3.927   2.390  11.682  1.00  0.00     0.261 C 
BRANCH  30  31
ATOM     31  O   UNL     1       3.511   1.344  12.571  1.00  0.00    -0.460 OA
BRANCH  31  32
ATOM     32  C   UNL     1       3.735   1.557  13.888  1.00  0.00     0.338 C 
ATOM     33  O   UNL     1       4.276   2.528  14.383  1.00  0.00    -0.246 OA
BRANCH  32  34
ATOM     34  C   UNL     1       3.034   0.506  14.653  1.00  0.00     0.060 A 
ATOM     35  C   UNL     1       2.098   0.897  15.618  1.00  0.00     0.016 A 
ATOM     36  C   UNL     1       3.314  -0.847  14.443  1.00  0.00     0.016 A 
ATOM     37  C   UNL     1       1.491  -0.061  16.426  1.00  0.00     0.010 A 
ATOM     38  C   UNL     1       2.715  -1.806  15.265  1.00  0.00     0.010 A 
ATOM     39  C   UNL     1       1.843  -1.411  16.295  1.00  0.00    -0.014 A 
BRANCH  39  40
ATOM     40  C   UNL     1       1.486  -2.349  17.390  1.00  0.00     0.031 A 
ATOM     41  C   UNL     1       2.537  -2.666  18.423  1.00  0.00     0.074 A 
ATOM     42  C   UNL     1       0.240  -2.838  17.517  1.00  0.00     0.049 A 
ATOM     43  N   UNL     1       2.461  -3.426  19.484  1.00  0.00    -0.248 NA
ATOM     44  C   UNL     1       3.854  -2.039  18.226  1.00  0.00     0.031 C 
ATOM     45  C   UNL     1      -0.873  -2.559  16.610  1.00  0.00     0.029 A 
ATOM     46  N   UNL     1      -0.301  -3.666  18.468  1.00  0.00    -0.354 N 
ATOM     47  C   UNL     1       3.717  -3.369  20.081  1.00  0.00     0.074 A 
ATOM     48  C   UNL     1       4.548  -2.542  19.233  1.00  0.00     0.031 C 
ATOM     49  C   UNL     1      -1.967  -3.203  17.054  1.00  0.00     0.029 A 
ATOM     50  C   UNL     1      -1.625  -3.967  18.253  1.00  0.00     0.049 A 
ATOM     51  H   UNL     1       0.212  -4.013  19.234  1.00  0.00     0.167 HD
ATOM     52  C   UNL     1       4.136  -3.940  21.237  1.00  0.00     0.034 A 
ATOM     53  C   UNL     1      -2.458  -4.778  18.937  1.00  0.00     0.034 A 
ATOM     54  C   UNL     1       3.298  -4.772  22.066  1.00  0.00     0.049 A 
ATOM     55  C   UNL     1      -1.943  -5.475  20.176  1.00  0.00     0.074 A 
ATOM     56  C   UNL     1       3.616  -5.400  23.257  1.00  0.00     0.029 A 
ATOM     57  N   UNL     1       1.979  -5.105  21.783  1.00  0.00    -0.354 N 
ATOM     58  N   UNL     1      -0.755  -5.407  20.734  1.00  0.00    -0.248 NA
ATOM     59  C   UNL     1      -2.891  -6.343  20.884  1.00  0.00     0.031 C 
ATOM     60  C   UNL     1       2.521  -6.178  23.649  1.00  0.00     0.029 A 
ATOM     61  C   UNL     1       1.482  -5.958  22.758  1.00  0.00     0.049 A 
ATOM     62  H   UNL     1       1.470  -4.783  21.004  1.00  0.00     0.167 HD
ATOM     63  C   UNL     1      -0.828  -6.197  21.881  1.00  0.00     0.074 A 
ATOM     64  C   UNL     1      -2.183  -6.707  21.942  1.00  0.00     0.031 C 
ATOM     65  C   UNL     1       0.133  -6.474  22.801  1.00  0.00     0.034 A 
BRANCH  52  66
ATOM     66  C   UNL     1       5.579  -3.727  21.634  1.00  0.00     0.023 A 
ATOM     67  C   UNL     1       6.093  -2.448  21.914  1.00  0.00     0.031 A 
ATOM     68  C   UNL     1       6.464  -4.817  21.695  1.00  0.00     0.131 A 
ATOM     69  C   UNL     1       7.464  -2.284  22.167  1.00  0.00     0.055 A 
ATOM     70  C   UNL     1       7.809  -4.659  22.036  1.00  0.00     0.041 A 
ATOM     71  F   UNL     1       6.040  -6.059  21.409  1.00  0.00    -0.206 F 
ATOM     72  C   UNL     1       8.320  -3.384  22.259  1.00  0.00     0.022 A 
BRANCH  69  73
ATOM     73  S   UNL     1       8.143  -0.602  22.217  1.00  0.00     0.124 S 
ATOM     74  O   UNL     1       7.771  -0.096  20.898  1.00  0.00    -0.237 OA
ATOM     75  O   UNL     1       7.440  -0.012  23.350  1.00  0.00    -0.237 OA
ATOM     76  O   UNL     1       9.575  -0.816  22.412  1.00  0.00    -0.744 OA
ENDBRANCH  69  73
ENDBRANCH  52  66
BRANCH  53  77
ATOM     77  C   UNL     1      -3.854  -5.011  18.461  1.00  0.00     0.023 A 
ATOM     78  C   UNL     1      -4.963  -4.671  19.252  1.00  0.00     0.031 A 
ATOM     79  C   UNL     1      -4.096  -5.648  17.230  1.00  0.00     0.131 A 
ATOM     80  C   UNL     1      -6.257  -5.017  18.829  1.00  0.00     0.055 A 
ATOM     81  C   UNL     1      -5.388  -5.934  16.786  1.00  0.00     0.041 A 
ATOM     82  F   UNL     1      -3.073  -6.003  16.436  1.00  0.00    -0.206 F 
ATOM     83  C   UNL     1      -6.478  -5.631  17.595  1.00  0.00     0.022 A 
BRANCH  80  84
ATOM     84  S   UNL     1      -7.646  -4.744  19.965  1.00  0.00     0.124 S 
ATOM     85  O   UNL     1      -7.239  -5.530  21.124  1.00  0.00    -0.237 OA
ATOM     86  O   UNL     1      -7.620  -3.294  20.131  1.00  0.00    -0.237 OA
ATOM     87  O   UNL     1      -8.795  -5.264  19.228  1.00  0.00    -0.744 OA
ENDBRANCH  80  84
ENDBRANCH  53  77
BRANCH  65  88
ATOM     88  C   UNL     1      -0.272  -7.332  23.981  1.00  0.00     0.023 A 
ATOM     89  C   UNL     1      -0.716  -8.656  23.819  1.00  0.00     0.031 A 
ATOM     90  C   UNL     1      -0.256  -6.800  25.284  1.00  0.00     0.131 A 
ATOM     91  C   UNL     1      -1.213  -9.368  24.921  1.00  0.00     0.055 A 
ATOM     92  C   UNL     1      -0.670  -7.544  26.390  1.00  0.00     0.041 A 
ATOM     93  F   UNL     1       0.155  -5.541  25.505  1.00  0.00    -0.206 F 
ATOM     94  C   UNL     1      -1.173  -8.829  26.209  1.00  0.00     0.022 A 
BRANCH  91  95
ATOM     95  S   UNL     1      -2.054 -10.948  24.625  1.00  0.00     0.124 S 
ATOM     96  O   UNL     1      -3.079 -10.567  23.658  1.00  0.00    -0.237 OA
ATOM     97  O   UNL     1      -0.974 -11.785  24.113  1.00  0.00    -0.237 OA
ATOM     98  O   UNL     1      -2.557 -11.322  25.946  1.00  0.00    -0.744 OA
ENDBRANCH  91  95
ENDBRANCH  65  88
ENDBRANCH  39  40
ENDBRANCH  32  34
ENDBRANCH  31  32
ENDBRANCH  30  31
ENDBRANCH  29  30
ENDBRANCH  28  29
ENDBRANCH  27  28
ENDBRANCH   1  27
TORSDOF 25
