REMARK SMILES CC(C)c1cc(O)cc(C(C)C)c1O[C@@H]1O[C@@H](C(=O)OCCOCCOCCOCCOC(=O)c2ccc(-c3c4nc(c(-c5cc(S(=O)(=O)[O-])ccc5F)c5ccc([nH]5)c(-c5cc(S(=O)(=O)[O-])ccc5F)c5nc(c(-c6cc(S(=O)(=O)[O-])ccc6F)c6ccc3[nH]6)C=C5)C=C4)cc2)[C@@H](O)[C@H](O)[C@@H]1O
REMARK SMILES IDX 26 1 25 2 24 3 23 4 22 5 21 6 20 7 18 8 19 9 17 10 15 11
REMARK SMILES IDX 16 12 102 13 100 14 98 15 14 16 13 17 4 18 5 19 6 20 9 21
REMARK SMILES IDX 8 22 2 23 1 24 3 25 7 26 10 28 11 29 12 30 103 31 101 33
REMARK SMILES IDX 99 35 27 37 28 38 29 39 30 40 31 41 32 42 33 43 34 44 35 45
REMARK SMILES IDX 36 46 97 47 37 48 96 49 38 50 39 51 40 52 90 53 41 54 95 55
REMARK SMILES IDX 89 56 91 57 42 58 94 59 88 60 87 61 43 63 75 64 55 65 74 66
REMARK SMILES IDX 56 67 59 68 73 69 92 70 57 71 58 72 72 74 93 75 60 76 44 77
REMARK SMILES IDX 45 78 53 79 46 80 52 81 54 82 51 83 47 84 48 85 49 86 50 87
REMARK SMILES IDX 76 88 77 89 85 90 78 91 84 92 86 93 83 94 79 95 80 96 81 97
REMARK SMILES IDX 82 98 61 99 62 100 70 101 63 102 69 103 71 104 68 105 64 106
REMARK SMILES IDX 65 107 66 108 67 109
REMARK H PARENT 7 27 103 32 101 34 99 36 91 62 59 73
REMARK Flexibility Score: inf
ROOT
ATOM      1  O   UNL     1      -2.413   1.826  -3.315  1.00  0.00    -0.377 OA
ENDROOT
BRANCH   1   2
ATOM      2  C   UNL     1      -1.630   1.197  -4.307  1.00  0.00     0.188 C 
BRANCH   2   3
ATOM      3  C   UNL     1      -2.200  -0.172  -4.727  1.00  0.00     0.188 C 
BRANCH   3   4
ATOM      4  O   UNL     1      -3.561  -0.500  -4.497  1.00  0.00    -0.376 OA
BRANCH   4   5
ATOM      5  C   UNL     1      -4.262  -0.426  -3.263  1.00  0.00     0.202 C 
BRANCH   5   6
ATOM      6  C   UNL     1      -3.667  -0.388  -1.847  1.00  0.00     0.261 C 
BRANCH   6   7
ATOM      7  O   UNL     1      -2.268  -0.192  -1.754  1.00  0.00    -0.461 OA
BRANCH   7   8
ATOM      8  C   UNL     1      -1.519  -1.289  -1.978  1.00  0.00     0.338 C 
ATOM      9  O   UNL     1      -1.967  -2.417  -2.133  1.00  0.00    -0.249 OA
BRANCH   8  10
ATOM     10  C   UNL     1      -0.034  -0.905  -2.069  1.00  0.00     0.263 C 
ATOM     11  C   UNL     1       0.684  -2.717  -0.738  1.00  0.00     0.339 C 
ATOM     12  O   UNL     1       0.793  -2.055  -1.984  1.00  0.00    -0.322 OA
ATOM     13  C   UNL     1       0.684  -1.828   0.545  1.00  0.00     0.214 C 
ATOM     14  C   UNL     1       0.135  -0.395   0.365  1.00  0.00     0.181 C 
ATOM     15  C   UNL     1       0.390   0.156  -1.044  1.00  0.00     0.186 C 
BRANCH  11  16
ATOM     16  O   UNL     1       1.636  -3.770  -0.574  1.00  0.00    -0.461 OA
BRANCH  16  17
ATOM     17  C   UNL     1       2.809  -3.915  -1.267  1.00  0.00     0.130 A 
ATOM     18  C   UNL     1       3.105  -5.284  -1.507  1.00  0.00     0.001 A 
ATOM     19  C   UNL     1       4.427  -5.661  -1.799  1.00  0.00     0.054 A 
ATOM     20  C   UNL     1       5.416  -4.701  -1.915  1.00  0.00     0.116 A 
ATOM     21  C   UNL     1       3.800  -2.925  -1.515  1.00  0.00     0.001 A 
ATOM     22  C   UNL     1       5.103  -3.357  -1.831  1.00  0.00     0.054 A 
BRANCH  18  23
ATOM     23  C   UNL     1       2.058  -6.400  -1.460  1.00  0.00     0.017 C 
ATOM     24  C   UNL     1       1.692  -6.791  -0.029  1.00  0.00     0.012 C 
ATOM     25  C   UNL     1       0.803  -6.123  -2.301  1.00  0.00     0.012 C 
ENDBRANCH  18  23
BRANCH  20  26
ATOM     26  O   UNL     1       6.720  -5.040  -2.121  1.00  0.00    -0.508 OA
ATOM     27  H   UNL     1       6.965  -5.942  -2.182  1.00  0.00     0.293 HD
ENDBRANCH  20  26
BRANCH  21  28
ATOM     28  C   UNL     1       3.597  -1.421  -1.523  1.00  0.00     0.017 C 
ATOM     29  C   UNL     1       4.489  -0.624  -0.568  1.00  0.00     0.012 C 
ATOM     30  C   UNL     1       3.681  -0.844  -2.946  1.00  0.00     0.012 C 
ENDBRANCH  21  28
ENDBRANCH  16  17
ENDBRANCH  11  16
BRANCH  13  31
ATOM     31  O   UNL     1       2.008  -1.730   1.115  1.00  0.00    -0.384 OA
ATOM     32  H   UNL     1       2.592  -1.261   0.498  1.00  0.00     0.211 HD
ENDBRANCH  13  31
BRANCH  14  33
ATOM     33  O   UNL     1       0.734   0.462   1.348  1.00  0.00    -0.387 OA
ATOM     34  H   UNL     1       1.695   0.481   1.217  1.00  0.00     0.211 HD
ENDBRANCH  14  33
BRANCH  15  35
ATOM     35  O   UNL     1      -0.187   1.445  -1.270  1.00  0.00    -0.387 OA
ATOM     36  H   UNL     1      -1.152   1.386  -1.189  1.00  0.00     0.211 HD
ENDBRANCH  15  35
ENDBRANCH   8  10
ENDBRANCH   7   8
ENDBRANCH   6   7
ENDBRANCH   5   6
ENDBRANCH   4   5
ENDBRANCH   3   4
ENDBRANCH   2   3
ENDBRANCH   1   2
BRANCH   1  37
ATOM     37  C   UNL     1      -3.331   2.804  -3.793  1.00  0.00     0.188 C 
BRANCH  37  38
ATOM     38  C   UNL     1      -4.095   2.515  -5.109  1.00  0.00     0.188 C 
BRANCH  38  39
ATOM     39  O   UNL     1      -3.276   2.049  -6.174  1.00  0.00    -0.376 OA
BRANCH  39  40
ATOM     40  C   UNL     1      -2.924   2.949  -7.210  1.00  0.00     0.202 C 
BRANCH  40  41
ATOM     41  C   UNL     1      -1.996   4.120  -6.846  1.00  0.00     0.261 C 
BRANCH  41  42
ATOM     42  O   UNL     1      -2.418   4.950  -5.755  1.00  0.00    -0.460 OA
BRANCH  42  43
ATOM     43  C   UNL     1      -3.589   5.608  -5.895  1.00  0.00     0.338 C 
ATOM     44  O   UNL     1      -4.314   5.600  -6.877  1.00  0.00    -0.246 OA
BRANCH  43  45
ATOM     45  C   UNL     1      -3.957   6.159  -4.572  1.00  0.00     0.060 A 
ATOM     46  C   UNL     1      -5.167   5.764  -3.983  1.00  0.00     0.016 A 
ATOM     47  C   UNL     1      -3.104   7.043  -3.909  1.00  0.00     0.016 A 
ATOM     48  C   UNL     1      -5.543   6.281  -2.744  1.00  0.00     0.010 A 
ATOM     49  C   UNL     1      -3.497   7.585  -2.682  1.00  0.00     0.010 A 
ATOM     50  C   UNL     1      -4.734   7.234  -2.112  1.00  0.00    -0.014 A 
BRANCH  50  51
ATOM     51  C   UNL     1      -5.287   8.033  -0.991  1.00  0.00     0.031 A 
ATOM     52  C   UNL     1      -5.863   9.386  -1.311  1.00  0.00     0.074 A 
ATOM     53  C   UNL     1      -5.307   7.566   0.270  1.00  0.00     0.049 A 
ATOM     54  N   UNL     1      -6.336  10.302  -0.508  1.00  0.00    -0.248 NA
ATOM     55  C   UNL     1      -5.901   9.754  -2.735  1.00  0.00     0.031 C 
ATOM     56  C   UNL     1      -4.833   6.249   0.690  1.00  0.00     0.029 A 
ATOM     57  N   UNL     1      -5.738   8.156   1.431  1.00  0.00    -0.354 N 
ATOM     58  C   UNL     1      -6.725  11.357  -1.328  1.00  0.00     0.074 A 
ATOM     59  C   UNL     1      -6.392  10.982  -2.685  1.00  0.00     0.031 C 
ATOM     60  C   UNL     1      -4.985   6.138   2.022  1.00  0.00     0.029 A 
ATOM     61  C   UNL     1      -5.523   7.390   2.553  1.00  0.00     0.049 A 
ATOM     62  H   UNL     1      -6.161   9.045   1.459  1.00  0.00     0.167 HD
ATOM     63  C   UNL     1      -7.314  12.527  -0.981  1.00  0.00     0.034 A 
ATOM     64  C   UNL     1      -5.706   7.682   3.858  1.00  0.00     0.034 A 
ATOM     65  C   UNL     1      -7.620  12.893   0.380  1.00  0.00     0.049 A 
ATOM     66  C   UNL     1      -6.263   9.038   4.233  1.00  0.00     0.074 A 
ATOM     67  C   UNL     1      -8.213  14.052   0.848  1.00  0.00     0.029 A 
ATOM     68  N   UNL     1      -7.341  12.112   1.495  1.00  0.00    -0.354 N 
ATOM     69  N   UNL     1      -6.626  10.030   3.451  1.00  0.00    -0.248 NA
ATOM     70  C   UNL     1      -6.441   9.309   5.666  1.00  0.00     0.031 C 
ATOM     71  C   UNL     1      -8.218  14.008   2.245  1.00  0.00     0.029 A 
ATOM     72  C   UNL     1      -7.718  12.780   2.650  1.00  0.00     0.049 A 
ATOM     73  H   UNL     1      -6.936  11.215   1.469  1.00  0.00     0.167 HD
ATOM     74  C   UNL     1      -7.109  11.027   4.299  1.00  0.00     0.074 A 
ATOM     75  C   UNL     1      -7.002  10.509   5.647  1.00  0.00     0.031 C 
ATOM     76  C   UNL     1      -7.601  12.255   3.991  1.00  0.00     0.034 A 
BRANCH  63  77
ATOM     77  C   UNL     1      -7.608  13.510  -2.088  1.00  0.00     0.023 A 
ATOM     78  C   UNL     1      -8.504  13.208  -3.129  1.00  0.00     0.031 A 
ATOM     79  C   UNL     1      -6.954  14.754  -2.124  1.00  0.00     0.131 A 
ATOM     80  C   UNL     1      -8.666  14.105  -4.196  1.00  0.00     0.055 A 
ATOM     81  C   UNL     1      -7.186  15.679  -3.143  1.00  0.00     0.041 A 
ATOM     82  F   UNL     1      -6.065  15.087  -1.175  1.00  0.00    -0.206 F 
ATOM     83  C   UNL     1      -8.035  15.351  -4.196  1.00  0.00     0.022 A 
BRANCH  80  84
ATOM     84  S   UNL     1      -9.590  13.555  -5.657  1.00  0.00     0.124 S 
ATOM     85  O   UNL     1      -8.832  12.372  -6.056  1.00  0.00    -0.237 OA
ATOM     86  O   UNL     1     -10.921  13.309  -5.114  1.00  0.00    -0.237 OA
ATOM     87  O   UNL     1      -9.489  14.689  -6.573  1.00  0.00    -0.744 OA
ENDBRANCH  80  84
ENDBRANCH  63  77
BRANCH  64  88
ATOM     88  C   UNL     1      -5.314   6.705   4.917  1.00  0.00     0.023 A 
ATOM     89  C   UNL     1      -6.259   6.179   5.811  1.00  0.00     0.031 A 
ATOM     90  C   UNL     1      -3.968   6.335   5.091  1.00  0.00     0.131 A 
ATOM     91  C   UNL     1      -5.841   5.353   6.867  1.00  0.00     0.055 A 
ATOM     92  C   UNL     1      -3.565   5.464   6.105  1.00  0.00     0.041 A 
ATOM     93  F   UNL     1      -3.019   6.817   4.272  1.00  0.00    -0.206 F 
ATOM     94  C   UNL     1      -4.503   4.979   7.010  1.00  0.00     0.022 A 
BRANCH  91  95
ATOM     95  S   UNL     1      -7.059   4.855   8.116  1.00  0.00     0.124 S 
ATOM     96  O   UNL     1      -7.528   6.146   8.604  1.00  0.00    -0.237 OA
ATOM     97  O   UNL     1      -8.010   4.085   7.321  1.00  0.00    -0.237 OA
ATOM     98  O   UNL     1      -6.271   4.075   9.069  1.00  0.00    -0.744 OA
ENDBRANCH  91  95
ENDBRANCH  64  88
BRANCH  76  99
ATOM     99  C   UNL     1      -8.118  13.102   5.132  1.00  0.00     0.023 A 
ATOM    100  C   UNL     1      -7.271  13.592   6.141  1.00  0.00     0.031 A 
ATOM    101  C   UNL     1      -9.486  13.422   5.207  1.00  0.00     0.131 A 
ATOM    102  C   UNL     1      -7.810  14.325   7.210  1.00  0.00     0.055 A 
ATOM    103  C   UNL     1     -10.004  14.211   6.234  1.00  0.00     0.041 A 
ATOM    104  F   UNL     1     -10.345  12.979   4.274  1.00  0.00    -0.206 F 
ATOM    105  C   UNL     1      -9.167  14.656   7.252  1.00  0.00     0.022 A 
BRANCH 102 106
ATOM    106  S   UNL     1      -6.731  14.755   8.604  1.00  0.00     0.124 S 
ATOM    107  O   UNL     1      -6.260  13.444   9.037  1.00  0.00    -0.237 OA
ATOM    108  O   UNL     1      -5.734  15.615   7.974  1.00  0.00    -0.237 OA
ATOM    109  O   UNL     1      -7.630  15.431   9.538  1.00  0.00    -0.744 OA
ENDBRANCH 102 106
ENDBRANCH  76  99
ENDBRANCH  50  51
ENDBRANCH  43  45
ENDBRANCH  42  43
ENDBRANCH  41  42
ENDBRANCH  40  41
ENDBRANCH  39  40
ENDBRANCH  38  39
ENDBRANCH  37  38
ENDBRANCH   1  37
TORSDOF 31
