REMARK SMILES Cn1ccc(-c2n[nH]c(=O)n2-c2ccc(C(=O)OCCOCCOCCOCCOC(=O)c3ccc(-c4c5nc(c(-c6cc(S(=O)(=O)[O-])ccc6F)c6ccc([nH]6)c(-c6cc(S(=O)(=O)[O-])ccc6F)c6nc(c(-c7cc(S(=O)(=O)[O-])ccc7F)c7ccc4[nH]7)C=C6)C=C5)cc3)cc2)n1
REMARK SMILES IDX 25 1 24 2 23 3 22 4 21 5 20 6 19 7 18 8 16 9 17 10 15 11
REMARK SMILES IDX 12 12 13 13 97 14 14 15 96 16 11 17 6 18 7 19 8 20 9 21
REMARK SMILES IDX 10 23 5 24 1 25 2 26 3 27 98 28 4 29 26 30 27 31 28 32 29 33
REMARK SMILES IDX 30 34 31 35 32 36 33 37 34 38 95 39 35 40 94 41 36 42 37 43
REMARK SMILES IDX 38 44 88 45 39 46 93 47 87 48 89 49 40 50 92 51 86 52 85 53
REMARK SMILES IDX 41 55 73 56 53 57 72 58 54 59 57 60 71 61 90 62 55 63 56 64
REMARK SMILES IDX 70 66 91 67 58 68 42 69 43 70 51 71 44 72 50 73 52 74 49 75
REMARK SMILES IDX 45 76 46 77 47 78 48 79 74 80 75 81 83 82 76 83 82 84 84 85
REMARK SMILES IDX 81 86 77 87 78 88 79 89 80 90 59 91 60 92 68 93 61 94 67 95
REMARK SMILES IDX 69 96 66 97 62 98 63 99 64 100 65 101
REMARK H PARENT 8 22 89 54 57 65
REMARK Flexibility Score: inf
ROOT
ATOM      1  C   UNL     1       1.671   3.015   9.232  1.00  0.00     0.188 C 
ENDROOT
BRANCH   1   2
ATOM      2  O   UNL     1       1.359   2.801   7.855  1.00  0.00    -0.377 OA
BRANCH   2   3
ATOM      3  C   UNL     1       1.699   3.831   6.944  1.00  0.00     0.188 C 
BRANCH   3   4
ATOM      4  C   UNL     1       0.600   4.900   6.766  1.00  0.00     0.188 C 
BRANCH   4   5
ATOM      5  O   UNL     1      -0.436   5.016   7.723  1.00  0.00    -0.376 OA
BRANCH   5   6
ATOM      6  C   UNL     1      -1.346   3.977   8.029  1.00  0.00     0.202 C 
BRANCH   6   7
ATOM      7  C   UNL     1      -1.598   2.706   7.199  1.00  0.00     0.261 C 
BRANCH   7   8
ATOM      8  O   UNL     1      -0.764   2.465   6.074  1.00  0.00    -0.460 OA
BRANCH   8   9
ATOM      9  C   UNL     1      -1.154   3.035   4.916  1.00  0.00     0.338 C 
ATOM     10  O   UNL     1      -2.162   3.686   4.713  1.00  0.00    -0.246 OA
BRANCH   9  11
ATOM     11  C   UNL     1      -0.043   2.889   3.950  1.00  0.00     0.060 A 
ATOM     12  C   UNL     1       1.937   2.657   2.006  1.00  0.00     0.052 A 
ATOM     13  C   UNL     1       1.372   3.907   2.266  1.00  0.00     0.028 A 
ATOM     14  C   UNL     1       1.607   1.560   2.821  1.00  0.00     0.028 A 
ATOM     15  C   UNL     1       0.351   4.012   3.209  1.00  0.00     0.018 A 
ATOM     16  C   UNL     1       0.629   1.676   3.805  1.00  0.00     0.018 A 
BRANCH  12  17
ATOM     17  N   UNL     1       2.735   2.467   0.871  1.00  0.00    -0.242 N 
ATOM     18  C   UNL     1       2.622   1.480  -0.065  1.00  0.00     0.189 A 
ATOM     19  N   UNL     1       3.541   1.492  -0.993  1.00  0.00    -0.150 NA
ATOM     20  N   UNL     1       4.280   2.608  -0.691  1.00  0.00    -0.226 N 
ATOM     21  C   UNL     1       3.769   3.257   0.436  1.00  0.00     0.348 A 
ATOM     22  H   UNL     1       5.066   2.911  -1.200  1.00  0.00     0.195 HD
ATOM     23  O   UNL     1       4.207   4.295   0.906  1.00  0.00    -0.246 OA
BRANCH  18  24
ATOM     24  C   UNL     1       1.502   0.554  -0.099  1.00  0.00     0.130 A 
ATOM     25  C   UNL     1      -1.955  -0.002  -0.011  1.00  0.00     0.173 C 
ATOM     26  N   UNL     1      -0.517  -0.116  -0.051  1.00  0.00    -0.275 N 
ATOM     27  C   UNL     1       0.220  -1.259  -0.137  1.00  0.00     0.109 A 
ATOM     28  N   UNL     1       0.232   0.997  -0.022  1.00  0.00    -0.170 NA
ATOM     29  C   UNL     1       1.535  -0.858  -0.204  1.00  0.00     0.054 A 
ENDBRANCH  18  24
ENDBRANCH  12  17
ENDBRANCH   9  11
ENDBRANCH   8   9
ENDBRANCH   7   8
ENDBRANCH   6   7
ENDBRANCH   5   6
ENDBRANCH   4   5
ENDBRANCH   3   4
ENDBRANCH   2   3
ENDBRANCH   1   2
BRANCH   1  30
ATOM     30  C   UNL     1       1.627   4.439   9.850  1.00  0.00     0.188 C 
BRANCH  30  31
ATOM     31  O   UNL     1       1.986   5.496   8.974  1.00  0.00    -0.376 OA
BRANCH  31  32
ATOM     32  C   UNL     1       3.220   6.183   9.047  1.00  0.00     0.202 C 
BRANCH  32  33
ATOM     33  C   UNL     1       4.498   5.392   8.810  1.00  0.00     0.261 C 
BRANCH  33  34
ATOM     34  O   UNL     1       4.488   4.108   9.398  1.00  0.00    -0.460 OA
BRANCH  34  35
ATOM     35  C   UNL     1       4.556   4.124  10.745  1.00  0.00     0.338 C 
ATOM     36  O   UNL     1       4.343   5.063  11.482  1.00  0.00    -0.246 OA
BRANCH  35  37
ATOM     37  C   UNL     1       5.091   2.833  11.173  1.00  0.00     0.060 A 
ATOM     38  C   UNL     1       5.173   2.639  12.549  1.00  0.00     0.016 A 
ATOM     39  C   UNL     1       5.854   2.099  10.251  1.00  0.00     0.016 A 
ATOM     40  C   UNL     1       6.236   1.910  13.017  1.00  0.00     0.010 A 
ATOM     41  C   UNL     1       6.934   1.406  10.721  1.00  0.00     0.010 A 
ATOM     42  C   UNL     1       7.160   1.403  12.093  1.00  0.00    -0.014 A 
BRANCH  42  43
ATOM     43  C   UNL     1       8.304   0.688  12.604  1.00  0.00     0.031 A 
ATOM     44  C   UNL     1       7.899  -0.640  13.103  1.00  0.00     0.074 A 
ATOM     45  C   UNL     1       9.562   1.159  12.531  1.00  0.00     0.049 A 
ATOM     46  N   UNL     1       7.780  -0.998  14.336  1.00  0.00    -0.248 NA
ATOM     47  C   UNL     1       7.280  -1.576  12.145  1.00  0.00     0.031 C 
ATOM     48  C   UNL     1      10.053   2.351  11.839  1.00  0.00     0.029 A 
ATOM     49  N   UNL     1      10.704   0.599  13.007  1.00  0.00    -0.354 N 
ATOM     50  C   UNL     1       7.351  -2.316  14.285  1.00  0.00     0.074 A 
ATOM     51  C   UNL     1       6.799  -2.500  12.975  1.00  0.00     0.031 C 
ATOM     52  C   UNL     1      11.404   2.290  11.750  1.00  0.00     0.029 A 
ATOM     53  C   UNL     1      11.880   1.122  12.476  1.00  0.00     0.049 A 
ATOM     54  H   UNL     1      10.700  -0.123  13.677  1.00  0.00     0.167 HD
ATOM     55  C   UNL     1       7.800  -3.214  15.202  1.00  0.00     0.034 A 
ATOM     56  C   UNL     1      13.127   0.577  12.579  1.00  0.00     0.034 A 
ATOM     57  C   UNL     1       8.305  -2.526  16.376  1.00  0.00     0.049 A 
ATOM     58  C   UNL     1      13.090  -0.347  13.746  1.00  0.00     0.074 A 
ATOM     59  C   UNL     1       7.754  -1.623  17.268  1.00  0.00     0.029 A 
ATOM     60  N   UNL     1       9.670  -2.403  16.524  1.00  0.00    -0.354 N 
ATOM     61  N   UNL     1      12.938   0.065  14.974  1.00  0.00    -0.248 NA
ATOM     62  C   UNL     1      12.693  -1.728  13.507  1.00  0.00     0.031 C 
ATOM     63  C   UNL     1       8.791  -0.679  17.529  1.00  0.00     0.029 A 
ATOM     64  C   UNL     1       9.948  -1.102  16.873  1.00  0.00     0.049 A 
ATOM     65  H   UNL     1      10.332  -3.121  16.400  1.00  0.00     0.167 HD
ATOM     66  C   UNL     1      12.033  -0.819  15.543  1.00  0.00     0.074 A 
ATOM     67  C   UNL     1      11.983  -1.952  14.618  1.00  0.00     0.031 C 
ATOM     68  C   UNL     1      11.188  -0.420  16.541  1.00  0.00     0.034 A 
BRANCH  55  69
ATOM     69  C   UNL     1       8.188  -4.637  14.851  1.00  0.00     0.023 A 
ATOM     70  C   UNL     1       8.763  -5.395  15.884  1.00  0.00     0.031 A 
ATOM     71  C   UNL     1       8.304  -5.193  13.553  1.00  0.00     0.131 A 
ATOM     72  C   UNL     1       9.528  -6.538  15.602  1.00  0.00     0.055 A 
ATOM     73  C   UNL     1       9.014  -6.366  13.286  1.00  0.00     0.041 A 
ATOM     74  F   UNL     1       7.813  -4.615  12.453  1.00  0.00    -0.206 F 
ATOM     75  C   UNL     1       9.665  -7.026  14.308  1.00  0.00     0.022 A 
BRANCH  72  76
ATOM     76  S   UNL     1      10.491  -7.260  16.950  1.00  0.00     0.124 S 
ATOM     77  O   UNL     1      11.279  -6.112  17.384  1.00  0.00    -0.237 OA
ATOM     78  O   UNL     1       9.441  -7.705  17.859  1.00  0.00    -0.237 OA
ATOM     79  O   UNL     1      11.242  -8.326  16.292  1.00  0.00    -0.744 OA
ENDBRANCH  72  76
ENDBRANCH  55  69
BRANCH  56  80
ATOM     80  C   UNL     1      14.215   0.536  11.554  1.00  0.00     0.023 A 
ATOM     81  C   UNL     1      15.543   0.149  11.859  1.00  0.00     0.031 A 
ATOM     82  C   UNL     1      13.890   0.623  10.181  1.00  0.00     0.131 A 
ATOM     83  C   UNL     1      16.465  -0.138  10.821  1.00  0.00     0.055 A 
ATOM     84  C   UNL     1      14.803   0.335   9.163  1.00  0.00     0.041 A 
ATOM     85  F   UNL     1      12.643   0.902   9.775  1.00  0.00    -0.206 F 
ATOM     86  C   UNL     1      16.092  -0.060   9.479  1.00  0.00     0.022 A 
BRANCH  83  87
ATOM     87  S   UNL     1      18.154  -0.725  11.195  1.00  0.00     0.124 S 
ATOM     88  O   UNL     1      18.803   0.488  11.681  1.00  0.00    -0.237 OA
ATOM     89  O   UNL     1      17.918  -1.774  12.179  1.00  0.00    -0.237 OA
ATOM     90  O   UNL     1      18.643  -1.204   9.901  1.00  0.00    -0.744 OA
ENDBRANCH  83  87
ENDBRANCH  56  80
BRANCH  68  91
ATOM     91  C   UNL     1      11.462   0.908  17.230  1.00  0.00     0.023 A 
ATOM     92  C   UNL     1      11.594   2.159  16.581  1.00  0.00     0.031 A 
ATOM     93  C   UNL     1      11.505   0.902  18.636  1.00  0.00     0.131 A 
ATOM     94  C   UNL     1      11.785   3.333  17.340  1.00  0.00     0.055 A 
ATOM     95  C   UNL     1      11.665   2.068  19.383  1.00  0.00     0.041 A 
ATOM     96  F   UNL     1      11.364  -0.247  19.317  1.00  0.00    -0.206 F 
ATOM     97  C   UNL     1      11.816   3.288  18.737  1.00  0.00     0.022 A 
BRANCH  94  98
ATOM     98  S   UNL     1      12.041   4.946  16.527  1.00  0.00     0.124 S 
ATOM     99  O   UNL     1      12.990   4.648  15.461  1.00  0.00    -0.237 OA
ATOM    100  O   UNL     1      10.690   5.300  16.099  1.00  0.00    -0.237 OA
ATOM    101  O   UNL     1      12.576   5.786  17.601  1.00  0.00    -0.744 OA
ENDBRANCH  94  98
ENDBRANCH  68  91
ENDBRANCH  42  43
ENDBRANCH  35  37
ENDBRANCH  34  35
ENDBRANCH  33  34
ENDBRANCH  32  33
ENDBRANCH  31  32
ENDBRANCH  30  31
ENDBRANCH   1  30
TORSDOF 25
