REMARK SMILES Cc1ccc(Nc2c(Cl)cc(Cl)cc2Cl)c(CC(=O)OCCOCCOCCOCCOC(=O)c2ccc(-c3c4nc(c(-c5cc(S(=O)(=O)[O-])ccc5F)c5ccc([nH]5)c(-c5cc(S(=O)(=O)[O-])ccc5F)c5nc(c(-c6cc(S(=O)(=O)[O-])ccc6F)c6ccc3[nH]6)C=C5)C=C4)cc2)c1
REMARK SMILES IDX 26 1 25 2 24 3 23 4 22 5 21 6 20 7 18 8 19 9 17 10 16 11
REMARK SMILES IDX 1 12 2 13 3 14 98 15 4 16 5 17 6 18 7 20 8 21 14 22 9 23
REMARK SMILES IDX 10 24 13 25 15 26 11 27 12 28 27 29 28 30 29 31 30 32 31 33
REMARK SMILES IDX 32 34 33 35 34 36 35 37 36 38 97 39 37 40 96 41 38 42 39 43
REMARK SMILES IDX 40 44 90 45 41 46 95 47 89 48 91 49 42 50 94 51 88 52 87 53
REMARK SMILES IDX 43 55 75 56 55 57 74 58 56 59 59 60 73 61 92 62 57 63 58 64
REMARK SMILES IDX 72 66 93 67 60 68 44 69 45 70 53 71 46 72 52 73 54 74 51 75
REMARK SMILES IDX 47 76 48 77 49 78 50 79 76 80 77 81 85 82 78 83 84 84 86 85
REMARK SMILES IDX 83 86 79 87 80 88 81 89 82 90 61 91 62 92 70 93 63 94 69 95
REMARK SMILES IDX 71 96 68 97 64 98 65 99 66 100 67 101
REMARK H PARENT 6 19 91 54 59 65
REMARK Flexibility Score: inf
ROOT
ATOM      1  O   UNL     1      -2.131   0.152  -1.489  1.00  0.00    -0.377 OA
ENDROOT
BRANCH   1   2
ATOM      2  C   UNL     1      -3.535   0.114  -1.219  1.00  0.00     0.188 C 
BRANCH   2   3
ATOM      3  C   UNL     1      -3.855   1.085  -0.120  1.00  0.00     0.188 C 
BRANCH   3   4
ATOM      4  O   UNL     1      -4.841   2.075  -0.237  1.00  0.00    -0.376 OA
BRANCH   4   5
ATOM      5  C   UNL     1      -4.349   3.211  -0.899  1.00  0.00     0.202 C 
BRANCH   5   6
ATOM      6  C   UNL     1      -3.241   4.082  -0.247  1.00  0.00     0.261 C 
BRANCH   6   7
ATOM      7  O   UNL     1      -2.189   3.394   0.447  1.00  0.00    -0.463 OA
BRANCH   7   8
ATOM      8  C   UNL     1      -2.480   3.144   1.751  1.00  0.00     0.310 C 
ATOM      9  O   UNL     1      -3.440   3.610   2.356  1.00  0.00    -0.252 OA
BRANCH   8  10
ATOM     10  C   UNL     1      -1.497   2.229   2.437  1.00  0.00     0.160 C 
BRANCH  10  11
ATOM     11  C   UNL     1      -1.075   0.932   1.761  1.00  0.00    -0.013 A 
ATOM     12  C   UNL     1       2.151  -0.021  -0.125  1.00  0.00     0.044 C 
ATOM     13  C   UNL     1       0.781  -0.097   0.483  1.00  0.00    -0.051 A 
ATOM     14  C   UNL     1       0.082  -1.294   0.489  1.00  0.00     0.005 A 
ATOM     15  C   UNL     1       0.184   1.009   1.089  1.00  0.00     0.009 A 
ATOM     16  C   UNL     1      -1.190  -1.376   1.076  1.00  0.00     0.026 A 
ATOM     17  C   UNL     1      -1.807  -0.298   1.752  1.00  0.00     0.042 A 
BRANCH  17  18
ATOM     18  N   UNL     1      -3.120  -0.468   2.353  1.00  0.00    -0.353 N 
ATOM     19  H   UNL     1      -3.426   0.270   2.928  1.00  0.00     0.167 HD
BRANCH  18  20
ATOM     20  C   UNL     1      -4.038  -1.583   2.217  1.00  0.00     0.076 A 
ATOM     21  C   UNL     1      -3.628  -2.906   2.462  1.00  0.00     0.067 A 
ATOM     22  C   UNL     1      -5.341  -1.463   1.645  1.00  0.00     0.067 A 
ATOM     23  Cl  UNL     1      -2.317  -3.248   3.545  1.00  0.00    -0.082 Cl
ATOM     24  C   UNL     1      -4.326  -4.011   1.949  1.00  0.00     0.043 A 
ATOM     25  C   UNL     1      -6.006  -2.556   1.057  1.00  0.00     0.043 A 
ATOM     26  Cl  UNL     1      -6.323  -0.037   1.800  1.00  0.00    -0.082 Cl
ATOM     27  C   UNL     1      -5.474  -3.826   1.192  1.00  0.00     0.044 A 
ATOM     28  Cl  UNL     1      -6.278  -5.180   0.499  1.00  0.00    -0.084 Cl
ENDBRANCH  18  20
ENDBRANCH  17  18
ENDBRANCH  10  11
ENDBRANCH   8  10
ENDBRANCH   7   8
ENDBRANCH   6   7
ENDBRANCH   5   6
ENDBRANCH   4   5
ENDBRANCH   3   4
ENDBRANCH   2   3
ENDBRANCH   1   2
BRANCH   1  29
ATOM     29  C   UNL     1      -1.782  -0.302  -2.794  1.00  0.00     0.188 C 
BRANCH  29  30
ATOM     30  C   UNL     1      -1.909  -1.796  -3.032  1.00  0.00     0.188 C 
BRANCH  30  31
ATOM     31  O   UNL     1      -3.242  -2.155  -2.700  1.00  0.00    -0.376 OA
BRANCH  31  32
ATOM     32  C   UNL     1      -3.406  -3.348  -1.964  1.00  0.00     0.202 C 
BRANCH  32  33
ATOM     33  C   UNL     1      -3.986  -4.411  -2.888  1.00  0.00     0.261 C 
BRANCH  33  34
ATOM     34  O   UNL     1      -5.155  -3.862  -3.540  1.00  0.00    -0.460 OA
BRANCH  34  35
ATOM     35  C   UNL     1      -4.942  -3.486  -4.840  1.00  0.00     0.338 C 
ATOM     36  O   UNL     1      -4.560  -4.229  -5.715  1.00  0.00    -0.246 OA
BRANCH  35  37
ATOM     37  C   UNL     1      -5.146  -2.010  -5.008  1.00  0.00     0.060 A 
ATOM     38  C   UNL     1      -4.571  -1.344  -6.105  1.00  0.00     0.016 A 
ATOM     39  C   UNL     1      -5.725  -1.261  -3.992  1.00  0.00     0.016 A 
ATOM     40  C   UNL     1      -4.422   0.058  -6.098  1.00  0.00     0.010 A 
ATOM     41  C   UNL     1      -5.554   0.117  -3.986  1.00  0.00     0.010 A 
ATOM     42  C   UNL     1      -4.825   0.793  -4.985  1.00  0.00    -0.014 A 
BRANCH  42  43
ATOM     43  C   UNL     1      -4.373   2.176  -4.634  1.00  0.00     0.031 A 
ATOM     44  C   UNL     1      -5.401   3.151  -4.113  1.00  0.00     0.074 A 
ATOM     45  C   UNL     1      -3.034   2.367  -4.450  1.00  0.00     0.049 A 
ATOM     46  N   UNL     1      -5.166   4.346  -3.681  1.00  0.00    -0.248 NA
ATOM     47  C   UNL     1      -6.841   2.855  -4.090  1.00  0.00     0.031 C 
ATOM     48  C   UNL     1      -2.306   3.072  -3.391  1.00  0.00     0.029 A 
ATOM     49  N   UNL     1      -1.974   1.843  -5.170  1.00  0.00    -0.354 N 
ATOM     50  C   UNL     1      -6.308   4.818  -3.030  1.00  0.00     0.074 A 
ATOM     51  C   UNL     1      -7.345   3.899  -3.422  1.00  0.00     0.031 C 
ATOM     52  C   UNL     1      -0.982   3.041  -3.562  1.00  0.00     0.029 A 
ATOM     53  C   UNL     1      -0.777   2.522  -4.865  1.00  0.00     0.049 A 
ATOM     54  H   UNL     1      -2.047   1.097  -5.809  1.00  0.00     0.167 HD
ATOM     55  C   UNL     1      -6.202   5.816  -2.090  1.00  0.00     0.034 A 
ATOM     56  C   UNL     1      -0.143   3.229  -5.836  1.00  0.00     0.034 A 
ATOM     57  C   UNL     1      -4.854   6.443  -2.090  1.00  0.00     0.049 A 
ATOM     58  C   UNL     1      -0.510   4.732  -5.761  1.00  0.00     0.074 A 
ATOM     59  C   UNL     1      -3.992   6.973  -1.140  1.00  0.00     0.029 A 
ATOM     60  N   UNL     1      -4.138   6.516  -3.285  1.00  0.00    -0.354 N 
ATOM     61  N   UNL     1      -1.304   5.285  -4.860  1.00  0.00    -0.248 NA
ATOM     62  C   UNL     1       0.024   5.737  -6.673  1.00  0.00     0.031 C 
ATOM     63  C   UNL     1      -2.753   7.298  -1.774  1.00  0.00     0.029 A 
ATOM     64  C   UNL     1      -2.881   7.037  -3.126  1.00  0.00     0.049 A 
ATOM     65  H   UNL     1      -4.499   6.222  -4.153  1.00  0.00     0.167 HD
ATOM     66  C   UNL     1      -1.425   6.641  -5.073  1.00  0.00     0.074 A 
ATOM     67  C   UNL     1      -0.587   6.859  -6.247  1.00  0.00     0.031 C 
ATOM     68  C   UNL     1      -2.182   7.502  -4.308  1.00  0.00     0.034 A 
BRANCH  55  69
ATOM     69  C   UNL     1      -7.221   6.111  -0.954  1.00  0.00     0.023 A 
ATOM     70  C   UNL     1      -6.989   7.213  -0.092  1.00  0.00     0.031 A 
ATOM     71  C   UNL     1      -8.308   5.297  -0.551  1.00  0.00     0.131 A 
ATOM     72  C   UNL     1      -7.710   7.412   1.109  1.00  0.00     0.055 A 
ATOM     73  C   UNL     1      -9.091   5.552   0.595  1.00  0.00     0.041 A 
ATOM     74  F   UNL     1      -8.654   4.183  -1.203  1.00  0.00    -0.206 F 
ATOM     75  C   UNL     1      -8.781   6.598   1.448  1.00  0.00     0.022 A 
BRANCH  72  76
ATOM     76  S   UNL     1      -7.182   8.713   2.266  1.00  0.00     0.124 S 
ATOM     77  O   UNL     1      -5.944   8.160   2.804  1.00  0.00    -0.237 OA
ATOM     78  O   UNL     1      -7.042   9.874   1.395  1.00  0.00    -0.237 OA
ATOM     79  O   UNL     1      -8.290   8.792   3.219  1.00  0.00    -0.744 OA
ENDBRANCH  72  76
ENDBRANCH  55  69
BRANCH  56  80
ATOM     80  C   UNL     1       0.101   2.232  -6.948  1.00  0.00     0.023 A 
ATOM     81  C   UNL     1       0.877   1.104  -6.517  1.00  0.00     0.031 A 
ATOM     82  C   UNL     1      -0.923   1.981  -7.877  1.00  0.00     0.131 A 
ATOM     83  C   UNL     1       0.412  -0.208  -6.742  1.00  0.00     0.055 A 
ATOM     84  C   UNL     1      -1.331   0.662  -8.158  1.00  0.00     0.041 A 
ATOM     85  F   UNL     1      -1.707   2.980  -8.307  1.00  0.00    -0.206 F 
ATOM     86  C   UNL     1      -0.713  -0.430  -7.536  1.00  0.00     0.022 A 
BRANCH  83  87
ATOM     87  S   UNL     1       1.069  -1.577  -5.715  1.00  0.00     0.124 S 
ATOM     88  O   UNL     1       2.344  -1.864  -6.360  1.00  0.00    -0.237 OA
ATOM     89  O   UNL     1       1.145  -0.977  -4.386  1.00  0.00    -0.237 OA
ATOM     90  O   UNL     1       0.050  -2.617  -5.841  1.00  0.00    -0.744 OA
ENDBRANCH  83  87
ENDBRANCH  56  80
BRANCH  68  91
ATOM     91  C   UNL     1      -2.442   8.959  -4.638  1.00  0.00     0.023 A 
ATOM     92  C   UNL     1      -1.489   9.750  -5.262  1.00  0.00     0.031 A 
ATOM     93  C   UNL     1      -3.676   9.600  -4.326  1.00  0.00     0.131 A 
ATOM     94  C   UNL     1      -1.837  11.014  -5.755  1.00  0.00     0.055 A 
ATOM     95  C   UNL     1      -3.968  10.913  -4.693  1.00  0.00     0.041 A 
ATOM     96  F   UNL     1      -4.675   8.974  -3.689  1.00  0.00    -0.206 F 
ATOM     97  C   UNL     1      -3.061  11.614  -5.464  1.00  0.00     0.022 A 
BRANCH  94  98
ATOM     98  S   UNL     1      -0.711  11.756  -6.952  1.00  0.00     0.124 S 
ATOM     99  O   UNL     1       0.552  11.782  -6.222  1.00  0.00    -0.237 OA
ATOM    100  O   UNL     1      -0.784  10.794  -8.050  1.00  0.00    -0.237 OA
ATOM    101  O   UNL     1      -1.308  13.060  -7.226  1.00  0.00    -0.744 OA
ENDBRANCH  94  98
ENDBRANCH  68  91
ENDBRANCH  42  43
ENDBRANCH  35  37
ENDBRANCH  34  35
ENDBRANCH  33  34
ENDBRANCH  32  33
ENDBRANCH  31  32
ENDBRANCH  30  31
ENDBRANCH  29  30
ENDBRANCH   1  29
TORSDOF 26
