REMARK SMILES C[C@@H](C(=O)OCCOCCOCCOCCOC(=O)c1ccc(-c2c3nc(c(-c4cc(S(=O)(=O)[O-])ccc4F)c4ccc([nH]4)c(-c4cc(S(=O)(=O)[O-])ccc4F)c4nc(c(-c5cc(S(=O)(=O)[O-])ccc5F)c5ccc2[nH]5)C=C4)C=C3)cc1)c1ccc(-c2ccn(C(F)F)c(=O)c2)cc1
REMARK SMILES IDX 11 1 10 2 9 3 8 4 7 5 6 6 5 7 3 8 4 9 2 10 1 11 83 12 84 13
REMARK SMILES IDX 98 14 85 15 97 16 86 17 87 18 88 19 96 20 89 21 94 22 90 23
REMARK SMILES IDX 95 24 91 25 92 26 93 27 12 28 13 29 14 30 15 31 16 32 17 33
REMARK SMILES IDX 18 34 19 35 20 36 21 37 82 38 22 39 81 40 23 41 24 42 25 43
REMARK SMILES IDX 75 44 26 45 80 46 74 47 76 48 27 49 79 50 73 51 72 52 28 54
REMARK SMILES IDX 60 55 40 56 59 57 41 58 44 59 58 60 77 61 42 62 43 63 57 65
REMARK SMILES IDX 78 66 45 67 29 68 30 69 38 70 31 71 37 72 39 73 36 74 32 75
REMARK SMILES IDX 33 76 34 77 35 78 61 79 62 80 70 81 63 82 69 83 71 84 68 85
REMARK SMILES IDX 64 86 65 87 66 88 67 89 46 90 47 91 55 92 48 93 54 94 56 95
REMARK SMILES IDX 53 96 49 97 50 98 51 99 52 100
REMARK H PARENT 76 53 44 64
REMARK Flexibility Score: inf
ROOT
ATOM      1  O   UNL     1       2.494   2.870   0.861  1.00  0.00    -0.377 OA
ENDROOT
BRANCH   1   2
ATOM      2  C   UNL     1       1.092   2.742   0.806  1.00  0.00     0.188 C 
BRANCH   2   3
ATOM      3  C   UNL     1       0.353   3.180   2.087  1.00  0.00     0.188 C 
BRANCH   3   4
ATOM      4  O   UNL     1       1.077   3.781   3.145  1.00  0.00    -0.376 OA
BRANCH   4   5
ATOM      5  C   UNL     1       2.273   3.170   3.606  1.00  0.00     0.202 C 
BRANCH   5   6
ATOM      6  C   UNL     1       2.442   1.637   3.725  1.00  0.00     0.261 C 
BRANCH   6   7
ATOM      7  O   UNL     1       1.947   0.812   2.649  1.00  0.00    -0.463 OA
BRANCH   7   8
ATOM      8  C   UNL     1       0.877   0.019   2.918  1.00  0.00     0.313 C 
ATOM      9  O   UNL     1       0.318  -0.017   4.011  1.00  0.00    -0.252 OA
BRANCH   8  10
ATOM     10  C   UNL     1       0.411  -0.849   1.729  1.00  0.00     0.126 C 
ATOM     11  C   UNL     1       1.172  -0.771   0.401  1.00  0.00     0.025 C 
BRANCH  10  12
ATOM     12  C   UNL     1      -1.102  -0.739   1.519  1.00  0.00    -0.034 A 
ATOM     13  C   UNL     1      -1.736   0.476   1.216  1.00  0.00     0.005 A 
ATOM     14  C   UNL     1      -1.912  -1.864   1.689  1.00  0.00     0.005 A 
ATOM     15  C   UNL     1      -3.125   0.603   1.206  1.00  0.00     0.009 A 
ATOM     16  C   UNL     1      -3.305  -1.754   1.634  1.00  0.00     0.009 A 
ATOM     17  C   UNL     1      -3.925  -0.514   1.425  1.00  0.00    -0.018 A 
BRANCH  17  18
ATOM     18  C   UNL     1      -5.396  -0.408   1.443  1.00  0.00    -0.011 A 
ATOM     19  C   UNL     1      -6.194  -0.919   2.542  1.00  0.00     0.027 A 
ATOM     20  C   UNL     1      -6.019   0.145   0.387  1.00  0.00     0.080 A 
ATOM     21  C   UNL     1      -7.529  -0.936   2.461  1.00  0.00     0.095 A 
ATOM     22  C   UNL     1      -7.505   0.165   0.299  1.00  0.00     0.255 A 
ATOM     23  N   UNL     1      -8.180  -0.433   1.351  1.00  0.00    -0.258 N 
ATOM     24  O   UNL     1      -8.027   0.671  -0.689  1.00  0.00    -0.269 OA
BRANCH  23  25
ATOM     25  C   UNL     1      -9.607  -0.551   1.226  1.00  0.00     0.451 C 
ATOM     26  F   UNL     1     -10.197   0.658   1.073  1.00  0.00    -0.185 F 
ATOM     27  F   UNL     1      -9.933  -1.317   0.155  1.00  0.00    -0.185 F 
ENDBRANCH  23  25
ENDBRANCH  17  18
ENDBRANCH  10  12
ENDBRANCH   8  10
ENDBRANCH   7   8
ENDBRANCH   6   7
ENDBRANCH   5   6
ENDBRANCH   4   5
ENDBRANCH   3   4
ENDBRANCH   2   3
ENDBRANCH   1   2
BRANCH   1  28
ATOM     28  C   UNL     1       3.037   4.099   0.404  1.00  0.00     0.188 C 
BRANCH  28  29
ATOM     29  C   UNL     1       2.182   5.376   0.534  1.00  0.00     0.188 C 
BRANCH  29  30
ATOM     30  O   UNL     1       0.861   5.254   0.013  1.00  0.00    -0.376 OA
BRANCH  30  31
ATOM     31  C   UNL     1       0.599   5.718  -1.304  1.00  0.00     0.202 C 
BRANCH  31  32
ATOM     32  C   UNL     1       1.242   4.950  -2.470  1.00  0.00     0.261 C 
BRANCH  32  33
ATOM     33  O   UNL     1       2.676   4.892  -2.492  1.00  0.00    -0.460 OA
BRANCH  33  34
ATOM     34  C   UNL     1       3.359   6.056  -2.455  1.00  0.00     0.338 C 
ATOM     35  O   UNL     1       2.887   7.180  -2.486  1.00  0.00    -0.246 OA
BRANCH  34  36
ATOM     36  C   UNL     1       4.769   5.737  -2.143  1.00  0.00     0.060 A 
ATOM     37  C   UNL     1       5.350   6.286  -0.992  1.00  0.00     0.016 A 
ATOM     38  C   UNL     1       5.505   4.879  -2.964  1.00  0.00     0.016 A 
ATOM     39  C   UNL     1       6.678   6.003  -0.674  1.00  0.00     0.010 A 
ATOM     40  C   UNL     1       6.845   4.620  -2.661  1.00  0.00     0.010 A 
ATOM     41  C   UNL     1       7.446   5.208  -1.534  1.00  0.00    -0.014 A 
BRANCH  41  42
ATOM     42  C   UNL     1       8.922   5.185  -1.384  1.00  0.00     0.031 A 
ATOM     43  C   UNL     1       9.731   6.117  -2.247  1.00  0.00     0.074 A 
ATOM     44  C   UNL     1       9.530   4.387  -0.488  1.00  0.00     0.049 A 
ATOM     45  N   UNL     1      11.027   6.245  -2.349  1.00  0.00    -0.248 NA
ATOM     46  C   UNL     1       8.964   7.023  -3.117  1.00  0.00     0.031 C 
ATOM     47  C   UNL     1       8.850   3.492   0.446  1.00  0.00     0.029 A 
ATOM     48  N   UNL     1      10.864   4.200  -0.223  1.00  0.00    -0.354 N 
ATOM     49  C   UNL     1      11.234   7.238  -3.301  1.00  0.00     0.074 A 
ATOM     50  C   UNL     1       9.929   7.651  -3.770  1.00  0.00     0.031 C 
ATOM     51  C   UNL     1       9.774   2.844   1.178  1.00  0.00     0.029 A 
ATOM     52  C   UNL     1      11.110   3.243   0.735  1.00  0.00     0.049 A 
ATOM     53  H   UNL     1      11.579   4.704  -0.675  1.00  0.00     0.167 HD
ATOM     54  C   UNL     1      12.405   7.760  -3.739  1.00  0.00     0.034 A 
ATOM     55  C   UNL     1      12.277   2.731   1.176  1.00  0.00     0.034 A 
ATOM     56  C   UNL     1      13.697   7.327  -3.268  1.00  0.00     0.049 A 
ATOM     57  C   UNL     1      13.573   3.254   0.595  1.00  0.00     0.074 A 
ATOM     58  C   UNL     1      14.946   7.796  -3.632  1.00  0.00     0.029 A 
ATOM     59  N   UNL     1      13.908   6.313  -2.342  1.00  0.00    -0.354 N 
ATOM     60  N   UNL     1      13.758   4.196  -0.303  1.00  0.00    -0.248 NA
ATOM     61  C   UNL     1      14.816   2.648   1.090  1.00  0.00     0.031 C 
ATOM     62  C   UNL     1      15.911   7.008  -2.997  1.00  0.00     0.029 A 
ATOM     63  C   UNL     1      15.267   6.113  -2.158  1.00  0.00     0.049 A 
ATOM     64  H   UNL     1      13.196   5.810  -1.885  1.00  0.00     0.167 HD
ATOM     65  C   UNL     1      15.139   4.320  -0.446  1.00  0.00     0.074 A 
ATOM     66  C   UNL     1      15.736   3.366   0.465  1.00  0.00     0.031 C 
ATOM     67  C   UNL     1      15.851   5.152  -1.250  1.00  0.00     0.034 A 
BRANCH  54  68
ATOM     68  C   UNL     1      12.337   8.806  -4.825  1.00  0.00     0.023 A 
ATOM     69  C   UNL     1      11.715  10.051  -4.624  1.00  0.00     0.031 A 
ATOM     70  C   UNL     1      12.881   8.540  -6.095  1.00  0.00     0.131 A 
ATOM     71  C   UNL     1      11.592  10.952  -5.693  1.00  0.00     0.055 A 
ATOM     72  C   UNL     1      12.830   9.476  -7.129  1.00  0.00     0.041 A 
ATOM     73  F   UNL     1      13.460   7.358  -6.356  1.00  0.00    -0.206 F 
ATOM     74  C   UNL     1      12.170  10.685  -6.936  1.00  0.00     0.022 A 
BRANCH  71  75
ATOM     75  S   UNL     1      10.536  12.411  -5.479  1.00  0.00     0.124 S 
ATOM     76  O   UNL     1       9.254  11.800  -5.137  1.00  0.00    -0.237 OA
ATOM     77  O   UNL     1      11.207  13.133  -4.405  1.00  0.00    -0.237 OA
ATOM     78  O   UNL     1      10.578  13.059  -6.789  1.00  0.00    -0.744 OA
ENDBRANCH  71  75
ENDBRANCH  54  68
BRANCH  55  79
ATOM     79  C   UNL     1      12.295   1.633   2.189  1.00  0.00     0.023 A 
ATOM     80  C   UNL     1      12.922   1.803   3.434  1.00  0.00     0.031 A 
ATOM     81  C   UNL     1      11.749   0.370   1.897  1.00  0.00     0.131 A 
ATOM     82  C   UNL     1      13.036   0.717   4.316  1.00  0.00     0.055 A 
ATOM     83  C   UNL     1      11.810  -0.690   2.803  1.00  0.00     0.041 A 
ATOM     84  F   UNL     1      11.146   0.146   0.718  1.00  0.00    -0.206 F 
ATOM     85  C   UNL     1      12.470  -0.524   4.016  1.00  0.00     0.022 A 
BRANCH  82  86
ATOM     86  S   UNL     1      14.031   0.919   5.820  1.00  0.00     0.124 S 
ATOM     87  O   UNL     1      15.327   1.294   5.268  1.00  0.00    -0.237 OA
ATOM     88  O   UNL     1      13.304   1.970   6.524  1.00  0.00    -0.237 OA
ATOM     89  O   UNL     1      13.975  -0.401   6.445  1.00  0.00    -0.744 OA
ENDBRANCH  82  86
ENDBRANCH  55  79
BRANCH  67  90
ATOM     90  C   UNL     1      17.358   5.108  -1.137  1.00  0.00     0.023 A 
ATOM     91  C   UNL     1      18.100   3.971  -1.499  1.00  0.00     0.031 A 
ATOM     92  C   UNL     1      18.061   6.228  -0.656  1.00  0.00     0.131 A 
ATOM     93  C   UNL     1      19.492   3.958  -1.318  1.00  0.00     0.055 A 
ATOM     94  C   UNL     1      19.452   6.235  -0.547  1.00  0.00     0.041 A 
ATOM     95  F   UNL     1      17.405   7.342  -0.291  1.00  0.00    -0.206 F 
ATOM     96  C   UNL     1      20.175   5.090  -0.865  1.00  0.00     0.022 A 
BRANCH  93  97
ATOM     97  S   UNL     1      20.392   2.405  -1.584  1.00  0.00     0.124 S 
ATOM     98  O   UNL     1      19.723   1.504  -0.651  1.00  0.00    -0.237 OA
ATOM     99  O   UNL     1      20.155   2.146  -3.001  1.00  0.00    -0.237 OA
ATOM    100  O   UNL     1      21.771   2.744  -1.239  1.00  0.00    -0.744 OA
ENDBRANCH  93  97
ENDBRANCH  67  90
ENDBRANCH  41  42
ENDBRANCH  34  36
ENDBRANCH  33  34
ENDBRANCH  32  33
ENDBRANCH  31  32
ENDBRANCH  30  31
ENDBRANCH  29  30
ENDBRANCH  28  29
ENDBRANCH   1  28
TORSDOF 26
