REMARK SMILES CCN(Cc1cn(CC)nc1C)C(=O)c1ccn([C@@H](C)C(=O)OCCOCCOCCOCCOC(=O)c2ccc(-c3c4nc(c(-c5cc(S(=O)(=O)[O-])ccc5F)c5ccc([nH]5)c(-c5cc(S(=O)(=O)[O-])ccc5F)c5nc(c(-c6cc(S(=O)(=O)[O-])ccc6F)c6ccc3[nH]6)C=C5)C=C4)cc2)n1
REMARK SMILES IDX 27 1 26 2 25 3 24 4 23 5 21 6 22 7 19 8 20 9 18 10 15 11
REMARK SMILES IDX 16 12 101 13 17 14 13 15 14 16 3 17 2 18 1 19 4 20 5 21 6 22
REMARK SMILES IDX 11 23 7 24 10 25 12 26 8 27 9 28 28 29 29 30 30 31 31 32
REMARK SMILES IDX 32 33 33 34 34 35 35 36 36 37 37 38 38 39 39 40 100 41 40 42
REMARK SMILES IDX 99 43 41 44 42 45 43 46 93 47 44 48 98 49 92 50 94 51 45 52
REMARK SMILES IDX 97 53 91 54 90 55 46 57 78 58 58 59 77 60 59 61 62 62 76 63
REMARK SMILES IDX 95 64 60 65 61 66 75 68 96 69 63 70 47 71 48 72 56 73 49 74
REMARK SMILES IDX 55 75 57 76 54 77 50 78 51 79 52 80 53 81 79 82 80 83 88 84
REMARK SMILES IDX 81 85 87 86 89 87 86 88 82 89 83 90 84 91 85 92 64 93 65 94
REMARK SMILES IDX 73 95 66 96 72 97 74 98 71 99 67 100 68 101 69 102 70 103
REMARK H PARENT 94 56 62 67
REMARK Flexibility Score: inf
ROOT
ATOM      1  C   UNL     1       7.723   4.006  -4.976  1.00  0.00     0.188 C 
ENDROOT
BRANCH   1   2
ATOM      2  O   UNL     1       8.355   4.824  -5.954  1.00  0.00    -0.376 OA
BRANCH   2   3
ATOM      3  C   UNL     1       7.615   5.802  -6.663  1.00  0.00     0.202 C 
BRANCH   3   4
ATOM      4  C   UNL     1       6.440   5.348  -7.543  1.00  0.00     0.261 C 
BRANCH   4   5
ATOM      5  O   UNL     1       5.442   4.521  -6.911  1.00  0.00    -0.462 OA
BRANCH   5   6
ATOM      6  C   UNL     1       5.458   3.197  -7.193  1.00  0.00     0.330 C 
ATOM      7  O   UNL     1       6.265   2.688  -7.970  1.00  0.00    -0.250 OA
BRANCH   6   8
ATOM      8  C   UNL     1       4.353   2.364  -6.559  1.00  0.00     0.213 C 
ATOM      9  C   UNL     1       3.309   2.036  -7.616  1.00  0.00     0.046 C 
BRANCH   8  10
ATOM     10  N   UNL     1       3.716   2.830  -5.321  1.00  0.00    -0.258 N 
ATOM     11  C   UNL     1       2.983   2.643  -3.313  1.00  0.00     0.150 A 
ATOM     12  C   UNL     1       2.987   4.020  -3.634  1.00  0.00     0.056 A 
ATOM     13  N   UNL     1       3.412   1.910  -4.362  1.00  0.00    -0.167 NA
ATOM     14  C   UNL     1       3.333   4.089  -4.962  1.00  0.00     0.110 A 
BRANCH  11  15
ATOM     15  C   UNL     1       2.606   2.064  -2.012  1.00  0.00     0.274 C 
ATOM     16  O   UNL     1       3.470   1.637  -1.246  1.00  0.00    -0.267 OA
BRANCH  15  17
ATOM     17  N   UNL     1       1.243   2.074  -1.664  1.00  0.00    -0.333 N 
BRANCH  17  18
ATOM     18  C   UNL     1       0.872   1.660  -0.311  1.00  0.00     0.117 C 
ATOM     19  C   UNL     1       0.967   0.153  -0.100  1.00  0.00     0.027 C 
ENDBRANCH  17  18
BRANCH  17  20
ATOM     20  C   UNL     1       0.162   2.285  -2.631  1.00  0.00     0.159 C 
BRANCH  20  21
ATOM     21  C   UNL     1      -0.101   3.733  -2.902  1.00  0.00     0.012 A 
ATOM     22  C   UNL     1      -0.377   4.756  -2.010  1.00  0.00     0.114 A 
ATOM     23  C   UNL     1      -0.138   4.378  -4.178  1.00  0.00     0.064 A 
ATOM     24  N   UNL     1      -0.507   5.896  -2.751  1.00  0.00    -0.272 N 
ATOM     25  N   UNL     1      -0.391   5.686  -4.071  1.00  0.00    -0.178 NA
ATOM     26  C   UNL     1       0.103   3.818  -5.532  1.00  0.00     0.069 C 
BRANCH  24  27
ATOM     27  C   UNL     1      -0.720   7.250  -2.279  1.00  0.00     0.141 C 
ATOM     28  C   UNL     1       0.588   8.009  -2.143  1.00  0.00     0.029 C 
ENDBRANCH  24  27
ENDBRANCH  20  21
ENDBRANCH  17  20
ENDBRANCH  15  17
ENDBRANCH  11  15
ENDBRANCH   8  10
ENDBRANCH   6   8
ENDBRANCH   5   6
ENDBRANCH   4   5
ENDBRANCH   3   4
ENDBRANCH   2   3
ENDBRANCH   1   2
BRANCH   1  29
ATOM     29  C   UNL     1       6.486   4.479  -4.195  1.00  0.00     0.188 C 
BRANCH  29  30
ATOM     30  O   UNL     1       6.002   5.772  -4.509  1.00  0.00    -0.377 OA
BRANCH  30  31
ATOM     31  C   UNL     1       6.302   6.790  -3.559  1.00  0.00     0.188 C 
BRANCH  31  32
ATOM     32  C   UNL     1       7.759   6.840  -3.049  1.00  0.00     0.188 C 
BRANCH  32  33
ATOM     33  O   UNL     1       8.306   5.579  -2.667  1.00  0.00    -0.376 OA
BRANCH  33  34
ATOM     34  C   UNL     1       8.321   5.159  -1.308  1.00  0.00     0.202 C 
BRANCH  34  35
ATOM     35  C   UNL     1       6.987   4.890  -0.608  1.00  0.00     0.261 C 
BRANCH  35  36
ATOM     36  O   UNL     1       6.038   5.932  -0.733  1.00  0.00    -0.460 OA
BRANCH  36  37
ATOM     37  C   UNL     1       6.412   7.131  -0.264  1.00  0.00     0.338 C 
ATOM     38  O   UNL     1       7.536   7.479   0.090  1.00  0.00    -0.246 OA
BRANCH  37  39
ATOM     39  C   UNL     1       5.224   7.964  -0.138  1.00  0.00     0.060 A 
ATOM     40  C   UNL     1       5.438   9.289   0.242  1.00  0.00     0.016 A 
ATOM     41  C   UNL     1       3.989   7.317   0.007  1.00  0.00     0.016 A 
ATOM     42  C   UNL     1       4.497   9.871   1.053  1.00  0.00     0.010 A 
ATOM     43  C   UNL     1       3.072   7.886   0.844  1.00  0.00     0.010 A 
ATOM     44  C   UNL     1       3.393   9.104   1.435  1.00  0.00    -0.014 A 
BRANCH  44  45
ATOM     45  C   UNL     1       2.497   9.630   2.433  1.00  0.00     0.031 A 
ATOM     46  C   UNL     1       1.630  10.684   1.880  1.00  0.00     0.074 A 
ATOM     47  C   UNL     1       2.377   9.077   3.653  1.00  0.00     0.049 A 
ATOM     48  N   UNL     1       1.740  11.960   2.031  1.00  0.00    -0.248 NA
ATOM     49  C   UNL     1       0.700  10.288   0.811  1.00  0.00     0.031 C 
ATOM     50  C   UNL     1       2.995   7.852   4.166  1.00  0.00     0.029 A 
ATOM     51  N   UNL     1       1.569   9.458   4.672  1.00  0.00    -0.354 N 
ATOM     52  C   UNL     1       0.692  12.493   1.293  1.00  0.00     0.074 A 
ATOM     53  C   UNL     1       0.325  11.479   0.349  1.00  0.00     0.031 C 
ATOM     54  C   UNL     1       2.364   7.479   5.305  1.00  0.00     0.029 A 
ATOM     55  C   UNL     1       1.393   8.501   5.665  1.00  0.00     0.049 A 
ATOM     56  H   UNL     1       1.141  10.343   4.706  1.00  0.00     0.167 HD
ATOM     57  C   UNL     1      -0.007  13.565   1.755  1.00  0.00     0.034 A 
ATOM     58  C   UNL     1       0.463   8.536   6.659  1.00  0.00     0.034 A 
ATOM     59  C   UNL     1       0.733  14.238   2.804  1.00  0.00     0.049 A 
ATOM     60  C   UNL     1       0.022   9.952   6.781  1.00  0.00     0.074 A 
ATOM     61  C   UNL     1       1.990  14.808   2.880  1.00  0.00     0.029 A 
ATOM     62  N   UNL     1       0.348  14.016   4.110  1.00  0.00    -0.354 N 
ATOM     63  N   UNL     1       0.813  10.912   7.179  1.00  0.00    -0.248 NA
ATOM     64  C   UNL     1      -1.114  10.389   5.979  1.00  0.00     0.031 C 
ATOM     65  C   UNL     1       2.486  14.436   4.165  1.00  0.00     0.029 A 
ATOM     66  C   UNL     1       1.478  13.751   4.847  1.00  0.00     0.049 A 
ATOM     67  H   UNL     1      -0.574  14.042   4.454  1.00  0.00     0.167 HD
ATOM     68  C   UNL     1       0.541  11.980   6.336  1.00  0.00     0.074 A 
ATOM     69  C   UNL     1      -0.723  11.635   5.687  1.00  0.00     0.031 C 
ATOM     70  C   UNL     1       1.510  12.892   6.019  1.00  0.00     0.034 A 
BRANCH  57  71
ATOM     71  C   UNL     1      -1.499  13.750   1.565  1.00  0.00     0.023 A 
ATOM     72  C   UNL     1      -2.063  14.899   2.146  1.00  0.00     0.031 A 
ATOM     73  C   UNL     1      -2.426  12.778   1.114  1.00  0.00     0.131 A 
ATOM     74  C   UNL     1      -3.446  14.989   2.373  1.00  0.00     0.055 A 
ATOM     75  C   UNL     1      -3.807  12.905   1.281  1.00  0.00     0.041 A 
ATOM     76  F   UNL     1      -2.069  11.613   0.565  1.00  0.00    -0.206 F 
ATOM     77  C   UNL     1      -4.324  13.998   1.947  1.00  0.00     0.022 A 
BRANCH  74  78
ATOM     78  S   UNL     1      -4.048  16.345   3.405  1.00  0.00     0.124 S 
ATOM     79  O   UNL     1      -3.231  16.181   4.602  1.00  0.00    -0.237 OA
ATOM     80  O   UNL     1      -3.752  17.506   2.572  1.00  0.00    -0.237 OA
ATOM     81  O   UNL     1      -5.467  16.038   3.568  1.00  0.00    -0.744 OA
ENDBRANCH  74  78
ENDBRANCH  57  71
BRANCH  58  82
ATOM     82  C   UNL     1      -0.286   7.390   7.248  1.00  0.00     0.023 A 
ATOM     83  C   UNL     1      -0.944   7.464   8.496  1.00  0.00     0.031 A 
ATOM     84  C   UNL     1      -0.571   6.258   6.451  1.00  0.00     0.131 A 
ATOM     85  C   UNL     1      -1.839   6.440   8.893  1.00  0.00     0.055 A 
ATOM     86  C   UNL     1      -1.453   5.251   6.849  1.00  0.00     0.041 A 
ATOM     87  F   UNL     1      -0.070   6.137   5.211  1.00  0.00    -0.206 F 
ATOM     88  C   UNL     1      -2.100   5.343   8.070  1.00  0.00     0.022 A 
BRANCH  85  89
ATOM     89  S   UNL     1      -2.759   6.566  10.464  1.00  0.00     0.124 S 
ATOM     90  O   UNL     1      -1.703   6.411  11.457  1.00  0.00    -0.237 OA
ATOM     91  O   UNL     1      -3.371   7.886  10.364  1.00  0.00    -0.237 OA
ATOM     92  O   UNL     1      -3.705   5.450  10.395  1.00  0.00    -0.744 OA
ENDBRANCH  85  89
ENDBRANCH  58  82
BRANCH  70  93
ATOM     93  C   UNL     1       2.796  12.880   6.828  1.00  0.00     0.023 A 
ATOM     94  C   UNL     1       3.666  11.772   6.963  1.00  0.00     0.031 A 
ATOM     95  C   UNL     1       3.207  14.099   7.397  1.00  0.00     0.131 A 
ATOM     96  C   UNL     1       4.885  11.911   7.659  1.00  0.00     0.055 A 
ATOM     97  C   UNL     1       4.424  14.238   8.062  1.00  0.00     0.041 A 
ATOM     98  F   UNL     1       2.439  15.196   7.282  1.00  0.00    -0.206 F 
ATOM     99  C   UNL     1       5.265  13.142   8.202  1.00  0.00     0.022 A 
BRANCH  96 100
ATOM    100  S   UNL     1       5.995  10.483   7.896  1.00  0.00     0.124 S 
ATOM    101  O   UNL     1       5.097   9.418   8.324  1.00  0.00    -0.237 OA
ATOM    102  O   UNL     1       6.590  10.324   6.571  1.00  0.00    -0.237 OA
ATOM    103  O   UNL     1       6.926  10.946   8.927  1.00  0.00    -0.744 OA
ENDBRANCH  96 100
ENDBRANCH  70  93
ENDBRANCH  44  45
ENDBRANCH  37  39
ENDBRANCH  36  37
ENDBRANCH  35  36
ENDBRANCH  34  35
ENDBRANCH  33  34
ENDBRANCH  32  33
ENDBRANCH  31  32
ENDBRANCH  30  31
ENDBRANCH  29  30
ENDBRANCH   1  29
TORSDOF 30
