REMARK SMILES C[C@@]1(C(=O)OCCOCCOCCOCCOC(=O)c2ccc(-c3c4nc(c(-c5cc(S(=O)(=O)[O-])ccc5F)c5ccc([nH]5)c(-c5cc(S(=O)(=O)[O-])ccc5F)c5nc(c(-c6cc(S(=O)(=O)[O-])ccc6F)c6ccc3[nH]6)C=C5)C=C4)cc2)COC[C@H]1NC(=O)C[C@@H]1C[NH2+]CCO1
REMARK SMILES IDX 11 1 10 2 9 3 8 4 7 5 6 6 5 7 3 8 4 9 2 10 1 11 83 12 86 13
REMARK SMILES IDX 84 14 85 15 87 16 88 17 89 19 90 20 91 21 92 22 96 23 93 24
REMARK SMILES IDX 95 25 94 26 12 29 13 30 14 31 15 32 16 33 17 34 18 35 19 36
REMARK SMILES IDX 20 37 21 38 82 39 22 40 81 41 23 42 24 43 25 44 75 45 26 46
REMARK SMILES IDX 80 47 74 48 76 49 27 50 79 51 73 52 72 53 28 55 60 56 40 57
REMARK SMILES IDX 59 58 41 59 44 60 58 61 77 62 42 63 43 64 57 66 78 67 45 68
REMARK SMILES IDX 29 69 30 70 38 71 31 72 37 73 39 74 36 75 32 76 33 77 34 78
REMARK SMILES IDX 35 79 61 80 62 81 70 82 63 83 69 84 71 85 68 86 64 87 65 88
REMARK SMILES IDX 66 89 67 90 46 91 47 92 55 93 48 94 54 95 56 96 53 97 49 98
REMARK SMILES IDX 50 99 51 100 52 101
REMARK H PARENT 87 18 93 27 93 28 76 54 44 65
REMARK Flexibility Score: inf
ROOT
ATOM      1  O   UNL     1       2.947   1.017  -3.750  1.00  0.00    -0.377 OA
ENDROOT
BRANCH   1   2
ATOM      2  C   UNL     1       3.521   0.289  -2.687  1.00  0.00     0.188 C 
BRANCH   2   3
ATOM      3  C   UNL     1       3.422  -1.234  -2.784  1.00  0.00     0.188 C 
BRANCH   3   4
ATOM      4  O   UNL     1       3.561  -1.804  -4.070  1.00  0.00    -0.376 OA
BRANCH   4   5
ATOM      5  C   UNL     1       2.571  -1.464  -5.044  1.00  0.00     0.202 C 
BRANCH   5   6
ATOM      6  C   UNL     1       1.088  -1.480  -4.621  1.00  0.00     0.261 C 
BRANCH   6   7
ATOM      7  O   UNL     1       0.719  -0.481  -3.626  1.00  0.00    -0.463 OA
BRANCH   7   8
ATOM      8  C   UNL     1      -0.058  -0.935  -2.613  1.00  0.00     0.316 C 
ATOM      9  O   UNL     1      -0.417  -2.108  -2.516  1.00  0.00    -0.251 OA
BRANCH   8  10
ATOM     10  C   UNL     1      -0.431   0.085  -1.526  1.00  0.00     0.111 C 
ATOM     11  C   UNL     1      -0.038  -0.601  -0.205  1.00  0.00     0.028 C 
ATOM     12  C   UNL     1      -1.948   0.232  -1.617  1.00  0.00     0.181 C 
ATOM     13  C   UNL     1       0.029   1.555  -1.663  1.00  0.00     0.127 C 
ATOM     14  O   UNL     1      -2.224   1.362  -2.452  1.00  0.00    -0.378 OA
ATOM     15  C   UNL     1      -1.016   2.119  -2.634  1.00  0.00     0.186 C 
BRANCH  13  16
ATOM     16  N   UNL     1      -0.088   2.302  -0.371  1.00  0.00    -0.350 N 
ATOM     17  C   UNL     1       0.713   3.157   0.323  1.00  0.00     0.223 C 
ATOM     18  H   UNL     1      -0.945   2.136   0.084  1.00  0.00     0.163 HD
ATOM     19  O   UNL     1       0.267   3.610   1.380  1.00  0.00    -0.275 OA
BRANCH  17  20
ATOM     20  C   UNL     1       2.102   3.538  -0.139  1.00  0.00     0.138 C 
BRANCH  20  21
ATOM     21  C   UNL     1       3.208   2.510   0.127  1.00  0.00     0.182 C 
ATOM     22  C   UNL     1       2.788   1.261   0.911  1.00  0.00     0.293 C 
ATOM     23  O   UNL     1       4.343   3.108   0.788  1.00  0.00    -0.366 OA
ATOM     24  N   UNL     1       3.848   0.236   0.925  1.00  0.00    -0.342 N 
ATOM     25  C   UNL     1       5.439   2.175   0.884  1.00  0.00     0.222 C 
ATOM     26  C   UNL     1       5.049   0.832   1.525  1.00  0.00     0.289 C 
ATOM     27  H   UNL     1       4.050  -0.065  -0.029  1.00  0.00     0.346 HD
ATOM     28  H   UNL     1       3.548  -0.576   1.464  1.00  0.00     0.346 HD
ENDBRANCH  20  21
ENDBRANCH  17  20
ENDBRANCH  13  16
ENDBRANCH   8  10
ENDBRANCH   7   8
ENDBRANCH   6   7
ENDBRANCH   5   6
ENDBRANCH   4   5
ENDBRANCH   3   4
ENDBRANCH   2   3
ENDBRANCH   1   2
BRANCH   1  29
ATOM     29  C   UNL     1       3.791   1.824  -4.570  1.00  0.00     0.188 C 
BRANCH  29  30
ATOM     30  C   UNL     1       5.284   1.472  -4.660  1.00  0.00     0.188 C 
BRANCH  30  31
ATOM     31  O   UNL     1       6.225   2.029  -3.736  1.00  0.00    -0.376 OA
BRANCH  31  32
ATOM     32  C   UNL     1       5.834   2.980  -2.762  1.00  0.00     0.202 C 
BRANCH  32  33
ATOM     33  C   UNL     1       5.649   4.449  -3.152  1.00  0.00     0.261 C 
BRANCH  33  34
ATOM     34  O   UNL     1       5.048   4.641  -4.425  1.00  0.00    -0.460 OA
BRANCH  34  35
ATOM     35  C   UNL     1       5.919   4.595  -5.461  1.00  0.00     0.338 C 
ATOM     36  O   UNL     1       7.128   4.458  -5.410  1.00  0.00    -0.246 OA
BRANCH  35  37
ATOM     37  C   UNL     1       5.114   4.566  -6.688  1.00  0.00     0.060 A 
ATOM     38  C   UNL     1       5.386   3.578  -7.639  1.00  0.00     0.016 A 
ATOM     39  C   UNL     1       4.088   5.497  -6.881  1.00  0.00     0.016 A 
ATOM     40  C   UNL     1       4.633   3.520  -8.803  1.00  0.00     0.010 A 
ATOM     41  C   UNL     1       3.355   5.460  -8.060  1.00  0.00     0.010 A 
ATOM     42  C   UNL     1       3.651   4.491  -9.032  1.00  0.00    -0.014 A 
BRANCH  42  43
ATOM     43  C   UNL     1       3.116   4.652 -10.394  1.00  0.00     0.031 A 
ATOM     44  C   UNL     1       3.813   5.629 -11.294  1.00  0.00     0.074 A 
ATOM     45  C   UNL     1       2.058   3.934 -10.802  1.00  0.00     0.049 A 
ATOM     46  N   UNL     1       3.510   6.005 -12.505  1.00  0.00    -0.248 NA
ATOM     47  C   UNL     1       5.017   6.276 -10.742  1.00  0.00     0.031 C 
ATOM     48  C   UNL     1       1.363   2.927 -10.001  1.00  0.00     0.029 A 
ATOM     49  N   UNL     1       1.380   3.952 -11.990  1.00  0.00    -0.354 N 
ATOM     50  C   UNL     1       4.483   6.932 -12.861  1.00  0.00     0.074 A 
ATOM     51  C   UNL     1       5.362   7.090 -11.725  1.00  0.00     0.031 C 
ATOM     52  C   UNL     1       0.340   2.432 -10.721  1.00  0.00     0.029 A 
ATOM     53  C   UNL     1       0.287   3.119 -12.009  1.00  0.00     0.049 A 
ATOM     54  H   UNL     1       1.649   4.507 -12.757  1.00  0.00     0.167 HD
ATOM     55  C   UNL     1       4.625   7.586 -14.038  1.00  0.00     0.034 A 
ATOM     56  C   UNL     1      -0.660   2.966 -12.955  1.00  0.00     0.034 A 
ATOM     57  C   UNL     1       3.708   7.422 -15.136  1.00  0.00     0.049 A 
ATOM     58  C   UNL     1      -0.538   3.780 -14.222  1.00  0.00     0.074 A 
ATOM     59  C   UNL     1       3.733   8.024 -16.380  1.00  0.00     0.029 A 
ATOM     60  N   UNL     1       2.585   6.602 -15.111  1.00  0.00    -0.354 N 
ATOM     61  N   UNL     1       0.389   4.650 -14.559  1.00  0.00    -0.248 NA
ATOM     62  C   UNL     1      -1.583   3.591 -15.234  1.00  0.00     0.031 C 
ATOM     63  C   UNL     1       2.585   7.630 -17.075  1.00  0.00     0.029 A 
ATOM     64  C   UNL     1       1.888   6.713 -16.301  1.00  0.00     0.049 A 
ATOM     65  H   UNL     1       2.323   6.027 -14.355  1.00  0.00     0.167 HD
ATOM     66  C   UNL     1       0.054   5.088 -15.837  1.00  0.00     0.074 A 
ATOM     67  C   UNL     1      -1.152   4.376 -16.212  1.00  0.00     0.031 C 
ATOM     68  C   UNL     1       0.681   5.991 -16.636  1.00  0.00     0.034 A 
BRANCH  55  69
ATOM     69  C   UNL     1       5.761   8.571 -14.150  1.00  0.00     0.023 A 
ATOM     70  C   UNL     1       7.106   8.168 -14.057  1.00  0.00     0.031 A 
ATOM     71  C   UNL     1       5.495   9.944 -14.297  1.00  0.00     0.131 A 
ATOM     72  C   UNL     1       8.126   9.132 -14.039  1.00  0.00     0.055 A 
ATOM     73  C   UNL     1       6.519  10.890 -14.361  1.00  0.00     0.041 A 
ATOM     74  F   UNL     1       4.231  10.392 -14.356  1.00  0.00    -0.206 F 
ATOM     75  C   UNL     1       7.844  10.488 -14.217  1.00  0.00     0.022 A 
BRANCH  72  76
ATOM     76  S   UNL     1       9.812   8.603 -13.628  1.00  0.00     0.124 S 
ATOM     77  O   UNL     1       9.622   8.021 -12.301  1.00  0.00    -0.237 OA
ATOM     78  O   UNL     1      10.118   7.663 -14.700  1.00  0.00    -0.237 OA
ATOM     79  O   UNL     1      10.577   9.848 -13.650  1.00  0.00    -0.744 OA
ENDBRANCH  72  76
ENDBRANCH  55  69
BRANCH  56  80
ATOM     80  C   UNL     1      -1.814   2.050 -12.732  1.00  0.00     0.023 A 
ATOM     81  C   UNL     1      -2.033   0.940 -13.561  1.00  0.00     0.031 A 
ATOM     82  C   UNL     1      -2.746   2.298 -11.706  1.00  0.00     0.131 A 
ATOM     83  C   UNL     1      -3.177   0.146 -13.381  1.00  0.00     0.055 A 
ATOM     84  C   UNL     1      -3.853   1.474 -11.496  1.00  0.00     0.041 A 
ATOM     85  F   UNL     1      -2.587   3.347 -10.882  1.00  0.00    -0.206 F 
ATOM     86  C   UNL     1      -4.081   0.397 -12.346  1.00  0.00     0.022 A 
BRANCH  83  87
ATOM     87  S   UNL     1      -3.515  -1.171 -14.581  1.00  0.00     0.124 S 
ATOM     88  O   UNL     1      -3.558  -0.427 -15.835  1.00  0.00    -0.237 OA
ATOM     89  O   UNL     1      -2.366  -2.051 -14.394  1.00  0.00    -0.237 OA
ATOM     90  O   UNL     1      -4.795  -1.717 -14.135  1.00  0.00    -0.744 OA
ENDBRANCH  83  87
ENDBRANCH  56  80
BRANCH  68  91
ATOM     91  C   UNL     1       0.093   6.218 -18.005  1.00  0.00     0.023 A 
ATOM     92  C   UNL     1      -1.158   6.832 -18.179  1.00  0.00     0.031 A 
ATOM     93  C   UNL     1       0.805   5.824 -19.152  1.00  0.00     0.131 A 
ATOM     94  C   UNL     1      -1.683   6.989 -19.470  1.00  0.00     0.055 A 
ATOM     95  C   UNL     1       0.308   6.042 -20.436  1.00  0.00     0.041 A 
ATOM     96  F   UNL     1       2.005   5.231 -19.041  1.00  0.00    -0.206 F 
ATOM     97  C   UNL     1      -0.949   6.617 -20.600  1.00  0.00     0.022 A 
BRANCH  94  98
ATOM     98  S   UNL     1      -3.378   7.606 -19.649  1.00  0.00     0.124 S 
ATOM     99  O   UNL     1      -4.143   6.606 -18.911  1.00  0.00    -0.237 OA
ATOM    100  O   UNL     1      -3.297   8.927 -19.035  1.00  0.00    -0.237 OA
ATOM    101  O   UNL     1      -3.591   7.607 -21.095  1.00  0.00    -0.744 OA
ENDBRANCH  94  98
ENDBRANCH  68  91
ENDBRANCH  42  43
ENDBRANCH  35  37
ENDBRANCH  34  35
ENDBRANCH  33  34
ENDBRANCH  32  33
ENDBRANCH  31  32
ENDBRANCH  30  31
ENDBRANCH  29  30
ENDBRANCH   1  29
TORSDOF 26
