REMARK SMILES CCc1ccc(S(=O)(=O)N2CCC3(CC2)NC(=O)C[C@H]3C(=O)OCCOCCOCCOCCOC(=O)c2ccc(-c3c4nc(c(-c5cc(S(=O)(=O)[O-])ccc5F)c5ccc([nH]5)c(-c5cc(S(=O)(=O)[O-])ccc5F)c5nc(c(-c6cc(S(=O)(=O)[O-])ccc6F)c6ccc3[nH]6)C=C5)C=C4)cc2)s1
REMARK SMILES IDX 29 1 28 2 27 3 26 4 25 5 24 6 23 7 21 8 22 9 20 10 10 11
REMARK SMILES IDX 11 12 15 13 12 14 14 15 13 16 16 17 17 18 19 20 18 21 7 22
REMARK SMILES IDX 8 23 9 24 6 25 3 26 4 27 101 28 5 29 2 30 1 31 30 32 31 33
REMARK SMILES IDX 32 34 33 35 34 36 35 37 36 38 37 39 38 40 39 41 100 42 40 43
REMARK SMILES IDX 99 44 41 45 42 46 43 47 93 48 44 49 98 50 92 51 94 52 45 53
REMARK SMILES IDX 97 54 91 55 90 56 46 58 78 59 58 60 77 61 59 62 62 63 76 64
REMARK SMILES IDX 95 65 60 66 61 67 75 69 96 70 63 71 47 72 48 73 56 74 49 75
REMARK SMILES IDX 55 76 57 77 54 78 50 79 51 80 52 81 53 82 79 83 80 84 88 85
REMARK SMILES IDX 81 86 87 87 89 88 86 89 82 90 83 91 84 92 85 93 64 94 65 95
REMARK SMILES IDX 73 96 66 97 72 98 74 99 71 100 67 101 68 102 69 103 70 104
REMARK H PARENT 16 19 94 57 62 68
REMARK Flexibility Score: inf
ROOT
ATOM      1  O   UNL     1      -1.637   2.222   6.467  1.00  0.00    -0.377 OA
ENDROOT
BRANCH   1   2
ATOM      2  C   UNL     1      -1.648   3.154   7.530  1.00  0.00     0.188 C 
BRANCH   2   3
ATOM      3  C   UNL     1      -2.908   4.016   7.607  1.00  0.00     0.188 C 
BRANCH   3   4
ATOM      4  O   UNL     1      -4.155   3.397   7.353  1.00  0.00    -0.376 OA
BRANCH   4   5
ATOM      5  C   UNL     1      -4.346   2.774   6.084  1.00  0.00     0.202 C 
BRANCH   5   6
ATOM      6  C   UNL     1      -4.086   3.575   4.789  1.00  0.00     0.261 C 
BRANCH   6   7
ATOM      7  O   UNL     1      -2.714   3.944   4.477  1.00  0.00    -0.463 OA
BRANCH   7   8
ATOM      8  C   UNL     1      -2.408   5.261   4.488  1.00  0.00     0.311 C 
ATOM      9  O   UNL     1      -3.174   6.129   4.907  1.00  0.00    -0.252 OA
BRANCH   8  10
ATOM     10  C   UNL     1      -1.076   5.685   3.850  1.00  0.00     0.134 C 
ATOM     11  N   UNL     1       2.498   4.225   5.232  1.00  0.00    -0.197 NA
ATOM     12  C   UNL     1       2.489   5.505   4.526  1.00  0.00     0.105 C 
ATOM     13  C   UNL     1       1.160   3.825   5.651  1.00  0.00     0.105 C 
ATOM     14  C   UNL     1       1.473   5.550   3.379  1.00  0.00     0.046 C 
ATOM     15  C   UNL     1       0.297   3.550   4.441  1.00  0.00     0.046 C 
ATOM     16  C   UNL     1       0.123   4.750   3.529  1.00  0.00     0.056 C 
ATOM     17  N   UNL     1      -0.235   4.291   2.196  1.00  0.00    -0.350 N 
ATOM     18  C   UNL     1      -1.069   5.146   1.523  1.00  0.00     0.221 C 
ATOM     19  H   UNL     1       0.091   3.445   1.813  1.00  0.00     0.164 HD
ATOM     20  C   UNL     1      -1.470   6.247   2.465  1.00  0.00     0.117 C 
ATOM     21  O   UNL     1      -1.372   5.049   0.349  1.00  0.00    -0.275 OA
BRANCH  11  22
ATOM     22  S   UNL     1       3.658   3.016   4.935  1.00  0.00     0.252 S 
ATOM     23  O   UNL     1       3.638   2.108   6.058  1.00  0.00    -0.206 OA
ATOM     24  O   UNL     1       4.880   3.665   4.502  1.00  0.00    -0.206 OA
BRANCH  22  25
ATOM     25  C   UNL     1       3.103   2.099   3.504  1.00  0.00     0.135 A 
ATOM     26  C   UNL     1       1.826   0.463   2.147  1.00  0.00     0.006 A 
ATOM     27  C   UNL     1       2.191   1.584   1.426  1.00  0.00     0.017 A 
ATOM     28  S   UNL     1       2.472   0.521   3.742  1.00  0.00    -0.127 S 
ATOM     29  C   UNL     1       2.984   2.488   2.184  1.00  0.00     0.034 A 
BRANCH  26  30
ATOM     30  C   UNL     1       0.976  -0.706   1.719  1.00  0.00     0.043 C 
ATOM     31  C   UNL     1       0.854  -0.827   0.205  1.00  0.00     0.010 C 
ENDBRANCH  26  30
ENDBRANCH  22  25
ENDBRANCH  11  22
ENDBRANCH   8  10
ENDBRANCH   7   8
ENDBRANCH   6   7
ENDBRANCH   5   6
ENDBRANCH   4   5
ENDBRANCH   3   4
ENDBRANCH   2   3
ENDBRANCH   1   2
BRANCH   1  32
ATOM     32  C   UNL     1      -1.447   0.830   6.717  1.00  0.00     0.188 C 
BRANCH  32  33
ATOM     33  C   UNL     1      -1.366   0.368   8.172  1.00  0.00     0.188 C 
BRANCH  33  34
ATOM     34  O   UNL     1      -0.264   0.851   8.949  1.00  0.00    -0.376 OA
BRANCH  34  35
ATOM     35  C   UNL     1       1.010   0.992   8.323  1.00  0.00     0.202 C 
BRANCH  35  36
ATOM     36  C   UNL     1       1.895  -0.245   8.370  1.00  0.00     0.261 C 
BRANCH  36  37
ATOM     37  O   UNL     1       1.521  -1.134   7.309  1.00  0.00    -0.460 OA
BRANCH  37  38
ATOM     38  C   UNL     1       0.675  -2.126   7.660  1.00  0.00     0.338 C 
ATOM     39  O   UNL     1       0.285  -2.406   8.779  1.00  0.00    -0.246 OA
BRANCH  38  40
ATOM     40  C   UNL     1       0.123  -2.708   6.424  1.00  0.00     0.060 A 
ATOM     41  C   UNL     1      -1.245  -3.014   6.389  1.00  0.00     0.016 A 
ATOM     42  C   UNL     1       0.952  -2.994   5.337  1.00  0.00     0.016 A 
ATOM     43  C   UNL     1      -1.776  -3.680   5.291  1.00  0.00     0.010 A 
ATOM     44  C   UNL     1       0.423  -3.671   4.244  1.00  0.00     0.010 A 
ATOM     45  C   UNL     1      -0.926  -4.065   4.249  1.00  0.00    -0.014 A 
BRANCH  45  46
ATOM     46  C   UNL     1      -1.348  -5.123   3.311  1.00  0.00     0.031 A 
ATOM     47  C   UNL     1      -0.886  -6.523   3.602  1.00  0.00     0.074 A 
ATOM     48  C   UNL     1      -2.095  -4.841   2.234  1.00  0.00     0.049 A 
ATOM     49  N   UNL     1      -0.968  -7.599   2.868  1.00  0.00    -0.248 NA
ATOM     50  C   UNL     1      -0.215  -6.722   4.897  1.00  0.00     0.031 C 
ATOM     51  C   UNL     1      -2.654  -3.530   1.914  1.00  0.00     0.029 A 
ATOM     52  N   UNL     1      -2.498  -5.646   1.204  1.00  0.00    -0.354 N 
ATOM     53  C   UNL     1      -0.342  -8.601   3.604  1.00  0.00     0.074 A 
ATOM     54  C   UNL     1       0.159  -7.987   4.814  1.00  0.00     0.031 C 
ATOM     55  C   UNL     1      -3.326  -3.619   0.753  1.00  0.00     0.029 A 
ATOM     56  C   UNL     1      -3.193  -4.977   0.227  1.00  0.00     0.049 A 
ATOM     57  H   UNL     1      -2.309  -6.612   1.167  1.00  0.00     0.167 HD
ATOM     58  C   UNL     1      -0.207  -9.914   3.297  1.00  0.00     0.034 A 
ATOM     59  C   UNL     1      -3.637  -5.416  -0.966  1.00  0.00     0.034 A 
ATOM     60  C   UNL     1      -0.698 -10.482   2.067  1.00  0.00     0.049 A 
ATOM     61  C   UNL     1      -3.373  -6.853  -1.351  1.00  0.00     0.074 A 
ATOM     62  C   UNL     1      -0.616 -11.788   1.622  1.00  0.00     0.029 A 
ATOM     63  N   UNL     1      -1.355  -9.762   1.074  1.00  0.00    -0.354 N 
ATOM     64  N   UNL     1      -2.756  -7.792  -0.668  1.00  0.00    -0.248 NA
ATOM     65  C   UNL     1      -3.862  -7.288  -2.664  1.00  0.00     0.031 C 
ATOM     66  C   UNL     1      -1.148 -11.840   0.330  1.00  0.00     0.029 A 
ATOM     67  C   UNL     1      -1.654 -10.589   0.005  1.00  0.00     0.049 A 
ATOM     68  H   UNL     1      -1.576  -8.804   1.125  1.00  0.00     0.167 HD
ATOM     69  C   UNL     1      -2.828  -8.942  -1.450  1.00  0.00     0.074 A 
ATOM     70  C   UNL     1      -3.539  -8.574  -2.659  1.00  0.00     0.031 C 
ATOM     71  C   UNL     1      -2.367 -10.193  -1.189  1.00  0.00     0.034 A 
BRANCH  58  72
ATOM     72  C   UNL     1       0.556 -10.775   4.278  1.00  0.00     0.023 A 
ATOM     73  C   UNL     1       0.138 -10.921   5.614  1.00  0.00     0.031 A 
ATOM     74  C   UNL     1       1.768 -11.381   3.903  1.00  0.00     0.131 A 
ATOM     75  C   UNL     1       0.977 -11.550   6.546  1.00  0.00     0.055 A 
ATOM     76  C   UNL     1       2.547 -12.098   4.814  1.00  0.00     0.041 A 
ATOM     77  F   UNL     1       2.238 -11.257   2.652  1.00  0.00    -0.206 F 
ATOM     78  C   UNL     1       2.165 -12.165   6.151  1.00  0.00     0.022 A 
BRANCH  75  79
ATOM     79  S   UNL     1       0.593 -11.365   8.311  1.00  0.00     0.124 S 
ATOM     80  O   UNL     1       0.564  -9.911   8.454  1.00  0.00    -0.237 OA
ATOM     81  O   UNL     1      -0.692 -12.044   8.427  1.00  0.00    -0.237 OA
ATOM     82  O   UNL     1       1.713 -12.026   8.976  1.00  0.00    -0.744 OA
ENDBRANCH  75  79
ENDBRANCH  58  72
BRANCH  59  83
ATOM     83  C   UNL     1      -4.363  -4.492  -1.881  1.00  0.00     0.023 A 
ATOM     84  C   UNL     1      -5.707  -4.723  -2.210  1.00  0.00     0.031 A 
ATOM     85  C   UNL     1      -3.727  -3.373  -2.449  1.00  0.00     0.131 A 
ATOM     86  C   UNL     1      -6.364  -3.869  -3.108  1.00  0.00     0.055 A 
ATOM     87  C   UNL     1      -4.401  -2.497  -3.302  1.00  0.00     0.041 A 
ATOM     88  F   UNL     1      -2.443  -3.104  -2.164  1.00  0.00    -0.206 F 
ATOM     89  C   UNL     1      -5.726  -2.749  -3.644  1.00  0.00     0.022 A 
BRANCH  86  90
ATOM     90  S   UNL     1      -8.053  -4.287  -3.617  1.00  0.00     0.124 S 
ATOM     91  O   UNL     1      -7.864  -5.603  -4.216  1.00  0.00    -0.237 OA
ATOM     92  O   UNL     1      -8.769  -4.255  -2.346  1.00  0.00    -0.237 OA
ATOM     93  O   UNL     1      -8.399  -3.218  -4.552  1.00  0.00    -0.744 OA
ENDBRANCH  86  90
ENDBRANCH  59  83
BRANCH  71  94
ATOM     94  C   UNL     1      -2.684 -11.273  -2.194  1.00  0.00     0.023 A 
ATOM     95  C   UNL     1      -2.114 -11.293  -3.478  1.00  0.00     0.031 A 
ATOM     96  C   UNL     1      -3.550 -12.323  -1.835  1.00  0.00     0.131 A 
ATOM     97  C   UNL     1      -2.449 -12.323  -4.371  1.00  0.00     0.055 A 
ATOM     98  C   UNL     1      -3.829 -13.376  -2.705  1.00  0.00     0.041 A 
ATOM     99  F   UNL     1      -4.124 -12.350  -0.621  1.00  0.00    -0.206 F 
ATOM    100  C   UNL     1      -3.284 -13.375  -3.985  1.00  0.00     0.022 A 
BRANCH  97 101
ATOM    101  S   UNL     1      -1.836 -12.233  -6.075  1.00  0.00     0.124 S 
ATOM    102  O   UNL     1      -2.407 -10.971  -6.535  1.00  0.00    -0.237 OA
ATOM    103  O   UNL     1      -0.389 -12.247  -5.889  1.00  0.00    -0.237 OA
ATOM    104  O   UNL     1      -2.391 -13.430  -6.703  1.00  0.00    -0.744 OA
ENDBRANCH  97 101
ENDBRANCH  71  94
ENDBRANCH  45  46
ENDBRANCH  38  40
ENDBRANCH  37  38
ENDBRANCH  36  37
ENDBRANCH  35  36
ENDBRANCH  34  35
ENDBRANCH  33  34
ENDBRANCH  32  33
ENDBRANCH   1  32
TORSDOF 26
