REMARK SMILES O=C(OCCOCCOCCOCCOC(=O)[C@@H]1[C@H](C(=O)Nc2ccccc2Cc2ccccc2)[C@H]2C=C[C@@H]1O2)c1ccc(-c2c3nc(c(-c4cc(S(=O)(=O)[O-])ccc4F)c4ccc([nH]4)c(-c4cc(S(=O)(=O)[O-])ccc4F)c4nc(c(-c5cc(S(=O)(=O)[O-])ccc5F)c5ccc2[nH]5)C=C4)C=C3)cc1
REMARK SMILES IDX 10 1 9 2 8 3 7 4 6 5 5 6 4 7 3 8 2 9 1 10 41 11 42 12 103 13
REMARK SMILES IDX 43 14 102 15 44 16 45 17 46 18 96 19 47 20 101 21 95 22
REMARK SMILES IDX 97 23 48 24 100 25 94 26 93 27 49 29 81 30 61 31 80 32 62 33
REMARK SMILES IDX 65 34 79 35 98 36 63 37 64 38 78 40 99 41 66 42 50 43 51 44
REMARK SMILES IDX 59 45 52 46 58 47 60 48 57 49 53 50 54 51 55 52 56 53 82 54
REMARK SMILES IDX 83 55 91 56 84 57 90 58 92 59 89 60 85 61 86 62 87 63 88 64
REMARK SMILES IDX 67 65 68 66 76 67 69 68 75 69 77 70 74 71 70 72 71 73 72 74
REMARK SMILES IDX 73 75 11 76 12 77 13 78 14 79 15 80 16 81 17 82 18 83 19 84
REMARK SMILES IDX 39 85 36 86 38 87 40 88 37 89 20 90 21 91 22 92 23 94 24 95
REMARK SMILES IDX 28 96 25 97 27 98 26 99 29 100 30 101 31 102 35 103 32 104
REMARK SMILES IDX 34 105 33 106
REMARK H PARENT 97 28 65 39 22 93
REMARK Flexibility Score: inf
ROOT
ATOM      1  C   UNL     1       5.043   0.753   2.539  1.00  0.00     0.188 C 
ENDROOT
BRANCH   1   2
ATOM      2  O   UNL     1       3.933   1.635   2.429  1.00  0.00    -0.377 OA
BRANCH   2   3
ATOM      3  C   UNL     1       2.670   1.372   1.868  1.00  0.00     0.188 C 
BRANCH   3   4
ATOM      4  C   UNL     1       2.550   0.911   0.447  1.00  0.00     0.188 C 
BRANCH   4   5
ATOM      5  O   UNL     1       3.785   0.435  -0.008  1.00  0.00    -0.376 OA
BRANCH   5   6
ATOM      6  C   UNL     1       4.539   1.337  -0.809  1.00  0.00     0.202 C 
BRANCH   6   7
ATOM      7  C   UNL     1       3.825   1.707  -2.114  1.00  0.00     0.261 C 
BRANCH   7   8
ATOM      8  O   UNL     1       3.528   0.513  -2.868  1.00  0.00    -0.460 OA
BRANCH   8   9
ATOM      9  C   UNL     1       2.403  -0.188  -2.571  1.00  0.00     0.338 C 
ATOM     10  O   UNL     1       1.281   0.260  -2.361  1.00  0.00    -0.246 OA
BRANCH   9  11
ATOM     11  C   UNL     1       2.815  -1.603  -2.426  1.00  0.00     0.060 A 
ATOM     12  C   UNL     1       3.952  -1.848  -1.655  1.00  0.00     0.016 A 
ATOM     13  C   UNL     1       2.173  -2.678  -3.039  1.00  0.00     0.016 A 
ATOM     14  C   UNL     1       4.498  -3.090  -1.510  1.00  0.00     0.010 A 
ATOM     15  C   UNL     1       2.734  -3.964  -2.915  1.00  0.00     0.010 A 
ATOM     16  C   UNL     1       3.907  -4.155  -2.159  1.00  0.00    -0.014 A 
BRANCH  16  17
ATOM     17  C   UNL     1       4.779  -5.335  -2.211  1.00  0.00     0.031 A 
ATOM     18  C   UNL     1       5.721  -5.409  -3.373  1.00  0.00     0.074 A 
ATOM     19  C   UNL     1       4.967  -6.088  -1.111  1.00  0.00     0.049 A 
ATOM     20  N   UNL     1       6.561  -6.349  -3.691  1.00  0.00    -0.248 NA
ATOM     21  C   UNL     1       5.742  -4.244  -4.282  1.00  0.00     0.031 C 
ATOM     22  C   UNL     1       4.309  -5.874   0.180  1.00  0.00     0.029 A 
ATOM     23  N   UNL     1       5.799  -7.147  -0.879  1.00  0.00    -0.354 N 
ATOM     24  C   UNL     1       7.159  -5.924  -4.870  1.00  0.00     0.074 A 
ATOM     25  C   UNL     1       6.632  -4.619  -5.185  1.00  0.00     0.031 C 
ATOM     26  C   UNL     1       4.773  -6.767   1.070  1.00  0.00     0.029 A 
ATOM     27  C   UNL     1       5.652  -7.697   0.376  1.00  0.00     0.049 A 
ATOM     28  H   UNL     1       6.442  -7.484  -1.544  1.00  0.00     0.167 HD
ATOM     29  C   UNL     1       8.030  -6.612  -5.638  1.00  0.00     0.034 A 
ATOM     30  C   UNL     1       6.106  -8.873   0.852  1.00  0.00     0.034 A 
ATOM     31  C   UNL     1       8.489  -7.925  -5.281  1.00  0.00     0.049 A 
ATOM     32  C   UNL     1       6.913  -9.720  -0.110  1.00  0.00     0.074 A 
ATOM     33  C   UNL     1       9.255  -8.805  -6.017  1.00  0.00     0.029 A 
ATOM     34  N   UNL     1       8.202  -8.549  -4.071  1.00  0.00    -0.354 N 
ATOM     35  N   UNL     1       7.349  -9.413  -1.314  1.00  0.00    -0.248 NA
ATOM     36  C   UNL     1       7.263 -11.074   0.328  1.00  0.00     0.031 C 
ATOM     37  C   UNL     1       9.358  -9.993  -5.287  1.00  0.00     0.029 A 
ATOM     38  C   UNL     1       8.745  -9.818  -4.053  1.00  0.00     0.049 A 
ATOM     39  H   UNL     1       7.687  -8.145  -3.336  1.00  0.00     0.167 HD
ATOM     40  C   UNL     1       8.049 -10.529  -1.761  1.00  0.00     0.074 A 
ATOM     41  C   UNL     1       7.997 -11.501  -0.687  1.00  0.00     0.031 C 
ATOM     42  C   UNL     1       8.673 -10.745  -2.948  1.00  0.00     0.034 A 
BRANCH  29  43
ATOM     43  C   UNL     1       8.357  -6.027  -6.981  1.00  0.00     0.023 A 
ATOM     44  C   UNL     1       9.101  -4.845  -7.129  1.00  0.00     0.031 A 
ATOM     45  C   UNL     1       7.814  -6.620  -8.135  1.00  0.00     0.131 A 
ATOM     46  C   UNL     1       9.230  -4.263  -8.400  1.00  0.00     0.055 A 
ATOM     47  C   UNL     1       8.014  -6.079  -9.404  1.00  0.00     0.041 A 
ATOM     48  F   UNL     1       7.048  -7.719  -8.042  1.00  0.00    -0.206 F 
ATOM     49  C   UNL     1       8.717  -4.887  -9.541  1.00  0.00     0.022 A 
BRANCH  46  50
ATOM     50  S   UNL     1       9.952  -2.603  -8.527  1.00  0.00     0.124 S 
ATOM     51  O   UNL     1       8.990  -1.805  -7.771  1.00  0.00    -0.237 OA
ATOM     52  O   UNL     1      11.261  -2.778  -7.910  1.00  0.00    -0.237 OA
ATOM     53  O   UNL     1       9.970  -2.347  -9.966  1.00  0.00    -0.744 OA
ENDBRANCH  46  50
ENDBRANCH  29  43
BRANCH  30  54
ATOM     54  C   UNL     1       5.696  -9.405   2.191  1.00  0.00     0.023 A 
ATOM     55  C   UNL     1       6.646  -9.876   3.112  1.00  0.00     0.031 A 
ATOM     56  C   UNL     1       4.336  -9.586   2.518  1.00  0.00     0.131 A 
ATOM     57  C   UNL     1       6.231 -10.573   4.261  1.00  0.00     0.055 A 
ATOM     58  C   UNL     1       3.928 -10.207   3.701  1.00  0.00     0.041 A 
ATOM     59  F   UNL     1       3.370  -9.188   1.675  1.00  0.00    -0.206 F 
ATOM     60  C   UNL     1       4.878 -10.727   4.570  1.00  0.00     0.022 A 
BRANCH  57  61
ATOM     61  S   UNL     1       7.484 -11.424   5.263  1.00  0.00     0.124 S 
ATOM     62  O   UNL     1       8.136 -12.264   4.266  1.00  0.00    -0.237 OA
ATOM     63  O   UNL     1       8.270 -10.307   5.776  1.00  0.00    -0.237 OA
ATOM     64  O   UNL     1       6.693 -12.140   6.262  1.00  0.00    -0.744 OA
ENDBRANCH  57  61
ENDBRANCH  30  54
BRANCH  42  65
ATOM     65  C   UNL     1       9.399 -12.053  -3.107  1.00  0.00     0.023 A 
ATOM     66  C   UNL     1       8.715 -13.278  -3.152  1.00  0.00     0.031 A 
ATOM     67  C   UNL     1      10.799 -12.063  -3.240  1.00  0.00     0.131 A 
ATOM     68  C   UNL     1       9.439 -14.470  -3.272  1.00  0.00     0.055 A 
ATOM     69  C   UNL     1      11.506 -13.246  -3.436  1.00  0.00     0.041 A 
ATOM     70  F   UNL     1      11.498 -10.917  -3.203  1.00  0.00    -0.206 F 
ATOM     71  C   UNL     1      10.826 -14.461  -3.439  1.00  0.00     0.022 A 
BRANCH  68  72
ATOM     72  S   UNL     1       8.551 -16.041  -3.107  1.00  0.00     0.124 S 
ATOM     73  O   UNL     1       7.956 -15.914  -1.781  1.00  0.00    -0.237 OA
ATOM     74  O   UNL     1       7.621 -15.994  -4.230  1.00  0.00    -0.237 OA
ATOM     75  O   UNL     1       9.608 -17.044  -3.219  1.00  0.00    -0.744 OA
ENDBRANCH  68  72
ENDBRANCH  42  65
ENDBRANCH  16  17
ENDBRANCH   9  11
ENDBRANCH   8   9
ENDBRANCH   7   8
ENDBRANCH   6   7
ENDBRANCH   5   6
ENDBRANCH   4   5
ENDBRANCH   3   4
ENDBRANCH   2   3
ENDBRANCH   1   2
BRANCH   1  76
ATOM     76  C   UNL     1       5.298  -0.887   2.773  1.00  0.00     0.188 C 
BRANCH  76  77
ATOM     77  O   UNL     1       4.522  -2.350   3.880  1.00  0.00    -0.376 OA
BRANCH  77  78
ATOM     78  C   UNL     1       3.592  -2.845   4.982  1.00  0.00     0.202 C 
BRANCH  78  79
ATOM     79  C   UNL     1       3.622  -2.465   6.537  1.00  0.00     0.261 C 
BRANCH  79  80
ATOM     80  O   UNL     1       3.801  -1.065   6.927  1.00  0.00    -0.463 OA
BRANCH  80  81
ATOM     81  C   UNL     1       4.846  -0.572   7.642  1.00  0.00     0.312 C 
ATOM     82  O   UNL     1       5.609  -1.295   8.276  1.00  0.00    -0.252 OA
BRANCH  81  83
ATOM     83  C   UNL     1       5.052   1.012   7.629  1.00  0.00     0.147 C 
ATOM     84  C   UNL     1       4.071   1.697   8.577  1.00  0.00     0.129 C 
ATOM     85  C   UNL     1       5.028   2.069   6.460  1.00  0.00     0.157 C 
ATOM     86  C   UNL     1       3.752   3.042   7.933  1.00  0.00     0.155 C 
ATOM     87  C   UNL     1       5.726   3.345   6.829  1.00  0.00     0.004 C 
ATOM     88  O   UNL     1       3.675   2.636   6.561  1.00  0.00    -0.365 OA
ATOM     89  C   UNL     1       4.968   3.921   7.774  1.00  0.00     0.004 C 
BRANCH  84  90
ATOM     90  C   UNL     1       2.877   0.836   8.914  1.00  0.00     0.231 C 
ATOM     91  O   UNL     1       2.822   0.451  10.098  1.00  0.00    -0.274 OA
ATOM     92  N   UNL     1       1.841   0.395   8.164  1.00  0.00    -0.325 N 
ATOM     93  H   UNL     1       1.366  -0.302   8.672  1.00  0.00     0.169 HD
BRANCH  92  94
ATOM     94  C   UNL     1       1.183   0.566   6.914  1.00  0.00     0.044 A 
ATOM     95  C   UNL     1      -0.214   0.692   7.162  1.00  0.00     0.026 A 
ATOM     96  C   UNL     1       1.624   0.696   5.571  1.00  0.00    -0.020 A 
ATOM     97  C   UNL     1      -1.115   1.177   6.221  1.00  0.00     0.002 A 
ATOM     98  C   UNL     1       0.691   1.279   4.679  1.00  0.00     0.006 A 
ATOM     99  C   UNL     1      -0.641   1.537   4.986  1.00  0.00     0.000 A 
BRANCH  96 100
ATOM    100  C   UNL     1       3.025   0.547   4.989  1.00  0.00     0.073 C 
BRANCH 100 101
ATOM    101  C   UNL     1       3.801  -0.582   4.284  1.00  0.00    -0.044 A 
ATOM    102  C   UNL     1       5.482  -1.054   4.900  1.00  0.00     0.004 A 
ATOM    103  C   UNL     1       3.193  -1.430   2.799  1.00  0.00     0.004 A 
ATOM    104  C   UNL     1       6.434  -2.384   4.116  1.00  0.00     0.000 A 
ATOM    105  C   UNL     1       4.188  -2.693   1.998  1.00  0.00     0.000 A 
ATOM    106  C   UNL     1       5.795  -3.157   2.644  1.00  0.00     0.000 A 
ENDBRANCH 100 101
ENDBRANCH  96 100
ENDBRANCH  92  94
ENDBRANCH  84  90
ENDBRANCH  81  83
ENDBRANCH  80  81
ENDBRANCH  79  80
ENDBRANCH  78  79
ENDBRANCH  77  78
ENDBRANCH  76  77
ENDBRANCH   1  76
TORSDOF 27
