REMARK SMILES O=C(NCc1ccc(C(=O)OCCOCCOCCOCCOC(=O)c2ccc(-c3c4nc(c(-c5cc(S(=O)(=O)[O-])ccc5F)c5ccc([nH]5)c(-c5cc(S(=O)(=O)[O-])ccc5F)c5nc(c(-c6cc(S(=O)(=O)[O-])ccc6F)c6ccc3[nH]6)C=C5)C=C4)cc2)o1)Nc1ccc(F)c(Cl)c1
REMARK SMILES IDX 17 1 16 2 15 3 14 4 13 5 12 6 11 7 9 8 10 9 8 10 5 11 6 12
REMARK SMILES IDX 89 13 7 14 4 15 3 16 1 17 2 18 90 19 91 22 92 23 98 24 93 25
REMARK SMILES IDX 96 26 94 27 97 28 95 29 18 30 19 31 20 32 21 33 22 34 23 35
REMARK SMILES IDX 24 36 25 37 26 38 27 39 88 40 28 41 87 42 29 43 30 44 31 45
REMARK SMILES IDX 81 46 32 47 86 48 80 49 82 50 33 51 85 52 79 53 78 54 34 56
REMARK SMILES IDX 66 57 46 58 65 59 47 60 50 61 64 62 83 63 48 64 49 65 63 67
REMARK SMILES IDX 84 68 51 69 35 70 36 71 44 72 37 73 43 74 45 75 42 76 38 77
REMARK SMILES IDX 39 78 40 79 41 80 67 81 68 82 76 83 69 84 75 85 77 86 74 87
REMARK SMILES IDX 70 88 71 89 72 90 73 91 52 92 53 93 61 94 54 95 60 96 62 97
REMARK SMILES IDX 59 98 55 99 56 100 57 101 58 102
REMARK H PARENT 3 20 90 21 82 55 50 66
REMARK Flexibility Score: inf
ROOT
ATOM      1  O   UNL     1       8.127  -0.423  -5.981  1.00  0.00    -0.377 OA
ENDROOT
BRANCH   1   2
ATOM      2  C   UNL     1       7.703  -0.923  -4.723  1.00  0.00     0.188 C 
BRANCH   2   3
ATOM      3  C   UNL     1       6.889  -2.220  -4.859  1.00  0.00     0.188 C 
BRANCH   3   4
ATOM      4  O   UNL     1       6.897  -2.756  -6.182  1.00  0.00    -0.376 OA
BRANCH   4   5
ATOM      5  C   UNL     1       5.721  -2.543  -6.959  1.00  0.00     0.202 C 
BRANCH   5   6
ATOM      6  C   UNL     1       5.507  -1.117  -7.496  1.00  0.00     0.261 C 
BRANCH   6   7
ATOM      7  O   UNL     1       5.303  -0.101  -6.500  1.00  0.00    -0.457 OA
BRANCH   7   8
ATOM      8  C   UNL     1       4.272  -0.251  -5.632  1.00  0.00     0.374 C 
ATOM      9  O   UNL     1       3.406  -1.113  -5.715  1.00  0.00    -0.242 OA
BRANCH   8  10
ATOM     10  C   UNL     1       4.472   0.661  -4.530  1.00  0.00     0.211 A 
ATOM     11  C   UNL     1       4.535   1.198  -2.391  1.00  0.00     0.124 A 
ATOM     12  C   UNL     1       5.143   2.234  -3.066  1.00  0.00     0.048 A 
ATOM     13  O   UNL     1       4.101   0.255  -3.276  1.00  0.00    -0.452 OA
ATOM     14  C   UNL     1       5.112   1.886  -4.438  1.00  0.00     0.058 A 
BRANCH  11  15
ATOM     15  C   UNL     1       4.293   0.912  -0.955  1.00  0.00     0.193 C 
BRANCH  15  16
ATOM     16  N   UNL     1       2.866   0.918  -0.725  1.00  0.00    -0.331 N 
ATOM     17  O   UNL     1       0.868   0.068  -0.266  1.00  0.00    -0.248 OA
ATOM     18  C   UNL     1       2.084  -0.011  -0.119  1.00  0.00     0.319 C 
ATOM     19  N   UNL     1       2.729  -0.945   0.644  1.00  0.00    -0.308 N 
ATOM     20  H   UNL     1       2.391   1.715  -1.056  1.00  0.00     0.165 HD
ATOM     21  H   UNL     1       3.671  -0.767   0.870  1.00  0.00     0.171 HD
BRANCH  19  22
ATOM     22  C   UNL     1       2.164  -2.140   1.134  1.00  0.00     0.044 A 
ATOM     23  C   UNL     1       2.811  -2.783   2.198  1.00  0.00     0.029 A 
ATOM     24  C   UNL     1       1.014  -2.716   0.581  1.00  0.00     0.049 A 
ATOM     25  C   UNL     1       2.289  -3.966   2.730  1.00  0.00     0.043 A 
ATOM     26  C   UNL     1       0.504  -3.906   1.103  1.00  0.00     0.078 A 
ATOM     27  C   UNL     1       1.138  -4.520   2.180  1.00  0.00     0.141 A 
ATOM     28  Cl  UNL     1      -0.903  -4.610   0.401  1.00  0.00    -0.081 Cl
ATOM     29  F   UNL     1       0.656  -5.656   2.706  1.00  0.00    -0.205 F 
ENDBRANCH  19  22
ENDBRANCH  15  16
ENDBRANCH  11  15
ENDBRANCH   8  10
ENDBRANCH   7   8
ENDBRANCH   6   7
ENDBRANCH   5   6
ENDBRANCH   4   5
ENDBRANCH   3   4
ENDBRANCH   2   3
ENDBRANCH   1   2
BRANCH   1  30
ATOM     30  C   UNL     1       9.425  -0.823  -6.417  1.00  0.00     0.188 C 
BRANCH  30  31
ATOM     31  C   UNL     1       9.896  -2.266  -6.149  1.00  0.00     0.188 C 
BRANCH  31  32
ATOM     32  O   UNL     1       9.978  -2.578  -4.753  1.00  0.00    -0.376 OA
BRANCH  32  33
ATOM     33  C   UNL     1      11.296  -2.699  -4.222  1.00  0.00     0.202 C 
BRANCH  33  34
ATOM     34  C   UNL     1      11.927  -1.350  -3.853  1.00  0.00     0.261 C 
BRANCH  34  35
ATOM     35  O   UNL     1      12.186  -0.480  -4.964  1.00  0.00    -0.460 OA
BRANCH  35  36
ATOM     36  C   UNL     1      13.016  -0.942  -5.926  1.00  0.00     0.338 C 
ATOM     37  O   UNL     1      13.621  -1.998  -5.927  1.00  0.00    -0.246 OA
BRANCH  36  38
ATOM     38  C   UNL     1      12.930  -0.018  -7.074  1.00  0.00     0.060 A 
ATOM     39  C   UNL     1      12.642  -0.535  -8.343  1.00  0.00     0.016 A 
ATOM     40  C   UNL     1      13.143   1.350  -6.891  1.00  0.00     0.016 A 
ATOM     41  C   UNL     1      12.603   0.319  -9.448  1.00  0.00     0.010 A 
ATOM     42  C   UNL     1      13.123   2.197  -7.997  1.00  0.00     0.010 A 
ATOM     43  C   UNL     1      12.886   1.681  -9.283  1.00  0.00    -0.014 A 
BRANCH  43  44
ATOM     44  C   UNL     1      13.156   2.553 -10.450  1.00  0.00     0.031 A 
ATOM     45  C   UNL     1      14.585   2.716 -10.885  1.00  0.00     0.074 A 
ATOM     46  C   UNL     1      12.171   3.238 -11.056  1.00  0.00     0.049 A 
ATOM     47  N   UNL     1      15.106   3.561 -11.734  1.00  0.00    -0.248 NA
ATOM     48  C   UNL     1      15.559   1.808 -10.257  1.00  0.00     0.031 C 
ATOM     49  C   UNL     1      10.747   3.122 -10.749  1.00  0.00     0.029 A 
ATOM     50  N   UNL     1      12.229   4.193 -12.039  1.00  0.00    -0.354 N 
ATOM     51  C   UNL     1      16.471   3.297 -11.735  1.00  0.00     0.074 A 
ATOM     52  C   UNL     1      16.697   2.229 -10.785  1.00  0.00     0.031 C 
ATOM     53  C   UNL     1      10.067   4.000 -11.509  1.00  0.00     0.029 A 
ATOM     54  C   UNL     1      11.012   4.770 -12.317  1.00  0.00     0.049 A 
ATOM     55  H   UNL     1      13.062   4.442 -12.501  1.00  0.00     0.167 HD
ATOM     56  C   UNL     1      17.447   3.895 -12.460  1.00  0.00     0.034 A 
ATOM     57  C   UNL     1      10.709   5.827 -13.099  1.00  0.00     0.034 A 
ATOM     58  C   UNL     1      17.207   4.977 -13.379  1.00  0.00     0.049 A 
ATOM     59  C   UNL     1      11.822   6.542 -13.830  1.00  0.00     0.074 A 
ATOM     60  C   UNL     1      18.117   5.667 -14.160  1.00  0.00     0.029 A 
ATOM     61  N   UNL     1      15.961   5.538 -13.629  1.00  0.00    -0.354 N 
ATOM     62  N   UNL     1      13.112   6.294 -13.817  1.00  0.00    -0.248 NA
ATOM     63  C   UNL     1      11.440   7.681 -14.677  1.00  0.00     0.031 C 
ATOM     64  C   UNL     1      17.431   6.682 -14.837  1.00  0.00     0.029 A 
ATOM     65  C   UNL     1      16.082   6.580 -14.532  1.00  0.00     0.049 A 
ATOM     66  H   UNL     1      15.115   5.238 -13.224  1.00  0.00     0.167 HD
ATOM     67  C   UNL     1      13.687   7.220 -14.684  1.00  0.00     0.074 A 
ATOM     68  C   UNL     1      12.607   8.037 -15.196  1.00  0.00     0.031 C 
ATOM     69  C   UNL     1      14.988   7.375 -15.036  1.00  0.00     0.034 A 
BRANCH  56  70
ATOM     70  C   UNL     1      18.860   3.424 -12.227  1.00  0.00     0.023 A 
ATOM     71  C   UNL     1      19.265   2.119 -12.557  1.00  0.00     0.031 A 
ATOM     72  C   UNL     1      19.799   4.274 -11.617  1.00  0.00     0.131 A 
ATOM     73  C   UNL     1      20.549   1.678 -12.207  1.00  0.00     0.055 A 
ATOM     74  C   UNL     1      21.100   3.853 -11.342  1.00  0.00     0.041 A 
ATOM     75  F   UNL     1      19.458   5.521 -11.257  1.00  0.00    -0.206 F 
ATOM     76  C   UNL     1      21.478   2.542 -11.623  1.00  0.00     0.022 A 
BRANCH  73  77
ATOM     77  S   UNL     1      20.939  -0.084 -12.392  1.00  0.00     0.124 S 
ATOM     78  O   UNL     1      19.928  -0.702 -11.538  1.00  0.00    -0.237 OA
ATOM     79  O   UNL     1      20.779  -0.293 -13.826  1.00  0.00    -0.237 OA
ATOM     80  O   UNL     1      22.310  -0.185 -11.895  1.00  0.00    -0.744 OA
ENDBRANCH  73  77
ENDBRANCH  56  70
BRANCH  57  81
ATOM     81  C   UNL     1       9.305   6.319 -13.193  1.00  0.00     0.023 A 
ATOM     82  C   UNL     1       8.598   6.267 -14.405  1.00  0.00     0.031 A 
ATOM     83  C   UNL     1       8.667   6.899 -12.081  1.00  0.00     0.131 A 
ATOM     84  C   UNL     1       7.312   6.824 -14.488  1.00  0.00     0.055 A 
ATOM     85  C   UNL     1       7.370   7.408 -12.157  1.00  0.00     0.041 A 
ATOM     86  F   UNL     1       9.299   6.974 -10.899  1.00  0.00    -0.206 F 
ATOM     87  C   UNL     1       6.689   7.383 -13.370  1.00  0.00     0.022 A 
BRANCH  84  88
ATOM     88  S   UNL     1       6.493   6.880 -16.106  1.00  0.00     0.124 S 
ATOM     89  O   UNL     1       7.442   7.660 -16.892  1.00  0.00    -0.237 OA
ATOM     90  O   UNL     1       6.391   5.463 -16.442  1.00  0.00    -0.237 OA
ATOM     91  O   UNL     1       5.223   7.544 -15.821  1.00  0.00    -0.744 OA
ENDBRANCH  84  88
ENDBRANCH  57  81
BRANCH  69  92
ATOM     92  C   UNL     1      15.306   8.414 -16.079  1.00  0.00     0.023 A 
ATOM     93  C   UNL     1      15.264   9.789 -15.799  1.00  0.00     0.031 A 
ATOM     94  C   UNL     1      15.697   8.007 -17.368  1.00  0.00     0.131 A 
ATOM     95  C   UNL     1      15.584  10.713 -16.806  1.00  0.00     0.055 A 
ATOM     96  C   UNL     1      16.055   8.928 -18.351  1.00  0.00     0.041 A 
ATOM     97  F   UNL     1      15.756   6.702 -17.682  1.00  0.00    -0.206 F 
ATOM     98  C   UNL     1      15.993  10.290 -18.075  1.00  0.00     0.022 A 
BRANCH  95  99
ATOM     99  S   UNL     1      15.428  12.485 -16.450  1.00  0.00     0.124 S 
ATOM    100  O   UNL     1      13.997  12.619 -16.197  1.00  0.00    -0.237 OA
ATOM    101  O   UNL     1      16.299  12.652 -15.291  1.00  0.00    -0.237 OA
ATOM    102  O   UNL     1      15.904  13.125 -17.676  1.00  0.00    -0.744 OA
ENDBRANCH  95  99
ENDBRANCH  69  92
ENDBRANCH  43  44
ENDBRANCH  36  38
ENDBRANCH  35  36
ENDBRANCH  34  35
ENDBRANCH  33  34
ENDBRANCH  32  33
ENDBRANCH  31  32
ENDBRANCH  30  31
ENDBRANCH   1  30
TORSDOF 26
