REMARK SMILES Nc1cccc(C(=O)N2CCC[C@H]2C(=O)OCCOCCOCCOCCOC(=O)c2ccc(-c3c4nc(c(-c5cc(S(=O)(=O)[O-])ccc5F)c5ccc([nH]5)c(-c5cc(S(=O)(=O)[O-])ccc5F)c5nc(c(-c6cc(S(=O)(=O)[O-])ccc6F)c6ccc3[nH]6)C=C5)C=C4)cc2)c1
REMARK SMILES IDX 22 1 21 2 20 3 19 4 18 5 17 6 16 7 14 8 15 9 13 10 9 11
REMARK SMILES IDX 10 12 11 13 12 14 7 15 8 16 6 17 2 18 3 19 94 20 4 21 5 22
REMARK SMILES IDX 1 23 23 26 24 27 25 28 26 29 27 30 28 31 29 32 30 33 31 34
REMARK SMILES IDX 32 35 93 36 33 37 92 38 34 39 35 40 36 41 86 42 37 43 91 44
REMARK SMILES IDX 85 45 87 46 38 47 90 48 84 49 83 50 39 52 71 53 51 54 70 55
REMARK SMILES IDX 52 56 55 57 69 58 88 59 53 60 54 61 68 63 89 64 56 65 40 66
REMARK SMILES IDX 41 67 49 68 42 69 48 70 50 71 47 72 43 73 44 74 45 75 46 76
REMARK SMILES IDX 72 77 73 78 81 79 74 80 80 81 82 82 79 83 75 84 76 85 77 86
REMARK SMILES IDX 78 87 57 88 58 89 66 90 59 91 65 92 67 93 64 94 60 95 61 96
REMARK SMILES IDX 62 97 63 98
REMARK H PARENT 1 24 1 25 87 51 55 62
REMARK Flexibility Score: inf
ROOT
ATOM      1  O   UNL     1      -4.435   4.128   0.121  1.00  0.00    -0.377 OA
ENDROOT
BRANCH   1   2
ATOM      2  C   UNL     1      -3.763   3.924   1.339  1.00  0.00     0.188 C 
BRANCH   2   3
ATOM      3  C   UNL     1      -4.100   5.000   2.375  1.00  0.00     0.188 C 
BRANCH   3   4
ATOM      4  O   UNL     1      -5.007   6.056   2.068  1.00  0.00    -0.376 OA
BRANCH   4   5
ATOM      5  C   UNL     1      -5.141   6.545   0.735  1.00  0.00     0.202 C 
BRANCH   5   6
ATOM      6  C   UNL     1      -3.897   7.087  -0.006  1.00  0.00     0.261 C 
BRANCH   6   7
ATOM      7  O   UNL     1      -2.820   6.151  -0.274  1.00  0.00    -0.462 OA
BRANCH   7   8
ATOM      8  C   UNL     1      -1.728   6.246   0.517  1.00  0.00     0.328 C 
ATOM      9  O   UNL     1      -1.599   7.105   1.392  1.00  0.00    -0.250 OA
BRANCH   8  10
ATOM     10  C   UNL     1      -0.628   5.153   0.331  1.00  0.00     0.195 C 
ATOM     11  N   UNL     1      -0.512   4.102  -0.707  1.00  0.00    -0.325 N 
ATOM     12  C   UNL     1       0.520   4.418  -1.658  1.00  0.00     0.121 C 
ATOM     13  C   UNL     1       1.537   5.159  -0.819  1.00  0.00     0.024 C 
ATOM     14  C   UNL     1       0.682   5.955   0.156  1.00  0.00     0.039 C 
BRANCH  11  15
ATOM     15  C   UNL     1      -1.222   2.919  -0.786  1.00  0.00     0.254 C 
ATOM     16  O   UNL     1      -2.380   2.897  -1.186  1.00  0.00    -0.269 OA
BRANCH  15  17
ATOM     17  C   UNL     1      -0.561   1.600  -0.474  1.00  0.00     0.042 A 
ATOM     18  C   UNL     1       1.353   0.183   0.069  1.00  0.00     0.032 A 
ATOM     19  C   UNL     1       0.533  -0.947   0.023  1.00  0.00     0.025 A 
ATOM     20  C   UNL     1       0.783   1.455  -0.110  1.00  0.00     0.039 A 
ATOM     21  C   UNL     1      -0.816  -0.825  -0.295  1.00  0.00     0.003 A 
ATOM     22  C   UNL     1      -1.350   0.438  -0.563  1.00  0.00     0.014 A 
BRANCH  18  23
ATOM     23  N   UNL     1       2.693   0.047   0.413  1.00  0.00    -0.399 N 
ATOM     24  H   UNL     1       3.082  -0.849   0.536  1.00  0.00     0.156 HD
ATOM     25  H   UNL     1       3.254   0.847   0.535  1.00  0.00     0.156 HD
ENDBRANCH  18  23
ENDBRANCH  15  17
ENDBRANCH  11  15
ENDBRANCH   8  10
ENDBRANCH   7   8
ENDBRANCH   6   7
ENDBRANCH   5   6
ENDBRANCH   4   5
ENDBRANCH   3   4
ENDBRANCH   2   3
ENDBRANCH   1   2
BRANCH   1  26
ATOM     26  C   UNL     1      -5.355   3.146  -0.302  1.00  0.00     0.188 C 
BRANCH  26  27
ATOM     27  C   UNL     1      -6.398   2.767   0.752  1.00  0.00     0.188 C 
BRANCH  27  28
ATOM     28  O   UNL     1      -5.814   2.287   1.957  1.00  0.00    -0.376 OA
BRANCH  28  29
ATOM     29  C   UNL     1      -5.618   0.891   2.120  1.00  0.00     0.202 C 
BRANCH  29  30
ATOM     30  C   UNL     1      -4.779   0.066   1.121  1.00  0.00     0.261 C 
BRANCH  30  31
ATOM     31  O   UNL     1      -5.024   0.211  -0.286  1.00  0.00    -0.460 OA
BRANCH  31  32
ATOM     32  C   UNL     1      -6.236  -0.124  -0.766  1.00  0.00     0.338 C 
ATOM     33  O   UNL     1      -7.153  -0.611  -0.119  1.00  0.00    -0.246 OA
BRANCH  32  34
ATOM     34  C   UNL     1      -6.356   0.382  -2.158  1.00  0.00     0.060 A 
ATOM     35  C   UNL     1      -7.379   1.292  -2.451  1.00  0.00     0.016 A 
ATOM     36  C   UNL     1      -5.493  -0.043  -3.173  1.00  0.00     0.016 A 
ATOM     37  C   UNL     1      -7.576   1.741  -3.759  1.00  0.00     0.010 A 
ATOM     38  C   UNL     1      -5.709   0.386  -4.493  1.00  0.00     0.010 A 
ATOM     39  C   UNL     1      -6.779   1.249  -4.799  1.00  0.00    -0.014 A 
BRANCH  39  40
ATOM     40  C   UNL     1      -7.208   1.472  -6.207  1.00  0.00     0.031 A 
ATOM     41  C   UNL     1      -7.963   0.373  -6.909  1.00  0.00     0.074 A 
ATOM     42  C   UNL     1      -6.992   2.641  -6.838  1.00  0.00     0.049 A 
ATOM     43  N   UNL     1      -8.430   0.326  -8.130  1.00  0.00    -0.248 NA
ATOM     44  C   UNL     1      -8.220  -0.840  -6.119  1.00  0.00     0.031 C 
ATOM     45  C   UNL     1      -6.320   3.800  -6.256  1.00  0.00     0.029 A 
ATOM     46  N   UNL     1      -7.312   3.041  -8.114  1.00  0.00    -0.354 N 
ATOM     47  C   UNL     1      -9.024  -0.926  -8.261  1.00  0.00     0.074 A 
ATOM     48  C   UNL     1      -8.823  -1.616  -7.004  1.00  0.00     0.031 C 
ATOM     49  C   UNL     1      -6.262   4.777  -7.179  1.00  0.00     0.029 A 
ATOM     50  C   UNL     1      -6.855   4.300  -8.428  1.00  0.00     0.049 A 
ATOM     51  H   UNL     1      -7.820   2.480  -8.743  1.00  0.00     0.167 HD
ATOM     52  C   UNL     1      -9.679  -1.450  -9.327  1.00  0.00     0.034 A 
ATOM     53  C   UNL     1      -6.880   4.976  -9.597  1.00  0.00     0.034 A 
ATOM     54  C   UNL     1      -9.860  -0.752 -10.578  1.00  0.00     0.049 A 
ATOM     55  C   UNL     1      -7.538   4.346 -10.802  1.00  0.00     0.074 A 
ATOM     56  C   UNL     1     -10.538  -1.174 -11.709  1.00  0.00     0.029 A 
ATOM     57  N   UNL     1      -9.339   0.502 -10.876  1.00  0.00    -0.354 N 
ATOM     58  N   UNL     1      -8.119   3.172 -10.908  1.00  0.00    -0.248 NA
ATOM     59  C   UNL     1      -7.552   5.134 -12.041  1.00  0.00     0.031 C 
ATOM     60  C   UNL     1     -10.343  -0.225 -12.717  1.00  0.00     0.029 A 
ATOM     61  C   UNL     1      -9.634   0.843 -12.189  1.00  0.00     0.049 A 
ATOM     62  H   UNL     1      -8.834   1.066 -10.247  1.00  0.00     0.167 HD
ATOM     63  C   UNL     1      -8.589   3.094 -12.218  1.00  0.00     0.074 A 
ATOM     64  C   UNL     1      -8.236   4.345 -12.857  1.00  0.00     0.031 C 
ATOM     65  C   UNL     1      -9.260   2.084 -12.831  1.00  0.00     0.034 A 
BRANCH  52  66
ATOM     66  C   UNL     1     -10.177  -2.873  -9.205  1.00  0.00     0.023 A 
ATOM     67  C   UNL     1     -11.123  -3.256  -8.238  1.00  0.00     0.031 A 
ATOM     68  C   UNL     1      -9.651  -3.876 -10.040  1.00  0.00     0.131 A 
ATOM     69  C   UNL     1     -11.443  -4.613  -8.069  1.00  0.00     0.055 A 
ATOM     70  C   UNL     1     -10.046  -5.211  -9.930  1.00  0.00     0.041 A 
ATOM     71  F   UNL     1      -8.726  -3.580 -10.966  1.00  0.00    -0.206 F 
ATOM     72  C   UNL     1     -10.932  -5.589  -8.927  1.00  0.00     0.022 A 
BRANCH  69  73
ATOM     73  S   UNL     1     -12.389  -5.104  -6.601  1.00  0.00     0.124 S 
ATOM     74  O   UNL     1     -11.569  -4.554  -5.523  1.00  0.00    -0.237 OA
ATOM     75  O   UNL     1     -13.675  -4.454  -6.822  1.00  0.00    -0.237 OA
ATOM     76  O   UNL     1     -12.405  -6.564  -6.676  1.00  0.00    -0.744 OA
ENDBRANCH  69  73
ENDBRANCH  52  66
BRANCH  53  77
ATOM     77  C   UNL     1      -6.201   6.302  -9.704  1.00  0.00     0.023 A 
ATOM     78  C   UNL     1      -6.912   7.480  -9.981  1.00  0.00     0.031 A 
ATOM     79  C   UNL     1      -4.803   6.396  -9.560  1.00  0.00     0.131 A 
ATOM     80  C   UNL     1      -6.222   8.695 -10.132  1.00  0.00     0.055 A 
ATOM     81  C   UNL     1      -4.129   7.613  -9.656  1.00  0.00     0.041 A 
ATOM     82  F   UNL     1      -4.072   5.299  -9.307  1.00  0.00    -0.206 F 
ATOM     83  C   UNL     1      -4.838   8.772  -9.953  1.00  0.00     0.022 A 
BRANCH  80  84
ATOM     84  S   UNL     1      -7.148  10.171 -10.638  1.00  0.00     0.124 S 
ATOM     85  O   UNL     1      -7.693   9.754 -11.924  1.00  0.00    -0.237 OA
ATOM     86  O   UNL     1      -8.109  10.316  -9.549  1.00  0.00    -0.237 OA
ATOM     87  O   UNL     1      -6.122  11.211 -10.701  1.00  0.00    -0.744 OA
ENDBRANCH  80  84
ENDBRANCH  53  77
BRANCH  65  88
ATOM     88  C   UNL     1      -9.697   2.306 -14.263  1.00  0.00     0.023 A 
ATOM     89  C   UNL     1      -8.772   2.461 -15.312  1.00  0.00     0.031 A 
ATOM     90  C   UNL     1     -11.067   2.363 -14.583  1.00  0.00     0.131 A 
ATOM     91  C   UNL     1      -9.227   2.722 -16.615  1.00  0.00     0.055 A 
ATOM     92  C   UNL     1     -11.513   2.551 -15.892  1.00  0.00     0.041 A 
ATOM     93  F   UNL     1     -11.998   2.229 -13.625  1.00  0.00    -0.206 F 
ATOM     94  C   UNL     1     -10.591   2.746 -16.915  1.00  0.00     0.022 A 
BRANCH  91  95
ATOM     95  S   UNL     1      -8.012   3.136 -17.898  1.00  0.00     0.124 S 
ATOM     96  O   UNL     1      -7.344   4.296 -17.318  1.00  0.00    -0.237 OA
ATOM     97  O   UNL     1      -7.216   1.916 -17.981  1.00  0.00    -0.237 OA
ATOM     98  O   UNL     1      -8.836   3.418 -19.072  1.00  0.00    -0.744 OA
ENDBRANCH  91  95
ENDBRANCH  65  88
ENDBRANCH  39  40
ENDBRANCH  32  34
ENDBRANCH  31  32
ENDBRANCH  30  31
ENDBRANCH  29  30
ENDBRANCH  28  29
ENDBRANCH  27  28
ENDBRANCH  26  27
ENDBRANCH   1  26
TORSDOF 26
