REMARK SMILES O=C(OCCOCCOCCOCCOC(=O)[C@]1([NH2+]C2CC2)CCC[C@H](SC2CCCCC2)C1)c1ccc(-c2c3nc(c(-c4cc(S(=O)(=O)[O-])ccc4F)c4ccc([nH]4)c(-c4cc(S(=O)(=O)[O-])ccc4F)c4nc(c(-c5cc(S(=O)(=O)[O-])ccc5F)c5ccc2[nH]5)C=C4)C=C3)cc1
REMARK SMILES IDX 8 1 7 2 6 3 5 4 4 5 3 6 2 7 1 8 35 9 36 10 97 11 37 12 96 13
REMARK SMILES IDX 38 14 39 15 40 16 90 17 41 18 95 19 89 20 91 21 42 22 94 23
REMARK SMILES IDX 88 24 87 25 43 27 75 28 55 29 74 30 56 31 59 32 73 33 92 34
REMARK SMILES IDX 57 35 58 36 72 38 93 39 60 40 44 41 45 42 53 43 46 44 52 45
REMARK SMILES IDX 54 46 51 47 47 48 48 49 49 50 50 51 76 52 77 53 85 54 78 55
REMARK SMILES IDX 84 56 86 57 83 58 79 59 80 60 81 61 82 62 61 63 62 64 70 65
REMARK SMILES IDX 63 66 69 67 71 68 68 69 64 70 65 71 66 72 67 73 9 74 10 75
REMARK SMILES IDX 11 76 12 77 13 78 14 79 15 80 16 81 17 82 18 83 23 84 34 85
REMARK SMILES IDX 24 86 26 87 25 88 19 89 20 92 21 93 22 94 27 95 28 96 29 97
REMARK SMILES IDX 33 98 30 99 32 100 31 101
REMARK H PARENT 91 26 59 37 19 90 19 91
REMARK Flexibility Score: inf
ROOT
ATOM      1  C   UNL     1       8.464  -1.909   3.681  1.00  0.00     0.188 C 
ENDROOT
BRANCH   1   2
ATOM      2  C   UNL     1       8.288  -1.811   2.174  1.00  0.00     0.188 C 
BRANCH   2   3
ATOM      3  O   UNL     1       8.373  -0.441   1.790  1.00  0.00    -0.376 OA
BRANCH   3   4
ATOM      4  C   UNL     1       7.400   0.002   0.850  1.00  0.00     0.202 C 
BRANCH   4   5
ATOM      5  C   UNL     1       7.857  -0.194  -0.589  1.00  0.00     0.261 C 
BRANCH   5   6
ATOM      6  O   UNL     1       8.732  -1.320  -0.747  1.00  0.00    -0.460 OA
BRANCH   6   7
ATOM      7  C   UNL     1      10.060  -1.415  -0.477  1.00  0.00     0.338 C 
ATOM      8  O   UNL     1      10.590  -2.512  -0.671  1.00  0.00    -0.246 OA
BRANCH   7   9
ATOM      9  C   UNL     1      10.932  -0.320   0.079  1.00  0.00     0.060 A 
ATOM     10  C   UNL     1      10.497   0.873   0.660  1.00  0.00     0.016 A 
ATOM     11  C   UNL     1      12.320  -0.560   0.073  1.00  0.00     0.016 A 
ATOM     12  C   UNL     1      11.370   1.760   1.272  1.00  0.00     0.010 A 
ATOM     13  C   UNL     1      13.221   0.359   0.623  1.00  0.00     0.010 A 
ATOM     14  C   UNL     1      12.736   1.524   1.221  1.00  0.00    -0.014 A 
BRANCH  14  15
ATOM     15  C   UNL     1      13.604   2.662   1.559  1.00  0.00     0.031 A 
ATOM     16  C   UNL     1      14.033   3.538   0.421  1.00  0.00     0.074 A 
ATOM     17  C   UNL     1      13.809   2.997   2.845  1.00  0.00     0.049 A 
ATOM     18  N   UNL     1      14.828   4.569   0.420  1.00  0.00    -0.248 NA
ATOM     19  C   UNL     1      13.453   3.223  -0.899  1.00  0.00     0.031 C 
ATOM     20  C   UNL     1      13.229   2.303   3.999  1.00  0.00     0.029 A 
ATOM     21  N   UNL     1      14.528   4.020   3.397  1.00  0.00    -0.354 N 
ATOM     22  C   UNL     1      14.873   5.002  -0.900  1.00  0.00     0.074 A 
ATOM     23  C   UNL     1      14.011   4.140  -1.672  1.00  0.00     0.031 C 
ATOM     24  C   UNL     1      13.629   2.920   5.124  1.00  0.00     0.029 A 
ATOM     25  C   UNL     1      14.553   3.992   4.773  1.00  0.00     0.049 A 
ATOM     26  H   UNL     1      14.985   4.709   2.862  1.00  0.00     0.167 HD
ATOM     27  C   UNL     1      15.601   6.021  -1.411  1.00  0.00     0.034 A 
ATOM     28  C   UNL     1      15.299   4.720   5.628  1.00  0.00     0.034 A 
ATOM     29  C   UNL     1      16.460   6.831  -0.591  1.00  0.00     0.049 A 
ATOM     30  C   UNL     1      16.227   5.747   5.016  1.00  0.00     0.074 A 
ATOM     31  C   UNL     1      17.333   7.830  -0.971  1.00  0.00     0.029 A 
ATOM     32  N   UNL     1      16.556   6.713   0.792  1.00  0.00    -0.354 N 
ATOM     33  N   UNL     1      16.353   6.096   3.752  1.00  0.00    -0.248 NA
ATOM     34  C   UNL     1      17.121   6.465   5.929  1.00  0.00     0.031 C 
ATOM     35  C   UNL     1      18.011   8.262   0.174  1.00  0.00     0.029 A 
ATOM     36  C   UNL     1      17.500   7.595   1.280  1.00  0.00     0.049 A 
ATOM     37  H   UNL     1      16.027   6.091   1.343  1.00  0.00     0.167 HD
ATOM     38  C   UNL     1      17.326   7.089   3.725  1.00  0.00     0.074 A 
ATOM     39  C   UNL     1      17.728   7.302   5.103  1.00  0.00     0.031 C 
ATOM     40  C   UNL     1      17.854   7.763   2.670  1.00  0.00     0.034 A 
BRANCH  27  41
ATOM     41  C   UNL     1      15.591   6.191  -2.908  1.00  0.00     0.023 A 
ATOM     42  C   UNL     1      14.445   6.595  -3.615  1.00  0.00     0.031 A 
ATOM     43  C   UNL     1      16.739   5.855  -3.647  1.00  0.00     0.131 A 
ATOM     44  C   UNL     1      14.457   6.596  -5.020  1.00  0.00     0.055 A 
ATOM     45  C   UNL     1      16.767   5.927  -5.040  1.00  0.00     0.041 A 
ATOM     46  F   UNL     1      17.848   5.421  -3.027  1.00  0.00    -0.206 F 
ATOM     47  C   UNL     1      15.618   6.289  -5.736  1.00  0.00     0.022 A 
BRANCH  44  48
ATOM     48  S   UNL     1      12.900   6.879  -5.909  1.00  0.00     0.124 S 
ATOM     49  O   UNL     1      12.104   5.730  -5.484  1.00  0.00    -0.237 OA
ATOM     50  O   UNL     1      12.472   8.175  -5.396  1.00  0.00    -0.237 OA
ATOM     51  O   UNL     1      13.300   6.867  -7.315  1.00  0.00    -0.744 OA
ENDBRANCH  44  48
ENDBRANCH  27  41
BRANCH  28  52
ATOM     52  C   UNL     1      15.305   4.442   7.098  1.00  0.00     0.023 A 
ATOM     53  C   UNL     1      15.060   5.455   8.038  1.00  0.00     0.031 A 
ATOM     54  C   UNL     1      15.666   3.172   7.592  1.00  0.00     0.131 A 
ATOM     55  C   UNL     1      15.247   5.204   9.409  1.00  0.00     0.055 A 
ATOM     56  C   UNL     1      15.779   2.908   8.959  1.00  0.00     0.041 A 
ATOM     57  F   UNL     1      15.934   2.162   6.750  1.00  0.00    -0.206 F 
ATOM     58  C   UNL     1      15.590   3.934   9.877  1.00  0.00     0.022 A 
BRANCH  55  59
ATOM     59  S   UNL     1      15.180   6.604  10.563  1.00  0.00     0.124 S 
ATOM     60  O   UNL     1      16.138   7.525   9.970  1.00  0.00    -0.237 OA
ATOM     61  O   UNL     1      13.777   6.993  10.486  1.00  0.00    -0.237 OA
ATOM     62  O   UNL     1      15.591   6.011  11.839  1.00  0.00    -0.744 OA
ENDBRANCH  55  59
ENDBRANCH  28  52
BRANCH  40  63
ATOM     63  C   UNL     1      18.883   8.813   2.992  1.00  0.00     0.023 A 
ATOM     64  C   UNL     1      20.143   8.470   3.507  1.00  0.00     0.031 A 
ATOM     65  C   UNL     1      18.596  10.170   2.769  1.00  0.00     0.131 A 
ATOM     66  C   UNL     1      21.052   9.481   3.838  1.00  0.00     0.055 A 
ATOM     67  C   UNL     1      19.533  11.167   3.032  1.00  0.00     0.041 A 
ATOM     68  F   UNL     1      17.403  10.546   2.278  1.00  0.00    -0.206 F 
ATOM     69  C   UNL     1      20.765  10.825   3.583  1.00  0.00     0.022 A 
BRANCH  66  70
ATOM     70  S   UNL     1      22.580   9.021   4.697  1.00  0.00     0.124 S 
ATOM     71  O   UNL     1      22.066   8.381   5.904  1.00  0.00    -0.237 OA
ATOM     72  O   UNL     1      23.227   8.137   3.733  1.00  0.00    -0.237 OA
ATOM     73  O   UNL     1      23.250  10.302   4.911  1.00  0.00    -0.744 OA
ENDBRANCH  66  70
ENDBRANCH  40  63
ENDBRANCH  14  15
ENDBRANCH   7   9
ENDBRANCH   6   7
ENDBRANCH   5   6
ENDBRANCH   4   5
ENDBRANCH   3   4
ENDBRANCH   2   3
ENDBRANCH   1   2
BRANCH   1  74
ATOM     74  O   UNL     1       7.421  -1.251   4.383  1.00  0.00    -0.377 OA
BRANCH  74  75
ATOM     75  C   UNL     1       7.279   0.143   4.144  1.00  0.00     0.188 C 
BRANCH  75  76
ATOM     76  C   UNL     1       8.445   1.039   4.526  1.00  0.00     0.188 C 
BRANCH  76  77
ATOM     77  O   UNL     1       9.379   0.372   5.363  1.00  0.00    -0.376 OA
BRANCH  77  78
ATOM     78  C   UNL     1       9.105   0.418   6.758  1.00  0.00     0.202 C 
BRANCH  78  79
ATOM     79  C   UNL     1       8.059  -0.570   7.345  1.00  0.00     0.261 C 
BRANCH  79  80
ATOM     80  O   UNL     1       6.642  -0.519   7.020  1.00  0.00    -0.459 OA
BRANCH  80  81
ATOM     81  C   UNL     1       6.046   0.677   6.819  1.00  0.00     0.368 C 
ATOM     82  O   UNL     1       6.670   1.732   6.871  1.00  0.00    -0.245 OA
BRANCH  81  83
ATOM     83  C   UNL     1       4.516   0.627   6.436  1.00  0.00     0.195 C 
ATOM     84  C   UNL     1       4.170   1.762   5.425  1.00  0.00     0.081 C 
ATOM     85  C   UNL     1       3.691   0.868   7.734  1.00  0.00     0.095 C 
ATOM     86  C   UNL     1       4.297   3.176   5.987  1.00  0.00     0.008 C 
ATOM     87  C   UNL     1       3.842   2.283   8.365  1.00  0.00     0.053 C 
ATOM     88  C   UNL     1       3.532   3.330   7.293  1.00  0.00     0.015 C 
BRANCH  83  89
ATOM     89  N   UNL     1       4.073  -0.720   5.900  1.00  0.00    -0.330 N 
ATOM     90  H   UNL     1       3.078  -0.806   6.107  1.00  0.00     0.347 HD
ATOM     91  H   UNL     1       4.703  -1.376   6.361  1.00  0.00     0.347 HD
BRANCH  89  92
ATOM     92  C   UNL     1       4.241  -1.033   4.462  1.00  0.00     0.183 C 
ATOM     93  C   UNL     1       4.827  -2.364   4.066  1.00  0.00     0.071 C 
ATOM     94  C   UNL     1       3.377  -2.109   3.841  1.00  0.00     0.071 C 
ENDBRANCH  89  92
ENDBRANCH  83  89
BRANCH  87  95
ATOM     95  S   UNL     1       5.357   2.219   9.427  1.00  0.00    -0.155 SA
BRANCH  95  96
ATOM     96  C   UNL     1       6.193   3.859   9.535  1.00  0.00     0.047 C 
ATOM     97  C   UNL     1       6.315   4.777   8.316  1.00  0.00     0.014 C 
ATOM     98  C   UNL     1       5.673   4.549  10.799  1.00  0.00     0.014 C 
ATOM     99  C   UNL     1       6.939   6.137   8.640  1.00  0.00     0.001 C 
ATOM    100  C   UNL     1       6.371   5.879  11.056  1.00  0.00     0.001 C 
ATOM    101  C   UNL     1       6.261   6.786   9.841  1.00  0.00     0.000 C 
ENDBRANCH  95  96
ENDBRANCH  87  95
ENDBRANCH  81  83
ENDBRANCH  80  81
ENDBRANCH  79  80
ENDBRANCH  78  79
ENDBRANCH  77  78
ENDBRANCH  76  77
ENDBRANCH  75  76
ENDBRANCH  74  75
ENDBRANCH   1  74
TORSDOF 27
