REMARK SMILES CCCC[C@@H](C)[NH2+]Cc1ccc(C(=O)OCCOCCOCCOCCOC(=O)c2ccc(-c3c4nc(c(-c5cc(S(=O)(=O)[O-])ccc5F)c5ccc([nH]5)c(-c5cc(S(=O)(=O)[O-])ccc5F)c5nc(c(-c6cc(S(=O)(=O)[O-])ccc6F)c6ccc3[nH]6)C=C5)C=C4)cc2)cn1
REMARK SMILES IDX 19 1 18 2 17 3 16 4 15 5 13 6 14 7 12 8 9 9 10 10 94 11
REMARK SMILES IDX 11 12 93 13 8 14 7 15 5 18 6 19 4 20 3 21 2 22 1 23 20 24
REMARK SMILES IDX 21 25 22 26 23 27 24 28 25 29 26 30 27 31 28 32 29 33 30 34
REMARK SMILES IDX 31 35 92 36 32 37 91 38 33 39 34 40 35 41 85 42 36 43 90 44
REMARK SMILES IDX 84 45 86 46 37 47 89 48 83 49 82 50 38 52 70 53 50 54 69 55
REMARK SMILES IDX 51 56 54 57 68 58 87 59 52 60 53 61 67 63 88 64 55 65 39 66
REMARK SMILES IDX 40 67 48 68 41 69 47 70 49 71 46 72 42 73 43 74 44 75 45 76
REMARK SMILES IDX 71 77 72 78 80 79 73 80 79 81 81 82 78 83 74 84 75 85 76 86
REMARK SMILES IDX 77 87 56 88 57 89 65 90 58 91 64 92 66 93 63 94 59 95 60 96
REMARK SMILES IDX 61 97 62 98
REMARK H PARENT 7 16 7 17 86 51 54 62
REMARK Flexibility Score: inf
ROOT
ATOM      1  C   UNL     1      -3.934   5.651   6.710  1.00  0.00     0.188 C 
ENDROOT
BRANCH   1   2
ATOM      2  O   UNL     1      -4.618   5.605   7.947  1.00  0.00    -0.376 OA
BRANCH   2   3
ATOM      3  C   UNL     1      -5.978   5.217   8.006  1.00  0.00     0.202 C 
BRANCH   3   4
ATOM      4  C   UNL     1      -6.525   4.005   7.233  1.00  0.00     0.261 C 
BRANCH   4   5
ATOM      5  O   UNL     1      -6.036   3.790   5.904  1.00  0.00    -0.460 OA
BRANCH   5   6
ATOM      6  C   UNL     1      -6.442   4.634   4.935  1.00  0.00     0.339 C 
ATOM      7  O   UNL     1      -7.186   5.590   5.054  1.00  0.00    -0.246 OA
BRANCH   6   8
ATOM      8  C   UNL     1      -5.654   4.330   3.726  1.00  0.00     0.078 A 
ATOM      9  C   UNL     1      -4.006   3.926   1.558  1.00  0.00     0.094 A 
ATOM     10  C   UNL     1      -4.624   2.826   2.159  1.00  0.00     0.031 A 
ATOM     11  N   UNL     1      -4.193   5.198   2.003  1.00  0.00    -0.254 NA
ATOM     12  C   UNL     1      -5.442   3.030   3.271  1.00  0.00     0.019 A 
ATOM     13  C   UNL     1      -5.024   5.371   3.062  1.00  0.00     0.127 A 
BRANCH   9  14
ATOM     14  C   UNL     1      -3.033   3.728   0.411  1.00  0.00     0.318 C 
BRANCH  14  15
ATOM     15  N   UNL     1      -1.613   3.895   0.761  1.00  0.00    -0.339 N 
ATOM     16  H   UNL     1      -1.083   4.001  -0.104  1.00  0.00     0.346 HD
ATOM     17  H   UNL     1      -1.562   4.713   1.369  1.00  0.00     0.346 HD
BRANCH  15  18
ATOM     18  C   UNL     1      -1.027   2.779   1.522  1.00  0.00     0.179 C 
ATOM     19  C   UNL     1      -1.203   2.963   3.033  1.00  0.00     0.075 C 
BRANCH  18  20
ATOM     20  C   UNL     1       0.476   2.716   1.161  1.00  0.00     0.065 C 
BRANCH  20  21
ATOM     21  C   UNL     1       1.255   1.547   1.788  1.00  0.00     0.006 C 
BRANCH  21  22
ATOM     22  C   UNL     1       0.755   0.151   1.409  1.00  0.00    -0.003 C 
ATOM     23  C   UNL     1       0.992  -0.186  -0.055  1.00  0.00     0.004 C 
ENDBRANCH  21  22
ENDBRANCH  20  21
ENDBRANCH  18  20
ENDBRANCH  15  18
ENDBRANCH  14  15
ENDBRANCH   9  14
ENDBRANCH   6   8
ENDBRANCH   5   6
ENDBRANCH   4   5
ENDBRANCH   3   4
ENDBRANCH   2   3
ENDBRANCH   1   2
BRANCH   1  24
ATOM     24  C   UNL     1      -3.114   4.383   6.409  1.00  0.00     0.188 C 
BRANCH  24  25
ATOM     25  O   UNL     1      -3.422   3.250   7.203  1.00  0.00    -0.377 OA
BRANCH  25  26
ATOM     26  C   UNL     1      -3.128   3.265   8.603  1.00  0.00     0.188 C 
BRANCH  26  27
ATOM     27  C   UNL     1      -2.514   4.487   9.331  1.00  0.00     0.188 C 
BRANCH  27  28
ATOM     28  O   UNL     1      -1.768   5.361   8.498  1.00  0.00    -0.376 OA
BRANCH  28  29
ATOM     29  C   UNL     1      -0.362   5.394   8.659  1.00  0.00     0.202 C 
BRANCH  29  30
ATOM     30  C   UNL     1       0.389   4.132   8.216  1.00  0.00     0.261 C 
BRANCH  30  31
ATOM     31  O   UNL     1      -0.046   2.904   8.819  1.00  0.00    -0.460 OA
BRANCH  31  32
ATOM     32  C   UNL     1       0.144   2.791  10.151  1.00  0.00     0.338 C 
ATOM     33  O   UNL     1       0.656   3.622  10.887  1.00  0.00    -0.246 OA
BRANCH  32  34
ATOM     34  C   UNL     1      -0.549   1.573  10.614  1.00  0.00     0.060 A 
ATOM     35  C   UNL     1      -1.524   1.690  11.612  1.00  0.00     0.016 A 
ATOM     36  C   UNL     1      -0.227   0.322  10.080  1.00  0.00     0.016 A 
ATOM     37  C   UNL     1      -2.134   0.548  12.126  1.00  0.00     0.010 A 
ATOM     38  C   UNL     1      -0.829  -0.825  10.607  1.00  0.00     0.010 A 
ATOM     39  C   UNL     1      -1.747  -0.719  11.667  1.00  0.00    -0.014 A 
BRANCH  39  40
ATOM     40  C   UNL     1      -2.118  -1.914  12.467  1.00  0.00     0.031 A 
ATOM     41  C   UNL     1      -1.096  -2.467  13.427  1.00  0.00     0.074 A 
ATOM     42  C   UNL     1      -3.348  -2.453  12.400  1.00  0.00     0.049 A 
ATOM     43  N   UNL     1      -1.181  -3.486  14.242  1.00  0.00    -0.248 NA
ATOM     44  C   UNL     1       0.201  -1.772  13.468  1.00  0.00     0.031 C 
ATOM     45  C   UNL     1      -4.434  -1.975  11.546  1.00  0.00     0.029 A 
ATOM     46  N   UNL     1      -3.892  -3.519  13.071  1.00  0.00    -0.354 N 
ATOM     47  C   UNL     1       0.048  -3.555  14.891  1.00  0.00     0.074 A 
ATOM     48  C   UNL     1       0.876  -2.507  14.336  1.00  0.00     0.031 C 
ATOM     49  C   UNL     1      -5.517  -2.745  11.748  1.00  0.00     0.029 A 
ATOM     50  C   UNL     1      -5.192  -3.792  12.717  1.00  0.00     0.049 A 
ATOM     51  H   UNL     1      -3.397  -4.041  13.743  1.00  0.00     0.167 HD
ATOM     52  C   UNL     1       0.445  -4.403  15.871  1.00  0.00     0.034 A 
ATOM     53  C   UNL     1      -6.016  -4.782  13.117  1.00  0.00     0.034 A 
ATOM     54  C   UNL     1      -0.389  -5.452  16.405  1.00  0.00     0.049 A 
ATOM     55  C   UNL     1      -5.521  -5.771  14.148  1.00  0.00     0.074 A 
ATOM     56  C   UNL     1      -0.091  -6.368  17.399  1.00  0.00     0.029 A 
ATOM     57  N   UNL     1      -1.682  -5.735  15.981  1.00  0.00    -0.354 N 
ATOM     58  N   UNL     1      -4.359  -5.822  14.761  1.00  0.00    -0.248 NA
ATOM     59  C   UNL     1      -6.458  -6.827  14.552  1.00  0.00     0.031 C 
ATOM     60  C   UNL     1      -1.168  -7.253  17.516  1.00  0.00     0.029 A 
ATOM     61  C   UNL     1      -2.180  -6.832  16.668  1.00  0.00     0.049 A 
ATOM     62  H   UNL     1      -2.173  -5.230  15.293  1.00  0.00     0.167 HD
ATOM     63  C   UNL     1      -4.443  -6.893  15.649  1.00  0.00     0.074 A 
ATOM     64  C   UNL     1      -5.777  -7.441  15.507  1.00  0.00     0.031 C 
ATOM     65  C   UNL     1      -3.508  -7.380  16.507  1.00  0.00     0.034 A 
BRANCH  52  66
ATOM     66  C   UNL     1       1.862  -4.261  16.378  1.00  0.00     0.023 A 
ATOM     67  C   UNL     1       2.310  -3.090  17.015  1.00  0.00     0.031 A 
ATOM     68  C   UNL     1       2.790  -5.300  16.187  1.00  0.00     0.131 A 
ATOM     69  C   UNL     1       3.663  -2.958  17.367  1.00  0.00     0.055 A 
ATOM     70  C   UNL     1       4.113  -5.197  16.619  1.00  0.00     0.041 A 
ATOM     71  F   UNL     1       2.430  -6.431  15.559  1.00  0.00    -0.206 F 
ATOM     72  C   UNL     1       4.561  -4.014  17.199  1.00  0.00     0.022 A 
BRANCH  69  73
ATOM     73  S   UNL     1       4.266  -1.331  17.898  1.00  0.00     0.124 S 
ATOM     74  O   UNL     1       3.924  -0.500  16.747  1.00  0.00    -0.237 OA
ATOM     75  O   UNL     1       3.495  -1.090  19.113  1.00  0.00    -0.237 OA
ATOM     76  O   UNL     1       5.698  -1.546  18.099  1.00  0.00    -0.744 OA
ENDBRANCH  69  73
ENDBRANCH  52  66
BRANCH  53  77
ATOM     77  C   UNL     1      -7.382  -4.922  12.530  1.00  0.00     0.023 A 
ATOM     78  C   UNL     1      -8.534  -4.839  13.328  1.00  0.00     0.031 A 
ATOM     79  C   UNL     1      -7.550  -5.215  11.164  1.00  0.00     0.131 A 
ATOM     80  C   UNL     1      -9.795  -5.101  12.768  1.00  0.00     0.055 A 
ATOM     81  C   UNL     1      -8.811  -5.413  10.599  1.00  0.00     0.041 A 
ATOM     82  F   UNL     1      -6.483  -5.312  10.354  1.00  0.00    -0.206 F 
ATOM     83  C   UNL     1      -9.942  -5.372  11.406  1.00  0.00     0.022 A 
BRANCH  80  84
ATOM     84  S   UNL     1     -11.236  -5.184  13.869  1.00  0.00     0.124 S 
ATOM     85  O   UNL     1     -10.840  -6.238  14.795  1.00  0.00    -0.237 OA
ATOM     86  O   UNL     1     -11.278  -3.831  14.414  1.00  0.00    -0.237 OA
ATOM     87  O   UNL     1     -12.334  -5.524  12.966  1.00  0.00    -0.744 OA
ENDBRANCH  80  84
ENDBRANCH  53  77
BRANCH  65  88
ATOM     88  C   UNL     1      -3.922  -8.534  17.393  1.00  0.00     0.023 A 
ATOM     89  C   UNL     1      -4.302  -9.780  16.862  1.00  0.00     0.031 A 
ATOM     90  C   UNL     1      -3.979  -8.372  18.790  1.00  0.00     0.131 A 
ATOM     91  C   UNL     1      -4.807 -10.778  17.709  1.00  0.00     0.055 A 
ATOM     92  C   UNL     1      -4.402  -9.398  19.636  1.00  0.00     0.041 A 
ATOM     93  F   UNL     1      -3.632  -7.206  19.358  1.00  0.00    -0.206 F 
ATOM     94  C   UNL     1      -4.841 -10.603  19.095  1.00  0.00     0.022 A 
BRANCH  91  95
ATOM     95  S   UNL     1      -5.563 -12.248  16.962  1.00  0.00     0.124 S 
ATOM     96  O   UNL     1      -6.566 -11.658  16.082  1.00  0.00    -0.237 OA
ATOM     97  O   UNL     1      -4.427 -12.880  16.300  1.00  0.00    -0.237 OA
ATOM     98  O   UNL     1      -6.097 -12.979  18.110  1.00  0.00    -0.744 OA
ENDBRANCH  91  95
ENDBRANCH  65  88
ENDBRANCH  39  40
ENDBRANCH  32  34
ENDBRANCH  31  32
ENDBRANCH  30  31
ENDBRANCH  29  30
ENDBRANCH  28  29
ENDBRANCH  27  28
ENDBRANCH  26  27
ENDBRANCH  25  26
ENDBRANCH  24  25
ENDBRANCH   1  24
TORSDOF 29
