REMARK SMILES CSCC[C@@H](NC1=[NH+]S(=O)(=O)c2ccccc21)C(=O)OCCOCCOCCOCCOC(=O)c1ccc(-c2c3nc(c(-c4cc(S(=O)(=O)[O-])ccc4F)c4ccc([nH]4)c(-c4cc(S(=O)(=O)[O-])ccc4F)c4nc(c(-c5cc(S(=O)(=O)[O-])ccc5F)c5ccc2[nH]5)C=C4)C=C3)cc1
REMARK SMILES IDX 26 1 25 2 24 3 23 4 22 5 21 6 20 7 18 8 19 9 5 10 4 11 3 12
REMARK SMILES IDX 2 13 1 14 6 15 7 16 8 18 17 19 9 20 12 22 16 23 10 24 11 25
REMARK SMILES IDX 13 26 15 27 14 28 27 29 28 30 29 31 30 32 31 33 32 34 33 35
REMARK SMILES IDX 34 36 35 37 36 38 97 39 37 40 96 41 38 42 39 43 40 44 90 45
REMARK SMILES IDX 41 46 95 47 89 48 91 49 42 50 94 51 88 52 87 53 43 55 75 56
REMARK SMILES IDX 55 57 74 58 56 59 59 60 73 61 92 62 57 63 58 64 72 66 93 67
REMARK SMILES IDX 60 68 44 69 45 70 53 71 46 72 52 73 54 74 51 75 47 76 48 77
REMARK SMILES IDX 49 78 50 79 76 80 77 81 85 82 78 83 84 84 86 85 83 86 79 87
REMARK SMILES IDX 80 88 81 89 82 90 61 91 62 92 70 93 63 94 69 95 71 96 68 97
REMARK SMILES IDX 64 98 65 99 66 100 67 101
REMARK H PARENT 6 17 8 21 91 54 59 65
REMARK Flexibility Score: inf
ROOT
ATOM      1  O   UNL     1      -1.219  -4.721   2.350  1.00  0.00    -0.377 OA
ENDROOT
BRANCH   1   2
ATOM      2  C   UNL     1      -1.743  -3.785   1.431  1.00  0.00     0.188 C 
BRANCH   2   3
ATOM      3  C   UNL     1      -1.891  -4.280  -0.015  1.00  0.00     0.188 C 
BRANCH   3   4
ATOM      4  O   UNL     1      -1.677  -5.630  -0.395  1.00  0.00    -0.376 OA
BRANCH   4   5
ATOM      5  C   UNL     1      -0.717  -6.478   0.215  1.00  0.00     0.202 C 
BRANCH   5   6
ATOM      6  C   UNL     1       0.765  -6.101   0.344  1.00  0.00     0.261 C 
BRANCH   6   7
ATOM      7  O   UNL     1       1.082  -4.870   1.013  1.00  0.00    -0.460 OA
BRANCH   7   8
ATOM      8  C   UNL     1       1.248  -3.811   0.183  1.00  0.00     0.351 C 
ATOM      9  O   UNL     1       1.014  -3.824  -1.024  1.00  0.00    -0.247 OA
BRANCH   8  10
ATOM     10  C   UNL     1       1.858  -2.578   0.868  1.00  0.00     0.283 C 
BRANCH  10  11
ATOM     11  C   UNL     1       1.409  -2.228   2.296  1.00  0.00     0.073 C 
BRANCH  11  12
ATOM     12  C   UNL     1       1.429  -0.717   2.585  1.00  0.00     0.074 C 
BRANCH  12  13
ATOM     13  S   UNL     1       0.152   0.280   1.725  1.00  0.00    -0.165 SA
ATOM     14  C   UNL     1       0.929   0.557   0.104  1.00  0.00     0.085 C 
ENDBRANCH  12  13
ENDBRANCH  11  12
ENDBRANCH  10  11
BRANCH  10  15
ATOM     15  N   UNL     1       3.331  -2.572   0.837  1.00  0.00    -0.260 N 
ATOM     16  C   UNL     1       4.039  -3.722   0.623  1.00  0.00     0.292 C 
ATOM     17  H   UNL     1       3.814  -1.725   0.973  1.00  0.00     0.306 HD
ATOM     18  N   UNL     1       3.892  -4.482  -0.419  1.00  0.00    -0.162 N 
ATOM     19  C   UNL     1       4.982  -4.208   1.641  1.00  0.00     0.087 A 
ATOM     20  S   UNL     1       4.802  -5.836  -0.298  1.00  0.00     0.329 S 
ATOM     21  H   UNL     1       3.308  -4.270  -1.183  1.00  0.00     0.327 HD
ATOM     22  C   UNL     1       5.474  -5.439   1.256  1.00  0.00     0.124 A 
ATOM     23  C   UNL     1       5.307  -3.657   2.867  1.00  0.00     0.018 A 
ATOM     24  O   UNL     1       5.876  -5.808  -1.254  1.00  0.00    -0.179 OA
ATOM     25  O   UNL     1       3.939  -6.992  -0.108  1.00  0.00    -0.179 OA
ATOM     26  C   UNL     1       6.307  -6.192   2.052  1.00  0.00     0.025 A 
ATOM     27  C   UNL     1       6.165  -4.388   3.692  1.00  0.00     0.001 A 
ATOM     28  C   UNL     1       6.659  -5.644   3.288  1.00  0.00     0.002 A 
ENDBRANCH  10  15
ENDBRANCH   8  10
ENDBRANCH   7   8
ENDBRANCH   6   7
ENDBRANCH   5   6
ENDBRANCH   4   5
ENDBRANCH   3   4
ENDBRANCH   2   3
ENDBRANCH   1   2
BRANCH   1  29
ATOM     29  C   UNL     1      -2.155  -5.538   3.055  1.00  0.00     0.188 C 
BRANCH  29  30
ATOM     30  C   UNL     1      -3.478  -5.904   2.350  1.00  0.00     0.188 C 
BRANCH  30  31
ATOM     31  O   UNL     1      -4.172  -4.785   1.813  1.00  0.00    -0.376 OA
BRANCH  31  32
ATOM     32  C   UNL     1      -5.184  -4.168   2.595  1.00  0.00     0.202 C 
BRANCH  32  33
ATOM     33  C   UNL     1      -4.766  -3.546   3.939  1.00  0.00     0.261 C 
BRANCH  33  34
ATOM     34  O   UNL     1      -4.239  -4.452   4.924  1.00  0.00    -0.460 OA
BRANCH  34  35
ATOM     35  C   UNL     1      -4.999  -5.517   5.255  1.00  0.00     0.338 C 
ATOM     36  O   UNL     1      -6.136  -5.741   4.884  1.00  0.00    -0.246 OA
BRANCH  35  37
ATOM     37  C   UNL     1      -4.148  -6.491   5.970  1.00  0.00     0.060 A 
ATOM     38  C   UNL     1      -4.061  -7.792   5.462  1.00  0.00     0.016 A 
ATOM     39  C   UNL     1      -3.477  -6.144   7.146  1.00  0.00     0.016 A 
ATOM     40  C   UNL     1      -3.360  -8.768   6.163  1.00  0.00     0.010 A 
ATOM     41  C   UNL     1      -2.789  -7.131   7.861  1.00  0.00     0.010 A 
ATOM     42  C   UNL     1      -2.772  -8.459   7.396  1.00  0.00    -0.014 A 
BRANCH  42  43
ATOM     43  C   UNL     1      -2.357  -9.580   8.277  1.00  0.00     0.031 A 
ATOM     44  C   UNL     1      -3.306 -10.027   9.359  1.00  0.00     0.074 A 
ATOM     45  C   UNL     1      -1.216 -10.255   8.052  1.00  0.00     0.049 A 
ATOM     46  N   UNL     1      -3.201 -11.023  10.200  1.00  0.00    -0.248 NA
ATOM     47  C   UNL     1      -4.543  -9.244   9.507  1.00  0.00     0.031 C 
ATOM     48  C   UNL     1      -0.249  -9.947   7.000  1.00  0.00     0.029 A 
ATOM     49  N   UNL     1      -0.688 -11.352   8.685  1.00  0.00    -0.354 N 
ATOM     50  C   UNL     1      -4.359 -10.990  10.972  1.00  0.00     0.074 A 
ATOM     51  C   UNL     1      -5.124  -9.844  10.533  1.00  0.00     0.031 C 
ATOM     52  C   UNL     1       0.751 -10.843   7.053  1.00  0.00     0.029 A 
ATOM     53  C   UNL     1       0.514 -11.767   8.161  1.00  0.00     0.049 A 
ATOM     54  H   UNL     1      -1.129 -11.800   9.442  1.00  0.00     0.167 HD
ATOM     55  C   UNL     1      -4.754 -11.846  11.947  1.00  0.00     0.034 A 
ATOM     56  C   UNL     1       1.331 -12.770   8.541  1.00  0.00     0.034 A 
ATOM     57  C   UNL     1      -3.970 -12.977  12.383  1.00  0.00     0.049 A 
ATOM     58  C   UNL     1       0.910 -13.659   9.688  1.00  0.00     0.074 A 
ATOM     59  C   UNL     1      -4.270 -13.907  13.363  1.00  0.00     0.029 A 
ATOM     60  N   UNL     1      -2.724 -13.326  11.876  1.00  0.00    -0.354 N 
ATOM     61  N   UNL     1      -0.188 -13.620  10.410  1.00  0.00    -0.248 NA
ATOM     62  C   UNL     1       1.832 -14.741  10.057  1.00  0.00     0.031 C 
ATOM     63  C   UNL     1      -3.174 -14.764  13.506  1.00  0.00     0.029 A 
ATOM     64  C   UNL     1      -2.229 -14.435  12.547  1.00  0.00     0.049 A 
ATOM     65  H   UNL     1      -2.261 -12.856  11.146  1.00  0.00     0.167 HD
ATOM     66  C   UNL     1      -0.103 -14.697  11.290  1.00  0.00     0.074 A 
ATOM     67  C   UNL     1       1.142 -15.374  10.993  1.00  0.00     0.031 C 
ATOM     68  C   UNL     1      -0.977 -15.095  12.252  1.00  0.00     0.034 A 
BRANCH  55  69
ATOM     69  C   UNL     1      -6.063 -11.550  12.643  1.00  0.00     0.023 A 
ATOM     70  C   UNL     1      -7.290 -11.551  11.955  1.00  0.00     0.031 A 
ATOM     71  C   UNL     1      -6.079 -11.225  14.011  1.00  0.00     0.131 A 
ATOM     72  C   UNL     1      -8.466 -11.164  12.618  1.00  0.00     0.055 A 
ATOM     73  C   UNL     1      -7.264 -10.927  14.685  1.00  0.00     0.041 A 
ATOM     74  F   UNL     1      -4.937 -11.178  14.716  1.00  0.00    -0.206 F 
ATOM     75  C   UNL     1      -8.466 -10.880  13.986  1.00  0.00     0.022 A 
BRANCH  72  76
ATOM     76  S   UNL     1      -9.966 -10.885  11.636  1.00  0.00     0.124 S 
ATOM     77  O   UNL     1      -9.513  -9.866  10.691  1.00  0.00    -0.237 OA
ATOM     78  O   UNL     1     -10.227 -12.205  11.077  1.00  0.00    -0.237 OA
ATOM     79  O   UNL     1     -10.939 -10.419  12.622  1.00  0.00    -0.744 OA
ENDBRANCH  72  76
ENDBRANCH  55  69
BRANCH  56  80
ATOM     80  C   UNL     1       2.642 -12.980   7.858  1.00  0.00     0.023 A 
ATOM     81  C   UNL     1       2.936 -14.176   7.184  1.00  0.00     0.031 A 
ATOM     82  C   UNL     1       3.651 -12.001   7.928  1.00  0.00     0.131 A 
ATOM     83  C   UNL     1       4.220 -14.384   6.655  1.00  0.00     0.055 A 
ATOM     84  C   UNL     1       4.905 -12.188   7.346  1.00  0.00     0.041 A 
ATOM     85  F   UNL     1       3.429 -10.840   8.566  1.00  0.00    -0.206 F 
ATOM     86  C   UNL     1       5.201 -13.392   6.716  1.00  0.00     0.022 A 
BRANCH  83  87
ATOM     87  S   UNL     1       4.626 -16.016   5.972  1.00  0.00     0.124 S 
ATOM     88  O   UNL     1       4.374 -16.886   7.114  1.00  0.00    -0.237 OA
ATOM     89  O   UNL     1       3.684 -16.122   4.863  1.00  0.00    -0.237 OA
ATOM     90  O   UNL     1       6.029 -15.882   5.585  1.00  0.00    -0.744 OA
ENDBRANCH  83  87
ENDBRANCH  56  80
BRANCH  68  91
ATOM     91  C   UNL     1      -0.634 -16.357  13.014  1.00  0.00     0.023 A 
ATOM     92  C   UNL     1       0.517 -16.454  13.816  1.00  0.00     0.031 A 
ATOM     93  C   UNL     1      -1.453 -17.496  12.901  1.00  0.00     0.131 A 
ATOM     94  C   UNL     1       0.863 -17.683  14.399  1.00  0.00     0.055 A 
ATOM     95  C   UNL     1      -1.147 -18.692  13.551  1.00  0.00     0.041 A 
ATOM     96  F   UNL     1      -2.565 -17.468  12.148  1.00  0.00    -0.206 F 
ATOM     97  C   UNL     1       0.029 -18.797  14.287  1.00  0.00     0.022 A 
BRANCH  94  98
ATOM     98  S   UNL     1       2.493 -17.844  15.179  1.00  0.00     0.124 S 
ATOM     99  O   UNL     1       3.386 -17.428  14.102  1.00  0.00    -0.237 OA
ATOM    100  O   UNL     1       2.389 -16.928  16.310  1.00  0.00    -0.237 OA
ATOM    101  O   UNL     1       2.565 -19.261  15.532  1.00  0.00    -0.744 OA
ENDBRANCH  94  98
ENDBRANCH  68  91
ENDBRANCH  42  43
ENDBRANCH  35  37
ENDBRANCH  34  35
ENDBRANCH  33  34
ENDBRANCH  32  33
ENDBRANCH  31  32
ENDBRANCH  30  31
ENDBRANCH  29  30
ENDBRANCH   1  29
TORSDOF 27
