REMARK SMILES Cc1cnn(C2(C(=O)OCCOCCOCCOCCOC(=O)c3ccc(-c4c5nc(c(-c6cc(S(=O)(=O)[O-])ccc6F)c6ccc([nH]6)c(-c6cc(S(=O)(=O)[O-])ccc6F)c6nc(c(-c7cc(S(=O)(=O)[O-])ccc7F)c7ccc4[nH]7)C=C6)C=C5)cc3)CCN(C(=O)c3cc4ccccc4[nH]3)CC2)c1
REMARK SMILES IDX 16 1 15 2 14 3 13 4 12 5 11 6 10 7 9 8 7 9 8 10 6 11 87 12
REMARK SMILES IDX 102 13 88 14 101 15 89 16 90 17 91 18 5 19 1 20 2 21 3 22
REMARK SMILES IDX 103 23 4 24 92 25 93 26 100 27 94 28 99 29 95 31 98 32 96 33
REMARK SMILES IDX 97 34 17 35 18 36 19 37 20 38 21 39 22 40 23 41 24 42 25 43
REMARK SMILES IDX 86 44 26 45 85 46 27 47 28 48 29 49 79 50 30 51 84 52 78 53
REMARK SMILES IDX 80 54 31 55 83 56 77 57 76 58 32 60 64 61 44 62 63 63 45 64
REMARK SMILES IDX 48 65 62 66 81 67 46 68 47 69 61 71 82 72 49 73 33 74 34 75
REMARK SMILES IDX 42 76 35 77 41 78 43 79 40 80 36 81 37 82 38 83 39 84 65 85
REMARK SMILES IDX 66 86 74 87 67 88 73 89 75 90 72 91 68 92 69 93 70 94 71 95
REMARK SMILES IDX 50 96 51 97 59 98 52 99 58 100 60 101 57 102 53 103 54 104
REMARK SMILES IDX 55 105 56 106
REMARK H PARENT 100 30 80 59 48 70
REMARK Flexibility Score: inf
ROOT
ATOM      1  C   UNL     1      -4.081  -7.511   0.768  1.00  0.00     0.188 C 
ENDROOT
BRANCH   1   2
ATOM      2  O   UNL     1      -3.209  -6.572   1.393  1.00  0.00    -0.377 OA
BRANCH   2   3
ATOM      3  C   UNL     1      -2.273  -5.940   0.538  1.00  0.00     0.188 C 
BRANCH   3   4
ATOM      4  C   UNL     1      -0.871  -6.571   0.496  1.00  0.00     0.188 C 
BRANCH   4   5
ATOM      5  O   UNL     1      -0.628  -7.802   1.166  1.00  0.00    -0.376 OA
BRANCH   5   6
ATOM      6  C   UNL     1      -1.131  -7.984   2.483  1.00  0.00     0.202 C 
BRANCH   6   7
ATOM      7  C   UNL     1      -0.895  -6.896   3.543  1.00  0.00     0.261 C 
BRANCH   7   8
ATOM      8  O   UNL     1      -1.410  -5.585   3.223  1.00  0.00    -0.461 OA
BRANCH   8   9
ATOM      9  C   UNL     1      -0.511  -4.563   3.205  1.00  0.00     0.334 C 
ATOM     10  O   UNL     1       0.670  -4.713   3.520  1.00  0.00    -0.249 OA
BRANCH   9  11
ATOM     11  C   UNL     1      -1.123  -3.160   2.904  1.00  0.00     0.163 C 
ATOM     12  C   UNL     1      -2.648  -3.125   2.619  1.00  0.00     0.064 C 
ATOM     13  C   UNL     1      -0.831  -2.450   4.248  1.00  0.00     0.064 C 
ATOM     14  C   UNL     1      -3.300  -1.768   2.856  1.00  0.00     0.123 C 
ATOM     15  C   UNL     1      -1.544  -1.137   4.478  1.00  0.00     0.123 C 
ATOM     16  N   UNL     1      -2.959  -1.223   4.155  1.00  0.00    -0.337 N 
ATOM     17  C   UNL     1      -3.991  -0.775   4.987  1.00  0.00     0.270 C 
ATOM     18  O   UNL     1      -5.157  -1.067   4.810  1.00  0.00    -0.267 OA
BRANCH  11  19
ATOM     19  N   UNL     1      -0.382  -2.567   1.769  1.00  0.00    -0.255 N 
ATOM     20  C   UNL     1       1.123  -0.004  -0.367  1.00  0.00     0.048 C 
ATOM     21  C   UNL     1       0.610  -1.198   0.337  1.00  0.00    -0.013 A 
ATOM     22  C   UNL     1       0.871  -2.549   0.050  1.00  0.00     0.138 A 
ATOM     23  C   UNL     1      -0.255  -1.250   1.410  1.00  0.00     0.113 A 
ATOM     24  N   UNL     1       0.210  -3.373   0.861  1.00  0.00    -0.180 NA
ENDBRANCH  11  19
BRANCH  17  25
ATOM     25  C   UNL     1      -3.575   0.025   6.116  1.00  0.00     0.105 A 
ATOM     26  C   UNL     1      -2.807   1.173   6.162  1.00  0.00     0.042 A 
ATOM     27  N   UNL     1      -3.920  -0.282   7.408  1.00  0.00    -0.351 N 
ATOM     28  C   UNL     1      -2.535   1.460   7.523  1.00  0.00     0.000 A 
ATOM     29  C   UNL     1      -3.224   0.516   8.285  1.00  0.00     0.046 A 
ATOM     30  H   UNL     1      -4.570  -0.974   7.669  1.00  0.00     0.167 HD
ATOM     31  C   UNL     1      -1.745   2.422   8.177  1.00  0.00     0.010 A 
ATOM     32  C   UNL     1      -3.153   0.477   9.680  1.00  0.00     0.026 A 
ATOM     33  C   UNL     1      -1.663   2.397   9.573  1.00  0.00     0.001 A 
ATOM     34  C   UNL     1      -2.354   1.436  10.310  1.00  0.00     0.002 A 
ENDBRANCH  17  25
ENDBRANCH   9  11
ENDBRANCH   8   9
ENDBRANCH   7   8
ENDBRANCH   6   7
ENDBRANCH   5   6
ENDBRANCH   4   5
ENDBRANCH   3   4
ENDBRANCH   2   3
ENDBRANCH   1   2
BRANCH   1  35
ATOM     35  C   UNL     1      -3.496  -8.414  -0.341  1.00  0.00     0.188 C 
BRANCH  35  36
ATOM     36  O   UNL     1      -2.740  -7.731  -1.342  1.00  0.00    -0.376 OA
BRANCH  36  37
ATOM     37  C   UNL     1      -3.341  -7.400  -2.588  1.00  0.00     0.202 C 
BRANCH  37  38
ATOM     38  C   UNL     1      -4.356  -6.254  -2.572  1.00  0.00     0.261 C 
BRANCH  38  39
ATOM     39  O   UNL     1      -5.442  -6.439  -1.680  1.00  0.00    -0.460 OA
BRANCH  39  40
ATOM     40  C   UNL     1      -6.130  -7.589  -1.813  1.00  0.00     0.338 C 
ATOM     41  O   UNL     1      -5.881  -8.520  -2.559  1.00  0.00    -0.246 OA
BRANCH  40  42
ATOM     42  C   UNL     1      -7.311  -7.532  -0.953  1.00  0.00     0.060 A 
ATOM     43  C   UNL     1      -8.172  -8.620  -1.077  1.00  0.00     0.016 A 
ATOM     44  C   UNL     1      -7.705  -6.303  -0.398  1.00  0.00     0.016 A 
ATOM     45  C   UNL     1      -9.511  -8.366  -0.977  1.00  0.00     0.010 A 
ATOM     46  C   UNL     1      -9.047  -6.050  -0.301  1.00  0.00     0.010 A 
ATOM     47  C   UNL     1      -9.916  -7.053  -0.716  1.00  0.00    -0.014 A 
BRANCH  47  48
ATOM     48  C   UNL     1     -11.309  -6.762  -0.921  1.00  0.00     0.031 A 
ATOM     49  C   UNL     1     -12.163  -7.264   0.159  1.00  0.00     0.074 A 
ATOM     50  C   UNL     1     -11.752  -6.086  -1.993  1.00  0.00     0.049 A 
ATOM     51  N   UNL     1     -12.975  -8.263   0.113  1.00  0.00    -0.248 NA
ATOM     52  C   UNL     1     -11.930  -6.721   1.502  1.00  0.00     0.031 C 
ATOM     53  C   UNL     1     -10.972  -5.324  -2.971  1.00  0.00     0.029 A 
ATOM     54  N   UNL     1     -13.036  -5.853  -2.360  1.00  0.00    -0.354 N 
ATOM     55  C   UNL     1     -13.540  -8.323   1.376  1.00  0.00     0.074 A 
ATOM     56  C   UNL     1     -12.704  -7.524   2.229  1.00  0.00     0.031 C 
ATOM     57  C   UNL     1     -11.812  -4.528  -3.670  1.00  0.00     0.029 A 
ATOM     58  C   UNL     1     -13.181  -4.820  -3.272  1.00  0.00     0.049 A 
ATOM     59  H   UNL     1     -13.797  -6.370  -2.010  1.00  0.00     0.167 HD
ATOM     60  C   UNL     1     -14.797  -8.806   1.550  1.00  0.00     0.034 A 
ATOM     61  C   UNL     1     -14.339  -4.183  -3.577  1.00  0.00     0.034 A 
ATOM     62  C   UNL     1     -15.210  -9.610   0.418  1.00  0.00     0.049 A 
ATOM     63  C   UNL     1     -15.454  -5.101  -3.216  1.00  0.00     0.074 A 
ATOM     64  C   UNL     1     -14.698 -10.740  -0.194  1.00  0.00     0.029 A 
ATOM     65  N   UNL     1     -16.088  -9.063  -0.493  1.00  0.00    -0.354 N 
ATOM     66  N   UNL     1     -15.669  -6.241  -3.817  1.00  0.00    -0.248 NA
ATOM     67  C   UNL     1     -16.045  -4.993  -1.888  1.00  0.00     0.031 C 
ATOM     68  C   UNL     1     -14.924 -10.545  -1.588  1.00  0.00     0.029 A 
ATOM     69  C   UNL     1     -15.610  -9.340  -1.751  1.00  0.00     0.049 A 
ATOM     70  H   UNL     1     -16.910  -8.564  -0.280  1.00  0.00     0.167 HD
ATOM     71  C   UNL     1     -16.029  -7.124  -2.808  1.00  0.00     0.074 A 
ATOM     72  C   UNL     1     -16.355  -6.274  -1.667  1.00  0.00     0.031 C 
ATOM     73  C   UNL     1     -15.755  -8.461  -2.900  1.00  0.00     0.034 A 
BRANCH  60  74
ATOM     74  C   UNL     1     -15.769  -8.246   2.561  1.00  0.00     0.023 A 
ATOM     75  C   UNL     1     -17.038  -8.845   2.615  1.00  0.00     0.031 A 
ATOM     76  C   UNL     1     -15.639  -7.019   3.256  1.00  0.00     0.131 A 
ATOM     77  C   UNL     1     -18.118  -8.188   3.225  1.00  0.00     0.055 A 
ATOM     78  C   UNL     1     -16.698  -6.408   3.929  1.00  0.00     0.041 A 
ATOM     79  F   UNL     1     -14.520  -6.287   3.252  1.00  0.00    -0.206 F 
ATOM     80  C   UNL     1     -17.958  -6.974   3.885  1.00  0.00     0.022 A 
BRANCH  77  81
ATOM     81  S   UNL     1     -19.775  -8.861   2.963  1.00  0.00     0.124 S 
ATOM     82  O   UNL     1     -19.811  -8.991   1.510  1.00  0.00    -0.237 OA
ATOM     83  O   UNL     1     -19.714 -10.105   3.722  1.00  0.00    -0.237 OA
ATOM     84  O   UNL     1     -20.648  -7.831   3.519  1.00  0.00    -0.744 OA
ENDBRANCH  77  81
ENDBRANCH  60  74
BRANCH  61  85
ATOM     85  C   UNL     1     -14.481  -2.721  -3.803  1.00  0.00     0.023 A 
ATOM     86  C   UNL     1     -15.583  -2.159  -4.474  1.00  0.00     0.031 A 
ATOM     87  C   UNL     1     -13.599  -1.817  -3.163  1.00  0.00     0.131 A 
ATOM     88  C   UNL     1     -15.755  -0.755  -4.500  1.00  0.00     0.055 A 
ATOM     89  C   UNL     1     -13.761  -0.433  -3.210  1.00  0.00     0.041 A 
ATOM     90  F   UNL     1     -12.586  -2.253  -2.396  1.00  0.00    -0.206 F 
ATOM     91  C   UNL     1     -14.847   0.105  -3.877  1.00  0.00     0.022 A 
BRANCH  88  92
ATOM     92  S   UNL     1     -17.231  -0.030  -5.279  1.00  0.00     0.124 S 
ATOM     93  O   UNL     1     -17.035  -0.357  -6.686  1.00  0.00    -0.237 OA
ATOM     94  O   UNL     1     -18.315  -0.726  -4.595  1.00  0.00    -0.237 OA
ATOM     95  O   UNL     1     -17.122   1.394  -4.957  1.00  0.00    -0.744 OA
ENDBRANCH  88  92
ENDBRANCH  61  85
BRANCH  73  96
ATOM     96  C   UNL     1     -15.339  -9.022  -4.247  1.00  0.00     0.023 A 
ATOM     97  C   UNL     1     -14.219  -8.580  -4.987  1.00  0.00     0.031 A 
ATOM     98  C   UNL     1     -16.038 -10.142  -4.732  1.00  0.00     0.131 A 
ATOM     99  C   UNL     1     -13.847  -9.247  -6.171  1.00  0.00     0.055 A 
ATOM    100  C   UNL     1     -15.655 -10.812  -5.894  1.00  0.00     0.041 A 
ATOM    101  F   UNL     1     -17.092 -10.632  -4.058  1.00  0.00    -0.206 F 
ATOM    102  C   UNL     1     -14.560 -10.362  -6.622  1.00  0.00     0.022 A 
BRANCH  99 103
ATOM    103  S   UNL     1     -12.426  -8.668  -7.152  1.00  0.00     0.124 S 
ATOM    104  O   UNL     1     -12.652  -7.232  -7.269  1.00  0.00    -0.237 OA
ATOM    105  O   UNL     1     -11.289  -9.073  -6.329  1.00  0.00    -0.237 OA
ATOM    106  O   UNL     1     -12.556  -9.408  -8.410  1.00  0.00    -0.744 OA
ENDBRANCH  99 103
ENDBRANCH  73  96
ENDBRANCH  47  48
ENDBRANCH  40  42
ENDBRANCH  39  40
ENDBRANCH  38  39
ENDBRANCH  37  38
ENDBRANCH  36  37
ENDBRANCH  35  36
ENDBRANCH   1  35
TORSDOF 25
