REMARK SMILES Cc1ccccc1OCC(=O)N[C@@H](Cc1c[nH]c2ccccc12)C(=O)OCCOCCOCCOCCOC(=O)c1ccc(-c2c3nc(c(-c4cc(S(=O)(=O)[O-])ccc4F)c4ccc([nH]4)c(-c4cc(S(=O)(=O)[O-])ccc4F)c4nc(c(-c5cc(S(=O)(=O)[O-])ccc5F)c5ccc2[nH]5)C=C4)C=C3)cc1
REMARK SMILES IDX 31 1 30 2 29 3 28 4 27 5 26 6 24 7 25 8 13 9 12 10 10 11
REMARK SMILES IDX 11 12 9 14 8 15 7 16 1 17 2 18 3 19 4 20 6 21 5 22 14 23
REMARK SMILES IDX 15 24 16 25 23 26 17 27 18 28 22 29 19 31 21 32 20 33 32 34
REMARK SMILES IDX 33 35 34 36 35 37 36 38 37 39 38 40 39 41 40 42 41 43 42 44
REMARK SMILES IDX 103 45 43 46 102 47 44 48 45 49 46 50 96 51 47 52 101 53
REMARK SMILES IDX 95 54 97 55 48 56 100 57 94 58 93 59 49 61 81 62 61 63 80 64
REMARK SMILES IDX 62 65 65 66 79 67 98 68 63 69 64 70 78 72 99 73 66 74 50 75
REMARK SMILES IDX 51 76 59 77 52 78 58 79 60 80 57 81 53 82 54 83 55 84 56 85
REMARK SMILES IDX 82 86 83 87 91 88 84 89 90 90 92 91 89 92 85 93 86 94 87 95
REMARK SMILES IDX 88 96 67 97 68 98 76 99 69 100 75 101 77 102 74 103 70 104
REMARK SMILES IDX 71 105 72 106 73 107
REMARK H PARENT 12 13 17 30 97 60 65 71
REMARK Flexibility Score: inf
ROOT
ATOM      1  C   UNL     1       4.534   3.481   0.848  1.00  0.00     0.188 C 
ENDROOT
BRANCH   1   2
ATOM      2  C   UNL     1       3.462   4.507   1.164  1.00  0.00     0.188 C 
BRANCH   2   3
ATOM      3  O   UNL     1       3.992   5.664   1.770  1.00  0.00    -0.376 OA
BRANCH   3   4
ATOM      4  C   UNL     1       3.049   6.662   2.131  1.00  0.00     0.202 C 
BRANCH   4   5
ATOM      5  C   UNL     1       1.609   6.361   2.608  1.00  0.00     0.261 C 
BRANCH   5   6
ATOM      6  O   UNL     1       1.221   5.000   2.838  1.00  0.00    -0.462 OA
BRANCH   6   7
ATOM      7  C   UNL     1       0.268   4.510   2.015  1.00  0.00     0.329 C 
ATOM      8  O   UNL     1      -0.295   5.163   1.139  1.00  0.00    -0.250 OA
BRANCH   7   9
ATOM      9  C   UNL     1      -0.025   3.014   2.209  1.00  0.00     0.196 C 
BRANCH   9  10
ATOM     10  N   UNL     1       1.129   2.132   2.317  1.00  0.00    -0.339 N 
ATOM     11  C   UNL     1       1.791   1.520   1.293  1.00  0.00     0.258 C 
ATOM     12  O   UNL     1       2.539   0.576   1.540  1.00  0.00    -0.271 OA
ATOM     13  H   UNL     1       1.467   1.960   3.225  1.00  0.00     0.164 HD
BRANCH  11  14
ATOM     14  C   UNL     1       1.612   2.055  -0.156  1.00  0.00     0.329 C 
BRANCH  14  15
ATOM     15  O   UNL     1       0.652   1.626  -1.097  1.00  0.00    -0.484 OA
BRANCH  15  16
ATOM     16  C   UNL     1      -0.008   0.503  -0.707  1.00  0.00     0.122 A 
ATOM     17  C   UNL     1       2.038  -1.032  -0.932  1.00  0.00     0.048 C 
ATOM     18  C   UNL     1       0.594  -0.757  -0.611  1.00  0.00    -0.009 A 
ATOM     19  C   UNL     1      -0.199  -1.823  -0.166  1.00  0.00     0.007 A 
ATOM     20  C   UNL     1      -1.551  -1.636   0.139  1.00  0.00     0.001 A 
ATOM     21  C   UNL     1      -1.366   0.686  -0.439  1.00  0.00     0.047 A 
ATOM     22  C   UNL     1      -2.137  -0.382  -0.003  1.00  0.00     0.004 A 
ENDBRANCH  15  16
ENDBRANCH  14  15
ENDBRANCH  11  14
ENDBRANCH   9  10
BRANCH   9  23
ATOM     23  C   UNL     1      -1.127   2.718   3.236  1.00  0.00     0.074 C 
BRANCH  23  24
ATOM     24  C   UNL     1      -0.725   2.225   4.599  1.00  0.00    -0.020 A 
ATOM     25  C   UNL     1      -0.680   2.990   5.742  1.00  0.00     0.087 A 
ATOM     26  C   UNL     1      -0.397   0.886   5.012  1.00  0.00     0.003 A 
ATOM     27  N   UNL     1      -0.392   2.196   6.813  1.00  0.00    -0.361 N 
ATOM     28  C   UNL     1      -0.234   0.897   6.401  1.00  0.00     0.046 A 
ATOM     29  C   UNL     1      -0.227  -0.342   4.338  1.00  0.00     0.010 A 
ATOM     30  H   UNL     1      -0.308   2.508   7.743  1.00  0.00     0.166 HD
ATOM     31  C   UNL     1       0.046  -0.251   7.151  1.00  0.00     0.026 A 
ATOM     32  C   UNL     1       0.084  -1.496   5.071  1.00  0.00     0.001 A 
ATOM     33  C   UNL     1       0.204  -1.452   6.458  1.00  0.00     0.002 A 
ENDBRANCH  23  24
ENDBRANCH   9  23
ENDBRANCH   7   9
ENDBRANCH   6   7
ENDBRANCH   5   6
ENDBRANCH   4   5
ENDBRANCH   3   4
ENDBRANCH   2   3
ENDBRANCH   1   2
BRANCH   1  34
ATOM     34  O   UNL     1       4.790   2.643   1.966  1.00  0.00    -0.377 OA
BRANCH  34  35
ATOM     35  C   UNL     1       5.684   3.188   2.932  1.00  0.00     0.188 C 
BRANCH  35  36
ATOM     36  C   UNL     1       7.103   3.174   2.399  1.00  0.00     0.188 C 
BRANCH  36  37
ATOM     37  O   UNL     1       7.271   4.322   1.554  1.00  0.00    -0.376 OA
BRANCH  37  38
ATOM     38  C   UNL     1       8.170   4.131   0.473  1.00  0.00     0.202 C 
BRANCH  38  39
ATOM     39  C   UNL     1       9.601   3.911   0.957  1.00  0.00     0.261 C 
BRANCH  39  40
ATOM     40  O   UNL     1      10.044   5.100   1.646  1.00  0.00    -0.460 OA
BRANCH  40  41
ATOM     41  C   UNL     1      10.213   4.941   2.989  1.00  0.00     0.338 C 
ATOM     42  O   UNL     1      11.037   4.208   3.498  1.00  0.00    -0.246 OA
BRANCH  41  43
ATOM     43  C   UNL     1       9.191   5.725   3.748  1.00  0.00     0.060 A 
ATOM     44  C   UNL     1       8.998   5.473   5.117  1.00  0.00     0.016 A 
ATOM     45  C   UNL     1       8.270   6.508   3.057  1.00  0.00     0.016 A 
ATOM     46  C   UNL     1       7.816   5.884   5.751  1.00  0.00     0.010 A 
ATOM     47  C   UNL     1       7.060   6.811   3.655  1.00  0.00     0.010 A 
ATOM     48  C   UNL     1       6.803   6.479   4.993  1.00  0.00    -0.014 A 
BRANCH  48  49
ATOM     49  C   UNL     1       5.384   6.559   5.389  1.00  0.00     0.031 A 
ATOM     50  C   UNL     1       4.598   7.824   5.208  1.00  0.00     0.074 A 
ATOM     51  C   UNL     1       4.738   5.374   5.501  1.00  0.00     0.049 A 
ATOM     52  N   UNL     1       3.341   7.973   5.471  1.00  0.00    -0.248 NA
ATOM     53  C   UNL     1       5.189   9.064   4.707  1.00  0.00     0.031 C 
ATOM     54  C   UNL     1       3.334   5.114   5.208  1.00  0.00     0.029 A 
ATOM     55  N   UNL     1       5.201   4.113   5.820  1.00  0.00    -0.354 N 
ATOM     56  C   UNL     1       2.896   9.156   4.902  1.00  0.00     0.074 A 
ATOM     57  C   UNL     1       4.111   9.840   4.541  1.00  0.00     0.031 C 
ATOM     58  C   UNL     1       3.032   3.832   5.450  1.00  0.00     0.029 A 
ATOM     59  C   UNL     1       4.134   3.293   6.194  1.00  0.00     0.049 A 
ATOM     60  H   UNL     1       6.144   3.833   5.789  1.00  0.00     0.167 HD
ATOM     61  C   UNL     1       1.554   9.353   4.699  1.00  0.00     0.034 A 
ATOM     62  C   UNL     1       4.003   2.822   7.467  1.00  0.00     0.034 A 
ATOM     63  C   UNL     1       0.732   8.331   5.394  1.00  0.00     0.049 A 
ATOM     64  C   UNL     1       2.889   3.579   8.214  1.00  0.00     0.074 A 
ATOM     65  C   UNL     1      -0.386   7.581   5.064  1.00  0.00     0.029 A 
ATOM     66  N   UNL     1       1.134   7.851   6.650  1.00  0.00    -0.354 N 
ATOM     67  N   UNL     1       2.324   4.687   7.774  1.00  0.00    -0.248 NA
ATOM     68  C   UNL     1       2.242   3.113   9.438  1.00  0.00     0.031 C 
ATOM     69  C   UNL     1      -0.597   6.625   6.093  1.00  0.00     0.029 A 
ATOM     70  C   UNL     1       0.399   6.758   7.049  1.00  0.00     0.049 A 
ATOM     71  H   UNL     1       1.859   8.250   7.183  1.00  0.00     0.167 HD
ATOM     72  C   UNL     1       1.302   5.084   8.592  1.00  0.00     0.074 A 
ATOM     73  C   UNL     1       1.284   4.045   9.615  1.00  0.00     0.031 C 
ATOM     74  C   UNL     1       0.541   6.213   8.397  1.00  0.00     0.034 A 
BRANCH  61  75
ATOM     75  C   UNL     1       0.923  10.368   3.710  1.00  0.00     0.023 A 
ATOM     76  C   UNL     1      -0.489  10.448   3.582  1.00  0.00     0.031 A 
ATOM     77  C   UNL     1       1.620  11.179   2.784  1.00  0.00     0.131 A 
ATOM     78  C   UNL     1      -1.121  11.219   2.575  1.00  0.00     0.055 A 
ATOM     79  C   UNL     1       0.990  12.010   1.837  1.00  0.00     0.041 A 
ATOM     80  F   UNL     1       2.952  11.186   2.690  1.00  0.00    -0.206 F 
ATOM     81  C   UNL     1      -0.387  12.021   1.714  1.00  0.00     0.022 A 
BRANCH  78  82
ATOM     82  S   UNL     1      -2.925  11.116   2.355  1.00  0.00     0.124 S 
ATOM     83  O   UNL     1      -3.090   9.755   1.855  1.00  0.00    -0.237 OA
ATOM     84  O   UNL     1      -3.423  11.375   3.700  1.00  0.00    -0.237 OA
ATOM     85  O   UNL     1      -3.209  12.169   1.380  1.00  0.00    -0.744 OA
ENDBRANCH  78  82
ENDBRANCH  61  75
BRANCH  62  86
ATOM     86  C   UNL     1       5.288   2.163   7.892  1.00  0.00     0.023 A 
ATOM     87  C   UNL     1       5.636   1.056   7.066  1.00  0.00     0.031 A 
ATOM     88  C   UNL     1       6.346   2.932   8.406  1.00  0.00     0.131 A 
ATOM     89  C   UNL     1       6.931   0.958   6.522  1.00  0.00     0.055 A 
ATOM     90  C   UNL     1       7.655   2.784   7.910  1.00  0.00     0.041 A 
ATOM     91  F   UNL     1       6.101   3.978   9.208  1.00  0.00    -0.206 F 
ATOM     92  C   UNL     1       7.933   1.848   6.910  1.00  0.00     0.022 A 
BRANCH  89  93
ATOM     93  S   UNL     1       7.204  -0.102   5.056  1.00  0.00     0.124 S 
ATOM     94  O   UNL     1       7.588  -1.369   5.667  1.00  0.00    -0.237 OA
ATOM     95  O   UNL     1       5.907  -0.083   4.395  1.00  0.00    -0.237 OA
ATOM     96  O   UNL     1       8.266   0.601   4.335  1.00  0.00    -0.744 OA
ENDBRANCH  89  93
ENDBRANCH  62  86
BRANCH  74  97
ATOM     97  C   UNL     1      -0.237   6.921   9.492  1.00  0.00     0.023 A 
ATOM     98  C   UNL     1      -0.085   6.592  10.839  1.00  0.00     0.031 A 
ATOM     99  C   UNL     1      -1.062   8.049   9.235  1.00  0.00     0.131 A 
ATOM    100  C   UNL     1      -0.810   7.253  11.840  1.00  0.00     0.055 A 
ATOM    101  C   UNL     1      -1.711   8.769  10.241  1.00  0.00     0.041 A 
ATOM    102  F   UNL     1      -1.256   8.533   8.000  1.00  0.00    -0.206 F 
ATOM    103  C   UNL     1      -1.606   8.357  11.557  1.00  0.00     0.022 A 
BRANCH 100 104
ATOM    104  S   UNL     1      -0.738   6.553  13.502  1.00  0.00     0.124 S 
ATOM    105  O   UNL     1      -1.338   5.237  13.289  1.00  0.00    -0.237 OA
ATOM    106  O   UNL     1       0.694   6.554  13.780  1.00  0.00    -0.237 OA
ATOM    107  O   UNL     1      -1.534   7.481  14.300  1.00  0.00    -0.744 OA
ENDBRANCH 100 104
ENDBRANCH  74  97
ENDBRANCH  48  49
ENDBRANCH  41  43
ENDBRANCH  40  41
ENDBRANCH  39  40
ENDBRANCH  38  39
ENDBRANCH  37  38
ENDBRANCH  36  37
ENDBRANCH  35  36
ENDBRANCH  34  35
ENDBRANCH   1  34
TORSDOF 29
