REMARK SMILES C[C@@H]1CC[N@@H+]1[C@@H](CO)C(=O)OCCOCCOCCOCCOC(=O)c1ccc(-c2c3nc(c(-c4cc(S(=O)(=O)[O-])ccc4F)c4ccc([nH]4)c(-c4cc(S(=O)(=O)[O-])ccc4F)c4nc(c(-c5cc(S(=O)(=O)[O-])ccc5F)c5ccc2[nH]5)C=C4)C=C3)cc1
REMARK SMILES IDX 18 1 17 2 16 3 15 4 14 5 13 6 12 7 11 8 9 9 10 10 6 11 5 12
REMARK SMILES IDX 1 13 2 14 3 15 4 16 7 18 8 19 19 21 20 22 21 23 22 24 23 25
REMARK SMILES IDX 24 26 25 27 26 28 27 29 88 30 28 31 87 32 29 33 30 34 31 35
REMARK SMILES IDX 81 36 32 37 86 38 80 39 82 40 33 41 85 42 79 43 78 44 34 46
REMARK SMILES IDX 66 47 46 48 65 49 47 50 50 51 64 52 83 53 48 54 49 55 63 57
REMARK SMILES IDX 84 58 51 59 35 60 36 61 44 62 37 63 43 64 45 65 42 66 38 67
REMARK SMILES IDX 39 68 40 69 41 70 67 71 68 72 76 73 69 74 75 75 77 76 74 77
REMARK SMILES IDX 70 78 71 79 72 80 73 81 52 82 53 83 61 84 54 85 60 86 62 87
REMARK SMILES IDX 59 88 55 89 56 90 57 91 58 92
REMARK H PARENT 5 17 8 20 82 45 50 56
REMARK Flexibility Score: inf
ROOT
ATOM      1  C   UNL     1      -2.420   5.098   3.296  1.00  0.00     0.188 C 
ENDROOT
BRANCH   1   2
ATOM      2  O   UNL     1      -1.327   4.221   3.055  1.00  0.00    -0.377 OA
BRANCH   2   3
ATOM      3  C   UNL     1      -1.565   2.844   3.256  1.00  0.00     0.188 C 
BRANCH   3   4
ATOM      4  C   UNL     1      -1.005   2.298   4.578  1.00  0.00     0.188 C 
BRANCH   4   5
ATOM      5  O   UNL     1      -0.692   3.157   5.666  1.00  0.00    -0.376 OA
BRANCH   5   6
ATOM      6  C   UNL     1       0.013   4.376   5.479  1.00  0.00     0.202 C 
BRANCH   6   7
ATOM      7  C   UNL     1       1.295   4.485   4.637  1.00  0.00     0.261 C 
BRANCH   7   8
ATOM      8  O   UNL     1       1.315   3.807   3.374  1.00  0.00    -0.459 OA
BRANCH   8   9
ATOM      9  C   UNL     1       1.941   2.605   3.352  1.00  0.00     0.367 C 
ATOM     10  O   UNL     1       2.489   2.100   4.330  1.00  0.00    -0.245 OA
BRANCH   9  11
ATOM     11  C   UNL     1       1.980   1.938   1.966  1.00  0.00     0.321 C 
BRANCH  11  12
ATOM     12  N   UNL     1       0.775   2.218   1.152  1.00  0.00    -0.319 N 
ATOM     13  C   UNL     1       1.143   0.054  -0.193  1.00  0.00     0.075 C 
ATOM     14  C   UNL     1       0.583   1.457  -0.109  1.00  0.00     0.187 C 
ATOM     15  C   UNL     1       1.212   2.643  -0.873  1.00  0.00     0.126 C 
ATOM     16  C   UNL     1       0.780   3.469   0.358  1.00  0.00     0.269 C 
ATOM     17  H   UNL     1       0.132   2.084   1.933  1.00  0.00     0.349 HD
ENDBRANCH  11  12
BRANCH  11  18
ATOM     18  C   UNL     1       3.414   2.123   1.441  1.00  0.00     0.233 C 
BRANCH  18  19
ATOM     19  O   UNL     1       3.737   3.438   1.004  1.00  0.00    -0.390 OA
ATOM     20  H   UNL     1       3.175   3.676   0.250  1.00  0.00     0.210 HD
ENDBRANCH  18  19
ENDBRANCH  11  18
ENDBRANCH   9  11
ENDBRANCH   8   9
ENDBRANCH   7   8
ENDBRANCH   6   7
ENDBRANCH   5   6
ENDBRANCH   4   5
ENDBRANCH   3   4
ENDBRANCH   2   3
ENDBRANCH   1   2
BRANCH   1  21
ATOM     21  C   UNL     1      -3.374   4.783   4.472  1.00  0.00     0.188 C 
BRANCH  21  22
ATOM     22  O   UNL     1      -3.843   3.440   4.514  1.00  0.00    -0.376 OA
BRANCH  22  23
ATOM     23  C   UNL     1      -5.117   3.148   3.960  1.00  0.00     0.202 C 
BRANCH  23  24
ATOM     24  C   UNL     1      -5.305   3.320   2.442  1.00  0.00     0.261 C 
BRANCH  24  25
ATOM     25  O   UNL     1      -5.047   4.624   1.901  1.00  0.00    -0.460 OA
BRANCH  25  26
ATOM     26  C   UNL     1      -5.749   5.665   2.398  1.00  0.00     0.338 C 
ATOM     27  O   UNL     1      -6.632   5.614   3.239  1.00  0.00    -0.246 OA
BRANCH  26  28
ATOM     28  C   UNL     1      -5.128   6.907   1.893  1.00  0.00     0.060 A 
ATOM     29  C   UNL     1      -4.625   7.844   2.807  1.00  0.00     0.016 A 
ATOM     30  C   UNL     1      -5.041   7.143   0.519  1.00  0.00     0.016 A 
ATOM     31  C   UNL     1      -4.071   9.041   2.349  1.00  0.00     0.010 A 
ATOM     32  C   UNL     1      -4.509   8.351   0.064  1.00  0.00     0.010 A 
ATOM     33  C   UNL     1      -4.056   9.322   0.977  1.00  0.00    -0.014 A 
BRANCH  33  34
ATOM     34  C   UNL     1      -3.797  10.701   0.493  1.00  0.00     0.031 A 
ATOM     35  C   UNL     1      -4.986  11.562   0.165  1.00  0.00     0.074 A 
ATOM     36  C   UNL     1      -2.549  11.176   0.330  1.00  0.00     0.049 A 
ATOM     37  N   UNL     1      -5.036  12.731  -0.417  1.00  0.00    -0.248 NA
ATOM     38  C   UNL     1      -6.302  11.016   0.536  1.00  0.00     0.031 C 
ATOM     39  C   UNL     1      -1.321  10.466   0.679  1.00  0.00     0.029 A 
ATOM     40  N   UNL     1      -2.113  12.369  -0.193  1.00  0.00    -0.354 N 
ATOM     41  C   UNL     1      -6.387  13.053  -0.499  1.00  0.00     0.074 A 
ATOM     42  C   UNL     1      -7.121  11.941   0.065  1.00  0.00     0.031 C 
ATOM     43  C   UNL     1      -0.267  11.229   0.339  1.00  0.00     0.029 A 
ATOM     44  C   UNL     1      -0.744  12.455  -0.301  1.00  0.00     0.049 A 
ATOM     45  H   UNL     1      -2.722  13.093  -0.465  1.00  0.00     0.167 HD
ATOM     46  C   UNL     1      -6.960  14.175  -0.999  1.00  0.00     0.034 A 
ATOM     47  C   UNL     1       0.028  13.394  -0.888  1.00  0.00     0.034 A 
ATOM     48  C   UNL     1      -6.210  15.265  -1.571  1.00  0.00     0.049 A 
ATOM     49  C   UNL     1      -0.636  14.588  -1.540  1.00  0.00     0.074 A 
ATOM     50  C   UNL     1      -6.685  16.451  -2.103  1.00  0.00     0.029 A 
ATOM     51  N   UNL     1      -4.827  15.299  -1.698  1.00  0.00    -0.354 N 
ATOM     52  N   UNL     1      -1.914  14.879  -1.630  1.00  0.00    -0.248 NA
ATOM     53  C   UNL     1       0.247  15.582  -2.166  1.00  0.00     0.031 C 
ATOM     54  C   UNL     1      -5.601  17.159  -2.630  1.00  0.00     0.029 A 
ATOM     55  C   UNL     1      -4.437  16.468  -2.333  1.00  0.00     0.049 A 
ATOM     56  H   UNL     1      -4.214  14.596  -1.384  1.00  0.00     0.167 HD
ATOM     57  C   UNL     1      -1.982  16.111  -2.279  1.00  0.00     0.074 A 
ATOM     58  C   UNL     1      -0.618  16.506  -2.559  1.00  0.00     0.031 C 
ATOM     59  C   UNL     1      -3.071  16.855  -2.602  1.00  0.00     0.034 A 
BRANCH  46  60
ATOM     60  C   UNL     1      -8.468  14.242  -1.006  1.00  0.00     0.023 A 
ATOM     61  C   UNL     1      -9.219  14.226   0.182  1.00  0.00     0.031 A 
ATOM     62  C   UNL     1      -9.168  14.289  -2.225  1.00  0.00     0.131 A 
ATOM     63  C   UNL     1     -10.620  14.184   0.124  1.00  0.00     0.055 A 
ATOM     64  C   UNL     1     -10.562  14.337  -2.274  1.00  0.00     0.041 A 
ATOM     65  F   UNL     1      -8.507  14.276  -3.394  1.00  0.00    -0.206 F 
ATOM     66  C   UNL     1     -11.297  14.268  -1.095  1.00  0.00     0.022 A 
BRANCH  63  67
ATOM     67  S   UNL     1     -11.541  13.858   1.652  1.00  0.00     0.124 S 
ATOM     68  O   UNL     1     -10.975  12.577   2.070  1.00  0.00    -0.237 OA
ATOM     69  O   UNL     1     -11.197  15.008   2.479  1.00  0.00    -0.237 OA
ATOM     70  O   UNL     1     -12.932  13.800   1.209  1.00  0.00    -0.744 OA
ENDBRANCH  63  67
ENDBRANCH  46  60
BRANCH  47  71
ATOM     71  C   UNL     1       1.511  13.232  -0.942  1.00  0.00     0.023 A 
ATOM     72  C   UNL     1       2.366  14.166  -0.334  1.00  0.00     0.031 A 
ATOM     73  C   UNL     1       2.099  12.174  -1.659  1.00  0.00     0.131 A 
ATOM     74  C   UNL     1       3.756  14.054  -0.498  1.00  0.00     0.055 A 
ATOM     75  C   UNL     1       3.484  12.032  -1.766  1.00  0.00     0.041 A 
ATOM     76  F   UNL     1       1.331  11.257  -2.269  1.00  0.00    -0.206 F 
ATOM     77  C   UNL     1       4.321  12.984  -1.194  1.00  0.00     0.022 A 
BRANCH  74  78
ATOM     78  S   UNL     1       4.813  15.390   0.126  1.00  0.00     0.124 S 
ATOM     79  O   UNL     1       4.285  16.544  -0.593  1.00  0.00    -0.237 OA
ATOM     80  O   UNL     1       4.541  15.347   1.559  1.00  0.00    -0.237 OA
ATOM     81  O   UNL     1       6.157  14.970  -0.265  1.00  0.00    -0.744 OA
ENDBRANCH  74  78
ENDBRANCH  47  71
BRANCH  59  82
ATOM     82  C   UNL     1      -2.836  18.214  -3.219  1.00  0.00     0.023 A 
ATOM     83  C   UNL     1      -2.280  18.374  -4.500  1.00  0.00     0.031 A 
ATOM     84  C   UNL     1      -3.203  19.373  -2.510  1.00  0.00     0.131 A 
ATOM     85  C   UNL     1      -2.067  19.663  -5.013  1.00  0.00     0.055 A 
ATOM     86  C   UNL     1      -3.050  20.649  -3.052  1.00  0.00     0.041 A 
ATOM     87  F   UNL     1      -3.735  19.282  -1.280  1.00  0.00    -0.206 F 
ATOM     88  C   UNL     1      -2.468  20.801  -4.306  1.00  0.00     0.022 A 
BRANCH  85  89
ATOM     89  S   UNL     1      -1.179  19.845  -6.584  1.00  0.00     0.124 S 
ATOM     90  O   UNL     1       0.090  19.185  -6.293  1.00  0.00    -0.237 OA
ATOM     91  O   UNL     1      -2.057  19.153  -7.522  1.00  0.00    -0.237 OA
ATOM     92  O   UNL     1      -1.097  21.293  -6.768  1.00  0.00    -0.744 OA
ENDBRANCH  85  89
ENDBRANCH  59  82
ENDBRANCH  33  34
ENDBRANCH  26  28
ENDBRANCH  25  26
ENDBRANCH  24  25
ENDBRANCH  23  24
ENDBRANCH  22  23
ENDBRANCH  21  22
ENDBRANCH   1  21
TORSDOF 26
