REMARK SMILES Cn1ncc(C(=O)OCCOCCOCCOCCOC(=O)c2ccc(-c3c4nc(c(-c5cc(S(=O)(=O)[O-])ccc5F)c5ccc([nH]5)c(-c5cc(S(=O)(=O)[O-])ccc5F)c5nc(c(-c6cc(S(=O)(=O)[O-])ccc6F)c6ccc3[nH]6)C=C5)C=C4)cc2)c1C(=O)N1CCN(S(C)(=O)=O)CC1
REMARK SMILES IDX 15 1 14 2 13 3 12 4 11 5 10 6 9 7 8 8 6 9 7 10 5 11 1 12
REMARK SMILES IDX 2 13 3 14 86 15 4 16 87 17 88 18 89 19 90 20 98 21 91 22
REMARK SMILES IDX 97 23 92 24 93 25 94 26 95 27 96 28 16 29 17 30 18 31 19 32
REMARK SMILES IDX 20 33 21 34 22 35 23 36 24 37 85 38 25 39 84 40 26 41 27 42
REMARK SMILES IDX 28 43 78 44 29 45 83 46 77 47 79 48 30 49 82 50 76 51 75 52
REMARK SMILES IDX 31 54 63 55 43 56 62 57 44 58 47 59 61 60 80 61 45 62 46 63
REMARK SMILES IDX 60 65 81 66 48 67 32 68 33 69 41 70 34 71 40 72 42 73 39 74
REMARK SMILES IDX 35 75 36 76 37 77 38 78 64 79 65 80 73 81 66 82 72 83 74 84
REMARK SMILES IDX 71 85 67 86 68 87 69 88 70 89 49 90 50 91 58 92 51 93 57 94
REMARK SMILES IDX 59 95 56 96 52 97 53 98 54 99 55 100
REMARK H PARENT 79 53 47 64
REMARK Flexibility Score: inf
ROOT
ATOM      1  C   UNL     1       3.544  -3.552  -3.054  1.00  0.00     0.188 C 
ENDROOT
BRANCH   1   2
ATOM      2  O   UNL     1       2.562  -2.680  -2.507  1.00  0.00    -0.377 OA
BRANCH   2   3
ATOM      3  C   UNL     1       2.919  -1.358  -2.145  1.00  0.00     0.188 C 
BRANCH   3   4
ATOM      4  C   UNL     1       4.226  -1.099  -1.372  1.00  0.00     0.188 C 
BRANCH   4   5
ATOM      5  O   UNL     1       4.989  -2.257  -1.052  1.00  0.00    -0.376 OA
BRANCH   5   6
ATOM      6  C   UNL     1       5.066  -2.592   0.329  1.00  0.00     0.202 C 
BRANCH   6   7
ATOM      7  C   UNL     1       3.824  -3.328   0.838  1.00  0.00     0.261 C 
BRANCH   7   8
ATOM      8  O   UNL     1       2.626  -2.557   0.688  1.00  0.00    -0.460 OA
BRANCH   8   9
ATOM      9  C   UNL     1       2.491  -1.478   1.496  1.00  0.00     0.342 C 
ATOM     10  O   UNL     1       3.308  -1.133   2.344  1.00  0.00    -0.246 OA
BRANCH   9  11
ATOM     11  C   UNL     1       1.377  -0.639   1.103  1.00  0.00     0.111 A 
ATOM     12  C   UNL     1      -1.972   0.510   0.450  1.00  0.00     0.174 C 
ATOM     13  N   UNL     1      -0.567   0.203   0.566  1.00  0.00    -0.262 N 
ATOM     14  N   UNL     1       0.270   1.264   0.558  1.00  0.00    -0.180 NA
ATOM     15  C   UNL     1       0.057  -1.002   0.809  1.00  0.00     0.140 A 
ATOM     16  C   UNL     1       1.432   0.756   0.951  1.00  0.00     0.151 A 
BRANCH  15  17
ATOM     17  C   UNL     1      -0.493  -2.339   0.972  1.00  0.00     0.273 C 
ATOM     18  O   UNL     1       0.158  -3.218   1.539  1.00  0.00    -0.267 OA
ATOM     19  N   UNL     1      -1.824  -2.600   0.667  1.00  0.00    -0.335 N 
ATOM     20  C   UNL     1      -2.470  -3.615   1.497  1.00  0.00     0.136 C 
ATOM     21  C   UNL     1      -2.414  -2.471  -0.669  1.00  0.00     0.136 C 
ATOM     22  C   UNL     1      -3.952  -3.308   1.668  1.00  0.00     0.123 C 
ATOM     23  C   UNL     1      -3.941  -2.243  -0.609  1.00  0.00     0.123 C 
ATOM     24  N   UNL     1      -4.625  -3.144   0.357  1.00  0.00    -0.199 NA
BRANCH  24  25
ATOM     25  S   UNL     1      -5.680  -4.331  -0.185  1.00  0.00     0.211 S 
ATOM     26  C   UNL     1      -4.579  -5.557  -0.858  1.00  0.00     0.176 C 
ATOM     27  O   UNL     1      -6.340  -4.898   0.971  1.00  0.00    -0.213 OA
ATOM     28  O   UNL     1      -6.444  -3.765  -1.276  1.00  0.00    -0.213 OA
ENDBRANCH  24  25
ENDBRANCH  15  17
ENDBRANCH   9  11
ENDBRANCH   8   9
ENDBRANCH   7   8
ENDBRANCH   6   7
ENDBRANCH   5   6
ENDBRANCH   4   5
ENDBRANCH   3   4
ENDBRANCH   2   3
ENDBRANCH   1   2
BRANCH   1  29
ATOM     29  C   UNL     1       4.717  -2.990  -3.882  1.00  0.00     0.188 C 
BRANCH  29  30
ATOM     30  O   UNL     1       4.524  -1.664  -4.367  1.00  0.00    -0.376 OA
BRANCH  30  31
ATOM     31  C   UNL     1       4.284  -1.549  -5.763  1.00  0.00     0.202 C 
BRANCH  31  32
ATOM     32  C   UNL     1       2.858  -1.937  -6.170  1.00  0.00     0.261 C 
BRANCH  32  33
ATOM     33  O   UNL     1       2.542  -3.327  -5.997  1.00  0.00    -0.460 OA
BRANCH  33  34
ATOM     34  C   UNL     1       3.286  -4.210  -6.701  1.00  0.00     0.338 C 
ATOM     35  O   UNL     1       4.168  -3.957  -7.500  1.00  0.00    -0.246 OA
BRANCH  34  36
ATOM     36  C   UNL     1       2.961  -5.560  -6.207  1.00  0.00     0.060 A 
ATOM     37  C   UNL     1       3.988  -6.361  -5.695  1.00  0.00     0.016 A 
ATOM     38  C   UNL     1       1.645  -6.026  -6.253  1.00  0.00     0.016 A 
ATOM     39  C   UNL     1       3.703  -7.653  -5.255  1.00  0.00     0.010 A 
ATOM     40  C   UNL     1       1.365  -7.325  -5.830  1.00  0.00     0.010 A 
ATOM     41  C   UNL     1       2.398  -8.153  -5.358  1.00  0.00    -0.014 A 
BRANCH  41  42
ATOM     42  C   UNL     1       2.144  -9.601  -5.176  1.00  0.00     0.031 A 
ATOM     43  C   UNL     1       2.176 -10.481  -6.395  1.00  0.00     0.074 A 
ATOM     44  C   UNL     1       1.882 -10.120  -3.964  1.00  0.00     0.049 A 
ATOM     45  N   UNL     1       1.932 -11.760  -6.505  1.00  0.00    -0.248 NA
ATOM     46  C   UNL     1       2.525  -9.820  -7.664  1.00  0.00     0.031 C 
ATOM     47  C   UNL     1       1.856  -9.369  -2.710  1.00  0.00     0.029 A 
ATOM     48  N   UNL     1       1.575 -11.405  -3.594  1.00  0.00    -0.354 N 
ATOM     49  C   UNL     1       2.105 -12.061  -7.852  1.00  0.00     0.074 A 
ATOM     50  C   UNL     1       2.433 -10.822  -8.524  1.00  0.00     0.031 C 
ATOM     51  C   UNL     1       1.534 -10.207  -1.708  1.00  0.00     0.029 A 
ATOM     52  C   UNL     1       1.300 -11.543  -2.254  1.00  0.00     0.049 A 
ATOM     53  H   UNL     1       1.554 -12.157  -4.229  1.00  0.00     0.167 HD
ATOM     54  C   UNL     1       2.008 -13.263  -8.470  1.00  0.00     0.034 A 
ATOM     55  C   UNL     1       0.884 -12.622  -1.559  1.00  0.00     0.034 A 
ATOM     56  C   UNL     1       1.650 -14.484  -7.795  1.00  0.00     0.049 A 
ATOM     57  C   UNL     1       0.689 -13.932  -2.287  1.00  0.00     0.074 A 
ATOM     58  C   UNL     1       1.526 -15.757  -8.321  1.00  0.00     0.029 A 
ATOM     59  N   UNL     1       1.340 -14.579  -6.444  1.00  0.00    -0.354 N 
ATOM     60  N   UNL     1       0.875 -14.209  -3.558  1.00  0.00    -0.248 NA
ATOM     61  C   UNL     1       0.233 -15.075  -1.484  1.00  0.00     0.031 C 
ATOM     62  C   UNL     1       1.078 -16.609  -7.304  1.00  0.00     0.029 A 
ATOM     63  C   UNL     1       0.991 -15.882  -6.127  1.00  0.00     0.049 A 
ATOM     64  H   UNL     1       1.364 -13.831  -5.806  1.00  0.00     0.167 HD
ATOM     65  C   UNL     1       0.587 -15.566  -3.697  1.00  0.00     0.074 A 
ATOM     66  C   UNL     1       0.226 -16.050  -2.381  1.00  0.00     0.031 C 
ATOM     67  C   UNL     1       0.622 -16.344  -4.810  1.00  0.00     0.034 A 
BRANCH  54  68
ATOM     68  C   UNL     1       2.243 -13.287  -9.959  1.00  0.00     0.023 A 
ATOM     69  C   UNL     1       3.501 -12.985 -10.511  1.00  0.00     0.031 A 
ATOM     70  C   UNL     1       1.186 -13.571 -10.840  1.00  0.00     0.131 A 
ATOM     71  C   UNL     1       3.652 -12.904 -11.903  1.00  0.00     0.055 A 
ATOM     72  C   UNL     1       1.361 -13.563 -12.225  1.00  0.00     0.041 A 
ATOM     73  F   UNL     1      -0.042 -13.841 -10.370  1.00  0.00    -0.206 F 
ATOM     74  C   UNL     1       2.597 -13.214 -12.764  1.00  0.00     0.022 A 
BRANCH  71  75
ATOM     75  S   UNL     1       5.209 -12.256 -12.570  1.00  0.00     0.124 S 
ATOM     76  O   UNL     1       5.252 -10.922 -11.976  1.00  0.00    -0.237 OA
ATOM     77  O   UNL     1       6.190 -13.211 -12.069  1.00  0.00    -0.237 OA
ATOM     78  O   UNL     1       4.998 -12.279 -14.016  1.00  0.00    -0.744 OA
ENDBRANCH  71  75
ENDBRANCH  54  68
BRANCH  55  79
ATOM     79  C   UNL     1       0.574 -12.515  -0.104  1.00  0.00     0.023 A 
ATOM     80  C   UNL     1       1.310 -13.235   0.850  1.00  0.00     0.031 A 
ATOM     81  C   UNL     1      -0.513 -11.744   0.345  1.00  0.00     0.131 A 
ATOM     82  C   UNL     1       0.920 -13.210   2.198  1.00  0.00     0.055 A 
ATOM     83  C   UNL     1      -0.866 -11.683   1.694  1.00  0.00     0.041 A 
ATOM     84  F   UNL     1      -1.250 -11.037  -0.525  1.00  0.00    -0.206 F 
ATOM     85  C   UNL     1      -0.156 -12.431   2.628  1.00  0.00     0.022 A 
BRANCH  82  86
ATOM     86  S   UNL     1       1.789 -14.285   3.374  1.00  0.00     0.124 S 
ATOM     87  O   UNL     1       1.574 -15.602   2.787  1.00  0.00    -0.237 OA
ATOM     88  O   UNL     1       3.151 -13.766   3.308  1.00  0.00    -0.237 OA
ATOM     89  O   UNL     1       1.092 -14.041   4.636  1.00  0.00    -0.744 OA
ENDBRANCH  82  86
ENDBRANCH  55  79
BRANCH  67  90
ATOM     90  C   UNL     1       0.302 -17.808  -4.635  1.00  0.00     0.023 A 
ATOM     91  C   UNL     1      -0.994 -18.248  -4.312  1.00  0.00     0.031 A 
ATOM     92  C   UNL     1       1.310 -18.774  -4.794  1.00  0.00     0.131 A 
ATOM     93  C   UNL     1      -1.236 -19.616  -4.111  1.00  0.00     0.055 A 
ATOM     94  C   UNL     1       1.052 -20.137  -4.646  1.00  0.00     0.041 A 
ATOM     95  F   UNL     1       2.565 -18.408  -5.103  1.00  0.00    -0.206 F 
ATOM     96  C   UNL     1      -0.225 -20.564  -4.291  1.00  0.00     0.022 A 
BRANCH  93  97
ATOM     97  S   UNL     1      -2.875 -20.136  -3.535  1.00  0.00     0.124 S 
ATOM     98  O   UNL     1      -2.997 -19.413  -2.273  1.00  0.00    -0.237 OA
ATOM     99  O   UNL     1      -3.744 -19.683  -4.615  1.00  0.00    -0.237 OA
ATOM    100  O   UNL     1      -2.750 -21.587  -3.409  1.00  0.00    -0.744 OA
ENDBRANCH  93  97
ENDBRANCH  67  90
ENDBRANCH  41  42
ENDBRANCH  34  36
ENDBRANCH  33  34
ENDBRANCH  32  33
ENDBRANCH  31  32
ENDBRANCH  30  31
ENDBRANCH  29  30
ENDBRANCH   1  29
TORSDOF 25
