REMARK SMILES Cn1cc(C[C@@H](NC(=O)OCC2c3ccccc3-c3ccccc32)C(=O)OCCOCCOCCOCCOC(=O)c2ccc(-c3c4nc(c(-c5cc(S(=O)(=O)[O-])ccc5F)c5ccc([nH]5)c(-c5cc(S(=O)(=O)[O-])ccc5F)c5nc(c(-c6cc(S(=O)(=O)[O-])ccc6F)c6ccc3[nH]6)C=C5)C=C4)cc2)c2ccccc21
REMARK SMILES IDX 32 1 31 2 30 3 29 4 28 5 27 6 25 7 26 8 6 9 5 10 4 11 1 12
REMARK SMILES IDX 2 13 3 14 110 15 105 16 109 17 106 18 108 19 107 20 7 21
REMARK SMILES IDX 8 22 9 24 10 25 11 26 12 27 13 28 24 29 14 30 18 31 19 32
REMARK SMILES IDX 23 33 15 34 17 35 20 36 22 37 16 38 21 39 33 40 34 41 35 42
REMARK SMILES IDX 36 43 37 44 38 45 39 46 40 47 41 48 42 49 43 50 104 51 44 52
REMARK SMILES IDX 103 53 45 54 46 55 47 56 97 57 48 58 102 59 96 60 98 61
REMARK SMILES IDX 49 62 101 63 95 64 94 65 50 67 82 68 62 69 81 70 63 71 66 72
REMARK SMILES IDX 80 73 99 74 64 75 65 76 79 78 100 79 67 80 51 81 52 82 60 83
REMARK SMILES IDX 53 84 59 85 61 86 58 87 54 88 55 89 56 90 57 91 83 92 84 93
REMARK SMILES IDX 92 94 85 95 91 96 93 97 90 98 86 99 87 100 88 101 89 102
REMARK SMILES IDX 68 103 69 104 77 105 70 106 76 107 78 108 75 109 71 110
REMARK SMILES IDX 72 111 73 112 74 113
REMARK H PARENT 7 23 98 66 66 77
REMARK Flexibility Score: inf
ROOT
ATOM      1  C   UNL     1       2.640  -5.860   0.816  1.00  0.00     0.188 C 
ENDROOT
BRANCH   1   2
ATOM      2  C   UNL     1       2.434  -6.753   2.052  1.00  0.00     0.188 C 
BRANCH   2   3
ATOM      3  O   UNL     1       1.926  -8.071   1.905  1.00  0.00    -0.376 OA
BRANCH   3   4
ATOM      4  C   UNL     1       0.673  -8.291   1.264  1.00  0.00     0.202 C 
BRANCH   4   5
ATOM      5  C   UNL     1      -0.502  -7.344   1.511  1.00  0.00     0.261 C 
BRANCH   5   6
ATOM      6  O   UNL     1      -0.330  -6.020   0.975  1.00  0.00    -0.462 OA
BRANCH   6   7
ATOM      7  C   UNL     1      -0.369  -5.003   1.875  1.00  0.00     0.329 C 
ATOM      8  O   UNL     1      -0.326  -5.150   3.095  1.00  0.00    -0.250 OA
BRANCH   7   9
ATOM      9  C   UNL     1      -0.647  -3.644   1.230  1.00  0.00     0.200 C 
BRANCH   9  10
ATOM     10  C   UNL     1       0.021  -3.278  -0.115  1.00  0.00     0.075 C 
BRANCH  10  11
ATOM     11  C   UNL     1       0.282  -1.777  -0.194  1.00  0.00    -0.020 A 
ATOM     12  C   UNL     1       2.335   1.216   0.059  1.00  0.00     0.149 C 
ATOM     13  N   UNL     1       1.298   0.211  -0.033  1.00  0.00    -0.350 N 
ATOM     14  C   UNL     1       1.505  -1.145  -0.037  1.00  0.00     0.090 A 
ATOM     15  C   UNL     1      -0.048   0.488  -0.126  1.00  0.00     0.048 A 
ATOM     16  C   UNL     1      -0.693  -0.732  -0.347  1.00  0.00     0.003 A 
ATOM     17  C   UNL     1      -0.749   1.704  -0.046  1.00  0.00     0.027 A 
ATOM     18  C   UNL     1      -2.082  -0.712  -0.594  1.00  0.00     0.010 A 
ATOM     19  C   UNL     1      -2.136   1.676  -0.208  1.00  0.00     0.002 A 
ATOM     20  C   UNL     1      -2.794   0.487  -0.497  1.00  0.00     0.001 A 
ENDBRANCH  10  11
ENDBRANCH   9  10
BRANCH   9  21
ATOM     21  N   UNL     1      -2.072  -3.325   1.235  1.00  0.00    -0.308 N 
ATOM     22  C   UNL     1      -3.086  -4.107   0.770  1.00  0.00     0.407 C 
ATOM     23  H   UNL     1      -2.327  -2.454   1.616  1.00  0.00     0.168 HD
ATOM     24  O   UNL     1      -4.106  -3.612   0.310  1.00  0.00    -0.225 OA
BRANCH  22  25
ATOM     25  O   UNL     1      -2.910  -5.421   1.046  1.00  0.00    -0.449 OA
BRANCH  25  26
ATOM     26  C   UNL     1      -4.109  -6.205   1.202  1.00  0.00     0.248 C 
BRANCH  26  27
ATOM     27  C   UNL     1      -4.581  -6.286   2.675  1.00  0.00     0.088 C 
ATOM     28  C   UNL     1      -3.836  -7.313   3.534  1.00  0.00    -0.029 A 
ATOM     29  C   UNL     1      -4.377  -5.009   3.491  1.00  0.00    -0.029 A 
ATOM     30  C   UNL     1      -3.768  -8.690   3.380  1.00  0.00     0.005 A 
ATOM     31  C   UNL     1      -3.270  -6.683   4.665  1.00  0.00    -0.014 A 
ATOM     32  C   UNL     1      -3.539  -5.264   4.597  1.00  0.00    -0.014 A 
ATOM     33  C   UNL     1      -4.843  -3.730   3.234  1.00  0.00     0.005 A 
ATOM     34  C   UNL     1      -3.139  -9.439   4.380  1.00  0.00     0.000 A 
ATOM     35  C   UNL     1      -2.645  -7.426   5.655  1.00  0.00     0.009 A 
ATOM     36  C   UNL     1      -3.090  -4.226   5.397  1.00  0.00     0.009 A 
ATOM     37  C   UNL     1      -4.369  -2.679   4.021  1.00  0.00     0.000 A 
ATOM     38  C   UNL     1      -2.588  -8.814   5.511  1.00  0.00     0.001 A 
ATOM     39  C   UNL     1      -3.490  -2.924   5.088  1.00  0.00     0.001 A 
ENDBRANCH  26  27
ENDBRANCH  25  26
ENDBRANCH  22  25
ENDBRANCH   9  21
ENDBRANCH   7   9
ENDBRANCH   6   7
ENDBRANCH   5   6
ENDBRANCH   4   5
ENDBRANCH   3   4
ENDBRANCH   2   3
ENDBRANCH   1   2
BRANCH   1  40
ATOM     40  O   UNL     1       1.904  -6.242  -0.329  1.00  0.00    -0.377 OA
BRANCH  40  41
ATOM     41  C   UNL     1       2.517  -7.117  -1.272  1.00  0.00     0.188 C 
BRANCH  41  42
ATOM     42  C   UNL     1       3.603  -8.094  -0.789  1.00  0.00     0.188 C 
BRANCH  42  43
ATOM     43  O   UNL     1       4.675  -7.458  -0.099  1.00  0.00    -0.376 OA
BRANCH  43  44
ATOM     44  C   UNL     1       5.830  -7.118  -0.857  1.00  0.00     0.202 C 
BRANCH  44  45
ATOM     45  C   UNL     1       5.639  -6.041  -1.937  1.00  0.00     0.261 C 
BRANCH  45  46
ATOM     46  O   UNL     1       4.840  -6.409  -3.076  1.00  0.00    -0.460 OA
BRANCH  46  47
ATOM     47  C   UNL     1       5.126  -7.560  -3.723  1.00  0.00     0.338 C 
ATOM     48  O   UNL     1       6.063  -8.305  -3.519  1.00  0.00    -0.246 OA
BRANCH  47  49
ATOM     49  C   UNL     1       3.986  -7.865  -4.611  1.00  0.00     0.060 A 
ATOM     50  C   UNL     1       3.308  -9.081  -4.456  1.00  0.00     0.016 A 
ATOM     51  C   UNL     1       3.612  -6.962  -5.608  1.00  0.00     0.016 A 
ATOM     52  C   UNL     1       2.278  -9.419  -5.335  1.00  0.00     0.010 A 
ATOM     53  C   UNL     1       2.595  -7.311  -6.498  1.00  0.00     0.010 A 
ATOM     54  C   UNL     1       1.951  -8.556  -6.389  1.00  0.00    -0.014 A 
BRANCH  54  55
ATOM     55  C   UNL     1       1.114  -9.036  -7.515  1.00  0.00     0.031 A 
ATOM     56  C   UNL     1       1.818  -9.577  -8.730  1.00  0.00     0.074 A 
ATOM     57  C   UNL     1      -0.228  -8.981  -7.472  1.00  0.00     0.049 A 
ATOM     58  N   UNL     1       1.328  -9.939  -9.886  1.00  0.00    -0.248 NA
ATOM     59  C   UNL     1       3.280  -9.716  -8.623  1.00  0.00     0.031 C 
ATOM     60  C   UNL     1      -1.020  -8.531  -6.329  1.00  0.00     0.029 A 
ATOM     61  N   UNL     1      -1.162  -9.292  -8.428  1.00  0.00    -0.354 N 
ATOM     62  C   UNL     1       2.420 -10.343 -10.647  1.00  0.00     0.074 A 
ATOM     63  C   UNL     1       3.600 -10.148  -9.832  1.00  0.00     0.031 C 
ATOM     64  C   UNL     1      -2.323  -8.576  -6.659  1.00  0.00     0.029 A 
ATOM     65  C   UNL     1      -2.454  -9.013  -8.049  1.00  0.00     0.049 A 
ATOM     66  H   UNL     1      -0.929  -9.679  -9.303  1.00  0.00     0.167 HD
ATOM     67  C   UNL     1       2.436 -10.834 -11.910  1.00  0.00     0.034 A 
ATOM     68  C   UNL     1      -3.601  -9.070  -8.757  1.00  0.00     0.034 A 
ATOM     69  C   UNL     1       1.253 -11.000 -12.716  1.00  0.00     0.049 A 
ATOM     70  C   UNL     1      -3.549  -9.518 -10.201  1.00  0.00     0.074 A 
ATOM     71  C   UNL     1       1.150 -11.486 -14.007  1.00  0.00     0.029 A 
ATOM     72  N   UNL     1      -0.034 -10.669 -12.312  1.00  0.00    -0.354 N 
ATOM     73  N   UNL     1      -2.512  -9.894 -10.915  1.00  0.00    -0.248 NA
ATOM     74  C   UNL     1      -4.823  -9.552 -10.933  1.00  0.00     0.031 C 
ATOM     75  C   UNL     1      -0.186 -11.382 -14.408  1.00  0.00     0.029 A 
ATOM     76  C   UNL     1      -0.932 -10.909 -13.340  1.00  0.00     0.049 A 
ATOM     77  H   UNL     1      -0.274 -10.316 -11.425  1.00  0.00     0.167 HD
ATOM     78  C   UNL     1      -3.016 -10.243 -12.166  1.00  0.00     0.074 A 
ATOM     79  C   UNL     1      -4.449 -10.038 -12.107  1.00  0.00     0.031 C 
ATOM     80  C   UNL     1      -2.358 -10.698 -13.264  1.00  0.00     0.034 A 
BRANCH  67  81
ATOM     81  C   UNL     1       3.783 -11.165 -12.505  1.00  0.00     0.023 A 
ATOM     82  C   UNL     1       4.598 -12.179 -11.973  1.00  0.00     0.031 A 
ATOM     83  C   UNL     1       4.276 -10.427 -13.595  1.00  0.00     0.131 A 
ATOM     84  C   UNL     1       5.889 -12.379 -12.485  1.00  0.00     0.055 A 
ATOM     85  C   UNL     1       5.530 -10.685 -14.152  1.00  0.00     0.041 A 
ATOM     86  F   UNL     1       3.554  -9.428 -14.127  1.00  0.00    -0.206 F 
ATOM     87  C   UNL     1       6.351 -11.656 -13.587  1.00  0.00     0.022 A 
BRANCH  84  88
ATOM     88  S   UNL     1       7.010 -13.496 -11.598  1.00  0.00     0.124 S 
ATOM     89  O   UNL     1       7.062 -12.874 -10.277  1.00  0.00    -0.237 OA
ATOM     90  O   UNL     1       6.310 -14.773 -11.675  1.00  0.00    -0.237 OA
ATOM     91  O   UNL     1       8.251 -13.417 -12.365  1.00  0.00    -0.744 OA
ENDBRANCH  84  88
ENDBRANCH  67  81
BRANCH  68  92
ATOM     92  C   UNL     1      -4.895  -8.644  -8.146  1.00  0.00     0.023 A 
ATOM     93  C   UNL     1      -5.958  -9.548  -7.993  1.00  0.00     0.031 A 
ATOM     94  C   UNL     1      -5.110  -7.306  -7.768  1.00  0.00     0.131 A 
ATOM     95  C   UNL     1      -7.201  -9.095  -7.524  1.00  0.00     0.055 A 
ATOM     96  C   UNL     1      -6.331  -6.872  -7.249  1.00  0.00     0.041 A 
ATOM     97  F   UNL     1      -4.130  -6.398  -7.898  1.00  0.00    -0.206 F 
ATOM     98  C   UNL     1      -7.391  -7.766  -7.139  1.00  0.00     0.022 A 
BRANCH  95  99
ATOM     99  S   UNL     1      -8.600 -10.250  -7.514  1.00  0.00     0.124 S 
ATOM    100  O   UNL     1      -8.674 -10.639  -8.918  1.00  0.00    -0.237 OA
ATOM    101  O   UNL     1      -8.137 -11.277  -6.587  1.00  0.00    -0.237 OA
ATOM    102  O   UNL     1      -9.712  -9.434  -7.032  1.00  0.00    -0.744 OA
ENDBRANCH  95  99
ENDBRANCH  68  92
BRANCH  80 103
ATOM    103  C   UNL     1      -3.191 -11.066 -14.468  1.00  0.00     0.023 A 
ATOM    104  C   UNL     1      -3.874 -10.100 -15.226  1.00  0.00     0.031 A 
ATOM    105  C   UNL     1      -3.286 -12.411 -14.870  1.00  0.00     0.131 A 
ATOM    106  C   UNL     1      -4.659 -10.497 -16.319  1.00  0.00     0.055 A 
ATOM    107  C   UNL     1      -4.021 -12.793 -15.992  1.00  0.00     0.041 A 
ATOM    108  F   UNL     1      -2.654 -13.376 -14.183  1.00  0.00    -0.206 F 
ATOM    109  C   UNL     1      -4.722 -11.835 -16.718  1.00  0.00     0.022 A 
BRANCH 106 110
ATOM    110  S   UNL     1      -5.661  -9.250 -17.175  1.00  0.00     0.124 S 
ATOM    111  O   UNL     1      -6.517  -8.758 -16.101  1.00  0.00    -0.237 OA
ATOM    112  O   UNL     1      -4.650  -8.317 -17.662  1.00  0.00    -0.237 OA
ATOM    113  O   UNL     1      -6.347 -10.015 -18.215  1.00  0.00    -0.744 OA
ENDBRANCH 106 110
ENDBRANCH  80 103
ENDBRANCH  54  55
ENDBRANCH  47  49
ENDBRANCH  46  47
ENDBRANCH  45  46
ENDBRANCH  44  45
ENDBRANCH  43  44
ENDBRANCH  42  43
ENDBRANCH  41  42
ENDBRANCH  40  41
ENDBRANCH   1  40
TORSDOF 29
