REMARK SMILES C[C@@H]1[C@@H](C(=O)OCCOCCOCCOCCOC(=O)c2ccc(-c3c4nc(c(-c5cc(S(=O)(=O)[O-])ccc5F)c5ccc([nH]5)c(-c5cc(S(=O)(=O)[O-])ccc5F)c5nc(c(-c6cc(S(=O)(=O)[O-])ccc6F)c6ccc3[nH]6)C=C5)C=C4)cc2)CCN1C(=O)N1CCC[C@H]2CCC[C@@H]21
REMARK SMILES IDX 13 1 12 2 11 3 10 4 9 5 8 6 7 7 6 8 4 9 5 10 3 11 1 12 2 13
REMARK SMILES IDX 86 14 84 15 85 16 87 17 88 18 89 19 90 20 97 21 91 22 93 23
REMARK SMILES IDX 96 24 92 25 94 26 95 27 14 28 15 29 16 30 17 31 18 32 19 33
REMARK SMILES IDX 20 34 21 35 22 36 83 37 23 38 82 39 24 40 25 41 26 42 76 43
REMARK SMILES IDX 27 44 81 45 75 46 77 47 28 48 80 49 74 50 73 51 29 53 61 54
REMARK SMILES IDX 41 55 60 56 42 57 45 58 59 59 78 60 43 61 44 62 58 64 79 65
REMARK SMILES IDX 46 66 30 67 31 68 39 69 32 70 38 71 40 72 37 73 33 74 34 75
REMARK SMILES IDX 35 76 36 77 62 78 63 79 71 80 64 81 70 82 72 83 69 84 65 85
REMARK SMILES IDX 66 86 67 87 68 88 47 89 48 90 56 91 49 92 55 93 57 94 54 95
REMARK SMILES IDX 50 96 51 97 52 98 53 99
REMARK H PARENT 77 52 45 63
REMARK Flexibility Score: inf
ROOT
ATOM      1  C   UNL     1      -1.234   4.903  -3.389  1.00  0.00     0.188 C 
ENDROOT
BRANCH   1   2
ATOM      2  O   UNL     1      -1.130   3.745  -2.570  1.00  0.00    -0.377 OA
BRANCH   2   3
ATOM      3  C   UNL     1       0.180   3.319  -2.269  1.00  0.00     0.188 C 
BRANCH   3   4
ATOM      4  C   UNL     1       0.661   2.150  -3.146  1.00  0.00     0.188 C 
BRANCH   4   5
ATOM      5  O   UNL     1      -0.005   1.769  -4.341  1.00  0.00    -0.376 OA
BRANCH   5   6
ATOM      6  C   UNL     1      -1.417   1.722  -4.494  1.00  0.00     0.202 C 
BRANCH   6   7
ATOM      7  C   UNL     1      -2.405   1.198  -3.437  1.00  0.00     0.261 C 
BRANCH   7   8
ATOM      8  O   UNL     1      -1.973   1.236  -2.082  1.00  0.00    -0.463 OA
BRANCH   8   9
ATOM      9  C   UNL     1      -1.264   0.149  -1.700  1.00  0.00     0.311 C 
ATOM     10  O   UNL     1      -1.072  -0.833  -2.400  1.00  0.00    -0.252 OA
BRANCH   9  11
ATOM     11  C   UNL     1      -0.667   0.387  -0.328  1.00  0.00     0.123 C 
ATOM     12  C   UNL     1       1.546   0.179   0.843  1.00  0.00     0.032 C 
ATOM     13  C   UNL     1       0.585  -0.476  -0.155  1.00  0.00     0.098 C 
ATOM     14  N   UNL     1       0.030  -1.756   0.307  1.00  0.00    -0.321 N 
ATOM     15  C   UNL     1      -1.585  -0.073   0.788  1.00  0.00     0.039 C 
ATOM     16  C   UNL     1      -1.317  -1.569   0.843  1.00  0.00     0.122 C 
BRANCH  14  17
ATOM     17  C   UNL     1       0.322  -2.989  -0.277  1.00  0.00     0.320 C 
ATOM     18  O   UNL     1      -0.451  -3.944  -0.227  1.00  0.00    -0.248 OA
BRANCH  17  19
ATOM     19  N   UNL     1       1.495  -3.035  -0.998  1.00  0.00    -0.321 N 
ATOM     20  C   UNL     1       2.780  -2.893  -0.327  1.00  0.00     0.121 C 
ATOM     21  C   UNL     1       1.585  -3.700  -2.287  1.00  0.00     0.090 C 
ATOM     22  C   UNL     1       3.783  -2.120  -1.190  1.00  0.00     0.022 C 
ATOM     23  C   UNL     1       2.449  -2.814  -3.193  1.00  0.00     0.012 C 
ATOM     24  C   UNL     1       0.340  -3.897  -3.147  1.00  0.00     0.025 C 
ATOM     25  C   UNL     1       3.857  -2.672  -2.623  1.00  0.00     0.007 C 
ATOM     26  C   UNL     1       2.322  -3.478  -4.552  1.00  0.00     0.006 C 
ATOM     27  C   UNL     1       0.875  -3.988  -4.585  1.00  0.00     0.002 C 
ENDBRANCH  17  19
ENDBRANCH  14  17
ENDBRANCH   9  11
ENDBRANCH   8   9
ENDBRANCH   7   8
ENDBRANCH   6   7
ENDBRANCH   5   6
ENDBRANCH   4   5
ENDBRANCH   3   4
ENDBRANCH   2   3
ENDBRANCH   1   2
BRANCH   1  28
ATOM     28  C   UNL     1      -0.267   5.039  -4.588  1.00  0.00     0.188 C 
BRANCH  28  29
ATOM     29  O   UNL     1       1.103   4.826  -4.260  1.00  0.00    -0.376 OA
BRANCH  29  30
ATOM     30  C   UNL     1       1.944   5.963  -4.142  1.00  0.00     0.202 C 
BRANCH  30  31
ATOM     31  C   UNL     1       1.716   6.858  -2.913  1.00  0.00     0.261 C 
BRANCH  31  32
ATOM     32  O   UNL     1       0.397   7.406  -2.770  1.00  0.00    -0.460 OA
BRANCH  32  33
ATOM     33  C   UNL     1      -0.045   8.208  -3.768  1.00  0.00     0.338 C 
ATOM     34  O   UNL     1       0.577   8.554  -4.749  1.00  0.00    -0.246 OA
BRANCH  33  35
ATOM     35  C   UNL     1      -1.498   8.417  -3.566  1.00  0.00     0.060 A 
ATOM     36  C   UNL     1      -2.380   8.045  -4.588  1.00  0.00     0.016 A 
ATOM     37  C   UNL     1      -1.983   8.967  -2.377  1.00  0.00     0.016 A 
ATOM     38  C   UNL     1      -3.751   8.260  -4.441  1.00  0.00     0.010 A 
ATOM     39  C   UNL     1      -3.354   9.204  -2.241  1.00  0.00     0.010 A 
ATOM     40  C   UNL     1      -4.239   8.885  -3.287  1.00  0.00    -0.014 A 
BRANCH  40  41
ATOM     41  C   UNL     1      -5.630   9.405  -3.267  1.00  0.00     0.031 A 
ATOM     42  C   UNL     1      -5.845  10.861  -3.581  1.00  0.00     0.074 A 
ATOM     43  C   UNL     1      -6.679   8.604  -3.008  1.00  0.00     0.049 A 
ATOM     44  N   UNL     1      -6.947  11.563  -3.571  1.00  0.00    -0.248 NA
ATOM     45  C   UNL     1      -4.644  11.628  -3.952  1.00  0.00     0.031 C 
ATOM     46  C   UNL     1      -6.603   7.168  -2.748  1.00  0.00     0.029 A 
ATOM     47  N   UNL     1      -8.019   8.893  -2.916  1.00  0.00    -0.354 N 
ATOM     48  C   UNL     1      -6.575  12.855  -3.928  1.00  0.00     0.074 A 
ATOM     49  C   UNL     1      -5.139  12.846  -4.107  1.00  0.00     0.031 C 
ATOM     50  C   UNL     1      -7.843   6.702  -2.516  1.00  0.00     0.029 A 
ATOM     51  C   UNL     1      -8.795   7.812  -2.567  1.00  0.00     0.049 A 
ATOM     52  H   UNL     1      -8.389   9.789  -3.085  1.00  0.00     0.167 HD
ATOM     53  C   UNL     1      -7.360  13.947  -4.100  1.00  0.00     0.034 A 
ATOM     54  C   UNL     1     -10.114   7.737  -2.292  1.00  0.00     0.034 A 
ATOM     55  C   UNL     1      -8.788  13.942  -3.902  1.00  0.00     0.049 A 
ATOM     56  C   UNL     1     -10.955   8.991  -2.386  1.00  0.00     0.074 A 
ATOM     57  C   UNL     1      -9.682  14.988  -4.054  1.00  0.00     0.029 A 
ATOM     58  N   UNL     1      -9.532  12.842  -3.495  1.00  0.00    -0.354 N 
ATOM     59  N   UNL     1     -10.593  10.208  -2.727  1.00  0.00    -0.248 NA
ATOM     60  C   UNL     1     -12.382   8.859  -2.065  1.00  0.00     0.031 C 
ATOM     61  C   UNL     1     -10.947  14.544  -3.658  1.00  0.00     0.029 A 
ATOM     62  C   UNL     1     -10.865  13.195  -3.352  1.00  0.00     0.049 A 
ATOM     63  H   UNL     1      -9.166  11.943  -3.331  1.00  0.00     0.167 HD
ATOM     64  C   UNL     1     -11.758  10.973  -2.697  1.00  0.00     0.074 A 
ATOM     65  C   UNL     1     -12.832  10.079  -2.319  1.00  0.00     0.031 C 
ATOM     66  C   UNL     1     -11.927  12.294  -2.966  1.00  0.00     0.034 A 
BRANCH  53  67
ATOM     67  C   UNL     1      -6.676  15.243  -4.463  1.00  0.00     0.023 A 
ATOM     68  C   UNL     1      -5.971  15.399  -5.669  1.00  0.00     0.031 A 
ATOM     69  C   UNL     1      -6.705  16.331  -3.572  1.00  0.00     0.131 A 
ATOM     70  C   UNL     1      -5.265  16.586  -5.918  1.00  0.00     0.055 A 
ATOM     71  C   UNL     1      -6.073  17.541  -3.866  1.00  0.00     0.041 A 
ATOM     72  F   UNL     1      -7.338  16.233  -2.393  1.00  0.00    -0.206 F 
ATOM     73  C   UNL     1      -5.334  17.668  -5.038  1.00  0.00     0.022 A 
BRANCH  70  74
ATOM     74  S   UNL     1      -4.132  16.639  -7.334  1.00  0.00     0.124 S 
ATOM     75  O   UNL     1      -3.232  15.528  -7.032  1.00  0.00    -0.237 OA
ATOM     76  O   UNL     1      -5.030  16.444  -8.465  1.00  0.00    -0.237 OA
ATOM     77  O   UNL     1      -3.525  17.965  -7.238  1.00  0.00    -0.744 OA
ENDBRANCH  70  74
ENDBRANCH  53  67
BRANCH  54  78
ATOM     78  C   UNL     1     -10.728   6.447  -1.855  1.00  0.00     0.023 A 
ATOM     79  C   UNL     1     -11.749   5.838  -2.601  1.00  0.00     0.031 A 
ATOM     80  C   UNL     1     -10.349   5.842  -0.643  1.00  0.00     0.131 A 
ATOM     81  C   UNL     1     -12.393   4.693  -2.103  1.00  0.00     0.055 A 
ATOM     82  C   UNL     1     -10.949   4.668  -0.183  1.00  0.00     0.041 A 
ATOM     83  F   UNL     1      -9.384   6.386   0.116  1.00  0.00    -0.206 F 
ATOM     84  C   UNL     1     -11.989   4.095  -0.907  1.00  0.00     0.022 A 
BRANCH  81  85
ATOM     85  S   UNL     1     -13.841   4.055  -2.991  1.00  0.00     0.124 S 
ATOM     86  O   UNL     1     -14.728   5.212  -2.978  1.00  0.00    -0.237 OA
ATOM     87  O   UNL     1     -13.269   3.698  -4.285  1.00  0.00    -0.237 OA
ATOM     88  O   UNL     1     -14.273   2.926  -2.169  1.00  0.00    -0.744 OA
ENDBRANCH  81  85
ENDBRANCH  54  78
BRANCH  66  89
ATOM     89  C   UNL     1     -13.337  12.838  -2.916  1.00  0.00     0.023 A 
ATOM     90  C   UNL     1     -14.075  12.891  -1.720  1.00  0.00     0.031 A 
ATOM     91  C   UNL     1     -13.952  13.311  -4.090  1.00  0.00     0.131 A 
ATOM     92  C   UNL     1     -15.402  13.348  -1.736  1.00  0.00     0.055 A 
ATOM     93  C   UNL     1     -15.248  13.830  -4.087  1.00  0.00     0.041 A 
ATOM     94  F   UNL     1     -13.299  13.283  -5.263  1.00  0.00    -0.206 F 
ATOM     95  C   UNL     1     -15.986  13.836  -2.908  1.00  0.00     0.022 A 
BRANCH  92  96
ATOM     96  S   UNL     1     -16.394  13.198  -0.225  1.00  0.00     0.124 S 
ATOM     97  O   UNL     1     -16.323  11.765   0.043  1.00  0.00    -0.237 OA
ATOM     98  O   UNL     1     -15.673  14.058   0.708  1.00  0.00    -0.237 OA
ATOM     99  O   UNL     1     -17.710  13.689  -0.628  1.00  0.00    -0.744 OA
ENDBRANCH  92  96
ENDBRANCH  66  89
ENDBRANCH  40  41
ENDBRANCH  33  35
ENDBRANCH  32  33
ENDBRANCH  31  32
ENDBRANCH  30  31
ENDBRANCH  29  30
ENDBRANCH  28  29
ENDBRANCH   1  28
TORSDOF 25
