REMARK SMILES O=C(OCCOCCOCCOCCOC(=O)[C@@H]1C=C[C@H](NC(=O)[C@@H]2Cc3ccccc3O2)C1)c1ccc(-c2c3nc(c(-c4cc(S(=O)(=O)[O-])ccc4F)c4ccc([nH]4)c(-c4cc(S(=O)(=O)[O-])ccc4F)c4nc(c(-c5cc(S(=O)(=O)[O-])ccc5F)c5ccc2[nH]5)C=C4)C=C3)cc1
REMARK SMILES IDX 8 1 7 2 6 3 5 4 4 5 3 6 2 7 1 8 35 9 36 10 97 11 37 12 96 13
REMARK SMILES IDX 38 14 39 15 40 16 90 17 41 18 95 19 89 20 91 21 42 22 94 23
REMARK SMILES IDX 88 24 87 25 43 27 75 28 55 29 74 30 56 31 59 32 73 33 92 34
REMARK SMILES IDX 57 35 58 36 72 38 93 39 60 40 44 41 45 42 53 43 46 44 52 45
REMARK SMILES IDX 54 46 51 47 47 48 48 49 49 50 50 51 76 52 77 53 85 54 78 55
REMARK SMILES IDX 84 56 86 57 83 58 79 59 80 60 81 61 82 62 61 63 62 64 70 65
REMARK SMILES IDX 63 66 69 67 71 68 68 69 64 70 65 71 66 72 67 73 9 74 10 75
REMARK SMILES IDX 11 76 12 77 13 78 14 79 15 80 16 81 17 82 18 83 19 84 34 85
REMARK SMILES IDX 20 86 21 87 22 88 23 89 24 91 25 92 26 93 33 94 27 95 32 96
REMARK SMILES IDX 28 97 31 98 29 99 30 100
REMARK H PARENT 91 26 59 37 22 90
REMARK Flexibility Score: inf
ROOT
ATOM      1  C   UNL     1       6.949   0.108   9.303  1.00  0.00     0.188 C 
ENDROOT
BRANCH   1   2
ATOM      2  C   UNL     1       7.700  -0.585  10.441  1.00  0.00     0.188 C 
BRANCH   2   3
ATOM      3  O   UNL     1       6.927  -1.671  10.925  1.00  0.00    -0.376 OA
BRANCH   3   4
ATOM      4  C   UNL     1       6.873  -1.993  12.310  1.00  0.00     0.202 C 
BRANCH   4   5
ATOM      5  C   UNL     1       8.198  -2.272  12.991  1.00  0.00     0.261 C 
BRANCH   5   6
ATOM      6  O   UNL     1       9.364  -2.059  12.180  1.00  0.00    -0.460 OA
BRANCH   6   7
ATOM      7  C   UNL     1       9.879  -2.788  11.163  1.00  0.00     0.338 C 
ATOM      8  O   UNL     1      10.913  -2.387  10.628  1.00  0.00    -0.246 OA
BRANCH   7   9
ATOM      9  C   UNL     1       9.284  -4.052  10.652  1.00  0.00     0.060 A 
ATOM     10  C   UNL     1       7.923  -4.299  10.521  1.00  0.00     0.016 A 
ATOM     11  C   UNL     1      10.162  -5.015  10.138  1.00  0.00     0.016 A 
ATOM     12  C   UNL     1       7.420  -5.485  10.050  1.00  0.00     0.010 A 
ATOM     13  C   UNL     1       9.669  -6.194   9.570  1.00  0.00     0.010 A 
ATOM     14  C   UNL     1       8.290  -6.434   9.557  1.00  0.00    -0.014 A 
BRANCH  14  15
ATOM     15  C   UNL     1       7.687  -7.722   9.214  1.00  0.00     0.031 A 
ATOM     16  C   UNL     1       7.901  -8.839  10.180  1.00  0.00     0.074 A 
ATOM     17  C   UNL     1       6.803  -7.791   8.201  1.00  0.00     0.049 A 
ATOM     18  N   UNL     1       7.569 -10.091  10.078  1.00  0.00    -0.248 NA
ATOM     19  C   UNL     1       8.570  -8.490  11.449  1.00  0.00     0.031 C 
ATOM     20  C   UNL     1       6.372  -6.656   7.371  1.00  0.00     0.029 A 
ATOM     21  N   UNL     1       6.073  -8.841   7.723  1.00  0.00    -0.354 N 
ATOM     22  C   UNL     1       8.041 -10.692  11.236  1.00  0.00     0.074 A 
ATOM     23  C   UNL     1       8.665  -9.669  12.040  1.00  0.00     0.031 C 
ATOM     24  C   UNL     1       5.448  -7.078   6.493  1.00  0.00     0.029 A 
ATOM     25  C   UNL     1       5.311  -8.520   6.622  1.00  0.00     0.049 A 
ATOM     26  H   UNL     1       6.090  -9.739   8.125  1.00  0.00     0.167 HD
ATOM     27  C   UNL     1       7.969 -12.001  11.563  1.00  0.00     0.034 A 
ATOM     28  C   UNL     1       4.647  -9.334   5.780  1.00  0.00     0.034 A 
ATOM     29  C   UNL     1       7.330 -12.962  10.707  1.00  0.00     0.049 A 
ATOM     30  C   UNL     1       4.714 -10.811   6.087  1.00  0.00     0.074 A 
ATOM     31  C   UNL     1       7.253 -14.332  10.847  1.00  0.00     0.029 A 
ATOM     32  N   UNL     1       6.655 -12.635   9.533  1.00  0.00    -0.354 N 
ATOM     33  N   UNL     1       5.266 -11.413   7.120  1.00  0.00    -0.248 NA
ATOM     34  C   UNL     1       4.091 -11.718   5.121  1.00  0.00     0.031 C 
ATOM     35  C   UNL     1       6.599 -14.839   9.719  1.00  0.00     0.029 A 
ATOM     36  C   UNL     1       6.188 -13.781   8.919  1.00  0.00     0.049 A 
ATOM     37  H   UNL     1       6.530 -11.721   9.190  1.00  0.00     0.167 HD
ATOM     38  C   UNL     1       5.036 -12.771   6.936  1.00  0.00     0.074 A 
ATOM     39  C   UNL     1       4.269 -12.890   5.710  1.00  0.00     0.031 C 
ATOM     40  C   UNL     1       5.422 -13.829   7.695  1.00  0.00     0.034 A 
BRANCH  27  41
ATOM     41  C   UNL     1       8.711 -12.442  12.794  1.00  0.00     0.023 A 
ATOM     42  C   UNL     1       8.336 -12.039  14.087  1.00  0.00     0.031 A 
ATOM     43  C   UNL     1       9.877 -13.216  12.655  1.00  0.00     0.131 A 
ATOM     44  C   UNL     1       9.152 -12.365  15.182  1.00  0.00     0.055 A 
ATOM     45  C   UNL     1      10.643 -13.600  13.755  1.00  0.00     0.041 A 
ATOM     46  F   UNL     1      10.309 -13.585  11.438  1.00  0.00    -0.206 F 
ATOM     47  C   UNL     1      10.288 -13.165  15.028  1.00  0.00     0.022 A 
BRANCH  44  48
ATOM     48  S   UNL     1       8.786 -11.619  16.796  1.00  0.00     0.124 S 
ATOM     49  O   UNL     1       8.978 -10.198  16.513  1.00  0.00    -0.237 OA
ATOM     50  O   UNL     1       7.412 -12.041  17.037  1.00  0.00    -0.237 OA
ATOM     51  O   UNL     1       9.786 -12.212  17.683  1.00  0.00    -0.744 OA
ENDBRANCH  44  48
ENDBRANCH  27  41
BRANCH  28  52
ATOM     52  C   UNL     1       3.996  -8.816   4.539  1.00  0.00     0.023 A 
ATOM     53  C   UNL     1       2.650  -9.089   4.255  1.00  0.00     0.031 A 
ATOM     54  C   UNL     1       4.738  -8.122   3.561  1.00  0.00     0.131 A 
ATOM     55  C   UNL     1       2.110  -8.741   3.005  1.00  0.00     0.055 A 
ATOM     56  C   UNL     1       4.176  -7.711   2.351  1.00  0.00     0.041 A 
ATOM     57  F   UNL     1       6.035  -7.839   3.760  1.00  0.00    -0.206 F 
ATOM     58  C   UNL     1       2.858  -8.041   2.057  1.00  0.00     0.022 A 
BRANCH  55  59
ATOM     59  S   UNL     1       0.456  -9.355   2.579  1.00  0.00     0.124 S 
ATOM     60  O   UNL     1       0.603 -10.786   2.810  1.00  0.00    -0.237 OA
ATOM     61  O   UNL     1      -0.386  -8.633   3.524  1.00  0.00    -0.237 OA
ATOM     62  O   UNL     1       0.299  -8.961   1.177  1.00  0.00    -0.744 OA
ENDBRANCH  55  59
ENDBRANCH  28  52
BRANCH  40  63
ATOM     63  C   UNL     1       4.966 -15.184   7.229  1.00  0.00     0.023 A 
ATOM     64  C   UNL     1       5.448 -15.751   6.040  1.00  0.00     0.031 A 
ATOM     65  C   UNL     1       4.042 -15.914   7.996  1.00  0.00     0.131 A 
ATOM     66  C   UNL     1       4.955 -16.990   5.617  1.00  0.00     0.055 A 
ATOM     67  C   UNL     1       3.613 -17.181   7.608  1.00  0.00     0.041 A 
ATOM     68  F   UNL     1       3.553 -15.411   9.141  1.00  0.00    -0.206 F 
ATOM     69  C   UNL     1       4.059 -17.719   6.404  1.00  0.00     0.022 A 
BRANCH  66  70
ATOM     70  S   UNL     1       5.424 -17.588   3.973  1.00  0.00     0.124 S 
ATOM     71  O   UNL     1       4.936 -16.517   3.111  1.00  0.00    -0.237 OA
ATOM     72  O   UNL     1       6.874 -17.706   4.084  1.00  0.00    -0.237 OA
ATOM     73  O   UNL     1       4.707 -18.857   3.854  1.00  0.00    -0.744 OA
ENDBRANCH  66  70
ENDBRANCH  40  63
ENDBRANCH  14  15
ENDBRANCH   7   9
ENDBRANCH   6   7
ENDBRANCH   5   6
ENDBRANCH   4   5
ENDBRANCH   3   4
ENDBRANCH   2   3
ENDBRANCH   1   2
BRANCH   1  74
ATOM     74  O   UNL     1       5.708   0.698   9.690  1.00  0.00    -0.377 OA
BRANCH  74  75
ATOM     75  C   UNL     1       4.885  -0.107  10.527  1.00  0.00     0.188 C 
BRANCH  75  76
ATOM     76  C   UNL     1       4.244  -1.398   9.961  1.00  0.00     0.188 C 
BRANCH  76  77
ATOM     77  O   UNL     1       4.938  -1.957   8.868  1.00  0.00    -0.376 OA
BRANCH  77  78
ATOM     78  C   UNL     1       4.505  -1.725   7.535  1.00  0.00     0.202 C 
BRANCH  78  79
ATOM     79  C   UNL     1       3.748  -0.463   7.063  1.00  0.00     0.261 C 
BRANCH  79  80
ATOM     80  O   UNL     1       3.520   0.571   8.026  1.00  0.00    -0.463 OA
BRANCH  80  81
ATOM     81  C   UNL     1       2.314   0.605   8.658  1.00  0.00     0.312 C 
ATOM     82  O   UNL     1       1.405  -0.179   8.440  1.00  0.00    -0.252 OA
BRANCH  81  83
ATOM     83  C   UNL     1       2.298   1.633   9.816  1.00  0.00     0.124 C 
ATOM     84  C   UNL     1       1.060   2.438  10.060  1.00  0.00    -0.014 C 
ATOM     85  C   UNL     1       3.356   2.743   9.715  1.00  0.00     0.048 C 
ATOM     86  C   UNL     1       1.237   3.727   9.744  1.00  0.00    -0.006 C 
ATOM     87  C   UNL     1       2.604   3.981   9.228  1.00  0.00     0.106 C 
BRANCH  87  88
ATOM     88  N   UNL     1       2.715   4.145   7.781  1.00  0.00    -0.347 N 
ATOM     89  C   UNL     1       1.924   3.994   6.678  1.00  0.00     0.261 C 
ATOM     90  H   UNL     1       3.616   4.452   7.529  1.00  0.00     0.164 HD
ATOM     91  O   UNL     1       2.473   4.196   5.590  1.00  0.00    -0.271 OA
BRANCH  89  92
ATOM     92  C   UNL     1       0.438   3.618   6.771  1.00  0.00     0.266 C 
ATOM     93  C   UNL     1       0.304   2.114   6.949  1.00  0.00     0.095 C 
ATOM     94  O   UNL     1      -0.386   3.952   5.619  1.00  0.00    -0.480 OA
ATOM     95  C   UNL     1      -1.067   1.929   6.470  1.00  0.00    -0.002 A 
ATOM     96  C   UNL     1      -1.388   3.007   5.671  1.00  0.00     0.123 A 
ATOM     97  C   UNL     1      -1.944   0.895   6.737  1.00  0.00     0.008 A 
ATOM     98  C   UNL     1      -2.608   3.066   5.044  1.00  0.00     0.047 A 
ATOM     99  C   UNL     1      -3.198   0.959   6.147  1.00  0.00     0.001 A 
ATOM    100  C   UNL     1      -3.522   2.030   5.293  1.00  0.00     0.004 A 
ENDBRANCH  89  92
ENDBRANCH  87  88
ENDBRANCH  81  83
ENDBRANCH  80  81
ENDBRANCH  79  80
ENDBRANCH  78  79
ENDBRANCH  77  78
ENDBRANCH  76  77
ENDBRANCH  75  76
ENDBRANCH  74  75
ENDBRANCH   1  74
TORSDOF 25
