REMARK SMILES CCCCNC(=O)c1cnn([C@@H](C)C(=O)OCCOCCOCCOCCOC(=O)c2ccc(-c3c4nc(c(-c5cc(S(=O)(=O)[O-])ccc5F)c5ccc([nH]5)c(-c5cc(S(=O)(=O)[O-])ccc5F)c5nc(c(-c6cc(S(=O)(=O)[O-])ccc6F)c6ccc3[nH]6)C=C5)C=C4)cc2)c1
REMARK SMILES IDX 21 1 20 2 19 3 18 4 17 5 16 6 14 7 15 8 12 9 13 10 11 11
REMARK SMILES IDX 8 12 9 13 94 14 10 15 6 16 5 17 7 19 4 20 3 21 2 22 1 23
REMARK SMILES IDX 22 24 23 25 24 26 25 27 26 28 27 29 28 30 29 31 30 32 31 33
REMARK SMILES IDX 32 34 93 35 33 36 92 37 34 38 35 39 36 40 86 41 37 42 91 43
REMARK SMILES IDX 85 44 87 45 38 46 90 47 84 48 83 49 39 51 71 52 51 53 70 54
REMARK SMILES IDX 52 55 55 56 69 57 88 58 53 59 54 60 68 62 89 63 56 64 40 65
REMARK SMILES IDX 41 66 49 67 42 68 48 69 50 70 47 71 43 72 44 73 45 74 46 75
REMARK SMILES IDX 72 76 73 77 81 78 74 79 80 80 82 81 79 82 75 83 76 84 77 85
REMARK SMILES IDX 78 86 57 87 58 88 66 89 59 90 65 91 67 92 64 93 60 94 61 95
REMARK SMILES IDX 62 96 63 97
REMARK H PARENT 5 18 87 50 55 61
REMARK Flexibility Score: inf
ROOT
ATOM      1  C   UNL     1      -1.734  -8.610  -3.049  1.00  0.00     0.188 C 
ENDROOT
BRANCH   1   2
ATOM      2  C   UNL     1      -2.309  -9.252  -4.328  1.00  0.00     0.188 C 
BRANCH   2   3
ATOM      3  O   UNL     1      -2.008 -10.595  -4.698  1.00  0.00    -0.376 OA
BRANCH   3   4
ATOM      4  C   UNL     1      -0.783 -11.184  -4.295  1.00  0.00     0.202 C 
BRANCH   4   5
ATOM      5  C   UNL     1       0.534 -10.531  -4.743  1.00  0.00     0.261 C 
BRANCH   5   6
ATOM      6  O   UNL     1       0.601  -9.093  -4.655  1.00  0.00    -0.462 OA
BRANCH   6   7
ATOM      7  C   UNL     1       0.450  -8.408  -5.809  1.00  0.00     0.330 C 
ATOM      8  O   UNL     1       0.277  -8.954  -6.900  1.00  0.00    -0.250 OA
BRANCH   7   9
ATOM      9  C   UNL     1       0.534  -6.895  -5.723  1.00  0.00     0.213 C 
ATOM     10  C   UNL     1       1.830  -6.423  -6.364  1.00  0.00     0.046 C 
BRANCH   9  11
ATOM     11  N   UNL     1       0.323  -6.243  -4.429  1.00  0.00    -0.258 N 
ATOM     12  C   UNL     1      -0.440  -4.871  -2.862  1.00  0.00     0.077 A 
ATOM     13  C   UNL     1       0.649  -5.658  -2.424  1.00  0.00     0.149 A 
ATOM     14  C   UNL     1      -0.634  -5.292  -4.164  1.00  0.00     0.123 A 
ATOM     15  N   UNL     1       1.176  -6.410  -3.398  1.00  0.00    -0.180 NA
BRANCH  12  16
ATOM     16  C   UNL     1      -1.259  -3.904  -2.156  1.00  0.00     0.254 C 
ATOM     17  N   UNL     1      -0.660  -2.955  -1.365  1.00  0.00    -0.352 N 
ATOM     18  H   UNL     1      -1.272  -2.439  -0.793  1.00  0.00     0.163 HD
ATOM     19  O   UNL     1      -2.483  -3.889  -2.279  1.00  0.00    -0.269 OA
BRANCH  17  20
ATOM     20  C   UNL     1       0.744  -2.599  -1.246  1.00  0.00     0.116 C 
BRANCH  20  21
ATOM     21  C   UNL     1       1.077  -1.302  -1.985  1.00  0.00     0.021 C 
BRANCH  21  22
ATOM     22  C   UNL     1       0.537  -0.026  -1.334  1.00  0.00    -0.002 C 
ATOM     23  C   UNL     1       1.062   0.204   0.076  1.00  0.00     0.004 C 
ENDBRANCH  21  22
ENDBRANCH  20  21
ENDBRANCH  17  20
ENDBRANCH  12  16
ENDBRANCH   9  11
ENDBRANCH   7   9
ENDBRANCH   6   7
ENDBRANCH   5   6
ENDBRANCH   4   5
ENDBRANCH   3   4
ENDBRANCH   2   3
ENDBRANCH   1   2
BRANCH   1  24
ATOM     24  O   UNL     1      -0.875  -9.425  -2.277  1.00  0.00    -0.377 OA
BRANCH  24  25
ATOM     25  C   UNL     1      -1.450  -9.963  -1.096  1.00  0.00     0.188 C 
BRANCH  25  26
ATOM     26  C   UNL     1      -2.821 -10.659  -1.264  1.00  0.00     0.188 C 
BRANCH  26  27
ATOM     27  O   UNL     1      -3.774  -9.930  -2.040  1.00  0.00    -0.376 OA
BRANCH  27  28
ATOM     28  C   UNL     1      -4.828  -9.206  -1.417  1.00  0.00     0.202 C 
BRANCH  28  29
ATOM     29  C   UNL     1      -4.455  -7.921  -0.676  1.00  0.00     0.261 C 
BRANCH  29  30
ATOM     30  O   UNL     1      -3.368  -8.078   0.213  1.00  0.00    -0.460 OA
BRANCH  30  31
ATOM     31  C   UNL     1      -3.548  -8.977   1.192  1.00  0.00     0.338 C 
ATOM     32  O   UNL     1      -4.493  -9.749   1.334  1.00  0.00    -0.246 OA
BRANCH  31  33
ATOM     33  C   UNL     1      -2.454  -8.845   2.144  1.00  0.00     0.060 A 
ATOM     34  C   UNL     1      -2.452  -9.769   3.189  1.00  0.00     0.016 A 
ATOM     35  C   UNL     1      -1.827  -7.593   2.218  1.00  0.00     0.016 A 
ATOM     36  C   UNL     1      -2.133  -9.299   4.433  1.00  0.00     0.010 A 
ATOM     37  C   UNL     1      -1.564  -7.111   3.463  1.00  0.00     0.010 A 
ATOM     38  C   UNL     1      -1.824  -7.943   4.552  1.00  0.00    -0.014 A 
BRANCH  38  39
ATOM     39  C   UNL     1      -1.686  -7.387   5.872  1.00  0.00     0.031 A 
ATOM     40  C   UNL     1      -0.360  -7.697   6.440  1.00  0.00     0.074 A 
ATOM     41  C   UNL     1      -2.632  -6.566   6.365  1.00  0.00     0.049 A 
ATOM     42  N   UNL     1      -0.094  -8.429   7.468  1.00  0.00    -0.248 NA
ATOM     43  C   UNL     1       0.826  -7.367   5.622  1.00  0.00     0.031 C 
ATOM     44  C   UNL     1      -3.823  -6.054   5.675  1.00  0.00     0.029 A 
ATOM     45  N   UNL     1      -2.659  -5.893   7.540  1.00  0.00    -0.354 N 
ATOM     46  C   UNL     1       1.290  -8.389   7.576  1.00  0.00     0.074 A 
ATOM     47  C   UNL     1       1.784  -8.005   6.288  1.00  0.00     0.031 C 
ATOM     48  C   UNL     1      -4.281  -4.967   6.337  1.00  0.00     0.029 A 
ATOM     49  C   UNL     1      -3.474  -4.765   7.530  1.00  0.00     0.049 A 
ATOM     50  H   UNL     1      -2.147  -6.176   8.332  1.00  0.00     0.167 HD
ATOM     51  C   UNL     1       1.880  -8.308   8.797  1.00  0.00     0.034 A 
ATOM     52  C   UNL     1      -3.377  -3.692   8.364  1.00  0.00     0.034 A 
ATOM     53  C   UNL     1       0.981  -8.786   9.828  1.00  0.00     0.049 A 
ATOM     54  C   UNL     1      -2.591  -4.149   9.548  1.00  0.00     0.074 A 
ATOM     55  C   UNL     1       0.272  -9.962   9.998  1.00  0.00     0.029 A 
ATOM     56  N   UNL     1       0.370  -7.864  10.652  1.00  0.00    -0.354 N 
ATOM     57  N   UNL     1      -3.009  -5.072  10.375  1.00  0.00    -0.248 NA
ATOM     58  C   UNL     1      -1.143  -3.976   9.509  1.00  0.00     0.031 C 
ATOM     59  C   UNL     1      -0.999  -9.558  10.499  1.00  0.00     0.029 A 
ATOM     60  C   UNL     1      -0.968  -8.178  10.711  1.00  0.00     0.049 A 
ATOM     61  H   UNL     1       0.812  -7.116  11.115  1.00  0.00     0.167 HD
ATOM     62  C   UNL     1      -1.901  -5.872  10.621  1.00  0.00     0.074 A 
ATOM     63  C   UNL     1      -0.761  -5.099  10.127  1.00  0.00     0.031 C 
ATOM     64  C   UNL     1      -2.029  -7.203  10.911  1.00  0.00     0.034 A 
BRANCH  51  65
ATOM     65  C   UNL     1       3.070  -7.416   9.080  1.00  0.00     0.023 A 
ATOM     66  C   UNL     1       3.544  -7.413  10.401  1.00  0.00     0.031 A 
ATOM     67  C   UNL     1       3.577  -6.384   8.249  1.00  0.00     0.131 A 
ATOM     68  C   UNL     1       4.357  -6.370  10.873  1.00  0.00     0.055 A 
ATOM     69  C   UNL     1       4.442  -5.388   8.706  1.00  0.00     0.041 A 
ATOM     70  F   UNL     1       3.213  -6.213   6.974  1.00  0.00    -0.206 F 
ATOM     71  C   UNL     1       4.807  -5.354  10.037  1.00  0.00     0.022 A 
BRANCH  68  72
ATOM     72  S   UNL     1       4.651  -6.272  12.652  1.00  0.00     0.124 S 
ATOM     73  O   UNL     1       3.288  -6.307  13.172  1.00  0.00    -0.237 OA
ATOM     74  O   UNL     1       5.461  -7.463  12.884  1.00  0.00    -0.237 OA
ATOM     75  O   UNL     1       5.349  -4.999  12.807  1.00  0.00    -0.744 OA
ENDBRANCH  68  72
ENDBRANCH  51  65
BRANCH  52  76
ATOM     76  C   UNL     1      -3.568  -2.254   7.984  1.00  0.00     0.023 A 
ATOM     77  C   UNL     1      -3.724  -1.219   8.934  1.00  0.00     0.031 A 
ATOM     78  C   UNL     1      -3.389  -1.839   6.642  1.00  0.00     0.131 A 
ATOM     79  C   UNL     1      -3.715   0.140   8.525  1.00  0.00     0.055 A 
ATOM     80  C   UNL     1      -3.398  -0.501   6.242  1.00  0.00     0.041 A 
ATOM     81  F   UNL     1      -3.110  -2.717   5.666  1.00  0.00    -0.206 F 
ATOM     82  C   UNL     1      -3.553   0.497   7.185  1.00  0.00     0.022 A 
BRANCH  79  83
ATOM     83  S   UNL     1      -3.817   1.488   9.750  1.00  0.00     0.124 S 
ATOM     84  O   UNL     1      -5.203   1.397  10.194  1.00  0.00    -0.237 OA
ATOM     85  O   UNL     1      -2.796   1.111  10.720  1.00  0.00    -0.237 OA
ATOM     86  O   UNL     1      -3.501   2.685   8.967  1.00  0.00    -0.744 OA
ENDBRANCH  79  83
ENDBRANCH  52  76
BRANCH  64  87
ATOM     87  C   UNL     1      -3.401  -7.755  11.260  1.00  0.00     0.023 A 
ATOM     88  C   UNL     1      -4.553  -7.661  10.445  1.00  0.00     0.031 A 
ATOM     89  C   UNL     1      -3.495  -8.540  12.425  1.00  0.00     0.131 A 
ATOM     90  C   UNL     1      -5.737  -8.333  10.816  1.00  0.00     0.055 A 
ATOM     91  C   UNL     1      -4.659  -9.222  12.775  1.00  0.00     0.041 A 
ATOM     92  F   UNL     1      -2.430  -8.693  13.231  1.00  0.00    -0.206 F 
ATOM     93  C   UNL     1      -5.788  -9.117  11.973  1.00  0.00     0.022 A 
BRANCH  90  94
ATOM     94  S   UNL     1      -7.252  -8.188   9.811  1.00  0.00     0.124 S 
ATOM     95  O   UNL     1      -7.337  -6.761   9.524  1.00  0.00    -0.237 OA
ATOM     96  O   UNL     1      -6.958  -9.055   8.673  1.00  0.00    -0.237 OA
ATOM     97  O   UNL     1      -8.299  -8.692  10.702  1.00  0.00    -0.744 OA
ENDBRANCH  90  94
ENDBRANCH  64  87
ENDBRANCH  38  39
ENDBRANCH  31  33
ENDBRANCH  30  31
ENDBRANCH  29  30
ENDBRANCH  28  29
ENDBRANCH  27  28
ENDBRANCH  26  27
ENDBRANCH  25  26
ENDBRANCH  24  25
ENDBRANCH   1  24
TORSDOF 28
