REMARK SMILES Cc1ccccc1/C=C1\SC(=O)N(CC(=O)Nc2ccccc2C(=O)OCCOCCOCCOCCOC(=O)c2ccc(-c3c4nc(c(-c5cc(S(=O)(=O)[O-])ccc5F)c5ccc([nH]5)c(-c5cc(S(=O)(=O)[O-])ccc5F)c5nc(c(-c6cc(S(=O)(=O)[O-])ccc6F)c6ccc3[nH]6)C=C5)C=C4)cc2)C1=O
REMARK SMILES IDX 31 1 30 2 29 3 28 4 27 5 26 6 24 7 25 8 23 9 18 10 19 11
REMARK SMILES IDX 20 12 22 13 21 14 17 15 15 16 16 17 14 19 13 20 8 21 9 22
REMARK SMILES IDX 10 23 104 24 11 25 105 26 12 27 7 28 1 29 2 30 3 31 4 32
REMARK SMILES IDX 6 33 5 34 32 35 33 36 34 37 35 38 36 39 37 40 38 41 39 42
REMARK SMILES IDX 40 43 41 44 42 45 103 46 43 47 102 48 44 49 45 50 46 51
REMARK SMILES IDX 96 52 47 53 101 54 95 55 97 56 48 57 100 58 94 59 93 60
REMARK SMILES IDX 49 62 81 63 61 64 80 65 62 66 65 67 79 68 98 69 63 70 64 71
REMARK SMILES IDX 78 73 99 74 66 75 50 76 51 77 59 78 52 79 58 80 60 81 57 82
REMARK SMILES IDX 53 83 54 84 55 85 56 86 82 87 83 88 91 89 84 90 90 91 92 92
REMARK SMILES IDX 89 93 85 94 86 95 87 96 88 97 67 98 68 99 76 100 69 101
REMARK SMILES IDX 75 102 77 103 74 104 70 105 71 106 72 107 73 108
REMARK H PARENT 17 18 97 61 65 72
REMARK Flexibility Score: inf
ROOT
ATOM      1  C   UNL     1       6.097   4.212  -2.178  1.00  0.00     0.188 C 
ENDROOT
BRANCH   1   2
ATOM      2  C   UNL     1       5.949   4.246  -0.492  1.00  0.00     0.188 C 
BRANCH   2   3
ATOM      3  O   UNL     1       4.844   3.666   0.805  1.00  0.00    -0.376 OA
BRANCH   3   4
ATOM      4  C   UNL     1       3.437   2.508   0.812  1.00  0.00     0.202 C 
BRANCH   4   5
ATOM      5  C   UNL     1       2.171   2.045  -0.607  1.00  0.00     0.261 C 
BRANCH   5   6
ATOM      6  O   UNL     1       1.002   2.488  -2.009  1.00  0.00    -0.460 OA
BRANCH   6   7
ATOM      7  C   UNL     1       0.271   3.161  -3.360  1.00  0.00     0.340 C 
ATOM      8  O   UNL     1      -0.915   2.925  -3.661  1.00  0.00    -0.246 OA
BRANCH   7   9
ATOM      9  C   UNL     1       0.735   4.147  -4.669  1.00  0.00     0.083 A 
ATOM     10  C   UNL     1       0.983   5.584  -4.923  1.00  0.00     0.055 A 
ATOM     11  C   UNL     1       1.547   5.993  -6.162  1.00  0.00     0.027 A 
ATOM     12  C   UNL     1       1.760   5.106  -7.202  1.00  0.00     0.002 A 
ATOM     13  C   UNL     1       0.798   3.357  -5.837  1.00  0.00     0.018 A 
ATOM     14  C   UNL     1       1.331   3.802  -7.057  1.00  0.00     0.001 A 
BRANCH  10  15
ATOM     15  N   UNL     1       0.672   6.742  -4.085  1.00  0.00    -0.324 N 
ATOM     16  C   UNL     1       1.501   7.911  -4.012  1.00  0.00     0.244 C 
ATOM     17  O   UNL     1       1.330   8.895  -4.733  1.00  0.00    -0.273 OA
ATOM     18  H   UNL     1      -0.150   6.719  -3.544  1.00  0.00     0.170 HD
BRANCH  16  19
ATOM     19  C   UNL     1       2.642   7.912  -2.959  1.00  0.00     0.230 C 
BRANCH  19  20
ATOM     20  N   UNL     1       2.489   6.658  -2.312  1.00  0.00    -0.259 N 
ATOM     21  C   UNL     1       0.180   3.650  -0.235  1.00  0.00     0.029 C 
ATOM     22  C   UNL     1       0.896   4.693  -1.287  1.00  0.00     0.083 C 
ATOM     23  S   UNL     1       2.299   4.344  -2.482  1.00  0.00    -0.022 SA
ATOM     24  C   UNL     1       1.351   6.397  -1.515  1.00  0.00     0.268 C 
ATOM     25  C   UNL     1       3.084   5.689  -2.986  1.00  0.00     0.294 C 
ATOM     26  O   UNL     1       0.822   7.437  -1.137  1.00  0.00    -0.268 OA
ATOM     27  O   UNL     1       3.871   5.737  -3.910  1.00  0.00    -0.261 OA
BRANCH  21  28
ATOM     28  C   UNL     1      -0.378   2.064   0.613  1.00  0.00    -0.021 A 
ATOM     29  C   UNL     1       1.463   0.366   1.641  1.00  0.00     0.045 C 
ATOM     30  C   UNL     1       0.197   0.712   0.833  1.00  0.00    -0.044 A 
ATOM     31  C   UNL     1      -0.567  -0.510   0.871  1.00  0.00     0.004 A 
ATOM     32  C   UNL     1      -1.903  -0.485   1.112  1.00  0.00     0.000 A 
ATOM     33  C   UNL     1      -1.646   1.973   1.228  1.00  0.00     0.008 A 
ATOM     34  C   UNL     1      -2.389   0.753   1.445  1.00  0.00     0.001 A 
ENDBRANCH  21  28
ENDBRANCH  19  20
ENDBRANCH  16  19
ENDBRANCH  10  15
ENDBRANCH   7   9
ENDBRANCH   6   7
ENDBRANCH   5   6
ENDBRANCH   4   5
ENDBRANCH   3   4
ENDBRANCH   2   3
ENDBRANCH   1   2
BRANCH   1  35
ATOM     35  O   UNL     1       5.928   3.259  -3.233  1.00  0.00    -0.377 OA
BRANCH  35  36
ATOM     36  C   UNL     1       6.506   1.963  -3.394  1.00  0.00     0.188 C 
BRANCH  36  37
ATOM     37  C   UNL     1       7.951   1.839  -3.046  1.00  0.00     0.188 C 
BRANCH  37  38
ATOM     38  O   UNL     1       8.129   2.635  -1.892  1.00  0.00    -0.376 OA
BRANCH  38  39
ATOM     39  C   UNL     1       9.285   3.434  -1.913  1.00  0.00     0.202 C 
BRANCH  39  40
ATOM     40  C   UNL     1      10.455   2.527  -1.579  1.00  0.00     0.261 C 
BRANCH  40  41
ATOM     41  O   UNL     1      10.193   1.885  -0.298  1.00  0.00    -0.460 OA
BRANCH  41  42
ATOM     42  C   UNL     1       9.620   0.634  -0.365  1.00  0.00     0.338 C 
ATOM     43  O   UNL     1      10.109  -0.311  -0.959  1.00  0.00    -0.246 OA
BRANCH  42  44
ATOM     44  C   UNL     1       8.223   0.656   0.182  1.00  0.00     0.060 A 
ATOM     45  C   UNL     1       7.187  -0.126  -0.350  1.00  0.00     0.016 A 
ATOM     46  C   UNL     1       7.846   1.705   0.953  1.00  0.00     0.016 A 
ATOM     47  C   UNL     1       5.872   0.419  -0.565  1.00  0.00     0.010 A 
ATOM     48  C   UNL     1       6.537   2.152   0.783  1.00  0.00     0.010 A 
ATOM     49  C   UNL     1       5.573   1.754  -0.275  1.00  0.00    -0.014 A 
BRANCH  49  50
ATOM     50  C   UNL     1       4.257   2.796  -1.142  1.00  0.00     0.031 A 
ATOM     51  C   UNL     1       3.391   4.431  -0.260  1.00  0.00     0.074 A 
ATOM     52  C   UNL     1       3.862   1.919  -2.277  1.00  0.00     0.049 A 
ATOM     53  N   UNL     1       2.187   4.510   0.487  1.00  0.00    -0.248 NA
ATOM     54  C   UNL     1       3.900   5.825   0.408  1.00  0.00     0.031 C 
ATOM     55  C   UNL     1       3.383   2.155  -3.684  1.00  0.00     0.029 A 
ATOM     56  N   UNL     1       3.326   0.535  -2.189  1.00  0.00    -0.354 N 
ATOM     57  C   UNL     1       1.653   5.797   1.026  1.00  0.00     0.074 A 
ATOM     58  C   UNL     1       2.935   6.434   1.146  1.00  0.00     0.031 C 
ATOM     59  C   UNL     1       2.381   1.317  -4.034  1.00  0.00     0.029 A 
ATOM     60  C   UNL     1       2.048   0.482  -2.908  1.00  0.00     0.049 A 
ATOM     61  H   UNL     1       3.757  -0.220  -1.727  1.00  0.00     0.167 HD
ATOM     62  C   UNL     1       0.280   6.409   1.093  1.00  0.00     0.034 A 
ATOM     63  C   UNL     1       0.911  -0.305  -2.790  1.00  0.00     0.034 A 
ATOM     64  C   UNL     1      -1.006   5.934   0.127  1.00  0.00     0.049 A 
ATOM     65  C   UNL     1      -0.665   0.283  -2.411  1.00  0.00     0.074 A 
ATOM     66  C   UNL     1      -1.538   6.396  -1.107  1.00  0.00     0.029 A 
ATOM     67  N   UNL     1      -1.938   4.883   0.324  1.00  0.00    -0.354 N 
ATOM     68  N   UNL     1      -1.010   1.452  -1.880  1.00  0.00    -0.248 NA
ATOM     69  C   UNL     1      -1.926  -0.456  -2.603  1.00  0.00     0.031 C 
ATOM     70  C   UNL     1      -2.221   5.334  -1.794  1.00  0.00     0.029 A 
ATOM     71  C   UNL     1      -2.319   4.242  -0.944  1.00  0.00     0.049 A 
ATOM     72  H   UNL     1      -2.289   4.616   1.204  1.00  0.00     0.167 HD
ATOM     73  C   UNL     1      -2.391   1.709  -1.708  1.00  0.00     0.074 A 
ATOM     74  C   UNL     1      -2.895   0.409  -2.188  1.00  0.00     0.031 C 
ATOM     75  C   UNL     1      -3.013   2.868  -1.111  1.00  0.00     0.034 A 
BRANCH  62  76
ATOM     76  C   UNL     1       0.075   7.924   1.535  1.00  0.00     0.023 A 
ATOM     77  C   UNL     1      -1.032   8.642   1.003  1.00  0.00     0.031 A 
ATOM     78  C   UNL     1       0.908   8.709   2.345  1.00  0.00     0.131 A 
ATOM     79  C   UNL     1      -1.160  10.039   1.060  1.00  0.00     0.055 A 
ATOM     80  C   UNL     1       0.767  10.115   2.446  1.00  0.00     0.041 A 
ATOM     81  F   UNL     1       1.859   8.161   3.113  1.00  0.00    -0.206 F 
ATOM     82  C   UNL     1      -0.246  10.793   1.772  1.00  0.00     0.022 A 
BRANCH  79  83
ATOM     83  S   UNL     1      -2.516  10.828   0.138  1.00  0.00     0.124 S 
ATOM     84  O   UNL     1      -2.138  10.577  -1.249  1.00  0.00    -0.237 OA
ATOM     85  O   UNL     1      -3.690  10.111   0.625  1.00  0.00    -0.237 OA
ATOM     86  O   UNL     1      -2.437  12.228   0.555  1.00  0.00    -0.744 OA
ENDBRANCH  79  83
ENDBRANCH  62  76
BRANCH  63  87
ATOM     87  C   UNL     1       1.447  -1.739  -2.821  1.00  0.00     0.023 A 
ATOM     88  C   UNL     1       2.232  -2.030  -3.985  1.00  0.00     0.031 A 
ATOM     89  C   UNL     1       1.937  -2.269  -1.618  1.00  0.00     0.131 A 
ATOM     90  C   UNL     1       3.575  -2.460  -3.849  1.00  0.00     0.055 A 
ATOM     91  C   UNL     1       3.256  -2.734  -1.490  1.00  0.00     0.041 A 
ATOM     92  F   UNL     1       1.213  -2.198  -0.504  1.00  0.00    -0.206 F 
ATOM     93  C   UNL     1       4.101  -2.768  -2.594  1.00  0.00     0.022 A 
BRANCH  90  94
ATOM     94  S   UNL     1       4.739  -2.238  -5.246  1.00  0.00     0.124 S 
ATOM     95  O   UNL     1       4.458  -3.410  -6.066  1.00  0.00    -0.237 OA
ATOM     96  O   UNL     1       4.331  -0.952  -5.800  1.00  0.00    -0.237 OA
ATOM     97  O   UNL     1       6.047  -2.221  -4.591  1.00  0.00    -0.744 OA
ENDBRANCH  90  94
ENDBRANCH  63  87
BRANCH  75  98
ATOM     98  C   UNL     1      -4.389   2.824  -0.344  1.00  0.00     0.023 A 
ATOM     99  C   UNL     1      -5.091   1.643  -0.094  1.00  0.00     0.031 A 
ATOM    100  C   UNL     1      -4.828   3.935   0.446  1.00  0.00     0.131 A 
ATOM    101  C   UNL     1      -6.019   1.545   0.969  1.00  0.00     0.055 A 
ATOM    102  C   UNL     1      -5.693   3.822   1.543  1.00  0.00     0.041 A 
ATOM    103  F   UNL     1      -4.398   5.187   0.236  1.00  0.00    -0.206 F 
ATOM    104  C   UNL     1      -6.282   2.610   1.825  1.00  0.00     0.022 A 
BRANCH 101 105
ATOM    105  S   UNL     1      -6.828  -0.047   1.255  1.00  0.00     0.124 S 
ATOM    106  O   UNL     1      -7.224  -0.442  -0.093  1.00  0.00    -0.237 OA
ATOM    107  O   UNL     1      -5.751  -0.827   1.857  1.00  0.00    -0.237 OA
ATOM    108  O   UNL     1      -7.933   0.289   2.151  1.00  0.00    -0.744 OA
ENDBRANCH 101 105
ENDBRANCH  75  98
ENDBRANCH  49  50
ENDBRANCH  42  44
ENDBRANCH  41  42
ENDBRANCH  40  41
ENDBRANCH  39  40
ENDBRANCH  38  39
ENDBRANCH  37  38
ENDBRANCH  36  37
ENDBRANCH  35  36
ENDBRANCH   1  35
TORSDOF 27
