REMARK SMILES O=C(OCCOCCOCCOCCOC(=O)c1cc(SCc2csc(-c3ccsc3)n2)ccn1)c1ccc(-c2c3nc(c(-c4cc(S(=O)(=O)[O-])ccc4F)c4ccc([nH]4)c(-c4cc(S(=O)(=O)[O-])ccc4F)c4nc(c(-c5cc(S(=O)(=O)[O-])ccc5F)c5ccc2[nH]5)C=C4)C=C3)cc1
REMARK SMILES IDX 10 1 9 2 8 3 7 4 6 5 5 6 4 7 3 8 2 9 1 10 36 11 37 12 98 13
REMARK SMILES IDX 38 14 97 15 39 16 40 17 41 18 91 19 42 20 96 21 90 22 92 23
REMARK SMILES IDX 43 24 95 25 89 26 88 27 44 29 76 30 56 31 75 32 57 33 60 34
REMARK SMILES IDX 74 35 93 36 58 37 59 38 73 40 94 41 61 42 45 43 46 44 54 45
REMARK SMILES IDX 47 46 53 47 55 48 52 49 48 50 49 51 50 52 51 53 77 54 78 55
REMARK SMILES IDX 86 56 79 57 85 58 87 59 84 60 80 61 81 62 82 63 83 64 62 65
REMARK SMILES IDX 63 66 71 67 64 68 70 69 72 70 69 71 65 72 66 73 67 74 68 75
REMARK SMILES IDX 11 76 12 77 13 78 14 79 15 80 16 81 17 82 18 83 19 84 35 85
REMARK SMILES IDX 20 86 34 87 33 88 21 89 22 90 23 91 24 92 32 93 25 94 26 95
REMARK SMILES IDX 27 96 28 97 31 98 29 99 30 100
REMARK H PARENT 92 28 60 39
REMARK Flexibility Score: inf
ROOT
ATOM      1  C   UNL     1       4.047   2.627  -2.927  1.00  0.00     0.188 C 
ENDROOT
BRANCH   1   2
ATOM      2  O   UNL     1       2.624   2.713  -2.927  1.00  0.00    -0.377 OA
BRANCH   2   3
ATOM      3  C   UNL     1       1.946   2.129  -1.815  1.00  0.00     0.188 C 
BRANCH   3   4
ATOM      4  C   UNL     1       2.367   0.699  -1.478  1.00  0.00     0.188 C 
BRANCH   4   5
ATOM      5  O   UNL     1       3.696   0.677  -0.952  1.00  0.00    -0.376 OA
BRANCH   5   6
ATOM      6  C   UNL     1       4.477  -0.465  -1.306  1.00  0.00     0.202 C 
BRANCH   6   7
ATOM      7  C   UNL     1       4.264  -1.679  -0.398  1.00  0.00     0.261 C 
BRANCH   7   8
ATOM      8  O   UNL     1       2.892  -1.815   0.001  1.00  0.00    -0.460 OA
BRANCH   8   9
ATOM      9  C   UNL     1       2.309  -1.334   1.130  1.00  0.00     0.338 C 
ATOM     10  O   UNL     1       1.114  -1.570   1.310  1.00  0.00    -0.246 OA
BRANCH   9  11
ATOM     11  C   UNL     1       3.032  -0.548   2.181  1.00  0.00     0.060 A 
ATOM     12  C   UNL     1       4.178   0.222   1.975  1.00  0.00     0.016 A 
ATOM     13  C   UNL     1       2.479  -0.559   3.474  1.00  0.00     0.016 A 
ATOM     14  C   UNL     1       4.826   0.861   3.021  1.00  0.00     0.010 A 
ATOM     15  C   UNL     1       3.101   0.116   4.531  1.00  0.00     0.010 A 
ATOM     16  C   UNL     1       4.308   0.788   4.309  1.00  0.00    -0.014 A 
BRANCH  16  17
ATOM     17  C   UNL     1       5.176   1.238   5.414  1.00  0.00     0.031 A 
ATOM     18  C   UNL     1       5.898   0.182   6.198  1.00  0.00     0.074 A 
ATOM     19  C   UNL     1       5.444   2.546   5.573  1.00  0.00     0.049 A 
ATOM     20  N   UNL     1       6.702   0.303   7.218  1.00  0.00    -0.248 NA
ATOM     21  C   UNL     1       5.692  -1.208   5.754  1.00  0.00     0.031 C 
ATOM     22  C   UNL     1       4.906   3.622   4.736  1.00  0.00     0.029 A 
ATOM     23  N   UNL     1       6.267   3.190   6.455  1.00  0.00    -0.354 N 
ATOM     24  C   UNL     1       7.076  -0.994   7.556  1.00  0.00     0.074 A 
ATOM     25  C   UNL     1       6.397  -1.886   6.643  1.00  0.00     0.031 C 
ATOM     26  C   UNL     1       5.440   4.790   5.128  1.00  0.00     0.029 A 
ATOM     27  C   UNL     1       6.293   4.556   6.288  1.00  0.00     0.049 A 
ATOM     28  H   UNL     1       6.792   2.722   7.144  1.00  0.00     0.167 HD
ATOM     29  C   UNL     1       7.909  -1.395   8.546  1.00  0.00     0.034 A 
ATOM     30  C   UNL     1       6.913   5.501   7.021  1.00  0.00     0.034 A 
ATOM     31  C   UNL     1       8.550  -0.465   9.441  1.00  0.00     0.049 A 
ATOM     32  C   UNL     1       7.729   5.035   8.203  1.00  0.00     0.074 A 
ATOM     33  C   UNL     1       9.332  -0.720  10.550  1.00  0.00     0.029 A 
ATOM     34  N   UNL     1       8.470   0.921   9.318  1.00  0.00    -0.354 N 
ATOM     35  N   UNL     1       7.994   3.805   8.591  1.00  0.00    -0.248 NA
ATOM     36  C   UNL     1       8.317   6.075   9.052  1.00  0.00     0.031 C 
ATOM     37  C   UNL     1       9.671   0.508  11.132  1.00  0.00     0.029 A 
ATOM     38  C   UNL     1       9.166   1.533  10.344  1.00  0.00     0.049 A 
ATOM     39  H   UNL     1       7.987   1.395   8.603  1.00  0.00     0.167 HD
ATOM     40  C   UNL     1       8.796   3.926   9.721  1.00  0.00     0.074 A 
ATOM     41  C   UNL     1       8.990   5.348   9.933  1.00  0.00     0.031 C 
ATOM     42  C   UNL     1       9.324   2.960  10.518  1.00  0.00     0.034 A 
BRANCH  29  43
ATOM     43  C   UNL     1       8.046  -2.885   8.753  1.00  0.00     0.023 A 
ATOM     44  C   UNL     1       8.596  -3.729   7.769  1.00  0.00     0.031 A 
ATOM     45  C   UNL     1       7.493  -3.486   9.898  1.00  0.00     0.131 A 
ATOM     46  C   UNL     1       8.485  -5.123   7.901  1.00  0.00     0.055 A 
ATOM     47  C   UNL     1       7.467  -4.872  10.064  1.00  0.00     0.041 A 
ATOM     48  F   UNL     1       6.925  -2.737  10.856  1.00  0.00    -0.206 F 
ATOM     49  C   UNL     1       7.945  -5.700   9.053  1.00  0.00     0.022 A 
BRANCH  46  50
ATOM     50  S   UNL     1       8.879  -6.167   6.468  1.00  0.00     0.124 S 
ATOM     51  O   UNL     1       7.944  -5.658   5.466  1.00  0.00    -0.237 OA
ATOM     52  O   UNL     1      10.287  -5.869   6.236  1.00  0.00    -0.237 OA
ATOM     53  O   UNL     1       8.597  -7.521   6.940  1.00  0.00    -0.744 OA
ENDBRANCH  46  50
ENDBRANCH  29  43
BRANCH  30  54
ATOM     54  C   UNL     1       6.733   6.954   6.720  1.00  0.00     0.023 A 
ATOM     55  C   UNL     1       7.826   7.788   6.434  1.00  0.00     0.031 A 
ATOM     56  C   UNL     1       5.456   7.547   6.769  1.00  0.00     0.131 A 
ATOM     57  C   UNL     1       7.628   9.168   6.247  1.00  0.00     0.055 A 
ATOM     58  C   UNL     1       5.258   8.907   6.525  1.00  0.00     0.041 A 
ATOM     59  F   UNL     1       4.372   6.807   7.052  1.00  0.00    -0.206 F 
ATOM     60  C   UNL     1       6.350   9.729   6.276  1.00  0.00     0.022 A 
BRANCH  57  61
ATOM     61  S   UNL     1       9.079  10.242   6.061  1.00  0.00     0.124 S 
ATOM     62  O   UNL     1       9.826   9.948   7.278  1.00  0.00    -0.237 OA
ATOM     63  O   UNL     1       9.661   9.753   4.816  1.00  0.00    -0.237 OA
ATOM     64  O   UNL     1       8.503  11.584   5.992  1.00  0.00    -0.744 OA
ENDBRANCH  57  61
ENDBRANCH  30  54
BRANCH  42  65
ATOM     65  C   UNL     1      10.190   3.431  11.657  1.00  0.00     0.023 A 
ATOM     66  C   UNL     1       9.652   4.137  12.745  1.00  0.00     0.031 A 
ATOM     67  C   UNL     1      11.572   3.179  11.641  1.00  0.00     0.131 A 
ATOM     68  C   UNL     1      10.503   4.622  13.747  1.00  0.00     0.055 A 
ATOM     69  C   UNL     1      12.405   3.609  12.674  1.00  0.00     0.041 A 
ATOM     70  F   UNL     1      12.133   2.508  10.623  1.00  0.00    -0.206 F 
ATOM     71  C   UNL     1      11.873   4.347  13.727  1.00  0.00     0.022 A 
BRANCH  68  72
ATOM     72  S   UNL     1       9.809   5.702  15.027  1.00  0.00     0.124 S 
ATOM     73  O   UNL     1       9.260   6.798  14.234  1.00  0.00    -0.237 OA
ATOM     74  O   UNL     1       8.833   4.832  15.675  1.00  0.00    -0.237 OA
ATOM     75  O   UNL     1      10.968   6.051  15.846  1.00  0.00    -0.744 OA
ENDBRANCH  68  72
ENDBRANCH  42  65
ENDBRANCH  16  17
ENDBRANCH   9  11
ENDBRANCH   8   9
ENDBRANCH   7   8
ENDBRANCH   6   7
ENDBRANCH   5   6
ENDBRANCH   4   5
ENDBRANCH   3   4
ENDBRANCH   2   3
ENDBRANCH   1   2
BRANCH   1  76
ATOM     76  C   UNL     1       4.822   3.277  -1.760  1.00  0.00     0.188 C 
BRANCH  76  77
ATOM     77  O   UNL     1       3.990   3.880  -0.777  1.00  0.00    -0.376 OA
BRANCH  77  78
ATOM     78  C   UNL     1       3.983   5.303  -0.768  1.00  0.00     0.202 C 
BRANCH  78  79
ATOM     79  C   UNL     1       3.274   5.958  -1.961  1.00  0.00     0.261 C 
BRANCH  79  80
ATOM     80  O   UNL     1       3.802   5.598  -3.249  1.00  0.00    -0.459 OA
BRANCH  80  81
ATOM     81  C   UNL     1       5.026   6.072  -3.599  1.00  0.00     0.357 C 
ATOM     82  O   UNL     1       5.694   6.885  -3.006  1.00  0.00    -0.244 OA
BRANCH  81  83
ATOM     83  C   UNL     1       5.422   5.299  -4.814  1.00  0.00     0.149 A 
ATOM     84  C   UNL     1       4.619   5.371  -5.944  1.00  0.00     0.051 A 
ATOM     85  N   UNL     1       6.449   4.421  -4.667  1.00  0.00    -0.249 NA
ATOM     86  C   UNL     1       4.857   4.477  -6.984  1.00  0.00     0.012 A 
ATOM     87  C   UNL     1       6.646   3.554  -5.680  1.00  0.00     0.113 A 
ATOM     88  C   UNL     1       5.883   3.540  -6.836  1.00  0.00     0.035 A 
BRANCH  86  89
ATOM     89  S   UNL     1       3.943   4.433  -8.520  1.00  0.00    -0.120 SA
BRANCH  89  90
ATOM     90  C   UNL     1       2.524   5.535  -8.220  1.00  0.00     0.132 C 
BRANCH  90  91
ATOM     91  C   UNL     1       1.483   5.021  -7.270  1.00  0.00     0.062 A 
ATOM     92  C   UNL     1       0.427   5.768  -6.779  1.00  0.00     0.091 A 
ATOM     93  N   UNL     1       1.492   3.702  -6.832  1.00  0.00    -0.240 NA
ATOM     94  S   UNL     1      -0.649   4.770  -5.900  1.00  0.00    -0.122 S 
ATOM     95  C   UNL     1       0.408   3.435  -6.133  1.00  0.00     0.124 A 
BRANCH  95  96
ATOM     96  C   UNL     1       0.129   2.054  -5.616  1.00  0.00     0.021 A 
ATOM     97  C   UNL     1       1.133   1.067  -5.380  1.00  0.00     0.023 A 
ATOM     98  C   UNL     1      -1.132   1.577  -5.325  1.00  0.00     0.076 A 
ATOM     99  C   UNL     1       0.606  -0.106  -4.886  1.00  0.00     0.065 A 
ATOM    100  S   UNL     1      -1.100  -0.044  -4.772  1.00  0.00    -0.152 S 
ENDBRANCH  95  96
ENDBRANCH  90  91
ENDBRANCH  89  90
ENDBRANCH  86  89
ENDBRANCH  81  83
ENDBRANCH  80  81
ENDBRANCH  79  80
ENDBRANCH  78  79
ENDBRANCH  77  78
ENDBRANCH  76  77
ENDBRANCH   1  76
TORSDOF 27
