REMARK SMILES O=C(OCCOCCOCCOCCOC(=O)c1ccc(N2C(=O)[C@@H]3N=NC(c4ccccc4)=C3[C@H]2c2cccc(Br)c2)cc1)c1ccc(-c2c3nc(c(-c4cc(S(=O)(=O)[O-])ccc4F)c4ccc([nH]4)c(-c4cc(S(=O)(=O)[O-])ccc4F)c4nc(c(-c5cc(S(=O)(=O)[O-])ccc5F)c5ccc2[nH]5)C=C4)C=C3)cc1
REMARK SMILES IDX 8 1 7 2 6 3 5 4 4 5 3 6 2 7 1 8 46 9 47 10 108 11 48 12
REMARK SMILES IDX 107 13 49 14 50 15 51 16 101 17 52 18 106 19 100 20 102 21
REMARK SMILES IDX 53 22 105 23 99 24 98 25 54 27 86 28 66 29 85 30 67 31 70 32
REMARK SMILES IDX 84 33 103 34 68 35 69 36 83 38 104 39 71 40 55 41 56 42
REMARK SMILES IDX 64 43 57 44 63 45 65 46 62 47 58 48 59 49 60 50 61 51 87 52
REMARK SMILES IDX 88 53 96 54 89 55 95 56 97 57 94 58 90 59 91 60 92 61 93 62
REMARK SMILES IDX 72 63 73 64 81 65 74 66 80 67 82 68 79 69 75 70 76 71 77 72
REMARK SMILES IDX 78 73 9 74 10 75 11 76 12 77 13 78 14 79 15 80 16 81 17 82
REMARK SMILES IDX 18 83 19 84 45 85 20 86 44 87 21 88 22 89 23 90 36 91 25 92
REMARK SMILES IDX 24 93 35 94 26 95 28 96 27 97 37 98 38 99 43 100 39 101
REMARK SMILES IDX 41 102 40 103 42 104 29 105 30 106 34 107 31 108 33 109
REMARK SMILES IDX 32 110
REMARK H PARENT 102 26 70 37
REMARK Flexibility Score: inf
ROOT
ATOM      1  C   UNL     1       2.313  -0.232  -2.060  1.00  0.00     0.188 C 
ENDROOT
BRANCH   1   2
ATOM      2  C   UNL     1       3.092   0.919  -1.387  1.00  0.00     0.188 C 
BRANCH   2   3
ATOM      3  O   UNL     1       4.446   0.862  -0.965  1.00  0.00    -0.376 OA
BRANCH   3   4
ATOM      4  C   UNL     1       5.157  -0.162  -0.300  1.00  0.00     0.202 C 
BRANCH   4   5
ATOM      5  C   UNL     1       4.575  -1.161   0.702  1.00  0.00     0.261 C 
BRANCH   5   6
ATOM      6  O   UNL     1       3.195  -1.441   0.552  1.00  0.00    -0.460 OA
BRANCH   6   7
ATOM      7  C   UNL     1       2.145  -0.764   1.056  1.00  0.00     0.338 C 
ATOM      8  O   UNL     1       1.016  -1.161   0.761  1.00  0.00    -0.246 OA
BRANCH   7   9
ATOM      9  C   UNL     1       2.254   0.455   1.899  1.00  0.00     0.060 A 
ATOM     10  C   UNL     1       3.424   1.034   2.397  1.00  0.00     0.016 A 
ATOM     11  C   UNL     1       1.017   1.032   2.240  1.00  0.00     0.016 A 
ATOM     12  C   UNL     1       3.354   1.960   3.416  1.00  0.00     0.010 A 
ATOM     13  C   UNL     1       0.939   1.992   3.222  1.00  0.00     0.010 A 
ATOM     14  C   UNL     1       2.106   2.364   3.872  1.00  0.00    -0.014 A 
BRANCH  14  15
ATOM     15  C   UNL     1       2.059   3.311   4.963  1.00  0.00     0.031 A 
ATOM     16  C   UNL     1       2.622   4.626   4.581  1.00  0.00     0.074 A 
ATOM     17  C   UNL     1       1.477   2.994   6.135  1.00  0.00     0.049 A 
ATOM     18  N   UNL     1       3.731   5.149   4.987  1.00  0.00    -0.248 NA
ATOM     19  C   UNL     1       2.026   5.325   3.428  1.00  0.00     0.031 C 
ATOM     20  C   UNL     1       0.745   1.768   6.462  1.00  0.00     0.029 A 
ATOM     21  N   UNL     1       1.319   3.740   7.259  1.00  0.00    -0.354 N 
ATOM     22  C   UNL     1       3.783   6.397   4.378  1.00  0.00     0.074 A 
ATOM     23  C   UNL     1       2.896   6.320   3.253  1.00  0.00     0.031 C 
ATOM     24  C   UNL     1       0.017   1.967   7.584  1.00  0.00     0.029 A 
ATOM     25  C   UNL     1       0.316   3.287   8.115  1.00  0.00     0.049 A 
ATOM     26  H   UNL     1       1.866   4.535   7.452  1.00  0.00     0.167 HD
ATOM     27  C   UNL     1       4.243   7.469   5.080  1.00  0.00     0.034 A 
ATOM     28  C   UNL     1      -0.278   3.983   9.126  1.00  0.00     0.034 A 
ATOM     29  C   UNL     1       5.082   7.030   6.183  1.00  0.00     0.049 A 
ATOM     30  C   UNL     1       0.657   5.083   9.487  1.00  0.00     0.074 A 
ATOM     31  C   UNL     1       6.194   6.212   6.279  1.00  0.00     0.029 A 
ATOM     32  N   UNL     1       4.577   7.107   7.465  1.00  0.00    -0.354 N 
ATOM     33  N   UNL     1       1.828   4.868  10.023  1.00  0.00    -0.248 NA
ATOM     34  C   UNL     1       0.532   6.345   8.770  1.00  0.00     0.031 C 
ATOM     35  C   UNL     1       5.995   5.453   7.470  1.00  0.00     0.029 A 
ATOM     36  C   UNL     1       4.840   5.919   8.100  1.00  0.00     0.049 A 
ATOM     37  H   UNL     1       4.109   7.880   7.857  1.00  0.00     0.167 HD
ATOM     38  C   UNL     1       2.695   5.711   9.344  1.00  0.00     0.074 A 
ATOM     39  C   UNL     1       1.826   6.661   8.646  1.00  0.00     0.031 C 
ATOM     40  C   UNL     1       4.008   5.375   9.158  1.00  0.00     0.034 A 
BRANCH  27  41
ATOM     41  C   UNL     1       3.536   8.818   5.085  1.00  0.00     0.023 A 
ATOM     42  C   UNL     1       4.026   9.761   6.003  1.00  0.00     0.031 A 
ATOM     43  C   UNL     1       2.261   9.106   4.542  1.00  0.00     0.131 A 
ATOM     44  C   UNL     1       3.197  10.777   6.501  1.00  0.00     0.055 A 
ATOM     45  C   UNL     1       1.465  10.163   4.990  1.00  0.00     0.041 A 
ATOM     46  F   UNL     1       1.673   8.362   3.600  1.00  0.00    -0.206 F 
ATOM     47  C   UNL     1       1.911  10.977   6.014  1.00  0.00     0.022 A 
BRANCH  44  48
ATOM     48  S   UNL     1       3.764  11.673   7.964  1.00  0.00     0.124 S 
ATOM     49  O   UNL     1       3.961  10.572   8.901  1.00  0.00    -0.237 OA
ATOM     50  O   UNL     1       4.973  12.320   7.465  1.00  0.00    -0.237 OA
ATOM     51  O   UNL     1       2.652  12.570   8.262  1.00  0.00    -0.744 OA
ENDBRANCH  44  48
ENDBRANCH  27  41
BRANCH  28  52
ATOM     52  C   UNL     1      -1.723   3.955   9.520  1.00  0.00     0.023 A 
ATOM     53  C   UNL     1      -2.209   4.490  10.737  1.00  0.00     0.031 A 
ATOM     54  C   UNL     1      -2.702   3.593   8.566  1.00  0.00     0.131 A 
ATOM     55  C   UNL     1      -3.605   4.635  10.952  1.00  0.00     0.055 A 
ATOM     56  C   UNL     1      -4.074   3.734   8.784  1.00  0.00     0.041 A 
ATOM     57  F   UNL     1      -2.361   3.165   7.340  1.00  0.00    -0.206 F 
ATOM     58  C   UNL     1      -4.532   4.266   9.975  1.00  0.00     0.022 A 
BRANCH  55  59
ATOM     59  S   UNL     1      -4.253   5.391  12.483  1.00  0.00     0.124 S 
ATOM     60  O   UNL     1      -3.940   4.381  13.487  1.00  0.00    -0.237 OA
ATOM     61  O   UNL     1      -3.506   6.640  12.561  1.00  0.00    -0.237 OA
ATOM     62  O   UNL     1      -5.682   5.554  12.207  1.00  0.00    -0.744 OA
ENDBRANCH  55  59
ENDBRANCH  28  52
BRANCH  40  63
ATOM     63  C   UNL     1       4.591   4.241   9.979  1.00  0.00     0.023 A 
ATOM     64  C   UNL     1       4.084   2.921  10.034  1.00  0.00     0.031 A 
ATOM     65  C   UNL     1       5.787   4.506  10.670  1.00  0.00     0.131 A 
ATOM     66  C   UNL     1       4.762   1.936  10.782  1.00  0.00     0.055 A 
ATOM     67  C   UNL     1       6.466   3.525  11.389  1.00  0.00     0.041 A 
ATOM     68  F   UNL     1       6.338   5.730  10.634  1.00  0.00    -0.206 F 
ATOM     69  C   UNL     1       5.950   2.237  11.456  1.00  0.00     0.022 A 
BRANCH  66  70
ATOM     70  S   UNL     1       4.099   0.244  10.925  1.00  0.00     0.124 S 
ATOM     71  O   UNL     1       2.677   0.450  11.165  1.00  0.00    -0.237 OA
ATOM     72  O   UNL     1       4.452  -0.340   9.633  1.00  0.00    -0.237 OA
ATOM     73  O   UNL     1       4.836  -0.313  12.062  1.00  0.00    -0.744 OA
ENDBRANCH  66  70
ENDBRANCH  40  63
ENDBRANCH  14  15
ENDBRANCH   7   9
ENDBRANCH   6   7
ENDBRANCH   5   6
ENDBRANCH   4   5
ENDBRANCH   3   4
ENDBRANCH   2   3
ENDBRANCH   1   2
BRANCH   1  74
ATOM     74  O   UNL     1       2.798  -0.735  -3.293  1.00  0.00    -0.377 OA
BRANCH  74  75
ATOM     75  C   UNL     1       4.114  -1.236  -3.223  1.00  0.00     0.188 C 
BRANCH  75  76
ATOM     76  C   UNL     1       5.163  -0.260  -3.787  1.00  0.00     0.188 C 
BRANCH  76  77
ATOM     77  O   UNL     1       4.790   1.020  -4.271  1.00  0.00    -0.376 OA
BRANCH  77  78
ATOM     78  C   UNL     1       3.589   1.182  -5.006  1.00  0.00     0.202 C 
BRANCH  78  79
ATOM     79  C   UNL     1       3.210   0.231  -6.162  1.00  0.00     0.261 C 
BRANCH  79  80
ATOM     80  O   UNL     1       3.566  -1.162  -6.046  1.00  0.00    -0.460 OA
BRANCH  80  81
ATOM     81  C   UNL     1       4.657  -1.568  -6.731  1.00  0.00     0.338 C 
ATOM     82  O   UNL     1       5.382  -0.876  -7.440  1.00  0.00    -0.246 OA
BRANCH  81  83
ATOM     83  C   UNL     1       4.984  -2.978  -6.408  1.00  0.00     0.060 A 
ATOM     84  C   UNL     1       6.099  -3.238  -5.607  1.00  0.00     0.018 A 
ATOM     85  C   UNL     1       4.256  -4.051  -6.936  1.00  0.00     0.018 A 
ATOM     86  C   UNL     1       6.455  -4.551  -5.300  1.00  0.00     0.027 A 
ATOM     87  C   UNL     1       4.661  -5.382  -6.679  1.00  0.00     0.027 A 
ATOM     88  C   UNL     1       5.758  -5.639  -5.850  1.00  0.00     0.045 A 
BRANCH  88  89
ATOM     89  N   UNL     1       6.199  -6.972  -5.549  1.00  0.00    -0.299 N 
ATOM     90  C   UNL     1       6.502  -7.216  -4.166  1.00  0.00     0.259 C 
ATOM     91  C   UNL     1       7.224  -7.583  -6.420  1.00  0.00     0.152 C 
ATOM     92  C   UNL     1       7.733  -8.069  -4.088  1.00  0.00     0.248 C 
ATOM     93  O   UNL     1       5.897  -6.766  -3.201  1.00  0.00    -0.271 OA
ATOM     94  C   UNL     1       8.311  -7.748  -5.416  1.00  0.00     0.021 C 
ATOM     95  N   UNL     1       8.778  -7.629  -3.162  1.00  0.00    -0.170 NA
ATOM     96  C   UNL     1       9.576  -7.401  -5.179  1.00  0.00     0.097 C 
ATOM     97  N   UNL     1       9.840  -7.460  -3.819  1.00  0.00    -0.154 NA
BRANCH  91  98
ATOM     98  C   UNL     1       6.937  -8.960  -7.069  1.00  0.00    -0.020 A 
ATOM     99  C   UNL     1       7.054 -10.167  -6.346  1.00  0.00     0.006 A 
ATOM    100  C   UNL     1       6.910  -9.072  -8.468  1.00  0.00     0.022 A 
ATOM    101  C   UNL     1       7.489 -11.345  -6.953  1.00  0.00     0.002 A 
ATOM    102  C   UNL     1       7.248 -10.287  -9.084  1.00  0.00     0.018 A 
ATOM    103  C   UNL     1       7.629 -11.394  -8.329  1.00  0.00     0.016 A 
ATOM    104  Br  UNL     1       7.278 -10.421 -10.970  1.00  0.00    -0.051 Br
ENDBRANCH  91  98
BRANCH  96 105
ATOM    105  C   UNL     1      10.596  -6.701  -5.967  1.00  0.00     0.002 A 
ATOM    106  C   UNL     1      11.579  -7.399  -6.677  1.00  0.00     0.010 A 
ATOM    107  C   UNL     1      10.836  -5.371  -5.583  1.00  0.00     0.010 A 
ATOM    108  C   UNL     1      12.840  -6.818  -6.859  1.00  0.00     0.001 A 
ATOM    109  C   UNL     1      12.099  -4.809  -5.740  1.00  0.00     0.001 A 
ATOM    110  C   UNL     1      13.111  -5.546  -6.346  1.00  0.00     0.000 A 
ENDBRANCH  96 105
ENDBRANCH  88  89
ENDBRANCH  81  83
ENDBRANCH  80  81
ENDBRANCH  79  80
ENDBRANCH  78  79
ENDBRANCH  77  78
ENDBRANCH  76  77
ENDBRANCH  75  76
ENDBRANCH  74  75
ENDBRANCH   1  74
TORSDOF 26
