REMARK SMILES Cc1ccc(NC(=O)C[C@@H]2C[NH2+]CCO2)c(C(=O)OCCOCCOCCOCCOC(=O)c2ccc(-c3c4nc(c(-c5cc(S(=O)(=O)[O-])ccc5F)c5ccc([nH]5)c(-c5cc(S(=O)(=O)[O-])ccc5F)c5nc(c(-c6cc(S(=O)(=O)[O-])ccc6F)c6ccc3[nH]6)C=C5)C=C4)cc2)c1
REMARK SMILES IDX 25 1 24 2 23 3 22 4 21 5 20 6 19 7 17 8 18 9 16 10 1 11 2 12
REMARK SMILES IDX 3 13 97 14 4 15 5 16 6 17 7 18 8 20 9 21 10 22 11 23 15 24
REMARK SMILES IDX 12 25 14 26 13 27 26 30 27 31 28 32 29 33 30 34 31 35 32 36
REMARK SMILES IDX 33 37 34 38 35 39 96 40 36 41 95 42 37 43 38 44 39 45 89 46
REMARK SMILES IDX 40 47 94 48 88 49 90 50 41 51 93 52 87 53 86 54 42 56 74 57
REMARK SMILES IDX 54 58 73 59 55 60 58 61 72 62 91 63 56 64 57 65 71 67 92 68
REMARK SMILES IDX 59 69 43 70 44 71 52 72 45 73 51 74 53 75 50 76 46 77 47 78
REMARK SMILES IDX 48 79 49 80 75 81 76 82 84 83 77 84 83 85 85 86 82 87 78 88
REMARK SMILES IDX 79 89 80 90 81 91 60 92 61 93 69 94 62 95 68 96 70 97 67 98
REMARK SMILES IDX 63 99 64 100 65 101 66 102
REMARK H PARENT 6 19 12 28 12 29 90 55 58 66
REMARK Flexibility Score: inf
ROOT
ATOM      1  O   UNL     1      -1.179   2.723  -2.281  1.00  0.00    -0.377 OA
ENDROOT
BRANCH   1   2
ATOM      2  C   UNL     1      -1.294   1.355  -2.646  1.00  0.00     0.188 C 
BRANCH   2   3
ATOM      3  C   UNL     1      -2.646   0.684  -2.328  1.00  0.00     0.188 C 
BRANCH   3   4
ATOM      4  O   UNL     1      -3.827   1.477  -2.383  1.00  0.00    -0.376 OA
BRANCH   4   5
ATOM      5  C   UNL     1      -3.989   2.399  -1.297  1.00  0.00     0.202 C 
BRANCH   5   6
ATOM      6  C   UNL     1      -3.896   1.793   0.099  1.00  0.00     0.261 C 
BRANCH   6   7
ATOM      7  O   UNL     1      -2.517   1.508   0.391  1.00  0.00    -0.460 OA
BRANCH   7   8
ATOM      8  C   UNL     1      -2.355   0.712   1.463  1.00  0.00     0.340 C 
ATOM      9  O   UNL     1      -3.188   0.434   2.305  1.00  0.00    -0.246 OA
BRANCH   8  10
ATOM     10  C   UNL     1      -1.245  -0.206   1.186  1.00  0.00     0.083 A 
ATOM     11  C   UNL     1       2.435  -0.193   0.248  1.00  0.00     0.044 C 
ATOM     12  C   UNL     1       1.057  -0.656   0.619  1.00  0.00    -0.050 A 
ATOM     13  C   UNL     1       0.747  -2.023   0.604  1.00  0.00     0.005 A 
ATOM     14  C   UNL     1       0.056   0.257   0.957  1.00  0.00     0.021 A 
ATOM     15  C   UNL     1      -0.567  -2.472   0.804  1.00  0.00     0.027 A 
ATOM     16  C   UNL     1      -1.597  -1.563   1.014  1.00  0.00     0.055 A 
BRANCH  16  17
ATOM     17  N   UNL     1      -2.986  -1.871   0.953  1.00  0.00    -0.325 N 
ATOM     18  C   UNL     1      -3.707  -2.670   0.116  1.00  0.00     0.227 C 
ATOM     19  H   UNL     1      -3.526  -1.424   1.643  1.00  0.00     0.169 HD
ATOM     20  O   UNL     1      -4.904  -2.421  -0.061  1.00  0.00    -0.275 OA
BRANCH  18  21
ATOM     21  C   UNL     1      -3.111  -3.864  -0.563  1.00  0.00     0.138 C 
BRANCH  21  22
ATOM     22  C   UNL     1      -2.359  -3.623  -1.875  1.00  0.00     0.182 C 
ATOM     23  C   UNL     1      -1.396  -4.824  -2.073  1.00  0.00     0.293 C 
ATOM     24  O   UNL     1      -1.642  -2.386  -1.869  1.00  0.00    -0.366 OA
ATOM     25  N   UNL     1      -0.482  -4.683  -3.220  1.00  0.00    -0.342 N 
ATOM     26  C   UNL     1      -0.770  -2.239  -2.992  1.00  0.00     0.222 C 
ATOM     27  C   UNL     1       0.224  -3.397  -3.071  1.00  0.00     0.289 C 
ATOM     28  H   UNL     1      -1.014  -4.690  -4.091  1.00  0.00     0.346 HD
ATOM     29  H   UNL     1       0.183  -5.456  -3.246  1.00  0.00     0.346 HD
ENDBRANCH  21  22
ENDBRANCH  18  21
ENDBRANCH  16  17
ENDBRANCH   8  10
ENDBRANCH   7   8
ENDBRANCH   6   7
ENDBRANCH   5   6
ENDBRANCH   4   5
ENDBRANCH   3   4
ENDBRANCH   2   3
ENDBRANCH   1   2
BRANCH   1  30
ATOM     30  C   UNL     1      -0.408   3.504  -3.208  1.00  0.00     0.188 C 
BRANCH  30  31
ATOM     31  C   UNL     1      -1.007   3.552  -4.614  1.00  0.00     0.188 C 
BRANCH  31  32
ATOM     32  O   UNL     1      -2.430   3.499  -4.521  1.00  0.00    -0.376 OA
BRANCH  32  33
ATOM     33  C   UNL     1      -3.086   2.998  -5.676  1.00  0.00     0.202 C 
BRANCH  33  34
ATOM     34  C   UNL     1      -3.051   4.003  -6.830  1.00  0.00     0.261 C 
BRANCH  34  35
ATOM     35  O   UNL     1      -3.815   5.172  -6.474  1.00  0.00    -0.460 OA
BRANCH  35  36
ATOM     36  C   UNL     1      -3.062   6.215  -6.024  1.00  0.00     0.338 C 
ATOM     37  O   UNL     1      -2.239   6.808  -6.697  1.00  0.00    -0.246 OA
BRANCH  36  38
ATOM     38  C   UNL     1      -3.323   6.454  -4.575  1.00  0.00     0.060 A 
ATOM     39  C   UNL     1      -2.417   7.198  -3.805  1.00  0.00     0.016 A 
ATOM     40  C   UNL     1      -4.350   5.762  -3.940  1.00  0.00     0.016 A 
ATOM     41  C   UNL     1      -2.471   7.146  -2.399  1.00  0.00     0.010 A 
ATOM     42  C   UNL     1      -4.355   5.669  -2.558  1.00  0.00     0.010 A 
ATOM     43  C   UNL     1      -3.405   6.326  -1.757  1.00  0.00    -0.014 A 
BRANCH  43  44
ATOM     44  C   UNL     1      -3.347   5.910  -0.332  1.00  0.00     0.031 A 
ATOM     45  C   UNL     1      -4.593   5.735   0.497  1.00  0.00     0.074 A 
ATOM     46  C   UNL     1      -2.209   5.324   0.129  1.00  0.00     0.049 A 
ATOM     47  N   UNL     1      -4.603   5.316   1.721  1.00  0.00    -0.248 NA
ATOM     48  C   UNL     1      -5.957   6.008   0.032  1.00  0.00     0.031 C 
ATOM     49  C   UNL     1      -2.115   4.304   1.172  1.00  0.00     0.029 A 
ATOM     50  N   UNL     1      -0.874   5.484  -0.265  1.00  0.00    -0.354 N 
ATOM     51  C   UNL     1      -5.855   4.808   1.980  1.00  0.00     0.074 A 
ATOM     52  C   UNL     1      -6.694   5.417   0.982  1.00  0.00     0.031 C 
ATOM     53  C   UNL     1      -0.839   4.016   1.445  1.00  0.00     0.029 A 
ATOM     54  C   UNL     1      -0.061   5.038   0.803  1.00  0.00     0.049 A 
ATOM     55  H   UNL     1      -0.560   5.841  -1.127  1.00  0.00     0.167 HD
ATOM     56  C   UNL     1      -5.998   3.789   2.881  1.00  0.00     0.034 A 
ATOM     57  C   UNL     1       0.771   5.874   1.487  1.00  0.00     0.034 A 
ATOM     58  C   UNL     1      -4.792   3.569   3.702  1.00  0.00     0.049 A 
ATOM     59  C   UNL     1       0.363   5.986   2.941  1.00  0.00     0.074 A 
ATOM     60  C   UNL     1      -4.115   2.446   4.140  1.00  0.00     0.029 A 
ATOM     61  N   UNL     1      -4.020   4.654   4.134  1.00  0.00    -0.354 N 
ATOM     62  N   UNL     1      -0.850   5.711   3.350  1.00  0.00    -0.248 NA
ATOM     63  C   UNL     1       1.261   6.272   4.055  1.00  0.00     0.031 C 
ATOM     64  C   UNL     1      -2.864   2.855   4.679  1.00  0.00     0.029 A 
ATOM     65  C   UNL     1      -2.841   4.240   4.712  1.00  0.00     0.049 A 
ATOM     66  H   UNL     1      -4.287   5.597   4.038  1.00  0.00     0.167 HD
ATOM     67  C   UNL     1      -0.880   5.642   4.710  1.00  0.00     0.074 A 
ATOM     68  C   UNL     1       0.449   6.071   5.114  1.00  0.00     0.031 C 
ATOM     69  C   UNL     1      -1.965   5.177   5.400  1.00  0.00     0.034 A 
BRANCH  56  70
ATOM     70  C   UNL     1      -7.180   2.811   2.901  1.00  0.00     0.023 A 
ATOM     71  C   UNL     1      -7.347   1.919   3.990  1.00  0.00     0.031 A 
ATOM     72  C   UNL     1      -8.078   2.604   1.827  1.00  0.00     0.131 A 
ATOM     73  C   UNL     1      -8.333   0.905   3.978  1.00  0.00     0.055 A 
ATOM     74  C   UNL     1      -9.112   1.655   1.855  1.00  0.00     0.041 A 
ATOM     75  F   UNL     1      -7.964   3.258   0.664  1.00  0.00    -0.206 F 
ATOM     76  C   UNL     1      -9.241   0.794   2.930  1.00  0.00     0.022 A 
BRANCH  73  77
ATOM     77  S   UNL     1      -8.407  -0.315   5.326  1.00  0.00     0.124 S 
ATOM     78  O   UNL     1      -7.249  -1.157   5.045  1.00  0.00    -0.237 OA
ATOM     79  O   UNL     1      -8.326   0.518   6.520  1.00  0.00    -0.237 OA
ATOM     80  O   UNL     1      -9.703  -0.965   5.124  1.00  0.00    -0.744 OA
ENDBRANCH  73  77
ENDBRANCH  56  70
BRANCH  57  81
ATOM     81  C   UNL     1       1.452   6.827   0.572  1.00  0.00     0.023 A 
ATOM     82  C   UNL     1       2.317   6.213  -0.367  1.00  0.00     0.031 A 
ATOM     83  C   UNL     1       0.852   8.044   0.217  1.00  0.00     0.131 A 
ATOM     84  C   UNL     1       2.368   6.682  -1.687  1.00  0.00     0.055 A 
ATOM     85  C   UNL     1       0.971   8.551  -1.086  1.00  0.00     0.041 A 
ATOM     86  F   UNL     1       0.011   8.662   1.059  1.00  0.00    -0.206 F 
ATOM     87  C   UNL     1       1.680   7.840  -2.058  1.00  0.00     0.022 A 
BRANCH  84  88
ATOM     88  S   UNL     1       3.058   5.609  -2.990  1.00  0.00     0.124 S 
ATOM     89  O   UNL     1       4.341   6.246  -3.264  1.00  0.00    -0.237 OA
ATOM     90  O   UNL     1       3.129   4.295  -2.355  1.00  0.00    -0.237 OA
ATOM     91  O   UNL     1       2.059   5.705  -4.054  1.00  0.00    -0.744 OA
ENDBRANCH  84  88
ENDBRANCH  57  81
BRANCH  69  92
ATOM     92  C   UNL     1      -2.273   5.489   6.843  1.00  0.00     0.023 A 
ATOM     93  C   UNL     1      -1.643   6.534   7.527  1.00  0.00     0.031 A 
ATOM     94  C   UNL     1      -3.352   4.866   7.524  1.00  0.00     0.131 A 
ATOM     95  C   UNL     1      -2.036   6.886   8.828  1.00  0.00     0.055 A 
ATOM     96  C   UNL     1      -3.782   5.260   8.790  1.00  0.00     0.041 A 
ATOM     97  F   UNL     1      -4.066   3.872   6.978  1.00  0.00    -0.206 F 
ATOM     98  C   UNL     1      -3.117   6.274   9.457  1.00  0.00     0.022 A 
BRANCH  95  99
ATOM     99  S   UNL     1      -1.078   8.158   9.681  1.00  0.00     0.124 S 
ATOM    100  O   UNL     1       0.231   7.519   9.792  1.00  0.00    -0.237 OA
ATOM    101  O   UNL     1      -1.155   9.285   8.758  1.00  0.00    -0.237 OA
ATOM    102  O   UNL     1      -1.791   8.338  10.944  1.00  0.00    -0.744 OA
ENDBRANCH  95  99
ENDBRANCH  69  92
ENDBRANCH  43  44
ENDBRANCH  36  38
ENDBRANCH  35  36
ENDBRANCH  34  35
ENDBRANCH  33  34
ENDBRANCH  32  33
ENDBRANCH  31  32
ENDBRANCH  30  31
ENDBRANCH   1  30
TORSDOF 26
