REMARK SMILES Cc1ccc([C@@H]2[C@H](C(=O)OCCOCCOCCOCCOC(=O)c3ccc(-c4c5nc(c(-c6cc(S(=O)(=O)[O-])ccc6F)c6ccc([nH]6)c(-c6cc(S(=O)(=O)[O-])ccc6F)c6nc(c(-c7cc(S(=O)(=O)[O-])ccc7F)c7ccc4[nH]7)C=C6)C=C5)cc3)c3ccccc3C(=O)N2c2ccccc2)cc1
REMARK SMILES IDX 17 1 16 2 15 3 14 4 13 5 12 6 11 7 10 8 8 9 9 10 7 11 6 12
REMARK SMILES IDX 96 13 88 14 94 15 89 16 93 17 95 18 90 19 92 20 91 21 5 22
REMARK SMILES IDX 1 23 2 24 3 25 104 26 4 27 103 28 97 29 98 30 102 31 99 32
REMARK SMILES IDX 101 33 100 34 18 35 19 36 20 37 21 38 22 39 23 40 24 41
REMARK SMILES IDX 25 42 26 43 87 44 27 45 86 46 28 47 29 48 30 49 80 50 31 51
REMARK SMILES IDX 85 52 79 53 81 54 32 55 84 56 78 57 77 58 33 60 65 61 45 62
REMARK SMILES IDX 64 63 46 64 49 65 63 66 82 67 47 68 48 69 62 71 83 72 50 73
REMARK SMILES IDX 34 74 35 75 43 76 36 77 42 78 44 79 41 80 37 81 38 82 39 83
REMARK SMILES IDX 40 84 66 85 67 86 75 87 68 88 74 89 76 90 73 91 69 92 70 93
REMARK SMILES IDX 71 94 72 95 51 96 52 97 60 98 53 99 59 100 61 101 58 102
REMARK SMILES IDX 54 103 55 104 56 105 57 106
REMARK H PARENT 81 59 49 70
REMARK Flexibility Score: inf
ROOT
ATOM      1  C   UNL     1      -6.986  -3.746   3.489  1.00  0.00     0.188 C 
ENDROOT
BRANCH   1   2
ATOM      2  O   UNL     1      -5.910  -3.256   2.713  1.00  0.00    -0.377 OA
BRANCH   2   3
ATOM      3  C   UNL     1      -5.444  -3.708   1.444  1.00  0.00     0.188 C 
BRANCH   3   4
ATOM      4  C   UNL     1      -4.795  -5.138   0.848  1.00  0.00     0.188 C 
BRANCH   4   5
ATOM      5  O   UNL     1      -3.571  -6.373   1.388  1.00  0.00    -0.376 OA
BRANCH   5   6
ATOM      6  C   UNL     1      -2.306  -6.471   2.597  1.00  0.00     0.202 C 
BRANCH   6   7
ATOM      7  C   UNL     1      -1.457  -5.103   3.547  1.00  0.00     0.261 C 
BRANCH   7   8
ATOM      8  O   UNL     1      -1.623  -3.328   3.303  1.00  0.00    -0.463 OA
BRANCH   8   9
ATOM      9  C   UNL     1      -1.411  -2.154   2.506  1.00  0.00     0.316 C 
ATOM     10  O   UNL     1      -0.455  -2.030   1.735  1.00  0.00    -0.251 OA
BRANCH   9  11
ATOM     11  C   UNL     1      -2.353  -0.768   2.535  1.00  0.00     0.157 C 
ATOM     12  C   UNL     1      -2.464  -0.092   1.098  1.00  0.00     0.140 C 
ATOM     13  N   UNL     1      -3.639  -0.571   0.327  1.00  0.00    -0.300 N 
ATOM     14  C   UNL     1      -3.780  -0.436   3.153  1.00  0.00    -0.019 A 
ATOM     15  C   UNL     1      -4.859  -0.150   0.870  1.00  0.00     0.259 C 
ATOM     16  C   UNL     1      -3.952  -0.136   4.525  1.00  0.00     0.005 A 
ATOM     17  C   UNL     1      -4.928  -0.207   2.356  1.00  0.00     0.044 A 
ATOM     18  O   UNL     1      -5.835   0.237   0.230  1.00  0.00    -0.269 OA
ATOM     19  C   UNL     1      -5.224   0.028   5.102  1.00  0.00     0.000 A 
ATOM     20  C   UNL     1      -6.196   0.040   2.927  1.00  0.00     0.014 A 
ATOM     21  C   UNL     1      -6.353   0.093   4.303  1.00  0.00     0.001 A 
BRANCH  12  22
ATOM     22  C   UNL     1      -1.177   0.456   0.473  1.00  0.00    -0.024 A 
ATOM     23  C   UNL     1       3.047   0.842  -0.020  1.00  0.00     0.044 C 
ATOM     24  C   UNL     1       1.553   0.906   0.002  1.00  0.00    -0.051 A 
ATOM     25  C   UNL     1       0.800   0.137  -0.880  1.00  0.00     0.004 A 
ATOM     26  C   UNL     1       0.895   1.645   0.981  1.00  0.00     0.004 A 
ATOM     27  C   UNL     1      -0.572  -0.010  -0.689  1.00  0.00     0.006 A 
ATOM     28  C   UNL     1      -0.455   1.409   1.224  1.00  0.00     0.006 A 
ENDBRANCH  12  22
BRANCH  13  29
ATOM     29  C   UNL     1      -3.671  -1.580  -0.695  1.00  0.00     0.045 A 
ATOM     30  C   UNL     1      -4.876  -1.956  -1.329  1.00  0.00     0.026 A 
ATOM     31  C   UNL     1      -2.561  -2.340  -1.025  1.00  0.00     0.026 A 
ATOM     32  C   UNL     1      -4.956  -3.028  -2.229  1.00  0.00     0.002 A 
ATOM     33  C   UNL     1      -2.597  -3.293  -2.051  1.00  0.00     0.002 A 
ATOM     34  C   UNL     1      -3.803  -3.688  -2.608  1.00  0.00     0.000 A 
ENDBRANCH  13  29
ENDBRANCH   9  11
ENDBRANCH   8   9
ENDBRANCH   7   8
ENDBRANCH   6   7
ENDBRANCH   5   6
ENDBRANCH   4   5
ENDBRANCH   3   4
ENDBRANCH   2   3
ENDBRANCH   1   2
BRANCH   1  35
ATOM     35  C   UNL     1      -8.271  -4.105   2.799  1.00  0.00     0.188 C 
BRANCH  35  36
ATOM     36  O   UNL     1      -7.968  -4.778   1.585  1.00  0.00    -0.376 OA
BRANCH  36  37
ATOM     37  C   UNL     1      -9.095  -4.955   0.751  1.00  0.00     0.202 C 
BRANCH  37  38
ATOM     38  C   UNL     1     -10.039  -6.028   1.302  1.00  0.00     0.261 C 
BRANCH  38  39
ATOM     39  O   UNL     1      -9.311  -7.256   1.525  1.00  0.00    -0.460 OA
BRANCH  39  40
ATOM     40  C   UNL     1      -9.089  -7.591   2.842  1.00  0.00     0.338 C 
ATOM     41  O   UNL     1      -9.947  -7.724   3.680  1.00  0.00    -0.246 OA
BRANCH  40  42
ATOM     42  C   UNL     1      -7.616  -7.601   3.080  1.00  0.00     0.060 A 
ATOM     43  C   UNL     1      -6.993  -7.258   4.275  1.00  0.00     0.016 A 
ATOM     44  C   UNL     1      -6.795  -7.769   2.019  1.00  0.00     0.016 A 
ATOM     45  C   UNL     1      -5.678  -6.658   4.290  1.00  0.00     0.010 A 
ATOM     46  C   UNL     1      -5.533  -7.189   2.101  1.00  0.00     0.010 A 
ATOM     47  C   UNL     1      -5.006  -6.272   3.127  1.00  0.00    -0.014 A 
BRANCH  47  48
ATOM     48  C   UNL     1      -3.804  -4.829   2.963  1.00  0.00     0.031 A 
ATOM     49  C   UNL     1      -2.520  -4.586   1.427  1.00  0.00     0.074 A 
ATOM     50  C   UNL     1      -3.895  -4.106   4.183  1.00  0.00     0.049 A 
ATOM     51  N   UNL     1      -1.178  -4.367   1.499  1.00  0.00    -0.248 NA
ATOM     52  C   UNL     1      -2.375  -5.345  -0.049  1.00  0.00     0.031 C 
ATOM     53  C   UNL     1      -3.305  -2.876   4.694  1.00  0.00     0.029 A 
ATOM     54  N   UNL     1      -4.418  -4.525   5.425  1.00  0.00    -0.354 N 
ATOM     55  C   UNL     1      -0.281  -4.814   0.544  1.00  0.00     0.074 A 
ATOM     56  C   UNL     1      -1.096  -5.502  -0.369  1.00  0.00     0.031 C 
ATOM     57  C   UNL     1      -3.079  -2.820   5.998  1.00  0.00     0.029 A 
ATOM     58  C   UNL     1      -3.614  -4.019   6.461  1.00  0.00     0.049 A 
ATOM     59  H   UNL     1      -5.220  -5.084   5.547  1.00  0.00     0.167 HD
ATOM     60  C   UNL     1       1.090  -4.673   0.594  1.00  0.00     0.034 A 
ATOM     61  C   UNL     1      -3.103  -4.673   7.509  1.00  0.00     0.034 A 
ATOM     62  C   UNL     1       1.599  -4.168   1.890  1.00  0.00     0.049 A 
ATOM     63  C   UNL     1      -1.557  -4.747   7.365  1.00  0.00     0.074 A 
ATOM     64  C   UNL     1       1.986  -2.918   2.346  1.00  0.00     0.029 A 
ATOM     65  N   UNL     1       1.624  -4.964   3.047  1.00  0.00    -0.354 N 
ATOM     66  N   UNL     1      -0.828  -4.450   6.287  1.00  0.00    -0.248 NA
ATOM     67  C   UNL     1      -0.704  -5.054   8.502  1.00  0.00     0.031 C 
ATOM     68  C   UNL     1       1.842  -2.900   3.776  1.00  0.00     0.029 A 
ATOM     69  C   UNL     1       1.555  -4.184   4.231  1.00  0.00     0.049 A 
ATOM     70  H   UNL     1       1.683  -5.946   3.038  1.00  0.00     0.167 HD
ATOM     71  C   UNL     1       0.524  -4.697   6.513  1.00  0.00     0.074 A 
ATOM     72  C   UNL     1       0.521  -4.928   7.963  1.00  0.00     0.031 C 
ATOM     73  C   UNL     1       1.581  -4.781   5.598  1.00  0.00     0.034 A 
BRANCH  60  74
ATOM     74  C   UNL     1       1.889  -4.671  -0.745  1.00  0.00     0.023 A 
ATOM     75  C   UNL     1       2.896  -3.704  -0.976  1.00  0.00     0.031 A 
ATOM     76  C   UNL     1       1.612  -5.487  -1.872  1.00  0.00     0.131 A 
ATOM     77  C   UNL     1       3.435  -3.487  -2.272  1.00  0.00     0.055 A 
ATOM     78  C   UNL     1       2.079  -5.219  -3.172  1.00  0.00     0.041 A 
ATOM     79  F   UNL     1       0.937  -6.639  -1.760  1.00  0.00    -0.206 F 
ATOM     80  C   UNL     1       2.986  -4.201  -3.381  1.00  0.00     0.022 A 
BRANCH  77  81
ATOM     81  S   UNL     1       4.781  -2.299  -2.560  1.00  0.00     0.124 S 
ATOM     82  O   UNL     1       4.043  -1.091  -2.916  1.00  0.00    -0.237 OA
ATOM     83  O   UNL     1       5.488  -2.272  -1.286  1.00  0.00    -0.237 OA
ATOM     84  O   UNL     1       5.527  -2.909  -3.662  1.00  0.00    -0.744 OA
ENDBRANCH  77  81
ENDBRANCH  60  74
BRANCH  61  85
ATOM     85  C   UNL     1      -4.257  -5.413   8.119  1.00  0.00     0.023 A 
ATOM     86  C   UNL     1      -5.422  -4.591   8.357  1.00  0.00     0.031 A 
ATOM     87  C   UNL     1      -4.488  -6.768   7.887  1.00  0.00     0.131 A 
ATOM     88  C   UNL     1      -6.715  -5.061   8.066  1.00  0.00     0.055 A 
ATOM     89  C   UNL     1      -5.801  -7.264   7.743  1.00  0.00     0.041 A 
ATOM     90  F   UNL     1      -3.468  -7.587   7.597  1.00  0.00    -0.206 F 
ATOM     91  C   UNL     1      -6.910  -6.405   7.768  1.00  0.00     0.022 A 
BRANCH  88  92
ATOM     92  S   UNL     1      -8.046  -3.859   7.647  1.00  0.00     0.124 S 
ATOM     93  O   UNL     1      -8.771  -3.748   8.907  1.00  0.00    -0.237 OA
ATOM     94  O   UNL     1      -7.302  -2.674   7.231  1.00  0.00    -0.237 OA
ATOM     95  O   UNL     1      -8.759  -4.522   6.556  1.00  0.00    -0.744 OA
ENDBRANCH  88  92
ENDBRANCH  61  85
BRANCH  73  96
ATOM     96  C   UNL     1       2.921  -5.437   5.981  1.00  0.00     0.023 A 
ATOM     97  C   UNL     1       3.056  -6.279   7.090  1.00  0.00     0.031 A 
ATOM     98  C   UNL     1       4.097  -5.303   5.197  1.00  0.00     0.131 A 
ATOM     99  C   UNL     1       4.306  -6.769   7.497  1.00  0.00     0.055 A 
ATOM    100  C   UNL     1       5.310  -5.924   5.517  1.00  0.00     0.041 A 
ATOM    101  F   UNL     1       4.134  -4.573   4.074  1.00  0.00    -0.206 F 
ATOM    102  C   UNL     1       5.433  -6.632   6.699  1.00  0.00     0.022 A 
BRANCH  99 103
ATOM    103  S   UNL     1       4.426  -7.438   9.172  1.00  0.00     0.124 S 
ATOM    104  O   UNL     1       4.074  -6.271   9.978  1.00  0.00    -0.237 OA
ATOM    105  O   UNL     1       3.439  -8.512   9.153  1.00  0.00    -0.237 OA
ATOM    106  O   UNL     1       5.819  -7.866   9.271  1.00  0.00    -0.744 OA
ENDBRANCH  99 103
ENDBRANCH  73  96
ENDBRANCH  47  48
ENDBRANCH  40  42
ENDBRANCH  39  40
ENDBRANCH  38  39
ENDBRANCH  37  38
ENDBRANCH  36  37
ENDBRANCH  35  36
ENDBRANCH   1  35
TORSDOF 25
