REMARK SMILES Nn1c(S[C@@H](C(=O)OCCOCCOCCOCCOC(=O)c2ccc(-c3c4nc(c(-c5cc(S(=O)(=O)[O-])ccc5F)c5ccc([nH]5)c(-c5cc(S(=O)(=O)[O-])ccc5F)c5nc(c(-c6cc(S(=O)(=O)[O-])ccc6F)c6ccc3[nH]6)C=C5)C=C4)cc2)c2ccccc2)nc2ccc(Br)cc2c1=O
REMARK SMILES IDX 14 1 13 2 12 3 11 4 10 5 9 6 8 7 6 8 7 9 5 10 4 11 3 12 2 13
REMARK SMILES IDX 100 14 92 15 99 16 101 17 93 18 98 19 94 20 96 21 95 22
REMARK SMILES IDX 97 23 1 24 86 27 87 28 91 29 88 30 90 31 89 32 15 33 16 34
REMARK SMILES IDX 17 35 18 36 19 37 20 38 21 39 22 40 23 41 24 42 85 43 25 44
REMARK SMILES IDX 84 45 26 46 27 47 28 48 78 49 29 50 83 51 77 52 79 53 30 54
REMARK SMILES IDX 82 55 76 56 75 57 31 59 63 60 43 61 62 62 44 63 47 64 61 65
REMARK SMILES IDX 80 66 45 67 46 68 60 70 81 71 48 72 32 73 33 74 41 75 34 76
REMARK SMILES IDX 40 77 42 78 39 79 35 80 36 81 37 82 38 83 64 84 65 85 73 86
REMARK SMILES IDX 66 87 72 88 74 89 71 90 67 91 68 92 69 93 70 94 49 95 50 96
REMARK SMILES IDX 58 97 51 98 57 99 59 100 56 101 52 102 53 103 54 104 55 105
REMARK H PARENT 1 25 1 26 79 58 47 69
REMARK Flexibility Score: inf
ROOT
ATOM      1  O   UNL     1       2.493  -2.202  -2.375  1.00  0.00    -0.377 OA
ENDROOT
BRANCH   1   2
ATOM      2  C   UNL     1       1.931  -1.073  -1.739  1.00  0.00     0.188 C 
BRANCH   2   3
ATOM      3  C   UNL     1       2.423   0.347  -2.052  1.00  0.00     0.188 C 
BRANCH   3   4
ATOM      4  O   UNL     1       3.662   0.363  -2.722  1.00  0.00    -0.376 OA
BRANCH   4   5
ATOM      5  C   UNL     1       4.803   0.626  -1.926  1.00  0.00     0.202 C 
BRANCH   5   6
ATOM      6  C   UNL     1       5.093  -0.250  -0.688  1.00  0.00     0.261 C 
BRANCH   6   7
ATOM      7  O   UNL     1       3.985  -0.578   0.191  1.00  0.00    -0.462 OA
BRANCH   7   8
ATOM      8  C   UNL     1       3.740   0.199   1.278  1.00  0.00     0.324 C 
ATOM      9  O   UNL     1       4.371   1.240   1.456  1.00  0.00    -0.251 OA
BRANCH   8  10
ATOM     10  C   UNL     1       2.696  -0.378   2.303  1.00  0.00     0.194 C 
BRANCH  10  11
ATOM     11  S   UNL     1       1.929  -1.972   1.835  1.00  0.00    -0.066 SA
BRANCH  11  12
ATOM     12  C   UNL     1       0.332  -1.895   1.079  1.00  0.00     0.191 A 
ATOM     13  N   UNL     1      -0.308  -0.743   0.606  1.00  0.00    -0.202 N 
ATOM     14  C   UNL     1      -1.548  -0.789  -0.049  1.00  0.00     0.280 A 
ATOM     15  N   UNL     1      -0.207  -3.070   0.919  1.00  0.00    -0.222 NA
ATOM     16  C   UNL     1      -2.098  -2.117  -0.315  1.00  0.00     0.069 A 
ATOM     17  O   UNL     1      -2.145   0.215  -0.441  1.00  0.00    -0.267 OA
ATOM     18  C   UNL     1      -1.397  -3.209   0.187  1.00  0.00     0.079 A 
ATOM     19  C   UNL     1      -3.222  -2.269  -1.141  1.00  0.00     0.031 A 
ATOM     20  C   UNL     1      -1.856  -4.489  -0.145  1.00  0.00     0.030 A 
ATOM     21  C   UNL     1      -3.643  -3.549  -1.481  1.00  0.00     0.018 A 
ATOM     22  C   UNL     1      -2.969  -4.662  -0.981  1.00  0.00     0.018 A 
ATOM     23  Br  UNL     1      -5.087  -3.774  -2.678  1.00  0.00    -0.051 Br
BRANCH  13  24
ATOM     24  N   UNL     1       0.225   0.553   0.716  1.00  0.00    -0.334 N 
ATOM     25  H   UNL     1       1.093   0.692   1.160  1.00  0.00     0.178 HD
ATOM     26  H   UNL     1      -0.269   1.321   0.349  1.00  0.00     0.178 HD
ENDBRANCH  13  24
ENDBRANCH  11  12
ENDBRANCH  10  11
BRANCH  10  27
ATOM     27  C   UNL     1       1.776   0.624   3.016  1.00  0.00    -0.023 A 
ATOM     28  C   UNL     1       0.695   0.169   3.800  1.00  0.00     0.005 A 
ATOM     29  C   UNL     1       1.906   2.016   2.851  1.00  0.00     0.005 A 
ATOM     30  C   UNL     1      -0.308   1.044   4.222  1.00  0.00     0.000 A 
ATOM     31  C   UNL     1       0.916   2.894   3.297  1.00  0.00     0.000 A 
ATOM     32  C   UNL     1      -0.210   2.403   3.944  1.00  0.00     0.000 A 
ENDBRANCH  10  27
ENDBRANCH   8  10
ENDBRANCH   7   8
ENDBRANCH   6   7
ENDBRANCH   5   6
ENDBRANCH   4   5
ENDBRANCH   3   4
ENDBRANCH   2   3
ENDBRANCH   1   2
BRANCH   1  33
ATOM     33  C   UNL     1       2.892  -2.075  -3.725  1.00  0.00     0.188 C 
BRANCH  33  34
ATOM     34  C   UNL     1       1.918  -1.395  -4.703  1.00  0.00     0.188 C 
BRANCH  34  35
ATOM     35  O   UNL     1       0.718  -0.896  -4.116  1.00  0.00    -0.376 OA
BRANCH  35  36
ATOM     36  C   UNL     1      -0.462  -1.664  -4.326  1.00  0.00     0.202 C 
BRANCH  36  37
ATOM     37  C   UNL     1      -0.543  -3.001  -3.581  1.00  0.00     0.261 C 
BRANCH  37  38
ATOM     38  O   UNL     1       0.463  -3.960  -3.900  1.00  0.00    -0.460 OA
BRANCH  38  39
ATOM     39  C   UNL     1       0.553  -4.391  -5.174  1.00  0.00     0.338 C 
ATOM     40  O   UNL     1      -0.154  -4.077  -6.115  1.00  0.00    -0.246 OA
BRANCH  39  41
ATOM     41  C   UNL     1       1.826  -5.128  -5.236  1.00  0.00     0.060 A 
ATOM     42  C   UNL     1       2.087  -6.141  -4.305  1.00  0.00     0.016 A 
ATOM     43  C   UNL     1       2.816  -4.692  -6.123  1.00  0.00     0.016 A 
ATOM     44  C   UNL     1       3.349  -6.723  -4.262  1.00  0.00     0.010 A 
ATOM     45  C   UNL     1       4.088  -5.257  -6.061  1.00  0.00     0.010 A 
ATOM     46  C   UNL     1       4.352  -6.289  -5.145  1.00  0.00    -0.014 A 
BRANCH  46  47
ATOM     47  C   UNL     1       5.577  -7.096  -5.307  1.00  0.00     0.031 A 
ATOM     48  C   UNL     1       6.879  -6.728  -4.677  1.00  0.00     0.074 A 
ATOM     49  C   UNL     1       5.471  -8.166  -6.116  1.00  0.00     0.049 A 
ATOM     50  N   UNL     1       8.014  -7.374  -4.726  1.00  0.00    -0.248 NA
ATOM     51  C   UNL     1       6.925  -5.479  -3.905  1.00  0.00     0.031 C 
ATOM     52  C   UNL     1       4.237  -8.558  -6.801  1.00  0.00     0.029 A 
ATOM     53  N   UNL     1       6.389  -9.096  -6.516  1.00  0.00    -0.354 N 
ATOM     54  C   UNL     1       8.916  -6.619  -3.987  1.00  0.00     0.074 A 
ATOM     55  C   UNL     1       8.200  -5.446  -3.529  1.00  0.00     0.031 C 
ATOM     56  C   UNL     1       4.476  -9.645  -7.543  1.00  0.00     0.029 A 
ATOM     57  C   UNL     1       5.883 -10.009  -7.409  1.00  0.00     0.049 A 
ATOM     58  H   UNL     1       7.321  -9.110  -6.197  1.00  0.00     0.167 HD
ATOM     59  C   UNL     1      10.215  -6.901  -3.723  1.00  0.00     0.034 A 
ATOM     60  C   UNL     1       6.482 -11.025  -8.058  1.00  0.00     0.034 A 
ATOM     61  C   UNL     1      10.890  -8.080  -4.218  1.00  0.00     0.049 A 
ATOM     62  C   UNL     1       7.919 -11.320  -7.742  1.00  0.00     0.074 A 
ATOM     63  C   UNL     1      12.177  -8.506  -3.941  1.00  0.00     0.029 A 
ATOM     64  N   UNL     1      10.350  -9.004  -5.106  1.00  0.00    -0.354 N 
ATOM     65  N   UNL     1       8.728 -10.677  -6.933  1.00  0.00    -0.248 NA
ATOM     66  C   UNL     1       8.524 -12.485  -8.397  1.00  0.00     0.031 C 
ATOM     67  C   UNL     1      12.444  -9.630  -4.725  1.00  0.00     0.029 A 
ATOM     68  C   UNL     1      11.295  -9.968  -5.424  1.00  0.00     0.049 A 
ATOM     69  H   UNL     1       9.431  -8.977  -5.458  1.00  0.00     0.167 HD
ATOM     70  C   UNL     1       9.934 -11.365  -6.968  1.00  0.00     0.074 A 
ATOM     71  C   UNL     1       9.737 -12.493  -7.858  1.00  0.00     0.031 C 
ATOM     72  C   UNL     1      11.095 -11.086  -6.321  1.00  0.00     0.034 A 
BRANCH  59  73
ATOM     73  C   UNL     1      11.014  -5.952  -2.858  1.00  0.00     0.023 A 
ATOM     74  C   UNL     1      12.180  -5.347  -3.367  1.00  0.00     0.031 A 
ATOM     75  C   UNL     1      10.715  -5.767  -1.496  1.00  0.00     0.131 A 
ATOM     76  C   UNL     1      13.020  -4.618  -2.514  1.00  0.00     0.055 A 
ATOM     77  C   UNL     1      11.533  -5.004  -0.660  1.00  0.00     0.041 A 
ATOM     78  F   UNL     1       9.623  -6.330  -0.955  1.00  0.00    -0.206 F 
ATOM     79  C   UNL     1      12.699  -4.437  -1.166  1.00  0.00     0.022 A 
BRANCH  76  80
ATOM     80  S   UNL     1      14.599  -3.941  -3.100  1.00  0.00     0.124 S 
ATOM     81  O   UNL     1      14.410  -2.509  -2.877  1.00  0.00    -0.237 OA
ATOM     82  O   UNL     1      15.559  -4.588  -2.210  1.00  0.00    -0.237 OA
ATOM     83  O   UNL     1      14.659  -4.349  -4.499  1.00  0.00    -0.744 OA
ENDBRANCH  76  80
ENDBRANCH  59  73
BRANCH  60  84
ATOM     84  C   UNL     1       5.655 -11.850  -8.982  1.00  0.00     0.023 A 
ATOM     85  C   UNL     1       5.056 -11.266 -10.116  1.00  0.00     0.031 A 
ATOM     86  C   UNL     1       5.289 -13.159  -8.637  1.00  0.00     0.131 A 
ATOM     87  C   UNL     1       4.051 -11.958 -10.803  1.00  0.00     0.055 A 
ATOM     88  C   UNL     1       4.343 -13.874  -9.373  1.00  0.00     0.041 A 
ATOM     89  F   UNL     1       5.816 -13.745  -7.550  1.00  0.00    -0.206 F 
ATOM     90  C   UNL     1       3.702 -13.265 -10.448  1.00  0.00     0.022 A 
BRANCH  87  91
ATOM     91  S   UNL     1       3.044 -11.123 -12.062  1.00  0.00     0.124 S 
ATOM     92  O   UNL     1       3.257 -11.969 -13.232  1.00  0.00    -0.237 OA
ATOM     93  O   UNL     1       1.711 -11.192 -11.468  1.00  0.00    -0.237 OA
ATOM     94  O   UNL     1       3.622  -9.786 -12.136  1.00  0.00    -0.744 OA
ENDBRANCH  87  91
ENDBRANCH  60  84
BRANCH  72  95
ATOM     95  C   UNL     1      12.279 -11.995  -6.551  1.00  0.00     0.023 A 
ATOM     96  C   UNL     1      12.849 -12.695  -5.470  1.00  0.00     0.031 A 
ATOM     97  C   UNL     1      12.933 -12.046  -7.794  1.00  0.00     0.131 A 
ATOM     98  C   UNL     1      14.065 -13.368  -5.639  1.00  0.00     0.055 A 
ATOM     99  C   UNL     1      14.115 -12.767  -7.972  1.00  0.00     0.041 A 
ATOM    100  F   UNL     1      12.434 -11.390  -8.855  1.00  0.00    -0.206 F 
ATOM    101  C   UNL     1      14.695 -13.417  -6.886  1.00  0.00     0.022 A 
BRANCH  98 102
ATOM    102  S   UNL     1      14.923 -14.118  -4.227  1.00  0.00     0.124 S 
ATOM    103  O   UNL     1      14.994 -15.521  -4.627  1.00  0.00    -0.237 OA
ATOM    104  O   UNL     1      16.197 -13.404  -4.228  1.00  0.00    -0.237 OA
ATOM    105  O   UNL     1      14.048 -13.838  -3.094  1.00  0.00    -0.744 OA
ENDBRANCH  98 102
ENDBRANCH  72  95
ENDBRANCH  46  47
ENDBRANCH  39  41
ENDBRANCH  38  39
ENDBRANCH  37  38
ENDBRANCH  36  37
ENDBRANCH  35  36
ENDBRANCH  34  35
ENDBRANCH  33  34
ENDBRANCH   1  33
TORSDOF 27
