REMARK SMILES O=C(CCC(=O)OCCOCCOCCOCCOC(=O)c1ccc(-c2c3nc(c(-c4cc(S(=O)(=O)[O-])ccc4F)c4ccc([nH]4)c(-c4cc(S(=O)(=O)[O-])ccc4F)c4nc(c(-c5cc(S(=O)(=O)[O-])ccc5F)c5ccc2[nH]5)C=C4)C=C3)cc1)Nc1ccc2nc(-c3ccccc3)oc2c1
REMARK SMILES IDX 12 1 11 2 10 3 9 4 8 5 7 6 5 7 6 8 4 9 3 10 2 11 1 12 85 13
REMARK SMILES IDX 86 15 87 16 100 17 88 18 99 19 89 20 98 21 90 22 91 23 92 24
REMARK SMILES IDX 93 25 97 26 94 27 96 28 95 29 13 30 14 31 15 32 16 33 17 34
REMARK SMILES IDX 18 35 19 36 20 37 21 38 22 39 23 40 84 41 24 42 83 43 25 44
REMARK SMILES IDX 26 45 27 46 77 47 28 48 82 49 76 50 78 51 29 52 81 53 75 54
REMARK SMILES IDX 74 55 30 57 62 58 42 59 61 60 43 61 46 62 60 63 79 64 44 65
REMARK SMILES IDX 45 66 59 68 80 69 47 70 31 71 32 72 40 73 33 74 39 75 41 76
REMARK SMILES IDX 38 77 34 78 35 79 36 80 37 81 63 82 64 83 72 84 65 85 71 86
REMARK SMILES IDX 73 87 70 88 66 89 67 90 68 91 69 92 48 93 49 94 57 95 50 96
REMARK SMILES IDX 56 97 58 98 55 99 51 100 52 101 53 102 54 103
REMARK H PARENT 85 14 78 56 46 67
REMARK Flexibility Score: inf
ROOT
ATOM      1  C   UNL     1       5.637   0.204  -1.057  1.00  0.00     0.188 C 
ENDROOT
BRANCH   1   2
ATOM      2  C   UNL     1       6.782   0.426  -0.064  1.00  0.00     0.188 C 
BRANCH   2   3
ATOM      3  O   UNL     1       7.369  -0.742   0.455  1.00  0.00    -0.376 OA
BRANCH   3   4
ATOM      4  C   UNL     1       6.883  -1.323   1.653  1.00  0.00     0.202 C 
BRANCH   4   5
ATOM      5  C   UNL     1       5.605  -0.885   2.400  1.00  0.00     0.261 C 
BRANCH   5   6
ATOM      6  O   UNL     1       4.565  -0.206   1.662  1.00  0.00    -0.463 OA
BRANCH   6   7
ATOM      7  C   UNL     1       4.247   1.033   2.111  1.00  0.00     0.306 C 
ATOM      8  O   UNL     1       4.825   1.581   3.048  1.00  0.00    -0.252 OA
BRANCH   7   9
ATOM      9  C   UNL     1       3.137   1.770   1.381  1.00  0.00     0.132 C 
BRANCH   9  10
ATOM     10  C   UNL     1       2.410   1.312   0.120  1.00  0.00     0.112 C 
BRANCH  10  11
ATOM     11  C   UNL     1       1.523   0.092   0.207  1.00  0.00     0.224 C 
ATOM     12  O   UNL     1       0.309   0.185   0.054  1.00  0.00    -0.275 OA
ATOM     13  N   UNL     1       2.219  -1.061   0.453  1.00  0.00    -0.326 N 
ATOM     14  H   UNL     1       3.200  -0.988   0.509  1.00  0.00     0.169 HD
BRANCH  13  15
ATOM     15  C   UNL     1       1.665  -2.334   0.633  1.00  0.00     0.045 A 
ATOM     16  C   UNL     1       2.349  -3.140   1.554  1.00  0.00     0.028 A 
ATOM     17  C   UNL     1       0.498  -2.771  -0.025  1.00  0.00     0.075 A 
ATOM     18  C   UNL     1       1.841  -4.372   1.936  1.00  0.00     0.034 A 
ATOM     19  C   UNL     1       0.048  -4.035   0.341  1.00  0.00     0.157 A 
ATOM     20  C   UNL     1       0.671  -4.798   1.313  1.00  0.00     0.110 A 
ATOM     21  O   UNL     1      -1.046  -4.751  -0.113  1.00  0.00    -0.436 OA
ATOM     22  N   UNL     1      -0.026  -5.922   1.529  1.00  0.00    -0.209 NA
ATOM     23  C   UNL     1      -1.015  -5.887   0.665  1.00  0.00     0.227 A 
BRANCH  23  24
ATOM     24  C   UNL     1      -2.074  -6.886   0.590  1.00  0.00     0.037 A 
ATOM     25  C   UNL     1      -2.074  -7.877  -0.399  1.00  0.00     0.014 A 
ATOM     26  C   UNL     1      -2.881  -7.069   1.728  1.00  0.00     0.014 A 
ATOM     27  C   UNL     1      -2.821  -9.049  -0.218  1.00  0.00     0.001 A 
ATOM     28  C   UNL     1      -3.606  -8.247   1.918  1.00  0.00     0.001 A 
ATOM     29  C   UNL     1      -3.566  -9.242   0.947  1.00  0.00     0.000 A 
ENDBRANCH  23  24
ENDBRANCH  13  15
ENDBRANCH  10  11
ENDBRANCH   9  10
ENDBRANCH   7   9
ENDBRANCH   6   7
ENDBRANCH   5   6
ENDBRANCH   4   5
ENDBRANCH   3   4
ENDBRANCH   2   3
ENDBRANCH   1   2
BRANCH   1  30
ATOM     30  O   UNL     1       4.796  -0.922  -0.864  1.00  0.00    -0.377 OA
BRANCH  30  31
ATOM     31  C   UNL     1       5.302  -2.244  -1.075  1.00  0.00     0.188 C 
BRANCH  31  32
ATOM     32  C   UNL     1       6.655  -2.499  -1.773  1.00  0.00     0.188 C 
BRANCH  32  33
ATOM     33  O   UNL     1       7.104  -1.444  -2.603  1.00  0.00    -0.376 OA
BRANCH  33  34
ATOM     34  C   UNL     1       6.855  -1.551  -3.997  1.00  0.00     0.202 C 
BRANCH  34  35
ATOM     35  C   UNL     1       5.389  -1.659  -4.452  1.00  0.00     0.261 C 
BRANCH  35  36
ATOM     36  O   UNL     1       4.647  -2.788  -3.958  1.00  0.00    -0.460 OA
BRANCH  36  37
ATOM     37  C   UNL     1       5.102  -4.019  -4.271  1.00  0.00     0.338 C 
ATOM     38  O   UNL     1       6.083  -4.278  -4.958  1.00  0.00    -0.246 OA
BRANCH  37  39
ATOM     39  C   UNL     1       4.337  -5.017  -3.496  1.00  0.00     0.060 A 
ATOM     40  C   UNL     1       5.019  -5.848  -2.598  1.00  0.00     0.016 A 
ATOM     41  C   UNL     1       2.961  -5.166  -3.683  1.00  0.00     0.016 A 
ATOM     42  C   UNL     1       4.338  -6.868  -1.927  1.00  0.00     0.010 A 
ATOM     43  C   UNL     1       2.282  -6.196  -3.016  1.00  0.00     0.010 A 
ATOM     44  C   UNL     1       2.974  -7.083  -2.164  1.00  0.00    -0.014 A 
BRANCH  44  45
ATOM     45  C   UNL     1       2.333  -8.362  -1.733  1.00  0.00     0.031 A 
ATOM     46  C   UNL     1       2.126  -9.423  -2.786  1.00  0.00     0.074 A 
ATOM     47  C   UNL     1       2.030  -8.629  -0.444  1.00  0.00     0.049 A 
ATOM     48  N   UNL     1       1.501 -10.567  -2.705  1.00  0.00    -0.248 NA
ATOM     49  C   UNL     1       2.742  -9.169  -4.102  1.00  0.00     0.031 C 
ATOM     50  C   UNL     1       2.370  -7.771   0.686  1.00  0.00     0.029 A 
ATOM     51  N   UNL     1       1.366  -9.685   0.141  1.00  0.00    -0.354 N 
ATOM     52  C   UNL     1       1.686 -11.186  -3.938  1.00  0.00     0.074 A 
ATOM     53  C   UNL     1       2.411 -10.259  -4.776  1.00  0.00     0.031 C 
ATOM     54  C   UNL     1       1.873  -8.306   1.817  1.00  0.00     0.029 A 
ATOM     55  C   UNL     1       1.122  -9.513   1.494  1.00  0.00     0.049 A 
ATOM     56  H   UNL     1       1.090 -10.489  -0.357  1.00  0.00     0.167 HD
ATOM     57  C   UNL     1       1.316 -12.432  -4.318  1.00  0.00     0.034 A 
ATOM     58  C   UNL     1       0.338 -10.217   2.347  1.00  0.00     0.034 A 
ATOM     59  C   UNL     1       0.580 -13.330  -3.464  1.00  0.00     0.049 A 
ATOM     60  C   UNL     1      -0.358 -11.441   1.775  1.00  0.00     0.074 A 
ATOM     61  C   UNL     1       0.119 -14.603  -3.743  1.00  0.00     0.029 A 
ATOM     62  N   UNL     1       0.193 -13.042  -2.161  1.00  0.00    -0.354 N 
ATOM     63  N   UNL     1      -0.215 -12.001   0.592  1.00  0.00    -0.248 NA
ATOM     64  C   UNL     1      -1.308 -12.140   2.649  1.00  0.00     0.031 C 
ATOM     65  C   UNL     1      -0.615 -15.051  -2.641  1.00  0.00     0.029 A 
ATOM     66  C   UNL     1      -0.535 -14.097  -1.638  1.00  0.00     0.049 A 
ATOM     67  H   UNL     1       0.405 -12.209  -1.680  1.00  0.00     0.167 HD
ATOM     68  C   UNL     1      -0.963 -13.177   0.633  1.00  0.00     0.074 A 
ATOM     69  C   UNL     1      -1.586 -13.222   1.938  1.00  0.00     0.031 C 
ATOM     70  C   UNL     1      -1.096 -14.147  -0.308  1.00  0.00     0.034 A 
BRANCH  57  71
ATOM     71  C   UNL     1       1.670 -12.876  -5.716  1.00  0.00     0.023 A 
ATOM     72  C   UNL     1       3.007 -13.047  -6.120  1.00  0.00     0.031 A 
ATOM     73  C   UNL     1       0.660 -13.129  -6.661  1.00  0.00     0.131 A 
ATOM     74  C   UNL     1       3.298 -13.411  -7.444  1.00  0.00     0.055 A 
ATOM     75  C   UNL     1       0.954 -13.562  -7.955  1.00  0.00     0.041 A 
ATOM     76  F   UNL     1      -0.632 -12.956  -6.341  1.00  0.00    -0.206 F 
ATOM     77  C   UNL     1       2.280 -13.695  -8.357  1.00  0.00     0.022 A 
BRANCH  74  78
ATOM     78  S   UNL     1       5.027 -13.395  -7.993  1.00  0.00     0.124 S 
ATOM     79  O   UNL     1       5.396 -12.000  -7.765  1.00  0.00    -0.237 OA
ATOM     80  O   UNL     1       5.649 -14.373  -7.108  1.00  0.00    -0.237 OA
ATOM     81  O   UNL     1       4.945 -13.789  -9.398  1.00  0.00    -0.744 OA
ENDBRANCH  74  78
ENDBRANCH  57  71
BRANCH  58  82
ATOM     82  C   UNL     1       0.056  -9.784   3.772  1.00  0.00     0.023 A 
ATOM     83  C   UNL     1       0.162 -10.642   4.879  1.00  0.00     0.031 A 
ATOM     84  C   UNL     1      -0.492  -8.520   4.040  1.00  0.00     0.131 A 
ATOM     85  C   UNL     1      -0.351 -10.252   6.138  1.00  0.00     0.055 A 
ATOM     86  C   UNL     1      -0.964  -8.112   5.288  1.00  0.00     0.041 A 
ATOM     87  F   UNL     1      -0.607  -7.630   3.064  1.00  0.00    -0.206 F 
ATOM     88  C   UNL     1      -0.921  -8.995   6.346  1.00  0.00     0.022 A 
BRANCH  85  89
ATOM     89  S   UNL     1      -0.379 -11.454   7.496  1.00  0.00     0.124 S 
ATOM     90  O   UNL     1      -1.015 -12.603   6.865  1.00  0.00    -0.237 OA
ATOM     91  O   UNL     1       1.042 -11.586   7.801  1.00  0.00    -0.237 OA
ATOM     92  O   UNL     1      -1.175 -10.787   8.525  1.00  0.00    -0.744 OA
ENDBRANCH  85  89
ENDBRANCH  58  82
BRANCH  70  93
ATOM     93  C   UNL     1      -1.805 -15.415   0.104  1.00  0.00     0.023 A 
ATOM     94  C   UNL     1      -3.174 -15.451   0.411  1.00  0.00     0.031 A 
ATOM     95  C   UNL     1      -1.075 -16.616   0.194  1.00  0.00     0.131 A 
ATOM     96  C   UNL     1      -3.757 -16.648   0.854  1.00  0.00     0.055 A 
ATOM     97  C   UNL     1      -1.676 -17.819   0.563  1.00  0.00     0.041 A 
ATOM     98  F   UNL     1       0.238 -16.641  -0.088  1.00  0.00    -0.206 F 
ATOM     99  C   UNL     1      -3.022 -17.836   0.911  1.00  0.00     0.022 A 
BRANCH  96 100
ATOM    100  S   UNL     1      -5.466 -16.610   1.457  1.00  0.00     0.124 S 
ATOM    101  O   UNL     1      -5.392 -15.608   2.515  1.00  0.00    -0.237 OA
ATOM    102  O   UNL     1      -6.209 -16.220   0.263  1.00  0.00    -0.237 OA
ATOM    103  O   UNL     1      -5.700 -17.980   1.912  1.00  0.00    -0.744 OA
ENDBRANCH  96 100
ENDBRANCH  70  93
ENDBRANCH  44  45
ENDBRANCH  37  39
ENDBRANCH  36  37
ENDBRANCH  35  36
ENDBRANCH  34  35
ENDBRANCH  33  34
ENDBRANCH  32  33
ENDBRANCH  31  32
ENDBRANCH  30  31
ENDBRANCH   1  30
TORSDOF 27
