REMARK SMILES O=C1C[C@@H](C(=O)Nc2cccc(C(=O)OCCOCCOCCOCCOC(=O)c3ccc(-c4c5nc(c(-c6cc(S(=O)(=O)[O-])ccc6F)c6ccc([nH]6)c(-c6cc(S(=O)(=O)[O-])ccc6F)c6nc(c(-c7cc(S(=O)(=O)[O-])ccc7F)c7ccc4[nH]7)C=C6)C=C5)cc3)c2)[C@H](c2ccccc2)O1
REMARK SMILES IDX 21 1 20 2 19 3 18 4 17 5 16 6 15 7 13 8 14 9 12 10 8 11 9 12
REMARK SMILES IDX 93 13 10 14 11 15 7 16 5 17 6 18 4 20 1 21 2 22 3 23 101 24
REMARK SMILES IDX 94 25 95 26 96 27 100 28 97 29 99 30 98 31 22 32 23 33 24 34
REMARK SMILES IDX 25 35 26 36 27 37 28 38 29 39 30 40 31 41 92 42 32 43 91 44
REMARK SMILES IDX 33 45 34 46 35 47 85 48 36 49 90 50 84 51 86 52 37 53 89 54
REMARK SMILES IDX 83 55 82 56 38 58 70 59 50 60 69 61 51 62 54 63 68 64 87 65
REMARK SMILES IDX 52 66 53 67 67 69 88 70 55 71 39 72 40 73 48 74 41 75 47 76
REMARK SMILES IDX 49 77 46 78 42 79 43 80 44 81 45 82 71 83 72 84 80 85 73 86
REMARK SMILES IDX 79 87 81 88 78 89 74 90 75 91 76 92 77 93 56 94 57 95 65 96
REMARK SMILES IDX 58 97 64 98 66 99 63 100 59 101 60 102 61 103 62 104
REMARK H PARENT 7 19 86 57 54 68
REMARK Flexibility Score: inf
ROOT
ATOM      1  O   UNL     1       5.634   4.227  -1.737  1.00  0.00    -0.377 OA
ENDROOT
BRANCH   1   2
ATOM      2  C   UNL     1       6.721   3.394  -1.392  1.00  0.00     0.188 C 
BRANCH   2   3
ATOM      3  C   UNL     1       7.386   2.715  -2.604  1.00  0.00     0.188 C 
BRANCH   3   4
ATOM      4  O   UNL     1       7.109   3.163  -3.918  1.00  0.00    -0.376 OA
BRANCH   4   5
ATOM      5  C   UNL     1       5.819   3.258  -4.502  1.00  0.00     0.202 C 
BRANCH   5   6
ATOM      6  C   UNL     1       4.520   2.586  -4.026  1.00  0.00     0.261 C 
BRANCH   6   7
ATOM      7  O   UNL     1       4.522   1.971  -2.749  1.00  0.00    -0.460 OA
BRANCH   7   8
ATOM      8  C   UNL     1       5.080   0.747  -2.675  1.00  0.00     0.338 C 
ATOM      9  O   UNL     1       5.540   0.086  -3.586  1.00  0.00    -0.246 OA
BRANCH   8  10
ATOM     10  C   UNL     1       5.191   0.391  -1.238  1.00  0.00     0.062 A 
ATOM     11  C   UNL     1       4.241   0.403   0.982  1.00  0.00     0.042 A 
ATOM     12  C   UNL     1       5.306  -0.380   1.433  1.00  0.00     0.026 A 
ATOM     13  C   UNL     1       4.273   0.894  -0.312  1.00  0.00     0.041 A 
ATOM     14  C   UNL     1       6.297  -0.801   0.538  1.00  0.00     0.003 A 
ATOM     15  C   UNL     1       6.211  -0.458  -0.811  1.00  0.00     0.016 A 
BRANCH  11  16
ATOM     16  N   UNL     1       3.157   0.632   1.838  1.00  0.00    -0.326 N 
ATOM     17  C   UNL     1       1.821   0.786   1.557  1.00  0.00     0.232 C 
ATOM     18  O   UNL     1       1.073   1.020   2.511  1.00  0.00    -0.274 OA
ATOM     19  H   UNL     1       3.389   0.691   2.793  1.00  0.00     0.169 HD
BRANCH  17  20
ATOM     20  C   UNL     1       1.251   0.521   0.158  1.00  0.00     0.135 C 
ATOM     21  O   UNL     1      -2.230  -0.090   0.347  1.00  0.00    -0.252 OA
ATOM     22  C   UNL     1      -1.015  -0.115   0.234  1.00  0.00     0.307 C 
ATOM     23  C   UNL     1      -0.148   1.078   0.002  1.00  0.00     0.140 C 
ATOM     24  O   UNL     1      -0.285  -1.265   0.221  1.00  0.00    -0.457 OA
ATOM     25  C   UNL     1       1.087  -0.978  -0.070  1.00  0.00     0.220 C 
BRANCH  25  26
ATOM     26  C   UNL     1       1.446  -1.441  -1.477  1.00  0.00    -0.007 A 
ATOM     27  C   UNL     1       0.504  -1.548  -2.510  1.00  0.00     0.007 A 
ATOM     28  C   UNL     1       2.778  -1.762  -1.778  1.00  0.00     0.007 A 
ATOM     29  C   UNL     1       0.896  -1.903  -3.807  1.00  0.00     0.000 A 
ATOM     30  C   UNL     1       3.177  -2.078  -3.080  1.00  0.00     0.000 A 
ATOM     31  C   UNL     1       2.236  -2.138  -4.098  1.00  0.00     0.000 A 
ENDBRANCH  25  26
ENDBRANCH  17  20
ENDBRANCH  11  16
ENDBRANCH   8  10
ENDBRANCH   7   8
ENDBRANCH   6   7
ENDBRANCH   5   6
ENDBRANCH   4   5
ENDBRANCH   3   4
ENDBRANCH   2   3
ENDBRANCH   1   2
BRANCH   1  32
ATOM     32  C   UNL     1       5.941   5.590  -2.019  1.00  0.00     0.188 C 
BRANCH  32  33
ATOM     33  C   UNL     1       7.301   5.949  -2.661  1.00  0.00     0.188 C 
BRANCH  33  34
ATOM     34  O   UNL     1       8.424   5.293  -2.082  1.00  0.00    -0.376 OA
BRANCH  34  35
ATOM     35  C   UNL     1       9.252   6.008  -1.181  1.00  0.00     0.202 C 
BRANCH  35  36
ATOM     36  C   UNL     1       8.636   6.382   0.176  1.00  0.00     0.261 C 
BRANCH  36  37
ATOM     37  O   UNL     1       7.447   7.181   0.122  1.00  0.00    -0.460 OA
BRANCH  37  38
ATOM     38  C   UNL     1       7.555   8.390  -0.477  1.00  0.00     0.338 C 
ATOM     39  O   UNL     1       8.564   8.892  -0.926  1.00  0.00    -0.246 OA
BRANCH  38  40
ATOM     40  C   UNL     1       6.186   8.912  -0.680  1.00  0.00     0.060 A 
ATOM     41  C   UNL     1       5.764   9.208  -1.982  1.00  0.00     0.016 A 
ATOM     42  C   UNL     1       5.327   9.102   0.405  1.00  0.00     0.016 A 
ATOM     43  C   UNL     1       4.492   9.736  -2.199  1.00  0.00     0.010 A 
ATOM     44  C   UNL     1       4.062   9.654   0.188  1.00  0.00     0.010 A 
ATOM     45  C   UNL     1       3.654  10.008  -1.111  1.00  0.00    -0.014 A 
BRANCH  45  46
ATOM     46  C   UNL     1       2.458  10.864  -1.310  1.00  0.00     0.031 A 
ATOM     47  C   UNL     1       2.582  12.332  -0.997  1.00  0.00     0.074 A 
ATOM     48  C   UNL     1       1.309  10.369  -1.804  1.00  0.00     0.049 A 
ATOM     49  N   UNL     1       1.674  13.271  -1.035  1.00  0.00    -0.248 NA
ATOM     50  C   UNL     1       3.916  12.799  -0.583  1.00  0.00     0.031 C 
ATOM     51  C   UNL     1       1.090   8.980  -2.202  1.00  0.00     0.029 A 
ATOM     52  N   UNL     1       0.106  10.983  -2.050  1.00  0.00    -0.354 N 
ATOM     53  C   UNL     1       2.327  14.441  -0.663  1.00  0.00     0.074 A 
ATOM     54  C   UNL     1       3.694  14.083  -0.352  1.00  0.00     0.031 C 
ATOM     55  C   UNL     1      -0.179   8.845  -2.627  1.00  0.00     0.029 A 
ATOM     56  C   UNL     1      -0.874  10.124  -2.492  1.00  0.00     0.049 A 
ATOM     57  H   UNL     1      -0.042  11.948  -1.921  1.00  0.00     0.167 HD
ATOM     58  C   UNL     1       1.837  15.703  -0.605  1.00  0.00     0.034 A 
ATOM     59  C   UNL     1      -2.185  10.343  -2.727  1.00  0.00     0.034 A 
ATOM     60  C   UNL     1       0.468  16.044  -0.895  1.00  0.00     0.049 A 
ATOM     61  C   UNL     1      -2.739  11.740  -2.537  1.00  0.00     0.074 A 
ATOM     62  C   UNL     1      -0.143  17.285  -0.837  1.00  0.00     0.029 A 
ATOM     63  N   UNL     1      -0.508  15.140  -1.294  1.00  0.00    -0.354 N 
ATOM     64  N   UNL     1      -2.114  12.837  -2.171  1.00  0.00    -0.248 NA
ATOM     65  C   UNL     1      -4.172  11.931  -2.802  1.00  0.00     0.031 C 
ATOM     66  C   UNL     1      -1.499  17.120  -1.132  1.00  0.00     0.029 A 
ATOM     67  C   UNL     1      -1.719  15.792  -1.462  1.00  0.00     0.049 A 
ATOM     68  H   UNL     1      -0.361  14.177  -1.437  1.00  0.00     0.167 HD
ATOM     69  C   UNL     1      -3.071  13.850  -2.206  1.00  0.00     0.074 A 
ATOM     70  C   UNL     1      -4.307  13.238  -2.643  1.00  0.00     0.031 C 
ATOM     71  C   UNL     1      -2.943  15.169  -1.907  1.00  0.00     0.034 A 
BRANCH  58  72
ATOM     72  C   UNL     1       2.784  16.796  -0.175  1.00  0.00     0.023 A 
ATOM     73  C   UNL     1       3.903  17.145  -0.951  1.00  0.00     0.031 A 
ATOM     74  C   UNL     1       2.575  17.488   1.030  1.00  0.00     0.131 A 
ATOM     75  C   UNL     1       4.800  18.118  -0.487  1.00  0.00     0.055 A 
ATOM     76  C   UNL     1       3.428  18.511   1.448  1.00  0.00     0.041 A 
ATOM     77  F   UNL     1       1.540  17.178   1.826  1.00  0.00    -0.206 F 
ATOM     78  C   UNL     1       4.555  18.823   0.694  1.00  0.00     0.022 A 
BRANCH  75  79
ATOM     79  S   UNL     1       6.358  18.357  -1.383  1.00  0.00     0.124 S 
ATOM     80  O   UNL     1       6.961  17.029  -1.285  1.00  0.00    -0.237 OA
ATOM     81  O   UNL     1       5.903  18.756  -2.709  1.00  0.00    -0.237 OA
ATOM     82  O   UNL     1       7.038  19.399  -0.616  1.00  0.00    -0.744 OA
ENDBRANCH  75  79
ENDBRANCH  58  72
BRANCH  59  83
ATOM     83  C   UNL     1      -3.094   9.220  -3.108  1.00  0.00     0.023 A 
ATOM     84  C   UNL     1      -3.827   9.247  -4.306  1.00  0.00     0.031 A 
ATOM     85  C   UNL     1      -3.322   8.147  -2.226  1.00  0.00     0.131 A 
ATOM     86  C   UNL     1      -4.804   8.269  -4.553  1.00  0.00     0.055 A 
ATOM     87  C   UNL     1      -4.243   7.137  -2.510  1.00  0.00     0.041 A 
ATOM     88  F   UNL     1      -2.656   8.070  -1.063  1.00  0.00    -0.206 F 
ATOM     89  C   UNL     1      -5.006   7.206  -3.670  1.00  0.00     0.022 A 
BRANCH  86  90
ATOM     90  S   UNL     1      -5.907   8.487  -5.977  1.00  0.00     0.124 S 
ATOM     91  O   UNL     1      -6.458   9.813  -5.723  1.00  0.00    -0.237 OA
ATOM     92  O   UNL     1      -4.978   8.381  -7.097  1.00  0.00    -0.237 OA
ATOM     93  O   UNL     1      -6.854   7.381  -5.847  1.00  0.00    -0.744 OA
ENDBRANCH  86  90
ENDBRANCH  59  83
BRANCH  71  94
ATOM     94  C   UNL     1      -4.154  16.050  -2.111  1.00  0.00     0.023 A 
ATOM     95  C   UNL     1      -5.322  15.901  -1.345  1.00  0.00     0.031 A 
ATOM     96  C   UNL     1      -4.133  17.057  -3.094  1.00  0.00     0.131 A 
ATOM     97  C   UNL     1      -6.441  16.706  -1.613  1.00  0.00     0.055 A 
ATOM     98  C   UNL     1      -5.224  17.899  -3.309  1.00  0.00     0.041 A 
ATOM     99  F   UNL     1      -3.044  17.245  -3.857  1.00  0.00    -0.206 F 
ATOM    100  C   UNL     1      -6.392  17.716  -2.576  1.00  0.00     0.022 A 
BRANCH  97 101
ATOM    101  S   UNL     1      -7.997  16.349  -0.752  1.00  0.00     0.124 S 
ATOM    102  O   UNL     1      -8.240  14.960  -1.128  1.00  0.00    -0.237 OA
ATOM    103  O   UNL     1      -7.642  16.579   0.644  1.00  0.00    -0.237 OA
ATOM    104  O   UNL     1      -8.933  17.318  -1.320  1.00  0.00    -0.744 OA
ENDBRANCH  97 101
ENDBRANCH  71  94
ENDBRANCH  45  46
ENDBRANCH  38  40
ENDBRANCH  37  38
ENDBRANCH  36  37
ENDBRANCH  35  36
ENDBRANCH  34  35
ENDBRANCH  33  34
ENDBRANCH  32  33
ENDBRANCH   1  32
TORSDOF 26
