REMARK SMILES Cc1ccc(S(=O)(=O)n2cc(C(=O)C(=O)N[C@@H](Cc3c[nH]c4ccccc34)C(=O)NCC(=O)OCCOCCOCCOCCOC(=O)c3ccc(-c4c5nc(c(-c6cc(S(=O)(=O)[O-])ccc6F)c6ccc([nH]6)c(-c6cc(S(=O)(=O)[O-])ccc6F)c6nc(c(-c7cc(S(=O)(=O)[O-])ccc7F)c7ccc4[nH]7)C=C6)C=C5)cc3)c3ccccc32)cc1
REMARK SMILES IDX 38 1 37 2 36 3 35 4 34 5 32 6 33 7 31 8 30 9 28 10 29 11
REMARK SMILES IDX 17 13 16 14 14 15 15 16 12 18 13 19 11 20 9 21 10 22 117 23
REMARK SMILES IDX 112 24 116 25 113 26 115 27 114 28 6 29 7 30 8 31 5 32 1 33
REMARK SMILES IDX 2 34 3 35 119 36 4 37 118 38 18 39 19 40 20 41 27 42 21 43
REMARK SMILES IDX 22 44 26 45 23 47 25 48 24 49 39 50 40 51 41 52 42 53 43 54
REMARK SMILES IDX 44 55 45 56 46 57 47 58 48 59 49 60 50 61 111 62 51 63
REMARK SMILES IDX 110 64 52 65 53 66 54 67 104 68 55 69 109 70 103 71 105 72
REMARK SMILES IDX 56 73 108 74 102 75 101 76 57 78 89 79 69 80 88 81 70 82
REMARK SMILES IDX 73 83 87 84 106 85 71 86 72 87 86 89 107 90 74 91 58 92
REMARK SMILES IDX 59 93 67 94 60 95 66 96 68 97 65 98 61 99 62 100 63 101
REMARK SMILES IDX 64 102 90 103 91 104 99 105 92 106 98 107 100 108 97 109
REMARK SMILES IDX 93 110 94 111 95 112 96 113 75 114 76 115 84 116 77 117
REMARK SMILES IDX 83 118 85 119 82 120 78 121 79 122 80 123 81 124
REMARK H PARENT 30 12 16 17 21 46 105 77 73 88
REMARK Flexibility Score: inf
ROOT
ATOM      1  C   UNL     1     -12.671   4.759  -4.629  1.00  0.00     0.188 C 
ENDROOT
BRANCH   1   2
ATOM      2  O   UNL     1     -11.277   5.302  -4.877  1.00  0.00    -0.376 OA
BRANCH   2   3
ATOM      3  C   UNL     1     -10.410   6.523  -4.197  1.00  0.00     0.202 C 
BRANCH   3   4
ATOM      4  C   UNL     1     -10.433   7.593  -2.663  1.00  0.00     0.261 C 
BRANCH   4   5
ATOM      5  O   UNL     1     -11.388   7.535  -1.109  1.00  0.00    -0.462 OA
BRANCH   5   6
ATOM      6  C   UNL     1     -12.707   7.008  -0.375  1.00  0.00     0.325 C 
ATOM      7  O   UNL     1     -13.461   7.795   0.214  1.00  0.00    -0.250 OA
BRANCH   6   8
ATOM      8  C   UNL     1     -13.220   5.280  -0.140  1.00  0.00     0.238 C 
BRANCH   8   9
ATOM      9  N   UNL     1     -13.004   3.795  -0.627  1.00  0.00    -0.343 N 
ATOM     10  C   UNL     1     -12.391   2.580  -0.447  1.00  0.00     0.243 C 
ATOM     11  O   UNL     1     -12.954   1.722  -1.173  1.00  0.00    -0.273 OA
ATOM     12  H   UNL     1     -13.567   3.692  -1.428  1.00  0.00     0.164 HD
BRANCH  10  13
ATOM     13  C   UNL     1     -11.321   1.921   0.596  1.00  0.00     0.176 C 
BRANCH  13  14
ATOM     14  N   UNL     1     -10.044   2.510   1.121  1.00  0.00    -0.337 N 
ATOM     15  C   UNL     1      -8.668   2.267   0.959  1.00  0.00     0.293 C 
ATOM     16  O   UNL     1      -7.878   2.873   1.687  1.00  0.00    -0.265 OA
ATOM     17  H   UNL     1     -10.213   3.259   1.737  1.00  0.00     0.164 HD
BRANCH  15  18
ATOM     18  C   UNL     1      -8.059   1.337  -0.114  1.00  0.00     0.252 C 
ATOM     19  O   UNL     1      -8.739   1.132  -1.114  1.00  0.00    -0.283 OA
BRANCH  18  20
ATOM     20  C   UNL     1      -6.778   0.590   0.109  1.00  0.00     0.054 A 
ATOM     21  N   UNL     1      -4.715  -0.183   0.689  1.00  0.00    -0.240 N 
ATOM     22  C   UNL     1      -5.439   0.972   0.363  1.00  0.00     0.117 A 
ATOM     23  C   UNL     1      -5.634  -1.248   0.726  1.00  0.00     0.065 A 
ATOM     24  C   UNL     1      -6.717  -0.827  -0.035  1.00  0.00     0.012 A 
ATOM     25  C   UNL     1      -5.470  -2.599   1.089  1.00  0.00     0.028 A 
ATOM     26  C   UNL     1      -7.513  -1.803  -0.665  1.00  0.00     0.011 A 
ATOM     27  C   UNL     1      -6.232  -3.548   0.415  1.00  0.00     0.002 A 
ATOM     28  C   UNL     1      -7.203  -3.156  -0.497  1.00  0.00     0.001 A 
BRANCH  21  29
ATOM     29  S   UNL     1      -3.139  -0.753   0.199  1.00  0.00     0.268 S 
ATOM     30  O   UNL     1      -3.391  -1.274  -1.137  1.00  0.00    -0.201 OA
ATOM     31  O   UNL     1      -2.837  -1.668   1.298  1.00  0.00    -0.201 OA
BRANCH  29  32
ATOM     32  C   UNL     1      -1.562   0.011   0.040  1.00  0.00     0.088 A 
ATOM     33  C   UNL     1       2.707   0.781  -0.048  1.00  0.00     0.044 C 
ATOM     34  C   UNL     1       1.221   0.561  -0.077  1.00  0.00    -0.051 A 
ATOM     35  C   UNL     1       0.776  -0.733  -0.292  1.00  0.00     0.005 A 
ATOM     36  C   UNL     1       0.264   1.577   0.156  1.00  0.00     0.005 A 
ATOM     37  C   UNL     1      -0.585  -0.989  -0.247  1.00  0.00     0.022 A 
ATOM     38  C   UNL     1      -1.136   1.312   0.221  1.00  0.00     0.022 A 
ENDBRANCH  29  32
ENDBRANCH  21  29
ENDBRANCH  18  20
ENDBRANCH  15  18
ENDBRANCH  13  14
BRANCH  13  39
ATOM     39  C   UNL     1     -12.127   1.268   1.788  1.00  0.00     0.072 C 
BRANCH  39  40
ATOM     40  C   UNL     1     -12.985   2.258   2.521  1.00  0.00    -0.020 A 
ATOM     41  C   UNL     1     -14.341   2.470   2.349  1.00  0.00     0.087 A 
ATOM     42  C   UNL     1     -12.484   3.344   3.298  1.00  0.00     0.003 A 
ATOM     43  N   UNL     1     -14.629   3.726   2.828  1.00  0.00    -0.361 N 
ATOM     44  C   UNL     1     -13.454   4.338   3.195  1.00  0.00     0.046 A 
ATOM     45  C   UNL     1     -11.191   3.667   3.745  1.00  0.00     0.010 A 
ATOM     46  H   UNL     1     -15.528   4.121   2.896  1.00  0.00     0.166 HD
ATOM     47  C   UNL     1     -13.133   5.688   3.259  1.00  0.00     0.026 A 
ATOM     48  C   UNL     1     -10.808   4.993   3.611  1.00  0.00     0.001 A 
ATOM     49  C   UNL     1     -11.765   5.950   3.304  1.00  0.00     0.002 A 
ENDBRANCH  39  40
ENDBRANCH  13  39
ENDBRANCH  10  13
ENDBRANCH   8   9
ENDBRANCH   6   8
ENDBRANCH   5   6
ENDBRANCH   4   5
ENDBRANCH   3   4
ENDBRANCH   2   3
ENDBRANCH   1   2
BRANCH   1  50
ATOM     50  C   UNL     1     -13.125   3.280  -4.540  1.00  0.00     0.188 C 
BRANCH  50  51
ATOM     51  O   UNL     1     -12.469   2.239  -5.185  1.00  0.00    -0.377 OA
BRANCH  51  52
ATOM     52  C   UNL     1     -11.709   2.554  -6.324  1.00  0.00     0.188 C 
BRANCH  52  53
ATOM     53  C   UNL     1     -12.300   3.443  -7.434  1.00  0.00     0.188 C 
BRANCH  53  54
ATOM     54  O   UNL     1     -13.434   4.210  -7.075  1.00  0.00    -0.376 OA
BRANCH  54  55
ATOM     55  C   UNL     1     -14.668   3.981  -7.710  1.00  0.00     0.202 C 
BRANCH  55  56
ATOM     56  C   UNL     1     -14.679   4.656  -9.079  1.00  0.00     0.261 C 
BRANCH  56  57
ATOM     57  O   UNL     1     -14.668   6.096  -8.915  1.00  0.00    -0.460 OA
BRANCH  57  58
ATOM     58  C   UNL     1     -13.440   6.664  -8.722  1.00  0.00     0.338 C 
ATOM     59  O   UNL     1     -12.478   6.512  -9.444  1.00  0.00    -0.246 OA
BRANCH  58  60
ATOM     60  C   UNL     1     -13.432   7.363  -7.390  1.00  0.00     0.060 A 
ATOM     61  C   UNL     1     -12.263   7.908  -6.883  1.00  0.00     0.016 A 
ATOM     62  C   UNL     1     -14.517   7.239  -6.518  1.00  0.00     0.016 A 
ATOM     63  C   UNL     1     -12.142   8.070  -5.487  1.00  0.00     0.010 A 
ATOM     64  C   UNL     1     -14.294   7.184  -5.131  1.00  0.00     0.010 A 
ATOM     65  C   UNL     1     -13.009   7.376  -4.601  1.00  0.00    -0.014 A 
BRANCH  65  66
ATOM     66  C   UNL     1     -12.644   6.907  -2.998  1.00  0.00     0.031 A 
ATOM     67  C   UNL     1     -13.116   8.497  -2.433  1.00  0.00     0.074 A 
ATOM     68  C   UNL     1     -11.714   5.678  -2.321  1.00  0.00     0.049 A 
ATOM     69  N   UNL     1     -12.339   9.403  -1.874  1.00  0.00    -0.248 NA
ATOM     70  C   UNL     1     -14.388   9.155  -2.815  1.00  0.00     0.031 C 
ATOM     71  C   UNL     1     -11.002   5.428  -0.834  1.00  0.00     0.029 A 
ATOM     72  N   UNL     1     -10.800   4.558  -2.806  1.00  0.00    -0.354 N 
ATOM     73  C   UNL     1     -13.153  10.352  -1.319  1.00  0.00     0.074 A 
ATOM     74  C   UNL     1     -14.281  10.345  -2.210  1.00  0.00     0.031 C 
ATOM     75  C   UNL     1     -10.004   4.580  -0.737  1.00  0.00     0.029 A 
ATOM     76  C   UNL     1      -9.592   4.403  -2.043  1.00  0.00     0.049 A 
ATOM     77  H   UNL     1     -11.021   3.987  -3.577  1.00  0.00     0.167 HD
ATOM     78  C   UNL     1     -13.012  10.788  -0.023  1.00  0.00     0.034 A 
ATOM     79  C   UNL     1      -8.293   4.802  -2.255  1.00  0.00     0.034 A 
ATOM     80  C   UNL     1     -11.901  10.130   0.745  1.00  0.00     0.049 A 
ATOM     81  C   UNL     1      -7.826   5.950  -1.222  1.00  0.00     0.074 A 
ATOM     82  C   UNL     1     -11.886   9.482   1.973  1.00  0.00     0.029 A 
ATOM     83  N   UNL     1     -10.621   9.850   0.196  1.00  0.00    -0.354 N 
ATOM     84  N   UNL     1      -8.601   6.876  -0.667  1.00  0.00    -0.248 NA
ATOM     85  C   UNL     1      -6.499   5.979  -0.628  1.00  0.00     0.031 C 
ATOM     86  C   UNL     1     -10.612   8.913   2.184  1.00  0.00     0.029 A 
ATOM     87  C   UNL     1      -9.844   9.045   1.040  1.00  0.00     0.049 A 
ATOM     88  H   UNL     1     -10.315  10.183  -0.678  1.00  0.00     0.167 HD
ATOM     89  C   UNL     1      -7.914   7.659   0.245  1.00  0.00     0.074 A 
ATOM     90  C   UNL     1      -6.625   6.963   0.285  1.00  0.00     0.031 C 
ATOM     91  C   UNL     1      -8.392   8.784   0.918  1.00  0.00     0.034 A 
BRANCH  78  92
ATOM     92  C   UNL     1     -14.218  11.509   0.645  1.00  0.00     0.023 A 
ATOM     93  C   UNL     1     -14.547  11.329   2.004  1.00  0.00     0.031 A 
ATOM     94  C   UNL     1     -15.125  12.342  -0.047  1.00  0.00     0.131 A 
ATOM     95  C   UNL     1     -15.774  11.761   2.555  1.00  0.00     0.055 A 
ATOM     96  C   UNL     1     -16.367  12.745   0.479  1.00  0.00     0.041 A 
ATOM     97  F   UNL     1     -14.824  12.839  -1.257  1.00  0.00    -0.206 F 
ATOM     98  C   UNL     1     -16.712  12.430   1.783  1.00  0.00     0.022 A 
BRANCH  95  99
ATOM     99  S   UNL     1     -16.121  11.440   4.312  1.00  0.00     0.124 S 
ATOM    100  O   UNL     1     -16.324   9.994   4.325  1.00  0.00    -0.237 OA
ATOM    101  O   UNL     1     -14.913  11.927   4.969  1.00  0.00    -0.237 OA
ATOM    102  O   UNL     1     -17.322  12.234   4.570  1.00  0.00    -0.744 OA
ENDBRANCH  95  99
ENDBRANCH  78  92
BRANCH  79 103
ATOM    103  C   UNL     1      -7.705   4.467  -3.583  1.00  0.00     0.023 A 
ATOM    104  C   UNL     1      -7.909   3.156  -4.081  1.00  0.00     0.031 A 
ATOM    105  C   UNL     1      -7.270   5.444  -4.489  1.00  0.00     0.131 A 
ATOM    106  C   UNL     1      -7.860   2.898  -5.458  1.00  0.00     0.055 A 
ATOM    107  C   UNL     1      -7.258   5.193  -5.868  1.00  0.00     0.041 A 
ATOM    108  F   UNL     1      -7.072   6.706  -4.080  1.00  0.00    -0.206 F 
ATOM    109  C   UNL     1      -7.597   3.931  -6.359  1.00  0.00     0.022 A 
BRANCH 106 110
ATOM    110  S   UNL     1      -8.342   1.265  -6.111  1.00  0.00     0.124 S 
ATOM    111  O   UNL     1      -7.050   0.608  -6.267  1.00  0.00    -0.237 OA
ATOM    112  O   UNL     1      -9.207   0.724  -5.071  1.00  0.00    -0.237 OA
ATOM    113  O   UNL     1      -9.020   1.602  -7.363  1.00  0.00    -0.744 OA
ENDBRANCH 106 110
ENDBRANCH  79 103
BRANCH  91 114
ATOM    114  C   UNL     1      -7.539   9.702   1.833  1.00  0.00     0.023 A 
ATOM    115  C   UNL     1      -6.154   9.602   1.941  1.00  0.00     0.031 A 
ATOM    116  C   UNL     1      -8.107  10.739   2.637  1.00  0.00     0.131 A 
ATOM    117  C   UNL     1      -5.431  10.328   2.907  1.00  0.00     0.055 A 
ATOM    118  C   UNL     1      -7.390  11.480   3.582  1.00  0.00     0.041 A 
ATOM    119  F   UNL     1      -9.382  11.136   2.517  1.00  0.00    -0.206 F 
ATOM    120  C   UNL     1      -6.040  11.257   3.743  1.00  0.00     0.022 A 
BRANCH 117 121
ATOM    121  S   UNL     1      -3.661   9.998   3.041  1.00  0.00     0.124 S 
ATOM    122  O   UNL     1      -3.653   8.629   3.550  1.00  0.00    -0.237 OA
ATOM    123  O   UNL     1      -3.211  10.160   1.662  1.00  0.00    -0.237 OA
ATOM    124  O   UNL     1      -3.190  11.018   3.974  1.00  0.00    -0.744 OA
ENDBRANCH 117 121
ENDBRANCH  91 114
ENDBRANCH  65  66
ENDBRANCH  58  60
ENDBRANCH  57  58
ENDBRANCH  56  57
ENDBRANCH  55  56
ENDBRANCH  54  55
ENDBRANCH  53  54
ENDBRANCH  52  53
ENDBRANCH  51  52
ENDBRANCH  50  51
ENDBRANCH   1  50
TORSDOF 32
