REMARK SMILES O=C(OCCOCCOCCOCCOC(=O)[C@H]1C[C@@H](O)CN1C(=O)C[C@@H]1CSCC[NH2+]1)c1ccc(-c2c3nc(c(-c4cc(S(=O)(=O)[O-])ccc4F)c4ccc([nH]4)c(-c4cc(S(=O)(=O)[O-])ccc4F)c4nc(c(-c5cc(S(=O)(=O)[O-])ccc5F)c5ccc2[nH]5)C=C4)C=C3)cc1
REMARK SMILES IDX 9 1 8 2 7 3 6 4 5 5 4 6 3 7 2 8 1 9 33 10 34 11 95 12 35 13
REMARK SMILES IDX 94 14 36 15 37 16 38 17 88 18 39 19 93 20 87 21 89 22 40 23
REMARK SMILES IDX 92 24 86 25 85 26 41 28 73 29 53 30 72 31 54 32 57 33 71 34
REMARK SMILES IDX 90 35 55 36 56 37 70 39 91 40 58 41 42 42 43 43 51 44 44 45
REMARK SMILES IDX 50 46 52 47 49 48 45 49 46 50 47 51 48 52 74 53 75 54 83 55
REMARK SMILES IDX 76 56 82 57 84 58 81 59 77 60 78 61 79 62 80 63 59 64 60 65
REMARK SMILES IDX 68 66 61 67 67 68 69 69 66 70 62 71 63 72 64 73 65 74 10 75
REMARK SMILES IDX 11 76 12 77 13 78 14 79 15 80 16 81 17 82 18 83 19 84 23 85
REMARK SMILES IDX 20 86 22 87 24 88 25 89 26 90 27 91 28 92 32 93 29 94 31 95
REMARK SMILES IDX 30 98 21 99
REMARK H PARENT 89 27 57 38 32 96 32 97 21 100
REMARK Flexibility Score: inf
ROOT
ATOM      1  O   UNL     1       3.320  -3.689   0.366  1.00  0.00    -0.377 OA
ENDROOT
BRANCH   1   2
ATOM      2  C   UNL     1       2.366  -2.706  -0.018  1.00  0.00     0.188 C 
BRANCH   2   3
ATOM      3  C   UNL     1       2.679  -1.328   0.522  1.00  0.00     0.188 C 
BRANCH   3   4
ATOM      4  O   UNL     1       3.956  -0.916   0.066  1.00  0.00    -0.376 OA
BRANCH   4   5
ATOM      5  C   UNL     1       4.846  -0.351   1.020  1.00  0.00     0.202 C 
BRANCH   5   6
ATOM      6  C   UNL     1       4.422   0.997   1.584  1.00  0.00     0.261 C 
BRANCH   6   7
ATOM      7  O   UNL     1       3.043   1.337   1.370  1.00  0.00    -0.460 OA
BRANCH   7   8
ATOM      8  C   UNL     1       2.407   1.800   0.270  1.00  0.00     0.338 C 
ATOM      9  O   UNL     1       1.197   2.016   0.363  1.00  0.00    -0.246 OA
BRANCH   8  10
ATOM     10  C   UNL     1       3.040   2.050  -1.059  1.00  0.00     0.060 A 
ATOM     11  C   UNL     1       4.119   1.352  -1.599  1.00  0.00     0.016 A 
ATOM     12  C   UNL     1       2.407   2.999  -1.879  1.00  0.00     0.016 A 
ATOM     13  C   UNL     1       4.579   1.573  -2.882  1.00  0.00     0.010 A 
ATOM     14  C   UNL     1       2.873   3.255  -3.170  1.00  0.00     0.010 A 
ATOM     15  C   UNL     1       3.980   2.551  -3.655  1.00  0.00    -0.014 A 
BRANCH  15  16
ATOM     16  C   UNL     1       4.729   2.998  -4.832  1.00  0.00     0.031 A 
ATOM     17  C   UNL     1       5.539   4.242  -4.667  1.00  0.00     0.074 A 
ATOM     18  C   UNL     1       4.808   2.220  -5.921  1.00  0.00     0.049 A 
ATOM     19  N   UNL     1       6.152   4.961  -5.560  1.00  0.00    -0.248 NA
ATOM     20  C   UNL     1       5.673   4.743  -3.287  1.00  0.00     0.031 C 
ATOM     21  C   UNL     1       4.219   0.884  -6.047  1.00  0.00     0.029 A 
ATOM     22  N   UNL     1       5.425   2.433  -7.120  1.00  0.00    -0.354 N 
ATOM     23  C   UNL     1       6.692   6.034  -4.860  1.00  0.00     0.074 A 
ATOM     24  C   UNL     1       6.340   5.867  -3.470  1.00  0.00     0.031 C 
ATOM     25  C   UNL     1       4.482   0.408  -7.274  1.00  0.00     0.029 A 
ATOM     26  C   UNL     1       5.165   1.445  -8.039  1.00  0.00     0.049 A 
ATOM     27  H   UNL     1       5.996   3.212  -7.307  1.00  0.00     0.167 HD
ATOM     28  C   UNL     1       7.394   7.074  -5.367  1.00  0.00     0.034 A 
ATOM     29  C   UNL     1       5.380   1.442  -9.368  1.00  0.00     0.034 A 
ATOM     30  C   UNL     1       7.681   7.169  -6.775  1.00  0.00     0.049 A 
ATOM     31  C   UNL     1       6.035   2.669  -9.951  1.00  0.00     0.074 A 
ATOM     32  C   UNL     1       8.296   8.187  -7.474  1.00  0.00     0.029 A 
ATOM     33  N   UNL     1       7.345   6.186  -7.706  1.00  0.00    -0.354 N 
ATOM     34  N   UNL     1       6.443   3.755  -9.329  1.00  0.00    -0.248 NA
ATOM     35  C   UNL     1       6.247   2.686 -11.399  1.00  0.00     0.031 C 
ATOM     36  C   UNL     1       8.258   7.853  -8.834  1.00  0.00     0.029 A 
ATOM     37  C   UNL     1       7.707   6.585  -8.977  1.00  0.00     0.049 A 
ATOM     38  H   UNL     1       6.910   5.329  -7.488  1.00  0.00     0.167 HD
ATOM     39  C   UNL     1       6.984   4.580 -10.307  1.00  0.00     0.074 A 
ATOM     40  C   UNL     1       6.849   3.858 -11.562  1.00  0.00     0.031 C 
ATOM     41  C   UNL     1       7.545   5.812 -10.191  1.00  0.00     0.034 A 
BRANCH  28  42
ATOM     42  C   UNL     1       7.720   8.199  -4.413  1.00  0.00     0.023 A 
ATOM     43  C   UNL     1       8.503   8.002  -3.260  1.00  0.00     0.031 A 
ATOM     44  C   UNL     1       7.093   9.448  -4.572  1.00  0.00     0.131 A 
ATOM     45  C   UNL     1       8.531   8.986  -2.257  1.00  0.00     0.055 A 
ATOM     46  C   UNL     1       7.212  10.461  -3.618  1.00  0.00     0.041 A 
ATOM     47  F   UNL     1       6.302   9.687  -5.629  1.00  0.00    -0.206 F 
ATOM     48  C   UNL     1       7.913  10.224  -2.439  1.00  0.00     0.022 A 
BRANCH  45  49
ATOM     49  S   UNL     1       9.187   8.539  -0.622  1.00  0.00     0.124 S 
ATOM     50  O   UNL     1       8.333   7.410  -0.259  1.00  0.00    -0.237 OA
ATOM     51  O   UNL     1      10.579   8.214  -0.918  1.00  0.00    -0.237 OA
ATOM     52  O   UNL     1       8.983   9.746   0.174  1.00  0.00    -0.744 OA
ENDBRANCH  45  49
ENDBRANCH  28  42
BRANCH  29  53
ATOM     53  C   UNL     1       4.867   0.320 -10.206  1.00  0.00     0.023 A 
ATOM     54  C   UNL     1       5.726  -0.506 -10.944  1.00  0.00     0.031 A 
ATOM     55  C   UNL     1       3.485   0.049 -10.265  1.00  0.00     0.131 A 
ATOM     56  C   UNL     1       5.194  -1.553 -11.719  1.00  0.00     0.055 A 
ATOM     57  C   UNL     1       2.966  -1.022 -10.994  1.00  0.00     0.041 A 
ATOM     58  F   UNL     1       2.612   0.809  -9.583  1.00  0.00    -0.206 F 
ATOM     59  C   UNL     1       3.824  -1.827 -11.734  1.00  0.00     0.022 A 
BRANCH  56  60
ATOM     60  S   UNL     1       6.316  -2.528 -12.759  1.00  0.00     0.124 S 
ATOM     61  O   UNL     1       6.903  -1.493 -13.610  1.00  0.00    -0.237 OA
ATOM     62  O   UNL     1       7.205  -3.125 -11.772  1.00  0.00    -0.237 OA
ATOM     63  O   UNL     1       5.424  -3.461 -13.442  1.00  0.00    -0.744 OA
ENDBRANCH  56  60
ENDBRANCH  29  53
BRANCH  41  64
ATOM     64  C   UNL     1       8.110   6.417 -11.446  1.00  0.00     0.023 A 
ATOM     65  C   UNL     1       7.284   6.886 -12.479  1.00  0.00     0.031 A 
ATOM     66  C   UNL     1       9.502   6.578 -11.570  1.00  0.00     0.131 A 
ATOM     67  C   UNL     1       7.863   7.473 -13.611  1.00  0.00     0.055 A 
ATOM     68  C   UNL     1      10.066   7.217 -12.671  1.00  0.00     0.041 A 
ATOM     69  F   UNL     1      10.328   6.143 -10.605  1.00  0.00    -0.206 F 
ATOM     70  C   UNL     1       9.246   7.663 -13.703  1.00  0.00     0.022 A 
BRANCH  67  71
ATOM     71  S   UNL     1       6.789   7.935 -14.995  1.00  0.00     0.124 S 
ATOM     72  O   UNL     1       6.218   6.647 -15.376  1.00  0.00    -0.237 OA
ATOM     73  O   UNL     1       5.869   8.882 -14.376  1.00  0.00    -0.237 OA
ATOM     74  O   UNL     1       7.714   8.515 -15.967  1.00  0.00    -0.744 OA
ENDBRANCH  67  71
ENDBRANCH  41  64
ENDBRANCH  15  16
ENDBRANCH   8  10
ENDBRANCH   7   8
ENDBRANCH   6   7
ENDBRANCH   5   6
ENDBRANCH   4   5
ENDBRANCH   3   4
ENDBRANCH   2   3
ENDBRANCH   1   2
BRANCH   1  75
ATOM     75  C   UNL     1       4.690  -3.519   0.003  1.00  0.00     0.188 C 
BRANCH  75  76
ATOM     76  C   UNL     1       5.074  -3.418  -1.485  1.00  0.00     0.188 C 
BRANCH  76  77
ATOM     77  O   UNL     1       4.094  -2.746  -2.257  1.00  0.00    -0.376 OA
BRANCH  77  78
ATOM     78  C   UNL     1       3.496  -3.497  -3.309  1.00  0.00     0.202 C 
BRANCH  78  79
ATOM     79  C   UNL     1       2.750  -4.808  -2.966  1.00  0.00     0.261 C 
BRANCH  79  80
ATOM     80  O   UNL     1       3.034  -5.338  -1.658  1.00  0.00    -0.462 OA
BRANCH  80  81
ATOM     81  C   UNL     1       3.733  -6.498  -1.611  1.00  0.00     0.329 C 
ATOM     82  O   UNL     1       3.963  -7.180  -2.606  1.00  0.00    -0.250 OA
BRANCH  81  83
ATOM     83  C   UNL     1       4.343  -6.776  -0.206  1.00  0.00     0.197 C 
ATOM     84  C   UNL     1       3.543  -6.521   1.070  1.00  0.00     0.070 C 
ATOM     85  N   UNL     1       4.543  -8.209  -0.122  1.00  0.00    -0.326 N 
ATOM     86  C   UNL     1       2.590  -7.695   1.119  1.00  0.00     0.136 C 
ATOM     87  C   UNL     1       3.470  -8.851   0.636  1.00  0.00     0.152 C 
BRANCH  85  88
ATOM     88  C   UNL     1       5.630  -8.749  -0.751  1.00  0.00     0.229 C 
ATOM     89  O   UNL     1       6.480  -8.061  -1.315  1.00  0.00    -0.275 OA
BRANCH  88  90
ATOM     90  C   UNL     1       5.776 -10.231  -0.677  1.00  0.00     0.166 C 
BRANCH  90  91
ATOM     91  C   UNL     1       6.436 -10.716   0.626  1.00  0.00     0.201 C 
ATOM     92  C   UNL     1       7.043  -9.668   1.594  1.00  0.00     0.135 C 
ATOM     93  N   UNL     1       7.367 -11.834   0.344  1.00  0.00    -0.342 N 
ATOM     94  S   UNL     1       8.613  -8.920   1.071  1.00  0.00    -0.150 SA
ATOM     95  C   UNL     1       8.603 -11.352  -0.306  1.00  0.00     0.271 C 
ATOM     96  H   UNL     1       6.906 -12.502  -0.274  1.00  0.00     0.346 HD
ATOM     97  H   UNL     1       7.620 -12.275   1.228  1.00  0.00     0.346 HD
ATOM     98  C   UNL     1       9.465 -10.442   0.572  1.00  0.00     0.131 C 
ENDBRANCH  90  91
ENDBRANCH  88  90
ENDBRANCH  85  88
BRANCH  86  99
ATOM     99  O   UNL     1       1.506  -7.468   0.221  1.00  0.00    -0.391 OA
ATOM    100  H   UNL     1       1.852  -7.302  -0.670  1.00  0.00     0.211 HD
ENDBRANCH  86  99
ENDBRANCH  81  83
ENDBRANCH  80  81
ENDBRANCH  79  80
ENDBRANCH  78  79
ENDBRANCH  77  78
ENDBRANCH  76  77
ENDBRANCH  75  76
ENDBRANCH   1  75
TORSDOF 27
