REMARK SMILES Cc1cccc(-c2noc(C[N@@H+](C)Cc3ncccc3C(=O)OCCOCCOCCOCCOC(=O)c3ccc(-c4c5nc(c(-c6cc(S(=O)(=O)[O-])ccc6F)c6ccc([nH]6)c(-c6cc(S(=O)(=O)[O-])ccc6F)c6nc(c(-c7cc(S(=O)(=O)[O-])ccc7F)c7ccc4[nH]7)C=C6)C=C5)cc3)n2)c1
REMARK SMILES IDX 28 1 27 2 26 3 25 4 24 5 23 6 21 7 22 8 20 9 15 10 16 11
REMARK SMILES IDX 17 12 19 13 18 14 14 15 12 16 13 17 11 19 10 20 7 21 8 22
REMARK SMILES IDX 101 23 9 24 6 25 1 26 2 27 3 28 102 29 4 30 5 31 29 32 30 33
REMARK SMILES IDX 31 34 32 35 33 36 34 37 35 38 36 39 37 40 38 41 39 42 100 43
REMARK SMILES IDX 40 44 99 45 41 46 42 47 43 48 93 49 44 50 98 51 92 52 94 53
REMARK SMILES IDX 45 54 97 55 91 56 90 57 46 59 78 60 58 61 77 62 59 63 62 64
REMARK SMILES IDX 76 65 95 66 60 67 61 68 75 70 96 71 63 72 47 73 48 74 56 75
REMARK SMILES IDX 49 76 55 77 57 78 54 79 50 80 51 81 52 82 53 83 79 84 80 85
REMARK SMILES IDX 88 86 81 87 87 88 89 89 86 90 82 91 83 92 84 93 85 94 64 95
REMARK SMILES IDX 65 96 73 97 66 98 72 99 74 100 71 101 67 102 68 103 69 104
REMARK SMILES IDX 70 105
REMARK H PARENT 12 18 94 58 62 69
REMARK Flexibility Score: inf
ROOT
ATOM      1  C   UNL     1      -1.924   2.776  -3.644  1.00  0.00     0.188 C 
ENDROOT
BRANCH   1   2
ATOM      2  C   UNL     1      -2.598   3.501  -2.489  1.00  0.00     0.188 C 
BRANCH   2   3
ATOM      3  O   UNL     1      -3.517   2.897  -1.577  1.00  0.00    -0.376 OA
BRANCH   3   4
ATOM      4  C   UNL     1      -4.506   2.017  -2.080  1.00  0.00     0.202 C 
BRANCH   4   5
ATOM      5  C   UNL     1      -5.636   2.674  -2.857  1.00  0.00     0.261 C 
BRANCH   5   6
ATOM      6  O   UNL     1      -5.111   3.335  -4.005  1.00  0.00    -0.460 OA
BRANCH   6   7
ATOM      7  C   UNL     1      -5.703   4.506  -4.291  1.00  0.00     0.340 C 
ATOM      8  O   UNL     1      -6.837   4.885  -4.016  1.00  0.00    -0.246 OA
BRANCH   7   9
ATOM      9  C   UNL     1      -4.595   5.397  -4.608  1.00  0.00     0.087 A 
ATOM     10  C   UNL     1      -4.060   6.208  -3.578  1.00  0.00     0.109 A 
ATOM     11  N   UNL     1      -2.865   6.841  -3.761  1.00  0.00    -0.254 NA
ATOM     12  C   UNL     1      -2.200   6.611  -4.928  1.00  0.00     0.111 A 
ATOM     13  C   UNL     1      -3.885   5.181  -5.798  1.00  0.00     0.019 A 
ATOM     14  C   UNL     1      -2.653   5.794  -5.954  1.00  0.00     0.021 A 
BRANCH  10  15
ATOM     15  C   UNL     1      -4.676   6.119  -2.143  1.00  0.00     0.320 C 
BRANCH  15  16
ATOM     16  N   UNL     1      -4.023   6.745  -0.955  1.00  0.00    -0.325 N 
ATOM     17  C   UNL     1      -3.941   8.186  -1.171  1.00  0.00     0.333 C 
ATOM     18  H   UNL     1      -4.627   6.503  -0.169  1.00  0.00     0.348 HD
BRANCH  16  19
ATOM     19  C   UNL     1      -2.708   6.195  -0.517  1.00  0.00     0.364 C 
BRANCH  19  20
ATOM     20  C   UNL     1      -2.622   5.018   0.457  1.00  0.00     0.282 A 
ATOM     21  C   UNL     1      -2.047   3.372   1.689  1.00  0.00     0.202 A 
ATOM     22  N   UNL     1      -3.333   3.597   2.017  1.00  0.00    -0.057 NA
ATOM     23  N   UNL     1      -1.554   4.298   0.784  1.00  0.00    -0.186 NA
ATOM     24  O   UNL     1      -3.716   4.675   1.199  1.00  0.00    -0.333 OA
BRANCH  21  25
ATOM     25  C   UNL     1      -1.270   2.205   2.179  1.00  0.00     0.023 A 
ATOM     26  C   UNL     1       2.323   0.794   2.116  1.00  0.00     0.044 C 
ATOM     27  C   UNL     1       0.844   0.940   2.362  1.00  0.00    -0.050 A 
ATOM     28  C   UNL     1       0.142  -0.171   2.841  1.00  0.00     0.003 A 
ATOM     29  C   UNL     1       0.134   2.125   2.050  1.00  0.00     0.015 A 
ATOM     30  C   UNL     1      -1.236  -0.095   3.032  1.00  0.00     0.001 A 
ATOM     31  C   UNL     1      -1.933   1.077   2.698  1.00  0.00     0.012 A 
ENDBRANCH  21  25
ENDBRANCH  19  20
ENDBRANCH  16  19
ENDBRANCH  15  16
ENDBRANCH  10  15
ENDBRANCH   7   9
ENDBRANCH   6   7
ENDBRANCH   5   6
ENDBRANCH   4   5
ENDBRANCH   3   4
ENDBRANCH   2   3
ENDBRANCH   1   2
BRANCH   1  32
ATOM     32  O   UNL     1      -1.911   1.390  -3.487  1.00  0.00    -0.377 OA
BRANCH  32  33
ATOM     33  C   UNL     1      -1.001   0.854  -2.560  1.00  0.00     0.188 C 
BRANCH  33  34
ATOM     34  C   UNL     1      -0.691   1.640  -1.297  1.00  0.00     0.188 C 
BRANCH  34  35
ATOM     35  O   UNL     1       0.387   2.526  -1.553  1.00  0.00    -0.376 OA
BRANCH  35  36
ATOM     36  C   UNL     1       1.681   1.979  -1.277  1.00  0.00     0.202 C 
BRANCH  36  37
ATOM     37  C   UNL     1       1.952   0.460  -1.498  1.00  0.00     0.261 C 
BRANCH  37  38
ATOM     38  O   UNL     1       1.030  -0.351  -0.714  1.00  0.00    -0.460 OA
BRANCH  38  39
ATOM     39  C   UNL     1       1.006  -1.701  -0.814  1.00  0.00     0.338 C 
ATOM     40  O   UNL     1       1.966  -2.433  -0.966  1.00  0.00    -0.246 OA
BRANCH  39  41
ATOM     41  C   UNL     1      -0.436  -2.143  -0.863  1.00  0.00     0.060 A 
ATOM     42  C   UNL     1      -0.826  -3.071  -1.829  1.00  0.00     0.016 A 
ATOM     43  C   UNL     1      -1.437  -1.446  -0.183  1.00  0.00     0.016 A 
ATOM     44  C   UNL     1      -2.164  -3.108  -2.276  1.00  0.00     0.010 A 
ATOM     45  C   UNL     1      -2.759  -1.449  -0.647  1.00  0.00     0.010 A 
ATOM     46  C   UNL     1      -3.108  -2.188  -1.787  1.00  0.00    -0.014 A 
BRANCH  46  47
ATOM     47  C   UNL     1      -4.219  -1.651  -2.638  1.00  0.00     0.031 A 
ATOM     48  C   UNL     1      -5.591  -1.317  -2.132  1.00  0.00     0.074 A 
ATOM     49  C   UNL     1      -3.855  -1.091  -3.825  1.00  0.00     0.049 A 
ATOM     50  N   UNL     1      -6.563  -0.864  -2.860  1.00  0.00    -0.248 NA
ATOM     51  C   UNL     1      -5.986  -1.439  -0.740  1.00  0.00     0.031 C 
ATOM     52  C   UNL     1      -4.562  -0.057  -4.581  1.00  0.00     0.029 A 
ATOM     53  N   UNL     1      -2.683  -1.257  -4.561  1.00  0.00    -0.354 N 
ATOM     54  C   UNL     1      -7.557  -0.342  -2.052  1.00  0.00     0.074 A 
ATOM     55  C   UNL     1      -7.167  -0.805  -0.737  1.00  0.00     0.031 C 
ATOM     56  C   UNL     1      -3.843   0.329  -5.641  1.00  0.00     0.029 A 
ATOM     57  C   UNL     1      -2.838  -0.676  -5.835  1.00  0.00     0.049 A 
ATOM     58  H   UNL     1      -1.871  -1.711  -4.239  1.00  0.00     0.167 HD
ATOM     59  C   UNL     1      -8.511   0.504  -2.587  1.00  0.00     0.034 A 
ATOM     60  C   UNL     1      -2.801  -1.493  -6.928  1.00  0.00     0.034 A 
ATOM     61  C   UNL     1      -8.363   0.673  -4.071  1.00  0.00     0.049 A 
ATOM     62  C   UNL     1      -4.223  -1.789  -7.423  1.00  0.00     0.074 A 
ATOM     63  C   UNL     1      -8.315   1.731  -4.974  1.00  0.00     0.029 A 
ATOM     64  N   UNL     1      -8.059  -0.441  -4.851  1.00  0.00    -0.354 N 
ATOM     65  N   UNL     1      -5.268  -1.032  -7.163  1.00  0.00    -0.248 NA
ATOM     66  C   UNL     1      -4.611  -2.969  -8.188  1.00  0.00     0.031 C 
ATOM     67  C   UNL     1      -7.963   1.227  -6.272  1.00  0.00     0.029 A 
ATOM     68  C   UNL     1      -7.829  -0.144  -6.180  1.00  0.00     0.049 A 
ATOM     69  H   UNL     1      -8.013  -1.355  -4.488  1.00  0.00     0.167 HD
ATOM     70  C   UNL     1      -6.426  -1.677  -7.492  1.00  0.00     0.074 A 
ATOM     71  C   UNL     1      -5.954  -2.857  -8.209  1.00  0.00     0.031 C 
ATOM     72  C   UNL     1      -7.678  -1.258  -7.111  1.00  0.00     0.034 A 
BRANCH  59  73
ATOM     73  C   UNL     1      -9.514   1.362  -1.764  1.00  0.00     0.023 A 
ATOM     74  C   UNL     1     -10.244   2.418  -2.372  1.00  0.00     0.031 A 
ATOM     75  C   UNL     1      -9.804   1.209  -0.389  1.00  0.00     0.131 A 
ATOM     76  C   UNL     1     -11.099   3.281  -1.636  1.00  0.00     0.055 A 
ATOM     77  C   UNL     1     -10.627   2.078   0.350  1.00  0.00     0.041 A 
ATOM     78  F   UNL     1      -9.377   0.166   0.323  1.00  0.00    -0.206 F 
ATOM     79  C   UNL     1     -11.275   3.127  -0.269  1.00  0.00     0.022 A 
BRANCH  76  80
ATOM     80  S   UNL     1     -12.040   4.589  -2.485  1.00  0.00     0.124 S 
ATOM     81  O   UNL     1     -10.996   5.539  -2.848  1.00  0.00    -0.237 OA
ATOM     82  O   UNL     1     -12.670   3.865  -3.584  1.00  0.00    -0.237 OA
ATOM     83  O   UNL     1     -12.969   5.062  -1.457  1.00  0.00    -0.744 OA
ENDBRANCH  76  80
ENDBRANCH  59  73
BRANCH  60  84
ATOM     84  C   UNL     1      -1.547  -2.318  -6.829  1.00  0.00     0.023 A 
ATOM     85  C   UNL     1      -0.350  -1.546  -6.859  1.00  0.00     0.031 A 
ATOM     86  C   UNL     1      -1.501  -3.538  -6.136  1.00  0.00     0.131 A 
ATOM     87  C   UNL     1       0.740  -1.874  -6.034  1.00  0.00     0.055 A 
ATOM     88  C   UNL     1      -0.374  -3.899  -5.372  1.00  0.00     0.041 A 
ATOM     89  F   UNL     1      -2.597  -4.304  -6.025  1.00  0.00    -0.206 F 
ATOM     90  C   UNL     1       0.724  -3.039  -5.270  1.00  0.00     0.022 A 
BRANCH  87  91
ATOM     91  S   UNL     1       2.030  -0.615  -5.746  1.00  0.00     0.124 S 
ATOM     92  O   UNL     1       2.847  -0.732  -6.948  1.00  0.00    -0.237 OA
ATOM     93  O   UNL     1       1.259   0.617  -5.617  1.00  0.00    -0.237 OA
ATOM     94  O   UNL     1       2.670  -1.056  -4.509  1.00  0.00    -0.744 OA
ENDBRANCH  87  91
ENDBRANCH  60  84
BRANCH  72  95
ATOM     95  C   UNL     1      -8.937  -1.956  -7.559  1.00  0.00     0.023 A 
ATOM     96  C   UNL     1      -9.035  -2.484  -8.847  1.00  0.00     0.031 A 
ATOM     97  C   UNL     1     -10.097  -2.054  -6.752  1.00  0.00     0.131 A 
ATOM     98  C   UNL     1     -10.168  -3.208  -9.236  1.00  0.00     0.055 A 
ATOM     99  C   UNL     1     -11.270  -2.672  -7.186  1.00  0.00     0.041 A 
ATOM    100  F   UNL     1     -10.138  -1.595  -5.493  1.00  0.00    -0.206 F 
ATOM    101  C   UNL     1     -11.301  -3.285  -8.427  1.00  0.00     0.022 A 
BRANCH  98 102
ATOM    102  S   UNL     1     -10.053  -4.178 -10.753  1.00  0.00     0.124 S 
ATOM    103  O   UNL     1      -9.719  -3.169 -11.752  1.00  0.00    -0.237 OA
ATOM    104  O   UNL     1      -8.982  -5.114 -10.417  1.00  0.00    -0.237 OA
ATOM    105  O   UNL     1     -11.380  -4.774 -10.882  1.00  0.00    -0.744 OA
ENDBRANCH  98 102
ENDBRANCH  72  95
ENDBRANCH  46  47
ENDBRANCH  39  41
ENDBRANCH  38  39
ENDBRANCH  37  38
ENDBRANCH  36  37
ENDBRANCH  35  36
ENDBRANCH  34  35
ENDBRANCH  33  34
ENDBRANCH  32  33
ENDBRANCH   1  32
TORSDOF 28
