REMARK SMILES CCc1cc(S(F)(F)(F)(F)F)cc2c1O[C@@H](C(F)(F)F)C(C(=O)OCCOCCOCCOCCOC(=O)c1ccc(-c3c4nc(c(-c5cc(S(=O)(=O)[O-])ccc5F)c5ccc([nH]5)c(-c5cc(S(=O)(=O)[O-])ccc5F)c5nc(c(-c6cc(S(=O)(=O)[O-])ccc6F)c6ccc3[nH]6)C=C5)C=C4)cc1)=C2
REMARK SMILES IDX 31 1 30 2 29 3 28 4 27 5 26 6 25 7 24 8 22 9 23 10 21 11
REMARK SMILES IDX 3 12 4 13 14 14 5 15 13 16 15 17 12 18 102 19 16 20 2 21
REMARK SMILES IDX 1 22 6 23 7 24 8 25 9 26 10 27 11 28 17 29 18 30 19 31 20 32
REMARK SMILES IDX 32 33 33 34 34 35 35 36 36 37 37 38 38 39 39 40 40 41 101 42
REMARK SMILES IDX 41 43 100 44 42 45 43 46 44 47 94 48 45 49 99 50 93 51 95 52
REMARK SMILES IDX 46 53 98 54 92 55 91 56 47 58 79 59 59 60 78 61 60 62 63 63
REMARK SMILES IDX 77 64 96 65 61 66 62 67 76 69 97 70 64 71 48 72 49 73 57 74
REMARK SMILES IDX 50 75 56 76 58 77 55 78 51 79 52 80 53 81 54 82 80 83 81 84
REMARK SMILES IDX 89 85 82 86 88 87 90 88 87 89 83 90 84 91 85 92 86 93 65 94
REMARK SMILES IDX 66 95 74 96 67 97 73 98 75 99 72 100 68 101 69 102 70 103
REMARK SMILES IDX 71 104
REMARK H PARENT 95 57 63 68
REMARK Flexibility Score: inf
ROOT
ATOM      1  C   UNL     1      -3.432   9.687   1.252  1.00  0.00     0.188 C 
ENDROOT
BRANCH   1   2
ATOM      2  O   UNL     1      -2.754   8.618   0.609  1.00  0.00    -0.377 OA
BRANCH   2   3
ATOM      3  C   UNL     1      -3.467   7.409   0.820  1.00  0.00     0.188 C 
BRANCH   3   4
ATOM      4  C   UNL     1      -3.557   7.128   2.311  1.00  0.00     0.188 C 
BRANCH   4   5
ATOM      5  O   UNL     1      -4.235   8.196   2.955  1.00  0.00    -0.376 OA
BRANCH   5   6
ATOM      6  C   UNL     1      -3.521   9.406   2.743  1.00  0.00     0.202 C 
BRANCH   6   7
ATOM      7  C   UNL     1      -2.120   9.275   3.319  1.00  0.00     0.261 C 
BRANCH   7   8
ATOM      8  O   UNL     1      -1.442   8.206   2.675  1.00  0.00    -0.460 OA
BRANCH   8   9
ATOM      9  C   UNL     1      -1.966   6.888   2.745  1.00  0.00     0.338 C 
ATOM     10  O   UNL     1      -3.042   6.665   3.383  1.00  0.00    -0.246 OA
BRANCH   9  11
ATOM     11  C   UNL     1      -1.240   5.744   2.055  1.00  0.00     0.087 C 
ATOM     12  C   UNL     1       0.949   2.488   0.622  1.00  0.00    -0.004 A 
ATOM     13  C   UNL     1       2.010   2.696  -0.240  1.00  0.00     0.032 A 
ATOM     14  C   UNL     1       0.280   3.580   1.120  1.00  0.00     0.131 A 
ATOM     15  C   UNL     1       2.395   3.963  -0.591  1.00  0.00     0.108 A 
ATOM     16  C   UNL     1       0.629   4.873   0.774  1.00  0.00     0.019 A 
ATOM     17  O   UNL     1      -0.697   3.363   2.061  1.00  0.00    -0.475 OA
ATOM     18  C   UNL     1       1.703   5.046  -0.091  1.00  0.00     0.036 A 
ATOM     19  C   UNL     1      -0.115   5.961   1.385  1.00  0.00     0.027 C 
ATOM     20  C   UNL     1      -1.787   4.325   2.120  1.00  0.00     0.316 C 
BRANCH  12  21
ATOM     21  C   UNL     1       0.442   1.107   1.003  1.00  0.00     0.036 C 
ATOM     22  C   UNL     1       0.949   0.086  -0.002  1.00  0.00     0.009 C 
ENDBRANCH  12  21
BRANCH  15  23
ATOM     23  S   UNL     1       3.802   4.214  -1.701  1.00  0.00     0.310 S 
ATOM     24  F   UNL     1       4.834   4.286  -0.499  1.00  0.00    -0.094 F 
ATOM     25  F   UNL     1       3.613   5.770  -1.542  1.00  0.00    -0.094 F 
ATOM     26  F   UNL     1       5.004   4.431  -2.664  1.00  0.00    -0.094 F 
ATOM     27  F   UNL     1       4.065   2.657  -1.738  1.00  0.00    -0.094 F 
ATOM     28  F   UNL     1       2.657   3.981  -0.637  1.00  0.00    -0.094 F 
ENDBRANCH  15  23
BRANCH  20  29
ATOM     29  C   UNL     1      -2.541   4.142   3.427  1.00  0.00     0.430 C 
ATOM     30  F   UNL     1      -3.542   5.015   3.487  1.00  0.00    -0.167 F 
ATOM     31  F   UNL     1      -3.026   2.905   3.490  1.00  0.00    -0.167 F 
ATOM     32  F   UNL     1      -1.713   4.346   4.448  1.00  0.00    -0.167 F 
ENDBRANCH  20  29
ENDBRANCH   9  11
ENDBRANCH   8   9
ENDBRANCH   7   8
ENDBRANCH   6   7
ENDBRANCH   5   6
ENDBRANCH   4   5
ENDBRANCH   3   4
ENDBRANCH   2   3
ENDBRANCH   1   2
BRANCH   1  33
ATOM     33  C   UNL     1      -4.833   9.818   0.677  1.00  0.00     0.188 C 
BRANCH  33  34
ATOM     34  O   UNL     1      -5.547   8.608   0.888  1.00  0.00    -0.376 OA
BRANCH  34  35
ATOM     35  C   UNL     1      -4.868   7.540   0.245  1.00  0.00     0.202 C 
BRANCH  35  36
ATOM     36  C   UNL     1      -4.779   7.821  -1.246  1.00  0.00     0.261 C 
BRANCH  36  37
ATOM     37  O   UNL     1      -4.066   9.031  -1.458  1.00  0.00    -0.460 OA
BRANCH  37  38
ATOM     38  C   UNL     1      -4.551  10.247  -0.908  1.00  0.00     0.338 C 
ATOM     39  O   UNL     1      -5.623  10.253  -0.226  1.00  0.00    -0.246 OA
BRANCH  38  40
ATOM     40  C   UNL     1      -3.787  11.541  -1.134  1.00  0.00     0.060 A 
ATOM     41  C   UNL     1      -3.571  12.409  -0.076  1.00  0.00     0.016 A 
ATOM     42  C   UNL     1      -3.336  11.816  -2.353  1.00  0.00     0.016 A 
ATOM     43  C   UNL     1      -3.115  13.689  -0.468  1.00  0.00     0.010 A 
ATOM     44  C   UNL     1      -2.777  13.040  -2.632  1.00  0.00     0.010 A 
ATOM     45  C   UNL     1      -2.588  13.968  -1.646  1.00  0.00    -0.014 A 
BRANCH  45  46
ATOM     46  C   UNL     1      -1.813  15.252  -1.893  1.00  0.00     0.031 A 
ATOM     47  C   UNL     1      -2.308  16.109  -2.878  1.00  0.00     0.074 A 
ATOM     48  C   UNL     1      -0.671  15.502  -1.152  1.00  0.00     0.049 A 
ATOM     49  N   UNL     1      -1.816  17.292  -3.248  1.00  0.00    -0.248 NA
ATOM     50  C   UNL     1      -3.501  15.829  -3.690  1.00  0.00     0.031 C 
ATOM     51  C   UNL     1      -0.170  14.646  -0.151  1.00  0.00     0.029 A 
ATOM     52  N   UNL     1       0.171  16.589  -1.238  1.00  0.00    -0.354 N 
ATOM     53  C   UNL     1      -2.573  17.826  -4.209  1.00  0.00     0.074 A 
ATOM     54  C   UNL     1      -3.664  16.890  -4.511  1.00  0.00     0.031 C 
ATOM     55  C   UNL     1       0.964  15.203   0.350  1.00  0.00     0.029 A 
ATOM     56  C   UNL     1       1.190  16.416  -0.327  1.00  0.00     0.049 A 
ATOM     57  H   UNL     1       0.064  17.356  -1.845  1.00  0.00     0.167 HD
ATOM     58  C   UNL     1      -2.398  19.057  -4.843  1.00  0.00     0.034 A 
ATOM     59  C   UNL     1       2.266  17.257  -0.087  1.00  0.00     0.034 A 
ATOM     60  C   UNL     1      -1.346  19.918  -4.573  1.00  0.00     0.049 A 
ATOM     61  C   UNL     1       2.474  18.462  -0.763  1.00  0.00     0.074 A 
ATOM     62  C   UNL     1      -1.159  21.166  -5.197  1.00  0.00     0.029 A 
ATOM     63  N   UNL     1      -0.314  19.734  -3.679  1.00  0.00    -0.354 N 
ATOM     64  N   UNL     1       1.695  19.013  -1.695  1.00  0.00    -0.248 NA
ATOM     65  C   UNL     1       3.626  19.344  -0.541  1.00  0.00     0.031 C 
ATOM     66  C   UNL     1      -0.025  21.723  -4.695  1.00  0.00     0.029 A 
ATOM     67  C   UNL     1       0.515  20.831  -3.749  1.00  0.00     0.049 A 
ATOM     68  H   UNL     1      -0.191  18.953  -3.093  1.00  0.00     0.167 HD
ATOM     69  C   UNL     1       2.210  20.177  -2.095  1.00  0.00     0.074 A 
ATOM     70  C   UNL     1       3.464  20.404  -1.363  1.00  0.00     0.031 C 
ATOM     71  C   UNL     1       1.683  21.062  -3.038  1.00  0.00     0.034 A 
BRANCH  58  72
ATOM     72  C   UNL     1      -3.418  19.477  -5.889  1.00  0.00     0.023 A 
ATOM     73  C   UNL     1      -4.736  19.648  -5.498  1.00  0.00     0.031 A 
ATOM     74  C   UNL     1      -3.034  19.709  -7.139  1.00  0.00     0.131 A 
ATOM     75  C   UNL     1      -5.639  19.792  -6.577  1.00  0.00     0.055 A 
ATOM     76  C   UNL     1      -3.961  19.977  -8.117  1.00  0.00     0.041 A 
ATOM     77  F   UNL     1      -1.741  19.681  -7.447  1.00  0.00    -0.206 F 
ATOM     78  C   UNL     1      -5.288  20.102  -7.812  1.00  0.00     0.022 A 
BRANCH  75  79
ATOM     79  S   UNL     1      -7.399  19.532  -6.242  1.00  0.00     0.124 S 
ATOM     80  O   UNL     1      -7.615  18.108  -5.725  1.00  0.00    -0.237 OA
ATOM     81  O   UNL     1      -7.871  20.536  -5.188  1.00  0.00    -0.237 OA
ATOM     82  O   UNL     1      -8.293  19.757  -7.683  1.00  0.00    -0.744 OA
ENDBRANCH  75  79
ENDBRANCH  58  72
BRANCH  59  83
ATOM     83  C   UNL     1       3.276  16.845   0.971  1.00  0.00     0.023 A 
ATOM     84  C   UNL     1       3.511  17.695   2.038  1.00  0.00     0.031 A 
ATOM     85  C   UNL     1       3.944  15.705   0.838  1.00  0.00     0.131 A 
ATOM     86  C   UNL     1       4.685  17.391   2.767  1.00  0.00     0.055 A 
ATOM     87  C   UNL     1       4.996  15.409   1.672  1.00  0.00     0.041 A 
ATOM     88  F   UNL     1       3.593  14.841  -0.110  1.00  0.00    -0.206 F 
ATOM     89  C   UNL     1       5.321  16.235   2.712  1.00  0.00     0.022 A 
BRANCH  86  90
ATOM     90  S   UNL     1       5.362  18.675   3.848  1.00  0.00     0.124 S 
ATOM     91  O   UNL     1       5.716  19.909   3.014  1.00  0.00    -0.237 OA
ATOM     92  O   UNL     1       4.322  19.053   4.904  1.00  0.00    -0.237 OA
ATOM     93  O   UNL     1       6.770  18.086   4.619  1.00  0.00    -0.744 OA
ENDBRANCH  86  90
ENDBRANCH  59  83
BRANCH  71  94
ATOM     94  C   UNL     1       2.435  22.356  -3.300  1.00  0.00     0.023 A 
ATOM     95  C   UNL     1       3.738  22.322  -3.768  1.00  0.00     0.031 A 
ATOM     96  C   UNL     1       1.814  23.509  -3.076  1.00  0.00     0.131 A 
ATOM     97  C   UNL     1       4.407  23.566  -3.694  1.00  0.00     0.055 A 
ATOM     98  C   UNL     1       2.497  24.698  -3.154  1.00  0.00     0.041 A 
ATOM     99  F   UNL     1       0.519  23.511  -2.773  1.00  0.00    -0.206 F 
ATOM    100  C   UNL     1       3.805  24.733  -3.553  1.00  0.00     0.022 A 
BRANCH  97 101
ATOM    101  S   UNL     1       6.214  23.559  -3.800  1.00  0.00     0.124 S 
ATOM    102  O   UNL     1       6.789  22.726  -2.653  1.00  0.00    -0.237 OA
ATOM    103  O   UNL     1       6.644  22.951  -5.138  1.00  0.00    -0.237 OA
ATOM    104  O   UNL     1       6.798  25.162  -3.689  1.00  0.00    -0.744 OA
ENDBRANCH  97 101
ENDBRANCH  71  94
ENDBRANCH  45  46
ENDBRANCH  38  40
ENDBRANCH  37  38
ENDBRANCH  36  37
ENDBRANCH  35  36
ENDBRANCH  34  35
ENDBRANCH  33  34
ENDBRANCH   1  33
TORSDOF 26
