REMARK SMILES Cc1ccc(C)c(N2C(=O)C[C@@H](SCC(=O)OCCOCCOCCOCCOC(=O)c3ccc(-c4c5nc(c(-c6cc(S(=O)(=O)[O-])ccc6F)c6ccc([nH]6)c(-c6cc(S(=O)(=O)[O-])ccc6F)c6nc(c(-c7cc(S(=O)(=O)[O-])ccc7F)c7ccc4[nH]7)C=C6)C=C5)cc3)C2=O)c1
REMARK SMILES IDX 23 1 22 2 21 3 20 4 19 5 18 6 17 7 15 8 16 9 14 10 13 11
REMARK SMILES IDX 12 12 8 13 9 14 95 15 10 16 11 17 96 18 7 19 1 20 2 21 3 22
REMARK SMILES IDX 97 23 4 24 5 25 6 26 24 27 25 28 26 29 27 30 28 31 29 32
REMARK SMILES IDX 30 33 31 34 32 35 33 36 94 37 34 38 93 39 35 40 36 41 37 42
REMARK SMILES IDX 87 43 38 44 92 45 86 46 88 47 39 48 91 49 85 50 84 51 40 53
REMARK SMILES IDX 72 54 52 55 71 56 53 57 56 58 70 59 89 60 54 61 55 62 69 64
REMARK SMILES IDX 90 65 57 66 41 67 42 68 50 69 43 70 49 71 51 72 48 73 44 74
REMARK SMILES IDX 45 75 46 76 47 77 73 78 74 79 82 80 75 81 81 82 83 83 80 84
REMARK SMILES IDX 76 85 77 86 78 87 79 88 58 89 59 90 67 91 60 92 66 93 68 94
REMARK SMILES IDX 65 95 61 96 62 97 63 98 64 99
REMARK H PARENT 88 52 56 63
REMARK Flexibility Score: inf
ROOT
ATOM      1  O   UNL     1      -3.708   3.709   4.010  1.00  0.00    -0.377 OA
ENDROOT
BRANCH   1   2
ATOM      2  C   UNL     1      -3.834   4.554   2.880  1.00  0.00     0.188 C 
BRANCH   2   3
ATOM      3  C   UNL     1      -4.195   6.022   3.014  1.00  0.00     0.188 C 
BRANCH   3   4
ATOM      4  O   UNL     1      -5.176   6.214   4.003  1.00  0.00    -0.376 OA
BRANCH   4   5
ATOM      5  C   UNL     1      -6.508   6.481   3.600  1.00  0.00     0.202 C 
BRANCH   5   6
ATOM      6  C   UNL     1      -7.077   6.061   2.229  1.00  0.00     0.261 C 
BRANCH   6   7
ATOM      7  O   UNL     1      -7.176   4.639   1.954  1.00  0.00    -0.463 OA
BRANCH   7   8
ATOM      8  C   UNL     1      -6.382   4.188   0.947  1.00  0.00     0.315 C 
ATOM      9  O   UNL     1      -5.366   4.785   0.625  1.00  0.00    -0.251 OA
BRANCH   8  10
ATOM     10  C   UNL     1      -6.789   2.916   0.264  1.00  0.00     0.192 C 
BRANCH  10  11
ATOM     11  S   UNL     1      -5.391   1.765  -0.313  1.00  0.00    -0.136 SA
BRANCH  11  12
ATOM     12  C   UNL     1      -3.799   2.566   0.139  1.00  0.00     0.146 C 
ATOM     13  N   UNL     1      -1.724   1.567  -0.319  1.00  0.00    -0.249 N 
ATOM     14  C   UNL     1      -1.704   2.725  -1.042  1.00  0.00     0.235 C 
ATOM     15  C   UNL     1      -2.771   1.559   0.571  1.00  0.00     0.247 C 
ATOM     16  O   UNL     1      -0.776   3.198  -1.685  1.00  0.00    -0.274 OA
ATOM     17  C   UNL     1      -3.055   3.384  -0.904  1.00  0.00     0.125 C 
ATOM     18  O   UNL     1      -2.817   0.943   1.632  1.00  0.00    -0.273 OA
BRANCH  13  19
ATOM     19  C   UNL     1      -0.746   0.543  -0.313  1.00  0.00     0.055 A 
ATOM     20  C   UNL     1       3.044   0.006  -0.088  1.00  0.00     0.044 C 
ATOM     21  C   UNL     1       1.564  -0.235  -0.162  1.00  0.00    -0.049 A 
ATOM     22  C   UNL     1       1.103  -1.552  -0.053  1.00  0.00     0.004 A 
ATOM     23  C   UNL     1       0.635   0.813  -0.318  1.00  0.00     0.030 A 
ATOM     24  C   UNL     1      -0.257  -1.833  -0.122  1.00  0.00     0.006 A 
ATOM     25  C   UNL     1      -1.187  -0.801  -0.282  1.00  0.00    -0.027 A 
ATOM     26  C   UNL     1      -2.638  -1.183  -0.446  1.00  0.00     0.046 C 
ENDBRANCH  13  19
ENDBRANCH  11  12
ENDBRANCH  10  11
ENDBRANCH   8  10
ENDBRANCH   7   8
ENDBRANCH   6   7
ENDBRANCH   5   6
ENDBRANCH   4   5
ENDBRANCH   3   4
ENDBRANCH   2   3
ENDBRANCH   1   2
BRANCH   1  27
ATOM     27  C   UNL     1      -3.061   4.264   5.129  1.00  0.00     0.188 C 
BRANCH  27  28
ATOM     28  C   UNL     1      -1.574   4.453   4.873  1.00  0.00     0.188 C 
BRANCH  28  29
ATOM     29  O   UNL     1      -1.382   5.354   3.787  1.00  0.00    -0.376 OA
BRANCH  29  30
ATOM     30  C   UNL     1      -0.326   5.011   2.904  1.00  0.00     0.202 C 
BRANCH  30  31
ATOM     31  C   UNL     1       0.954   5.705   3.357  1.00  0.00     0.261 C 
BRANCH  31  32
ATOM     32  O   UNL     1       0.974   7.147   3.194  1.00  0.00    -0.460 OA
BRANCH  32  33
ATOM     33  C   UNL     1      -0.119   7.856   3.608  1.00  0.00     0.338 C 
ATOM     34  O   UNL     1      -0.312   8.210   4.744  1.00  0.00    -0.246 OA
BRANCH  33  35
ATOM     35  C   UNL     1      -1.016   8.142   2.435  1.00  0.00     0.060 A 
ATOM     36  C   UNL     1      -2.283   8.669   2.656  1.00  0.00     0.016 A 
ATOM     37  C   UNL     1      -0.673   7.725   1.138  1.00  0.00     0.016 A 
ATOM     38  C   UNL     1      -3.232   8.608   1.623  1.00  0.00     0.010 A 
ATOM     39  C   UNL     1      -1.635   7.617   0.125  1.00  0.00     0.010 A 
ATOM     40  C   UNL     1      -2.951   8.011   0.360  1.00  0.00    -0.014 A 
BRANCH  40  41
ATOM     41  C   UNL     1      -3.845   8.319  -0.804  1.00  0.00     0.031 A 
ATOM     42  C   UNL     1      -4.002   9.769  -0.810  1.00  0.00     0.074 A 
ATOM     43  C   UNL     1      -4.486   7.587  -1.761  1.00  0.00     0.049 A 
ATOM     44  N   UNL     1      -5.057  10.361  -0.356  1.00  0.00    -0.248 NA
ATOM     45  C   UNL     1      -2.827  10.643  -0.967  1.00  0.00     0.031 C 
ATOM     46  C   UNL     1      -4.643   6.161  -1.691  1.00  0.00     0.029 A 
ATOM     47  N   UNL     1      -5.203   7.841  -2.929  1.00  0.00    -0.354 N 
ATOM     48  C   UNL     1      -4.826  11.674  -0.684  1.00  0.00     0.074 A 
ATOM     49  C   UNL     1      -3.391  11.835  -0.757  1.00  0.00     0.031 C 
ATOM     50  C   UNL     1      -5.050   5.608  -2.847  1.00  0.00     0.029 A 
ATOM     51  C   UNL     1      -5.415   6.693  -3.737  1.00  0.00     0.049 A 
ATOM     52  H   UNL     1      -5.532   8.737  -3.172  1.00  0.00     0.167 HD
ATOM     53  C   UNL     1      -5.775  12.230  -1.475  1.00  0.00     0.034 A 
ATOM     54  C   UNL     1      -6.084   6.450  -4.908  1.00  0.00     0.034 A 
ATOM     55  C   UNL     1      -7.087  11.657  -1.261  1.00  0.00     0.049 A 
ATOM     56  C   UNL     1      -7.191   7.427  -4.955  1.00  0.00     0.074 A 
ATOM     57  C   UNL     1      -7.889  11.434  -0.158  1.00  0.00     0.029 A 
ATOM     58  N   UNL     1      -7.577  10.875  -2.275  1.00  0.00    -0.354 N 
ATOM     59  N   UNL     1      -8.264   7.323  -4.218  1.00  0.00    -0.248 NA
ATOM     60  C   UNL     1      -6.943   8.745  -5.521  1.00  0.00     0.031 C 
ATOM     61  C   UNL     1      -8.790  10.393  -0.511  1.00  0.00     0.029 A 
ATOM     62  C   UNL     1      -8.574  10.038  -1.841  1.00  0.00     0.049 A 
ATOM     63  H   UNL     1      -7.252  10.909  -3.204  1.00  0.00     0.167 HD
ATOM     64  C   UNL     1      -8.567   8.629  -3.875  1.00  0.00     0.074 A 
ATOM     65  C   UNL     1      -7.817   9.458  -4.809  1.00  0.00     0.031 C 
ATOM     66  C   UNL     1      -9.066   8.923  -2.640  1.00  0.00     0.034 A 
BRANCH  53  67
ATOM     67  C   UNL     1      -5.357  12.815  -2.791  1.00  0.00     0.023 A 
ATOM     68  C   UNL     1      -6.193  13.761  -3.371  1.00  0.00     0.031 A 
ATOM     69  C   UNL     1      -4.331  12.281  -3.615  1.00  0.00     0.131 A 
ATOM     70  C   UNL     1      -5.977  14.151  -4.699  1.00  0.00     0.055 A 
ATOM     71  C   UNL     1      -4.042  12.763  -4.884  1.00  0.00     0.041 A 
ATOM     72  F   UNL     1      -3.651  11.176  -3.286  1.00  0.00    -0.206 F 
ATOM     73  C   UNL     1      -4.882  13.702  -5.443  1.00  0.00     0.022 A 
BRANCH  70  74
ATOM     74  S   UNL     1      -7.273  15.110  -5.503  1.00  0.00     0.124 S 
ATOM     75  O   UNL     1      -8.388  14.171  -5.456  1.00  0.00    -0.237 OA
ATOM     76  O   UNL     1      -7.371  16.274  -4.628  1.00  0.00    -0.237 OA
ATOM     77  O   UNL     1      -6.723  15.369  -6.830  1.00  0.00    -0.744 OA
ENDBRANCH  70  74
ENDBRANCH  53  67
BRANCH  54  78
ATOM     78  C   UNL     1      -5.898   5.336  -5.920  1.00  0.00     0.023 A 
ATOM     79  C   UNL     1      -6.631   5.270  -7.138  1.00  0.00     0.031 A 
ATOM     80  C   UNL     1      -4.811   4.432  -5.829  1.00  0.00     0.131 A 
ATOM     81  C   UNL     1      -6.231   4.395  -8.189  1.00  0.00     0.055 A 
ATOM     82  C   UNL     1      -4.429   3.567  -6.861  1.00  0.00     0.041 A 
ATOM     83  F   UNL     1      -4.013   4.387  -4.755  1.00  0.00    -0.206 F 
ATOM     84  C   UNL     1      -5.120   3.564  -8.056  1.00  0.00     0.022 A 
BRANCH  81  85
ATOM     85  S   UNL     1      -7.041   4.416  -9.830  1.00  0.00     0.124 S 
ATOM     86  O   UNL     1      -8.140   3.475  -9.647  1.00  0.00    -0.237 OA
ATOM     87  O   UNL     1      -7.407   5.817  -9.997  1.00  0.00    -0.237 OA
ATOM     88  O   UNL     1      -5.982   3.955 -10.731  1.00  0.00    -0.744 OA
ENDBRANCH  81  85
ENDBRANCH  54  78
BRANCH  66  89
ATOM     89  C   UNL     1     -10.114   8.013  -2.045  1.00  0.00     0.023 A 
ATOM     90  C   UNL     1      -9.989   6.630  -1.817  1.00  0.00     0.031 A 
ATOM     91  C   UNL     1     -11.323   8.628  -1.652  1.00  0.00     0.131 A 
ATOM     92  C   UNL     1     -11.045   5.922  -1.207  1.00  0.00     0.055 A 
ATOM     93  C   UNL     1     -12.357   7.930  -1.036  1.00  0.00     0.041 A 
ATOM     94  F   UNL     1     -11.513   9.944  -1.848  1.00  0.00    -0.206 F 
ATOM     95  C   UNL     1     -12.224   6.567  -0.815  1.00  0.00     0.022 A 
BRANCH  92  96
ATOM     96  S   UNL     1     -10.904   4.130  -0.927  1.00  0.00     0.124 S 
ATOM     97  O   UNL     1     -10.393   3.628  -2.195  1.00  0.00    -0.237 OA
ATOM     98  O   UNL     1      -9.967   4.068   0.194  1.00  0.00    -0.237 OA
ATOM     99  O   UNL     1     -12.274   3.726  -0.609  1.00  0.00    -0.744 OA
ENDBRANCH  92  96
ENDBRANCH  66  89
ENDBRANCH  40  41
ENDBRANCH  33  35
ENDBRANCH  32  33
ENDBRANCH  31  32
ENDBRANCH  30  31
ENDBRANCH  29  30
ENDBRANCH  28  29
ENDBRANCH  27  28
ENDBRANCH   1  27
TORSDOF 26
