REMARK SMILES Cc1ccccc1OC1(C(=O)OCCOCCOCCOCCOC(=O)c2ccc(-c3c4nc(c(-c5cc(S(=O)(=O)[O-])ccc5F)c5ccc([nH]5)c(-c5cc(S(=O)(=O)[O-])ccc5F)c5nc(c(-c6cc(S(=O)(=O)[O-])ccc6F)c6ccc3[nH]6)C=C5)C=C4)cc2)CCN(C(=O)[C@H]2CCCCO2)CC1
REMARK SMILES IDX 19 1 18 2 17 3 16 4 15 5 14 6 13 7 12 8 10 9 11 10 9 11
REMARK SMILES IDX 90 12 102 13 91 14 101 15 92 16 93 17 94 18 8 19 7 20 1 21
REMARK SMILES IDX 2 22 3 23 4 24 6 25 5 26 95 27 96 28 100 29 97 30 99 31
REMARK SMILES IDX 98 32 20 33 21 34 22 35 23 36 24 37 25 38 26 39 27 40 28 41
REMARK SMILES IDX 89 42 29 43 88 44 30 45 31 46 32 47 82 48 33 49 87 50 81 51
REMARK SMILES IDX 83 52 34 53 86 54 80 55 79 56 35 58 67 59 47 60 66 61 48 62
REMARK SMILES IDX 51 63 65 64 84 65 49 66 50 67 64 69 85 70 52 71 36 72 37 73
REMARK SMILES IDX 45 74 38 75 44 76 46 77 43 78 39 79 40 80 41 81 42 82 68 83
REMARK SMILES IDX 69 84 77 85 70 86 76 87 78 88 75 89 71 90 72 91 73 92 74 93
REMARK SMILES IDX 53 94 54 95 62 96 55 97 61 98 63 99 60 100 56 101 57 102
REMARK SMILES IDX 58 103 59 104
REMARK H PARENT 83 57 51 68
REMARK Flexibility Score: inf
ROOT
ATOM      1  C   UNL     1       9.462  -7.165  -1.227  1.00  0.00     0.188 C 
ENDROOT
BRANCH   1   2
ATOM      2  O   UNL     1       8.057  -7.292  -1.442  1.00  0.00    -0.377 OA
BRANCH   2   3
ATOM      3  C   UNL     1       7.496  -8.412  -0.773  1.00  0.00     0.188 C 
BRANCH   3   4
ATOM      4  C   UNL     1       6.309  -9.049  -1.507  1.00  0.00     0.188 C 
BRANCH   4   5
ATOM      5  O   UNL     1       6.551  -9.536  -2.824  1.00  0.00    -0.376 OA
BRANCH   5   6
ATOM      6  C   UNL     1       6.562  -8.537  -3.846  1.00  0.00     0.202 C 
BRANCH   6   7
ATOM      7  C   UNL     1       5.205  -7.900  -4.138  1.00  0.00     0.261 C 
BRANCH   7   8
ATOM      8  O   UNL     1       5.008  -6.787  -3.262  1.00  0.00    -0.460 OA
BRANCH   8   9
ATOM      9  C   UNL     1       3.869  -6.754  -2.526  1.00  0.00     0.350 C 
ATOM     10  O   UNL     1       2.915  -7.464  -2.735  1.00  0.00    -0.247 OA
BRANCH   9  11
ATOM     11  C   UNL     1       4.036  -5.739  -1.355  1.00  0.00     0.209 C 
ATOM     12  C   UNL     1       5.445  -5.836  -0.743  1.00  0.00     0.082 C 
ATOM     13  C   UNL     1       3.897  -4.329  -1.952  1.00  0.00     0.082 C 
ATOM     14  C   UNL     1       6.119  -4.581  -0.205  1.00  0.00     0.124 C 
ATOM     15  C   UNL     1       4.129  -3.234  -0.910  1.00  0.00     0.124 C 
ATOM     16  N   UNL     1       5.244  -3.447   0.014  1.00  0.00    -0.340 N 
ATOM     17  C   UNL     1       5.578  -2.597   1.079  1.00  0.00     0.251 C 
ATOM     18  O   UNL     1       6.570  -2.798   1.786  1.00  0.00    -0.272 OA
BRANCH  11  19
ATOM     19  O   UNL     1       2.979  -5.840  -0.386  1.00  0.00    -0.475 OA
BRANCH  19  20
ATOM     20  C   UNL     1       2.838  -6.900   0.475  1.00  0.00     0.123 A 
ATOM     21  C   UNL     1       3.694  -5.424   2.349  1.00  0.00     0.048 C 
ATOM     22  C   UNL     1       2.948  -6.612   1.843  1.00  0.00    -0.009 A 
ATOM     23  C   UNL     1       2.312  -7.425   2.791  1.00  0.00     0.007 A 
ATOM     24  C   UNL     1       1.628  -8.565   2.395  1.00  0.00     0.001 A 
ATOM     25  C   UNL     1       2.219  -8.093   0.096  1.00  0.00     0.047 A 
ATOM     26  C   UNL     1       1.631  -8.930   1.054  1.00  0.00     0.004 A 
ENDBRANCH  19  20
ENDBRANCH  11  19
BRANCH  17  27
ATOM     27  C   UNL     1       4.601  -1.454   1.425  1.00  0.00     0.207 C 
ATOM     28  C   UNL     1       3.460  -2.050   2.258  1.00  0.00     0.042 C 
ATOM     29  O   UNL     1       5.262  -0.441   2.196  1.00  0.00    -0.368 OA
ATOM     30  C   UNL     1       2.504  -0.984   2.765  1.00  0.00     0.006 C 
ATOM     31  C   UNL     1       4.400   0.624   2.577  1.00  0.00     0.161 C 
ATOM     32  C   UNL     1       3.279   0.115   3.472  1.00  0.00     0.029 C 
ENDBRANCH  17  27
ENDBRANCH   9  11
ENDBRANCH   8   9
ENDBRANCH   7   8
ENDBRANCH   6   7
ENDBRANCH   5   6
ENDBRANCH   4   5
ENDBRANCH   3   4
ENDBRANCH   2   3
ENDBRANCH   1   2
BRANCH   1  33
ATOM     33  C   UNL     1      10.221  -7.992  -2.251  1.00  0.00     0.188 C 
BRANCH  33  34
ATOM     34  O   UNL     1       9.741  -9.318  -2.462  1.00  0.00    -0.376 OA
BRANCH  34  35
ATOM     35  C   UNL     1      10.271 -10.385  -1.694  1.00  0.00     0.202 C 
BRANCH  35  36
ATOM     36  C   UNL     1      11.797 -10.492  -1.690  1.00  0.00     0.261 C 
BRANCH  36  37
ATOM     37  O   UNL     1      12.267 -10.733  -3.033  1.00  0.00    -0.460 OA
BRANCH  37  38
ATOM     38  C   UNL     1      12.921  -9.688  -3.614  1.00  0.00     0.338 C 
ATOM     39  O   UNL     1      13.972  -9.221  -3.210  1.00  0.00    -0.246 OA
BRANCH  38  40
ATOM     40  C   UNL     1      12.098  -9.109  -4.720  1.00  0.00     0.060 A 
ATOM     41  C   UNL     1      12.359  -7.807  -5.182  1.00  0.00     0.016 A 
ATOM     42  C   UNL     1      10.899  -9.724  -5.060  1.00  0.00     0.016 A 
ATOM     43  C   UNL     1      11.342  -7.060  -5.807  1.00  0.00     0.010 A 
ATOM     44  C   UNL     1       9.876  -8.947  -5.577  1.00  0.00     0.010 A 
ATOM     45  C   UNL     1      10.055  -7.592  -5.907  1.00  0.00    -0.014 A 
BRANCH  45  46
ATOM     46  C   UNL     1       8.806  -6.801  -6.073  1.00  0.00     0.031 A 
ATOM     47  C   UNL     1       7.700  -7.330  -6.957  1.00  0.00     0.074 A 
ATOM     48  C   UNL     1       8.539  -5.829  -5.156  1.00  0.00     0.049 A 
ATOM     49  N   UNL     1       6.532  -6.800  -7.106  1.00  0.00    -0.248 NA
ATOM     50  C   UNL     1       7.819  -8.551  -7.762  1.00  0.00     0.031 C 
ATOM     51  C   UNL     1       7.218  -5.380  -4.717  1.00  0.00     0.029 A 
ATOM     52  N   UNL     1       9.394  -5.044  -4.375  1.00  0.00    -0.354 N 
ATOM     53  C   UNL     1       5.679  -7.725  -7.695  1.00  0.00     0.074 A 
ATOM     54  C   UNL     1       6.559  -8.762  -8.163  1.00  0.00     0.031 C 
ATOM     55  C   UNL     1       7.322  -4.414  -3.796  1.00  0.00     0.029 A 
ATOM     56  C   UNL     1       8.672  -3.945  -3.863  1.00  0.00     0.049 A 
ATOM     57  H   UNL     1      10.347  -5.229  -4.209  1.00  0.00     0.167 HD
ATOM     58  C   UNL     1       4.321  -7.554  -7.597  1.00  0.00     0.034 A 
ATOM     59  C   UNL     1       8.947  -2.667  -4.270  1.00  0.00     0.034 A 
ATOM     60  C   UNL     1       3.987  -6.233  -7.037  1.00  0.00     0.049 A 
ATOM     61  C   UNL     1       7.862  -2.128  -5.216  1.00  0.00     0.074 A 
ATOM     62  C   UNL     1       3.182  -5.777  -6.007  1.00  0.00     0.029 A 
ATOM     63  N   UNL     1       4.677  -5.116  -7.500  1.00  0.00    -0.354 N 
ATOM     64  N   UNL     1       6.986  -2.907  -5.817  1.00  0.00    -0.248 NA
ATOM     65  C   UNL     1       7.562  -0.719  -5.464  1.00  0.00     0.031 C 
ATOM     66  C   UNL     1       3.509  -4.407  -5.774  1.00  0.00     0.029 A 
ATOM     67  C   UNL     1       4.455  -4.015  -6.709  1.00  0.00     0.049 A 
ATOM     68  H   UNL     1       5.254  -5.116  -8.298  1.00  0.00     0.167 HD
ATOM     69  C   UNL     1       6.029  -2.174  -6.455  1.00  0.00     0.074 A 
ATOM     70  C   UNL     1       6.447  -0.802  -6.220  1.00  0.00     0.031 C 
ATOM     71  C   UNL     1       4.970  -2.723  -7.130  1.00  0.00     0.034 A 
BRANCH  58  72
ATOM     72  C   UNL     1       3.231  -8.612  -7.829  1.00  0.00     0.023 A 
ATOM     73  C   UNL     1       1.867  -8.219  -7.802  1.00  0.00     0.031 A 
ATOM     74  C   UNL     1       3.434 -10.004  -7.946  1.00  0.00     0.131 A 
ATOM     75  C   UNL     1       0.810  -9.156  -7.855  1.00  0.00     0.055 A 
ATOM     76  C   UNL     1       2.381 -10.932  -8.063  1.00  0.00     0.041 A 
ATOM     77  F   UNL     1       4.653 -10.554  -7.898  1.00  0.00    -0.206 F 
ATOM     78  C   UNL     1       1.061 -10.514  -8.007  1.00  0.00     0.022 A 
BRANCH  75  79
ATOM     79  S   UNL     1      -0.911  -8.589  -7.677  1.00  0.00     0.124 S 
ATOM     80  O   UNL     1      -0.951  -8.157  -6.284  1.00  0.00    -0.237 OA
ATOM     81  O   UNL     1      -1.003  -7.539  -8.684  1.00  0.00    -0.237 OA
ATOM     82  O   UNL     1      -1.697  -9.789  -7.970  1.00  0.00    -0.744 OA
ENDBRANCH  75  79
ENDBRANCH  58  72
BRANCH  59  83
ATOM     83  C   UNL     1      10.419  -2.410  -4.117  1.00  0.00     0.023 A 
ATOM     84  C   UNL     1      10.858  -2.516  -2.766  1.00  0.00     0.031 A 
ATOM     85  C   UNL     1      11.297  -2.870  -5.114  1.00  0.00     0.131 A 
ATOM     86  C   UNL     1      11.933  -3.365  -2.443  1.00  0.00     0.055 A 
ATOM     87  C   UNL     1      12.418  -3.650  -4.781  1.00  0.00     0.041 A 
ATOM     88  F   UNL     1      10.962  -2.776  -6.409  1.00  0.00    -0.206 F 
ATOM     89  C   UNL     1      12.689  -3.968  -3.449  1.00  0.00     0.022 A 
BRANCH  86  90
ATOM     90  S   UNL     1      12.101  -3.965  -0.724  1.00  0.00     0.124 S 
ATOM     91  O   UNL     1      12.926  -2.926  -0.119  1.00  0.00    -0.237 OA
ATOM     92  O   UNL     1      10.717  -4.035  -0.270  1.00  0.00    -0.237 OA
ATOM     93  O   UNL     1      12.739  -5.271  -0.888  1.00  0.00    -0.744 OA
ENDBRANCH  86  90
ENDBRANCH  59  83
BRANCH  71  94
ATOM     94  C   UNL     1       4.295  -2.067  -8.314  1.00  0.00     0.023 A 
ATOM     95  C   UNL     1       4.848  -0.947  -8.931  1.00  0.00     0.031 A 
ATOM     96  C   UNL     1       3.172  -2.638  -8.970  1.00  0.00     0.131 A 
ATOM     97  C   UNL     1       4.248  -0.365 -10.052  1.00  0.00     0.055 A 
ATOM     98  C   UNL     1       2.643  -2.123 -10.156  1.00  0.00     0.041 A 
ATOM     99  F   UNL     1       2.556  -3.737  -8.512  1.00  0.00    -0.206 F 
ATOM    100  C   UNL     1       3.167  -0.960 -10.694  1.00  0.00     0.022 A 
BRANCH  97 101
ATOM    101  S   UNL     1       4.870   1.251 -10.554  1.00  0.00     0.124 S 
ATOM    102  O   UNL     1       4.613   2.047  -9.355  1.00  0.00    -0.237 OA
ATOM    103  O   UNL     1       6.275   0.973 -10.836  1.00  0.00    -0.237 OA
ATOM    104  O   UNL     1       4.052   1.589 -11.715  1.00  0.00    -0.744 OA
ENDBRANCH  97 101
ENDBRANCH  71  94
ENDBRANCH  45  46
ENDBRANCH  38  40
ENDBRANCH  37  38
ENDBRANCH  36  37
ENDBRANCH  35  36
ENDBRANCH  34  35
ENDBRANCH  33  34
ENDBRANCH   1  33
TORSDOF 26
