REMARK SMILES O=C(OCCOCCOCCOCCOC(=O)[C@H]1C=C[C@H](NS(=O)(=O)c2ccc(F)c(F)c2F)C1)c1ccc(-c2c3nc(c(-c4cc(S(=O)(=O)[O-])ccc4F)c4ccc([nH]4)c(-c4cc(S(=O)(=O)[O-])ccc4F)c4nc(c(-c5cc(S(=O)(=O)[O-])ccc5F)c5ccc2[nH]5)C=C4)C=C3)cc1
REMARK SMILES IDX 9 1 8 2 7 3 6 4 5 5 4 6 3 7 2 8 1 9 36 10 37 11 98 12 38 13
REMARK SMILES IDX 97 14 39 15 40 16 41 17 91 18 42 19 96 20 90 21 92 22 43 23
REMARK SMILES IDX 95 24 89 25 88 26 44 28 76 29 56 30 75 31 57 32 60 33 74 34
REMARK SMILES IDX 93 35 58 36 59 37 73 39 94 40 61 41 45 42 46 43 54 44 47 45
REMARK SMILES IDX 53 46 55 47 52 48 48 49 49 50 50 51 51 52 77 53 78 54 86 55
REMARK SMILES IDX 79 56 85 57 87 58 84 59 80 60 81 61 82 62 83 63 62 64 63 65
REMARK SMILES IDX 71 66 64 67 70 68 72 69 69 70 65 71 66 72 67 73 68 74 10 75
REMARK SMILES IDX 11 76 12 77 13 78 14 79 15 80 16 81 17 82 18 83 19 84 35 85
REMARK SMILES IDX 20 86 21 87 22 88 23 90 24 91 25 92 26 93 27 94 33 95 28 96
REMARK SMILES IDX 31 97 34 98 29 99 32 100 30 101
REMARK H PARENT 92 27 60 38 22 89
REMARK Flexibility Score: inf
ROOT
ATOM      1  O   UNL     1       2.995  -2.562  -2.975  1.00  0.00    -0.377 OA
ENDROOT
BRANCH   1   2
ATOM      2  C   UNL     1       2.093  -1.661  -2.344  1.00  0.00     0.188 C 
BRANCH   2   3
ATOM      3  C   UNL     1       2.499  -1.279  -0.931  1.00  0.00     0.188 C 
BRANCH   3   4
ATOM      4  O   UNL     1       3.780  -0.680  -0.964  1.00  0.00    -0.376 OA
BRANCH   4   5
ATOM      5  C   UNL     1       4.673  -0.845   0.124  1.00  0.00     0.202 C 
BRANCH   5   6
ATOM      6  C   UNL     1       4.134  -0.570   1.523  1.00  0.00     0.261 C 
BRANCH   6   7
ATOM      7  O   UNL     1       2.741  -0.205   1.610  1.00  0.00    -0.460 OA
BRANCH   7   8
ATOM      8  C   UNL     1       2.126   0.983   1.398  1.00  0.00     0.338 C 
ATOM      9  O   UNL     1       0.929   1.091   1.656  1.00  0.00    -0.246 OA
BRANCH   8  10
ATOM     10  C   UNL     1       2.838   2.171   0.873  1.00  0.00     0.060 A 
ATOM     11  C   UNL     1       3.749   2.117  -0.171  1.00  0.00     0.016 A 
ATOM     12  C   UNL     1       2.483   3.431   1.361  1.00  0.00     0.016 A 
ATOM     13  C   UNL     1       4.487   3.208  -0.561  1.00  0.00     0.010 A 
ATOM     14  C   UNL     1       3.117   4.576   0.870  1.00  0.00     0.010 A 
ATOM     15  C   UNL     1       4.168   4.452  -0.052  1.00  0.00    -0.014 A 
BRANCH  15  16
ATOM     16  C   UNL     1       5.074   5.561  -0.381  1.00  0.00     0.031 A 
ATOM     17  C   UNL     1       5.897   6.116   0.737  1.00  0.00     0.074 A 
ATOM     18  C   UNL     1       5.268   5.922  -1.664  1.00  0.00     0.049 A 
ATOM     19  N   UNL     1       6.635   7.186   0.772  1.00  0.00    -0.248 NA
ATOM     20  C   UNL     1       5.876   5.353   1.999  1.00  0.00     0.031 C 
ATOM     21  C   UNL     1       4.649   5.279  -2.831  1.00  0.00     0.029 A 
ATOM     22  N   UNL     1       6.068   6.886  -2.209  1.00  0.00    -0.354 N 
ATOM     23  C   UNL     1       7.112   7.264   2.075  1.00  0.00     0.074 A 
ATOM     24  C   UNL     1       6.577   6.136   2.801  1.00  0.00     0.031 C 
ATOM     25  C   UNL     1       5.122   5.847  -3.950  1.00  0.00     0.029 A 
ATOM     26  C   UNL     1       5.967   6.971  -3.579  1.00  0.00     0.049 A 
ATOM     27  H   UNL     1       6.659   7.463  -1.674  1.00  0.00     0.167 HD
ATOM     28  C   UNL     1       7.914   8.217   2.603  1.00  0.00     0.034 A 
ATOM     29  C   UNL     1       6.450   7.906  -4.418  1.00  0.00     0.034 A 
ATOM     30  C   UNL     1       8.416   9.308   1.810  1.00  0.00     0.049 A 
ATOM     31  C   UNL     1       7.230   9.034  -3.790  1.00  0.00     0.074 A 
ATOM     32  C   UNL     1       9.155  10.405   2.203  1.00  0.00     0.029 A 
ATOM     33  N   UNL     1       8.222   9.427   0.434  1.00  0.00    -0.354 N 
ATOM     34  N   UNL     1       7.564   9.201  -2.528  1.00  0.00    -0.248 NA
ATOM     35  C   UNL     1       7.679  10.104  -4.682  1.00  0.00     0.031 C 
ATOM     36  C   UNL     1       9.346  11.219   1.080  1.00  0.00     0.029 A 
ATOM     37  C   UNL     1       8.804  10.590  -0.033  1.00  0.00     0.049 A 
ATOM     38  H   UNL     1       7.739   8.775  -0.125  1.00  0.00     0.167 HD
ATOM     39  C   UNL     1       8.283  10.389  -2.477  1.00  0.00     0.074 A 
ATOM     40  C   UNL     1       8.350  10.880  -3.843  1.00  0.00     0.031 C 
ATOM     41  C   UNL     1       8.836  11.025  -1.412  1.00  0.00     0.034 A 
BRANCH  28  42
ATOM     42  C   UNL     1       8.153   8.158   4.091  1.00  0.00     0.023 A 
ATOM     43  C   UNL     1       8.811   7.077   4.705  1.00  0.00     0.031 A 
ATOM     44  C   UNL     1       7.590   9.141   4.924  1.00  0.00     0.131 A 
ATOM     45  C   UNL     1       8.803   6.956   6.104  1.00  0.00     0.055 A 
ATOM     46  C   UNL     1       7.665   9.062   6.316  1.00  0.00     0.041 A 
ATOM     47  F   UNL     1       6.913  10.175   4.400  1.00  0.00    -0.206 F 
ATOM     48  C   UNL     1       8.258   7.954   6.914  1.00  0.00     0.022 A 
BRANCH  45  49
ATOM     49  S   UNL     1       9.348   5.390   6.845  1.00  0.00     0.124 S 
ATOM     50  O   UNL     1       8.395   4.444   6.268  1.00  0.00    -0.237 OA
ATOM     51  O   UNL     1      10.723   5.277   6.374  1.00  0.00    -0.237 OA
ATOM     52  O   UNL     1       9.197   5.618   8.281  1.00  0.00    -0.744 OA
ENDBRANCH  45  49
ENDBRANCH  28  42
BRANCH  29  53
ATOM     53  C   UNL     1       6.124   7.881  -5.876  1.00  0.00     0.023 A 
ATOM     54  C   UNL     1       7.133   7.854  -6.850  1.00  0.00     0.031 A 
ATOM     55  C   UNL     1       4.788   7.935  -6.323  1.00  0.00     0.131 A 
ATOM     56  C   UNL     1       6.796   7.925  -8.213  1.00  0.00     0.055 A 
ATOM     57  C   UNL     1       4.456   7.939  -7.679  1.00  0.00     0.041 A 
ATOM     58  F   UNL     1       3.775   7.975  -5.443  1.00  0.00    -0.206 F 
ATOM     59  C   UNL     1       5.465   7.950  -8.634  1.00  0.00     0.022 A 
BRANCH  56  60
ATOM     60  S   UNL     1       8.130   8.090  -9.432  1.00  0.00     0.124 S 
ATOM     61  O   UNL     1       8.821   9.282  -8.955  1.00  0.00    -0.237 OA
ATOM     62  O   UNL     1       8.843   6.827  -9.273  1.00  0.00    -0.237 OA
ATOM     63  O   UNL     1       7.417   8.247 -10.698  1.00  0.00    -0.744 OA
ENDBRANCH  56  60
ENDBRANCH  29  53
BRANCH  41  64
ATOM     64  C   UNL     1       9.599  12.286  -1.713  1.00  0.00     0.023 A 
ATOM     65  C   UNL     1       8.954  13.446  -2.167  1.00  0.00     0.031 A 
ATOM     66  C   UNL     1      10.993  12.317  -1.537  1.00  0.00     0.131 A 
ATOM     67  C   UNL     1       9.713  14.578  -2.488  1.00  0.00     0.055 A 
ATOM     68  C   UNL     1      11.734  13.470  -1.790  1.00  0.00     0.041 A 
ATOM     69  F   UNL     1      11.653  11.230  -1.107  1.00  0.00    -0.206 F 
ATOM     70  C   UNL     1      11.095  14.605  -2.281  1.00  0.00     0.022 A 
BRANCH  67  71
ATOM     71  S   UNL     1       8.880  15.982  -3.275  1.00  0.00     0.124 S 
ATOM     72  O   UNL     1       8.330  15.369  -4.480  1.00  0.00    -0.237 OA
ATOM     73  O   UNL     1       7.909  16.378  -2.261  1.00  0.00    -0.237 OA
ATOM     74  O   UNL     1       9.963  16.937  -3.503  1.00  0.00    -0.744 OA
ENDBRANCH  67  71
ENDBRANCH  41  64
ENDBRANCH  15  16
ENDBRANCH   8  10
ENDBRANCH   7   8
ENDBRANCH   6   7
ENDBRANCH   5   6
ENDBRANCH   4   5
ENDBRANCH   3   4
ENDBRANCH   2   3
ENDBRANCH   1   2
BRANCH   1  75
ATOM     75  C   UNL     1       4.367  -2.176  -3.080  1.00  0.00     0.188 C 
BRANCH  75  76
ATOM     76  C   UNL     1       4.759  -0.942  -3.919  1.00  0.00     0.188 C 
BRANCH  76  77
ATOM     77  O   UNL     1       3.784   0.079  -3.911  1.00  0.00    -0.376 OA
BRANCH  77  78
ATOM     78  C   UNL     1       3.052   0.326  -5.106  1.00  0.00     0.202 C 
BRANCH  78  79
ATOM     79  C   UNL     1       2.730  -0.800  -6.120  1.00  0.00     0.261 C 
BRANCH  79  80
ATOM     80  O   UNL     1       2.909  -2.131  -5.614  1.00  0.00    -0.463 OA
BRANCH  80  81
ATOM     81  C   UNL     1       3.317  -3.072  -6.515  1.00  0.00     0.312 C 
ATOM     82  O   UNL     1       3.210  -2.959  -7.729  1.00  0.00    -0.252 OA
BRANCH  81  83
ATOM     83  C   UNL     1       4.134  -4.167  -5.822  1.00  0.00     0.123 C 
ATOM     84  C   UNL     1       3.539  -4.950  -4.681  1.00  0.00    -0.015 C 
ATOM     85  C   UNL     1       4.545  -5.326  -6.726  1.00  0.00     0.043 C 
ATOM     86  C   UNL     1       4.086  -6.170  -4.598  1.00  0.00    -0.011 C 
ATOM     87  C   UNL     1       4.981  -6.431  -5.765  1.00  0.00     0.093 C 
BRANCH  87  88
ATOM     88  N   UNL     1       6.361  -6.500  -5.281  1.00  0.00    -0.204 NA
ATOM     89  H   UNL     1       6.732  -7.359  -5.684  1.00  0.00     0.142 HD
BRANCH  88  90
ATOM     90  S   UNL     1       7.588  -5.375  -5.481  1.00  0.00     0.244 S 
ATOM     91  O   UNL     1       8.808  -6.171  -5.393  1.00  0.00    -0.207 OA
ATOM     92  O   UNL     1       7.306  -4.555  -6.612  1.00  0.00    -0.207 OA
BRANCH  90  93
ATOM     93  C   UNL     1       7.572  -4.404  -4.008  1.00  0.00     0.121 A 
ATOM     94  C   UNL     1       7.262  -4.985  -2.770  1.00  0.00     0.028 A 
ATOM     95  C   UNL     1       7.953  -3.066  -4.078  1.00  0.00     0.181 A 
ATOM     96  C   UNL     1       7.335  -4.214  -1.607  1.00  0.00     0.044 A 
ATOM     97  C   UNL     1       8.026  -2.305  -2.916  1.00  0.00     0.195 A 
ATOM     98  F   UNL     1       8.261  -2.487  -5.245  1.00  0.00    -0.202 F 
ATOM     99  C   UNL     1       7.720  -2.878  -1.688  1.00  0.00     0.161 A 
ATOM    100  F   UNL     1       8.371  -1.012  -2.982  1.00  0.00    -0.200 F 
ATOM    101  F   UNL     1       7.769  -2.144  -0.569  1.00  0.00    -0.204 F 
ENDBRANCH  90  93
ENDBRANCH  88  90
ENDBRANCH  87  88
ENDBRANCH  81  83
ENDBRANCH  80  81
ENDBRANCH  79  80
ENDBRANCH  78  79
ENDBRANCH  77  78
ENDBRANCH  76  77
ENDBRANCH  75  76
ENDBRANCH   1  75
TORSDOF 26
