REMARK SMILES O=C(OCCOCCOCCOCCOC(=O)c1cc(S(=O)(=O)Nc2cc(F)ccc2F)cc2c1OCCO2)c1ccc(-c2c3nc(c(-c4cc(S(=O)(=O)[O-])ccc4F)c4ccc([nH]4)c(-c4cc(S(=O)(=O)[O-])ccc4F)c4nc(c(-c5cc(S(=O)(=O)[O-])ccc5F)c5ccc2[nH]5)C=C4)C=C3)cc1
REMARK SMILES IDX 9 1 8 2 7 3 6 4 5 5 4 6 3 7 2 8 1 9 40 10 41 11 102 12 42 13
REMARK SMILES IDX 101 14 43 15 44 16 45 17 95 18 46 19 100 20 94 21 96 22
REMARK SMILES IDX 47 23 99 24 93 25 92 26 48 28 80 29 60 30 79 31 61 32 64 33
REMARK SMILES IDX 78 34 97 35 62 36 63 37 77 39 98 40 65 41 49 42 50 43 58 44
REMARK SMILES IDX 51 45 57 46 59 47 56 48 52 49 53 50 54 51 55 52 81 53 82 54
REMARK SMILES IDX 90 55 83 56 89 57 91 58 88 59 84 60 85 61 86 62 87 63 66 64
REMARK SMILES IDX 67 65 75 66 68 67 74 68 76 69 73 70 69 71 70 72 71 73 72 74
REMARK SMILES IDX 10 75 11 76 12 77 13 78 14 79 15 80 16 81 17 82 18 83 19 84
REMARK SMILES IDX 35 85 20 86 34 87 36 88 33 89 39 90 37 91 38 92 21 93 22 94
REMARK SMILES IDX 23 95 24 96 25 98 26 99 31 100 27 101 30 102 32 103 28 104
REMARK SMILES IDX 29 105
REMARK H PARENT 96 27 64 38 24 97
REMARK Flexibility Score: inf
ROOT
ATOM      1  O   UNL     1       2.530  -0.283   3.922  1.00  0.00    -0.377 OA
ENDROOT
BRANCH   1   2
ATOM      2  C   UNL     1       1.608  -0.464   2.851  1.00  0.00     0.188 C 
BRANCH   2   3
ATOM      3  C   UNL     1       1.826   0.431   1.631  1.00  0.00     0.188 C 
BRANCH   3   4
ATOM      4  O   UNL     1       3.185   0.414   1.203  1.00  0.00    -0.376 OA
BRANCH   4   5
ATOM      5  C   UNL     1       3.712   1.679   0.808  1.00  0.00     0.202 C 
BRANCH   5   6
ATOM      6  C   UNL     1       3.677   1.871  -0.706  1.00  0.00     0.261 C 
BRANCH   6   7
ATOM      7  O   UNL     1       2.375   1.551  -1.218  1.00  0.00    -0.460 OA
BRANCH   7   8
ATOM      8  C   UNL     1       1.960   0.354  -1.698  1.00  0.00     0.338 C 
ATOM      9  O   UNL     1       0.765   0.213  -1.960  1.00  0.00    -0.246 OA
BRANCH   8  10
ATOM     10  C   UNL     1       2.876  -0.792  -1.996  1.00  0.00     0.060 A 
ATOM     11  C   UNL     1       3.978  -1.184  -1.228  1.00  0.00     0.016 A 
ATOM     12  C   UNL     1       2.516  -1.598  -3.088  1.00  0.00     0.016 A 
ATOM     13  C   UNL     1       4.723  -2.318  -1.547  1.00  0.00     0.010 A 
ATOM     14  C   UNL     1       3.240  -2.752  -3.398  1.00  0.00     0.010 A 
ATOM     15  C   UNL     1       4.353  -3.113  -2.628  1.00  0.00    -0.014 A 
BRANCH  15  16
ATOM     16  C   UNL     1       5.175  -4.282  -3.003  1.00  0.00     0.031 A 
ATOM     17  C   UNL     1       6.042  -4.174  -4.221  1.00  0.00     0.074 A 
ATOM     18  C   UNL     1       5.143  -5.401  -2.256  1.00  0.00     0.049 A 
ATOM     19  N   UNL     1       6.707  -5.103  -4.849  1.00  0.00    -0.248 NA
ATOM     20  C   UNL     1       6.176  -2.830  -4.808  1.00  0.00     0.031 C 
ATOM     21  C   UNL     1       4.405  -5.556  -0.999  1.00  0.00     0.029 A 
ATOM     22  N   UNL     1       5.734  -6.623  -2.446  1.00  0.00    -0.354 N 
ATOM     23  C   UNL     1       7.305  -4.468  -5.931  1.00  0.00     0.074 A 
ATOM     24  C   UNL     1       6.931  -3.072  -5.869  1.00  0.00     0.031 C 
ATOM     25  C   UNL     1       4.575  -6.808  -0.543  1.00  0.00     0.029 A 
ATOM     26  C   UNL     1       5.366  -7.564  -1.509  1.00  0.00     0.049 A 
ATOM     27  H   UNL     1       6.361  -6.811  -3.181  1.00  0.00     0.167 HD
ATOM     28  C   UNL     1       8.082  -5.017  -6.894  1.00  0.00     0.034 A 
ATOM     29  C   UNL     1       5.595  -8.893  -1.479  1.00  0.00     0.034 A 
ATOM     30  C   UNL     1       8.426  -6.415  -6.920  1.00  0.00     0.049 A 
ATOM     31  C   UNL     1       6.382  -9.496  -2.622  1.00  0.00     0.074 A 
ATOM     32  C   UNL     1       9.196  -7.098  -7.843  1.00  0.00     0.029 A 
ATOM     33  N   UNL     1       8.005  -7.349  -5.980  1.00  0.00    -0.354 N 
ATOM     34  N   UNL     1       6.932  -8.894  -3.655  1.00  0.00    -0.248 NA
ATOM     35  C   UNL     1       6.570 -10.951  -2.607  1.00  0.00     0.031 C 
ATOM     36  C   UNL     1       9.179  -8.454  -7.502  1.00  0.00     0.029 A 
ATOM     37  C   UNL     1       8.464  -8.608  -6.323  1.00  0.00     0.049 A 
ATOM     38  H   UNL     1       7.459  -7.144  -5.187  1.00  0.00     0.167 HD
ATOM     39  C   UNL     1       7.544  -9.898  -4.400  1.00  0.00     0.074 A 
ATOM     40  C   UNL     1       7.324 -11.136  -3.680  1.00  0.00     0.031 C 
ATOM     41  C   UNL     1       8.218  -9.818  -5.576  1.00  0.00     0.034 A 
BRANCH  28  42
ATOM     42  C   UNL     1       8.521  -4.127  -8.027  1.00  0.00     0.023 A 
ATOM     43  C   UNL     1       9.417  -3.061  -7.839  1.00  0.00     0.031 A 
ATOM     44  C   UNL     1       8.003  -4.335  -9.318  1.00  0.00     0.131 A 
ATOM     45  C   UNL     1       9.725  -2.210  -8.913  1.00  0.00     0.055 A 
ATOM     46  C   UNL     1       8.367  -3.528 -10.397  1.00  0.00     0.041 A 
ATOM     47  F   UNL     1       7.120  -5.319  -9.549  1.00  0.00    -0.206 F 
ATOM     48  C   UNL     1       9.226  -2.452 -10.195  1.00  0.00     0.022 A 
BRANCH  45  49
ATOM     49  S   UNL     1      10.700  -0.716  -8.588  1.00  0.00     0.124 S 
ATOM     50  O   UNL     1       9.826   0.013  -7.672  1.00  0.00    -0.237 OA
ATOM     51  O   UNL     1      11.924  -1.255  -8.007  1.00  0.00    -0.237 OA
ATOM     52  O   UNL     1      10.851  -0.110  -9.909  1.00  0.00    -0.744 OA
ENDBRANCH  45  49
ENDBRANCH  28  42
BRANCH  29  53
ATOM     53  C   UNL     1       5.008  -9.763  -0.413  1.00  0.00     0.023 A 
ATOM     54  C   UNL     1       5.819 -10.581   0.390  1.00  0.00     0.031 A 
ATOM     55  C   UNL     1       3.613  -9.868  -0.246  1.00  0.00     0.131 A 
ATOM     56  C   UNL     1       5.234 -11.510   1.268  1.00  0.00     0.055 A 
ATOM     57  C   UNL     1       3.038 -10.742   0.679  1.00  0.00     0.041 A 
ATOM     58  F   UNL     1       2.780  -9.125  -0.992  1.00  0.00    -0.206 F 
ATOM     59  C   UNL     1       3.850 -11.585   1.429  1.00  0.00     0.022 A 
BRANCH  56  60
ATOM     60  S   UNL     1       6.307 -12.721   2.092  1.00  0.00     0.124 S 
ATOM     61  O   UNL     1       7.012 -13.311   0.960  1.00  0.00    -0.237 OA
ATOM     62  O   UNL     1       7.101 -11.871   2.971  1.00  0.00    -0.237 OA
ATOM     63  O   UNL     1       5.362 -13.607   2.769  1.00  0.00    -0.744 OA
ENDBRANCH  56  60
ENDBRANCH  29  53
BRANCH  41  64
ATOM     64  C   UNL     1       8.784 -11.103  -6.122  1.00  0.00     0.023 A 
ATOM     65  C   UNL     1       7.948 -12.130  -6.592  1.00  0.00     0.031 A 
ATOM     66  C   UNL     1      10.175 -11.298  -6.178  1.00  0.00     0.131 A 
ATOM     67  C   UNL     1       8.510 -13.328  -7.051  1.00  0.00     0.055 A 
ATOM     68  C   UNL     1      10.730 -12.467  -6.696  1.00  0.00     0.041 A 
ATOM     69  F   UNL     1      11.016 -10.347  -5.739  1.00  0.00    -0.206 F 
ATOM     70  C   UNL     1       9.896 -13.496  -7.125  1.00  0.00     0.022 A 
BRANCH  67  71
ATOM     71  S   UNL     1       7.403 -14.700  -7.473  1.00  0.00     0.124 S 
ATOM     72  O   UNL     1       6.720 -14.938  -6.206  1.00  0.00    -0.237 OA
ATOM     73  O   UNL     1       6.587 -14.128  -8.539  1.00  0.00    -0.237 OA
ATOM     74  O   UNL     1       8.317 -15.760  -7.895  1.00  0.00    -0.744 OA
ENDBRANCH  67  71
ENDBRANCH  41  64
ENDBRANCH  15  16
ENDBRANCH   8  10
ENDBRANCH   7   8
ENDBRANCH   6   7
ENDBRANCH   5   6
ENDBRANCH   4   5
ENDBRANCH   3   4
ENDBRANCH   2   3
ENDBRANCH   1   2
BRANCH   1  75
ATOM     75  C   UNL     1       3.901  -0.550   3.643  1.00  0.00     0.188 C 
BRANCH  75  76
ATOM     76  C   UNL     1       4.315  -1.911   3.042  1.00  0.00     0.188 C 
BRANCH  76  77
ATOM     77  O   UNL     1       3.248  -2.831   2.877  1.00  0.00    -0.376 OA
BRANCH  77  78
ATOM     78  C   UNL     1       3.318  -3.990   3.695  1.00  0.00     0.202 C 
BRANCH  78  79
ATOM     79  C   UNL     1       2.945  -3.752   5.161  1.00  0.00     0.261 C 
BRANCH  79  80
ATOM     80  O   UNL     1       3.565  -2.612   5.781  1.00  0.00    -0.460 OA
BRANCH  80  81
ATOM     81  C   UNL     1       4.837  -2.714   6.251  1.00  0.00     0.342 C 
ATOM     82  O   UNL     1       5.591  -3.638   6.117  1.00  0.00    -0.246 OA
BRANCH  81  83
ATOM     83  C   UNL     1       5.207  -1.391   6.841  1.00  0.00     0.107 A 
ATOM     84  C   UNL     1       6.354  -0.707   6.355  1.00  0.00     0.042 A 
ATOM     85  C   UNL     1       4.371  -0.795   7.801  1.00  0.00     0.175 A 
ATOM     86  C   UNL     1       6.602   0.598   6.800  1.00  0.00     0.092 A 
ATOM     87  C   UNL     1       4.700   0.468   8.301  1.00  0.00     0.163 A 
ATOM     88  O   UNL     1       3.260  -1.475   8.242  1.00  0.00    -0.485 OA
ATOM     89  C   UNL     1       5.782   1.167   7.785  1.00  0.00     0.072 A 
ATOM     90  O   UNL     1       3.998   1.104   9.293  1.00  0.00    -0.486 OA
ATOM     91  C   UNL     1       2.352  -0.618   8.947  1.00  0.00     0.271 C 
ATOM     92  C   UNL     1       3.124   0.195   9.968  1.00  0.00     0.271 C 
BRANCH  86  93
ATOM     93  S   UNL     1       7.857   1.709   6.205  1.00  0.00     0.262 S 
ATOM     94  O   UNL     1       7.170   2.800   5.550  1.00  0.00    -0.201 OA
ATOM     95  O   UNL     1       8.712   1.955   7.351  1.00  0.00    -0.201 OA
BRANCH  93  96
ATOM     96  N   UNL     1       8.855   0.978   5.125  1.00  0.00    -0.277 N 
ATOM     97  H   UNL     1       9.800   0.959   5.401  1.00  0.00     0.180 HD
BRANCH  96  98
ATOM     98  C   UNL     1       8.607   0.371   3.871  1.00  0.00     0.087 A 
ATOM     99  C   UNL     1       7.460   0.493   3.100  1.00  0.00     0.069 A 
ATOM    100  C   UNL     1       9.655  -0.443   3.411  1.00  0.00     0.147 A 
ATOM    101  C   UNL     1       7.364  -0.271   1.929  1.00  0.00     0.125 A 
ATOM    102  C   UNL     1       9.544  -1.218   2.267  1.00  0.00     0.044 A 
ATOM    103  F   UNL     1      10.796  -0.486   4.119  1.00  0.00    -0.205 F 
ATOM    104  F   UNL     1       6.268  -0.171   1.167  1.00  0.00    -0.207 F 
ATOM    105  C   UNL     1       8.372  -1.148   1.527  1.00  0.00     0.042 A 
ENDBRANCH  96  98
ENDBRANCH  93  96
ENDBRANCH  86  93
ENDBRANCH  81  83
ENDBRANCH  80  81
ENDBRANCH  79  80
ENDBRANCH  78  79
ENDBRANCH  77  78
ENDBRANCH  76  77
ENDBRANCH  75  76
ENDBRANCH   1  75
TORSDOF 26
