REMARK SMILES O=C(OCCOCCOCCOCCOC(=O)c1cc(NC(=S)NC(=O)c2ccccc2F)ccc1Cl)c1ccc(-c2c3nc(c(-c4cc(S(=O)(=O)[O-])ccc4F)c4ccc([nH]4)c(-c4cc(S(=O)(=O)[O-])ccc4F)c4nc(c(-c5cc(S(=O)(=O)[O-])ccc5F)c5ccc2[nH]5)C=C4)C=C3)cc1
REMARK SMILES IDX 10 1 9 2 8 3 7 4 6 5 5 6 4 7 3 8 2 9 1 10 38 11 39 12 100 13
REMARK SMILES IDX 40 14 99 15 41 16 42 17 43 18 93 19 44 20 98 21 92 22 94 23
REMARK SMILES IDX 45 24 97 25 91 26 90 27 46 29 78 30 58 31 77 32 59 33 62 34
REMARK SMILES IDX 76 35 95 36 60 37 61 38 75 40 96 41 63 42 47 43 48 44 56 45
REMARK SMILES IDX 49 46 55 47 57 48 54 49 50 50 51 51 52 52 53 53 79 54 80 55
REMARK SMILES IDX 88 56 81 57 87 58 89 59 86 60 82 61 83 62 84 63 85 64 64 65
REMARK SMILES IDX 65 66 73 67 66 68 72 69 74 70 71 71 67 72 68 73 69 74 70 75
REMARK SMILES IDX 11 76 12 77 13 78 14 79 15 80 16 81 17 82 18 83 19 84 36 85
REMARK SMILES IDX 20 86 35 87 37 88 34 89 21 90 22 92 23 93 24 94 25 95 26 97
REMARK SMILES IDX 27 98 28 99 32 100 29 101 31 102 33 103 30 104
REMARK H PARENT 94 28 62 39 21 91 24 96
REMARK Flexibility Score: inf
ROOT
ATOM      1  C   UNL     1       3.611   0.014   3.429  1.00  0.00     0.188 C 
ENDROOT
BRANCH   1   2
ATOM      2  O   UNL     1       2.192   0.156   3.450  1.00  0.00    -0.377 OA
BRANCH   2   3
ATOM      3  C   UNL     1       1.525  -0.216   2.247  1.00  0.00     0.188 C 
BRANCH   3   4
ATOM      4  C   UNL     1       2.024   0.551   1.028  1.00  0.00     0.188 C 
BRANCH   4   5
ATOM      5  O   UNL     1       3.366   0.163   0.728  1.00  0.00    -0.376 OA
BRANCH   5   6
ATOM      6  C   UNL     1       4.240   1.220   0.335  1.00  0.00     0.202 C 
BRANCH   6   7
ATOM      7  C   UNL     1       4.239   1.462  -1.173  1.00  0.00     0.261 C 
BRANCH   7   8
ATOM      8  O   UNL     1       2.943   1.244  -1.750  1.00  0.00    -0.460 OA
BRANCH   8   9
ATOM      9  C   UNL     1       2.409   0.068  -2.168  1.00  0.00     0.338 C 
ATOM     10  O   UNL     1       1.252   0.089  -2.590  1.00  0.00    -0.246 OA
BRANCH   9  11
ATOM     11  C   UNL     1       3.122  -1.255  -2.162  1.00  0.00     0.060 A 
ATOM     12  C   UNL     1       4.235  -1.593  -1.386  1.00  0.00     0.016 A 
ATOM     13  C   UNL     1       2.574  -2.263  -2.978  1.00  0.00     0.016 A 
ATOM     14  C   UNL     1       4.807  -2.856  -1.431  1.00  0.00     0.010 A 
ATOM     15  C   UNL     1       3.142  -3.539  -3.036  1.00  0.00     0.010 A 
ATOM     16  C   UNL     1       4.277  -3.825  -2.272  1.00  0.00    -0.014 A 
BRANCH  16  17
ATOM     17  C   UNL     1       5.071  -5.045  -2.478  1.00  0.00     0.031 A 
ATOM     18  C   UNL     1       5.948  -5.096  -3.691  1.00  0.00     0.074 A 
ATOM     19  C   UNL     1       5.139  -5.976  -1.510  1.00  0.00     0.049 A 
ATOM     20  N   UNL     1       6.695  -6.066  -4.136  1.00  0.00    -0.248 NA
ATOM     21  C   UNL     1       6.004  -3.867  -4.502  1.00  0.00     0.031 C 
ATOM     22  C   UNL     1       4.468  -5.887  -0.210  1.00  0.00     0.029 A 
ATOM     23  N   UNL     1       5.839  -7.148  -1.448  1.00  0.00    -0.354 N 
ATOM     24  C   UNL     1       7.293  -5.574  -5.290  1.00  0.00     0.074 A 
ATOM     25  C   UNL     1       6.818  -4.223  -5.481  1.00  0.00     0.031 C 
ATOM     26  C   UNL     1       4.815  -6.952   0.531  1.00  0.00     0.029 A 
ATOM     27  C   UNL     1       5.661  -7.831  -0.269  1.00  0.00     0.049 A 
ATOM     28  H   UNL     1       6.414  -7.473  -2.178  1.00  0.00     0.167 HD
ATOM     29  C   UNL     1       8.154  -6.212  -6.117  1.00  0.00     0.034 A 
ATOM     30  C   UNL     1       6.106  -9.050   0.094  1.00  0.00     0.034 A 
ATOM     31  C   UNL     1       8.572  -7.570  -5.889  1.00  0.00     0.049 A 
ATOM     32  C   UNL     1       6.924  -9.815  -0.913  1.00  0.00     0.074 A 
ATOM     33  C   UNL     1       9.325  -8.398  -6.698  1.00  0.00     0.029 A 
ATOM     34  N   UNL     1       8.259  -8.301  -4.745  1.00  0.00    -0.354 N 
ATOM     35  N   UNL     1       7.350  -9.422  -2.094  1.00  0.00    -0.248 NA
ATOM     36  C   UNL     1       7.297 -11.188  -0.561  1.00  0.00     0.031 C 
ATOM     37  C   UNL     1       9.417  -9.646  -6.070  1.00  0.00     0.029 A 
ATOM     38  C   UNL     1       8.787  -9.575  -4.834  1.00  0.00     0.049 A 
ATOM     39  H   UNL     1       7.737  -7.959  -3.984  1.00  0.00     0.167 HD
ATOM     40  C   UNL     1       8.054 -10.495  -2.624  1.00  0.00     0.074 A 
ATOM     41  C   UNL     1       7.996 -11.553  -1.630  1.00  0.00     0.031 C 
ATOM     42  C   UNL     1       8.694 -10.600  -3.817  1.00  0.00     0.034 A 
BRANCH  29  43
ATOM     43  C   UNL     1       8.565  -5.476  -7.366  1.00  0.00     0.023 A 
ATOM     44  C   UNL     1       9.348  -4.308  -7.318  1.00  0.00     0.031 A 
ATOM     45  C   UNL     1       8.066  -5.885  -8.615  1.00  0.00     0.131 A 
ATOM     46  C   UNL     1       9.539  -3.547  -8.484  1.00  0.00     0.055 A 
ATOM     47  C   UNL     1       8.324  -5.165  -9.783  1.00  0.00     0.041 A 
ATOM     48  F   UNL     1       7.284  -6.972  -8.715  1.00  0.00    -0.206 F 
ATOM     49  C   UNL     1       9.050  -3.980  -9.719  1.00  0.00     0.022 A 
BRANCH  46  50
ATOM     50  S   UNL     1      10.308  -1.909  -8.343  1.00  0.00     0.124 S 
ATOM     51  O   UNL     1       9.328  -1.194  -7.529  1.00  0.00    -0.237 OA
ATOM     52  O   UNL     1      11.579  -2.209  -7.694  1.00  0.00    -0.237 OA
ATOM     53  O   UNL     1      10.408  -1.456  -9.729  1.00  0.00    -0.744 OA
ENDBRANCH  46  50
ENDBRANCH  29  43
BRANCH  30  54
ATOM     54  C   UNL     1       5.718  -9.624   1.412  1.00  0.00     0.023 A 
ATOM     55  C   UNL     1       6.663  -9.842   2.426  1.00  0.00     0.031 A 
ATOM     56  C   UNL     1       4.370  -9.924   1.692  1.00  0.00     0.131 A 
ATOM     57  C   UNL     1       6.247 -10.341   3.674  1.00  0.00     0.055 A 
ATOM     58  C   UNL     1       3.957 -10.386   2.942  1.00  0.00     0.041 A 
ATOM     59  F   UNL     1       3.425  -9.732   0.757  1.00  0.00    -0.206 F 
ATOM     60  C   UNL     1       4.899 -10.599   3.942  1.00  0.00     0.022 A 
BRANCH  57  61
ATOM     61  S   UNL     1       7.492 -10.653   4.957  1.00  0.00     0.124 S 
ATOM     62  O   UNL     1       8.265 -11.739   4.364  1.00  0.00    -0.237 OA
ATOM     63  O   UNL     1       8.166  -9.362   5.052  1.00  0.00    -0.237 OA
ATOM     64  O   UNL     1       6.694 -11.020   6.125  1.00  0.00    -0.744 OA
ENDBRANCH  57  61
ENDBRANCH  30  54
BRANCH  42  65
ATOM     65  C   UNL     1       9.415 -11.888  -4.092  1.00  0.00     0.023 A 
ATOM     66  C   UNL     1       8.720 -13.066  -4.405  1.00  0.00     0.031 A 
ATOM     67  C   UNL     1      10.821 -11.911  -4.106  1.00  0.00     0.131 A 
ATOM     68  C   UNL     1       9.438 -14.233  -4.699  1.00  0.00     0.055 A 
ATOM     69  C   UNL     1      11.528 -13.062  -4.448  1.00  0.00     0.041 A 
ATOM     70  F   UNL     1      11.524 -10.804  -3.818  1.00  0.00    -0.206 F 
ATOM     71  C   UNL     1      10.836 -14.233  -4.743  1.00  0.00     0.022 A 
BRANCH  68  72
ATOM     72  S   UNL     1       8.520 -15.767  -5.000  1.00  0.00     0.124 S 
ATOM     73  O   UNL     1       7.897 -16.003  -3.701  1.00  0.00    -0.237 OA
ATOM     74  O   UNL     1       7.615 -15.388  -6.081  1.00  0.00    -0.237 OA
ATOM     75  O   UNL     1       9.561 -16.722  -5.372  1.00  0.00    -0.744 OA
ENDBRANCH  68  72
ENDBRANCH  42  65
ENDBRANCH  16  17
ENDBRANCH   9  11
ENDBRANCH   8   9
ENDBRANCH   7   8
ENDBRANCH   6   7
ENDBRANCH   5   6
ENDBRANCH   4   5
ENDBRANCH   3   4
ENDBRANCH   2   3
ENDBRANCH   1   2
BRANCH   1  76
ATOM     76  C   UNL     1       4.211  -1.373   3.115  1.00  0.00     0.188 C 
BRANCH  76  77
ATOM     77  O   UNL     1       3.239  -2.407   3.201  1.00  0.00    -0.376 OA
BRANCH  77  78
ATOM     78  C   UNL     1       3.357  -3.259   4.336  1.00  0.00     0.202 C 
BRANCH  78  79
ATOM     79  C   UNL     1       3.215  -2.579   5.709  1.00  0.00     0.261 C 
BRANCH  79  80
ATOM     80  O   UNL     1       4.050  -1.403   5.819  1.00  0.00    -0.460 OA
BRANCH  80  81
ATOM     81  C   UNL     1       4.578  -1.030   7.014  1.00  0.00     0.339 C 
ATOM     82  O   UNL     1       4.657  -1.745   8.000  1.00  0.00    -0.246 OA
BRANCH  81  83
ATOM     83  C   UNL     1       4.915   0.734   6.954  1.00  0.00     0.080 A 
ATOM     84  C   UNL     1       6.733   1.706   6.952  1.00  0.00     0.043 A 
ATOM     85  C   UNL     1       3.647   0.947   6.859  1.00  0.00     0.055 A 
ATOM     86  C   UNL     1       7.592   2.694   6.939  1.00  0.00     0.041 A 
ATOM     87  C   UNL     1       4.482   1.831   7.224  1.00  0.00     0.023 A 
ATOM     88  Cl  UNL     1       2.194   0.464   7.556  1.00  0.00    -0.083 Cl
ATOM     89  C   UNL     1       6.344   2.664   7.216  1.00  0.00     0.028 A 
BRANCH  86  90
ATOM     90  N   UNL     1       8.227   3.178   5.791  1.00  0.00    -0.332 N 
ATOM     91  H   UNL     1       8.757   3.984   5.985  1.00  0.00     0.169 HD
BRANCH  90  92
ATOM     92  C   UNL     1       8.309   2.835   4.484  1.00  0.00     0.177 C 
ATOM     93  S   UNL     1       9.205   3.858   3.499  1.00  0.00    -0.040 S 
BRANCH  92  94
ATOM     94  N   UNL     1       7.817   1.691   3.918  1.00  0.00    -0.299 N 
ATOM     95  C   UNL     1       7.054   0.594   4.304  1.00  0.00     0.260 C 
ATOM     96  H   UNL     1       8.075   1.627   2.970  1.00  0.00     0.172 HD
ATOM     97  O   UNL     1       7.172  -0.498   3.770  1.00  0.00    -0.269 OA
BRANCH  95  98
ATOM     98  C   UNL     1       6.136   0.788   5.432  1.00  0.00     0.075 A 
ATOM     99  C   UNL     1       6.571  -0.111   7.162  1.00  0.00     0.017 A 
ATOM    100  C   UNL     1       5.280   2.560   5.443  1.00  0.00     0.135 A 
ATOM    101  C   UNL     1       6.031   0.974   8.729  1.00  0.00     0.001 A 
ATOM    102  C   UNL     1       4.778   3.655   7.005  1.00  0.00     0.040 A 
ATOM    103  F   UNL     1       5.155   3.170   4.247  1.00  0.00    -0.206 F 
ATOM    104  C   UNL     1       5.197   2.755   8.747  1.00  0.00     0.003 A 
ENDBRANCH  95  98
ENDBRANCH  92  94
ENDBRANCH  90  92
ENDBRANCH  86  90
ENDBRANCH  81  83
ENDBRANCH  80  81
ENDBRANCH  79  80
ENDBRANCH  78  79
ENDBRANCH  77  78
ENDBRANCH  76  77
ENDBRANCH   1  76
TORSDOF 27
