REMARK SMILES Cc1ccc([C@H](C)NC(=O)[C@H]2[C@@H]3CC[C@@H](C3)[C@@H]2C(=O)OCCOCCOCCOCCOC(=O)c2ccc(-c3c4nc(c(-c5cc(S(=O)(=O)[O-])ccc5F)c5ccc([nH]5)c(-c5cc(S(=O)(=O)[O-])ccc5F)c5nc(c(-c6cc(S(=O)(=O)[O-])ccc6F)c6ccc3[nH]6)C=C5)C=C4)cc2)cc1
REMARK SMILES IDX 26 1 25 2 24 3 23 4 22 5 21 6 20 7 18 8 19 9 17 10 11 11
REMARK SMILES IDX 12 12 13 13 16 14 15 15 14 16 9 17 8 18 10 20 6 21 7 22 5 23
REMARK SMILES IDX 1 24 2 25 3 26 99 27 4 28 98 29 27 30 28 31 29 32 30 33
REMARK SMILES IDX 31 34 32 35 33 36 34 37 35 38 36 39 97 40 37 41 96 42 38 43
REMARK SMILES IDX 39 44 40 45 90 46 41 47 95 48 89 49 91 50 42 51 94 52 88 53
REMARK SMILES IDX 87 54 43 56 75 57 55 58 74 59 56 60 59 61 73 62 92 63 57 64
REMARK SMILES IDX 58 65 72 67 93 68 60 69 44 70 45 71 53 72 46 73 52 74 54 75
REMARK SMILES IDX 51 76 47 77 48 78 49 79 50 80 76 81 77 82 85 83 78 84 84 85
REMARK SMILES IDX 86 86 83 87 79 88 80 89 81 90 82 91 61 92 62 93 70 94 63 95
REMARK SMILES IDX 69 96 71 97 68 98 64 99 65 100 66 101 67 102
REMARK H PARENT 8 19 91 55 59 66
REMARK Flexibility Score: inf
ROOT
ATOM      1  O   UNL     1      -7.225   3.924   2.130  1.00  0.00    -0.377 OA
ENDROOT
BRANCH   1   2
ATOM      2  C   UNL     1      -6.521   4.648   1.136  1.00  0.00     0.188 C 
BRANCH   2   3
ATOM      3  C   UNL     1      -6.880   4.776  -0.369  1.00  0.00     0.188 C 
BRANCH   3   4
ATOM      4  O   UNL     1      -6.156   3.916  -1.253  1.00  0.00    -0.376 OA
BRANCH   4   5
ATOM      5  C   UNL     1      -6.604   2.627  -1.688  1.00  0.00     0.202 C 
BRANCH   5   6
ATOM      6  C   UNL     1      -6.112   1.413  -0.936  1.00  0.00     0.261 C 
BRANCH   6   7
ATOM      7  O   UNL     1      -5.138   1.774  -0.037  1.00  0.00    -0.463 OA
BRANCH   7   8
ATOM      8  C   UNL     1      -4.078   2.281  -0.678  1.00  0.00     0.310 C 
ATOM      9  O   UNL     1      -3.919   2.482  -1.898  1.00  0.00    -0.252 OA
BRANCH   8  10
ATOM     10  C   UNL     1      -3.015   2.448   0.290  1.00  0.00     0.115 C 
ATOM     11  C   UNL     1      -3.310   1.802   1.640  1.00  0.00     0.096 C 
ATOM     12  C   UNL     1      -2.558   2.802   2.546  1.00  0.00     0.002 C 
ATOM     13  C   UNL     1      -3.457   4.061   2.719  1.00  0.00     0.005 C 
ATOM     14  C   UNL     1      -1.464   3.368   1.614  1.00  0.00     0.009 C 
ATOM     15  C   UNL     1      -2.455   3.832   0.549  1.00  0.00     0.004 C 
ATOM     16  C   UNL     1      -3.280   4.801   1.381  1.00  0.00     0.005 C 
BRANCH  11  17
ATOM     17  C   UNL     1      -3.043   0.283   1.793  1.00  0.00     0.224 C 
ATOM     18  N   UNL     1      -2.924  -0.602   0.743  1.00  0.00    -0.349 N 
ATOM     19  H   UNL     1      -3.513  -1.389   0.785  1.00  0.00     0.164 HD
ATOM     20  O   UNL     1      -3.093  -0.227   2.920  1.00  0.00    -0.275 OA
BRANCH  18  21
ATOM     21  C   UNL     1      -2.042  -0.535  -0.427  1.00  0.00     0.109 C 
ATOM     22  C   UNL     1      -0.588  -0.655   0.018  1.00  0.00     0.036 C 
BRANCH  21  23
ATOM     23  C   UNL     1      -2.362  -1.423  -1.617  1.00  0.00    -0.026 A 
ATOM     24  C   UNL     1      -3.875  -3.264  -5.221  1.00  0.00     0.044 C 
ATOM     25  C   UNL     1      -3.200  -2.734  -3.989  1.00  0.00    -0.051 A 
ATOM     26  C   UNL     1      -2.504  -1.526  -4.069  1.00  0.00     0.004 A 
ATOM     27  C   UNL     1      -3.414  -3.313  -2.726  1.00  0.00     0.004 A 
ATOM     28  C   UNL     1      -2.086  -0.888  -2.901  1.00  0.00     0.006 A 
ATOM     29  C   UNL     1      -2.991  -2.669  -1.547  1.00  0.00     0.006 A 
ENDBRANCH  21  23
ENDBRANCH  18  21
ENDBRANCH  11  17
ENDBRANCH   8  10
ENDBRANCH   7   8
ENDBRANCH   6   7
ENDBRANCH   5   6
ENDBRANCH   4   5
ENDBRANCH   3   4
ENDBRANCH   2   3
ENDBRANCH   1   2
BRANCH   1  30
ATOM     30  C   UNL     1      -8.558   4.183   2.507  1.00  0.00     0.188 C 
BRANCH  30  31
ATOM     31  C   UNL     1      -8.890   5.548   3.005  1.00  0.00     0.188 C 
BRANCH  31  32
ATOM     32  O   UNL     1      -8.684   6.420   1.897  1.00  0.00    -0.376 OA
BRANCH  32  33
ATOM     33  C   UNL     1      -8.362   7.734   2.305  1.00  0.00     0.202 C 
BRANCH  33  34
ATOM     34  C   UNL     1      -9.530   8.374   3.061  1.00  0.00     0.261 C 
BRANCH  34  35
ATOM     35  O   UNL     1     -10.690   8.415   2.190  1.00  0.00    -0.460 OA
BRANCH  35  36
ATOM     36  C   UNL     1     -11.633   7.450   2.404  1.00  0.00     0.338 C 
ATOM     37  O   UNL     1     -12.218   7.270   3.460  1.00  0.00    -0.246 OA
BRANCH  36  38
ATOM     38  C   UNL     1     -11.726   6.515   1.233  1.00  0.00     0.060 A 
ATOM     39  C   UNL     1     -12.371   5.276   1.368  1.00  0.00     0.016 A 
ATOM     40  C   UNL     1     -10.894   6.714   0.143  1.00  0.00     0.016 A 
ATOM     41  C   UNL     1     -12.035   4.194   0.527  1.00  0.00     0.010 A 
ATOM     42  C   UNL     1     -10.479   5.605  -0.593  1.00  0.00     0.010 A 
ATOM     43  C   UNL     1     -11.011   4.311  -0.419  1.00  0.00    -0.014 A 
BRANCH  43  44
ATOM     44  C   UNL     1     -10.382   3.090  -1.050  1.00  0.00     0.031 A 
ATOM     45  C   UNL     1      -9.704   3.167  -2.509  1.00  0.00     0.074 A 
ATOM     46  C   UNL     1      -9.970   2.094  -0.192  1.00  0.00     0.049 A 
ATOM     47  N   UNL     1      -9.151   2.199  -3.220  1.00  0.00    -0.248 NA
ATOM     48  C   UNL     1      -9.622   4.436  -3.256  1.00  0.00     0.031 C 
ATOM     49  C   UNL     1      -8.618   2.236   0.279  1.00  0.00     0.029 A 
ATOM     50  N   UNL     1     -10.426   1.342   0.928  1.00  0.00    -0.354 N 
ATOM     51  C   UNL     1      -8.422   2.776  -4.304  1.00  0.00     0.074 A 
ATOM     52  C   UNL     1      -8.819   4.161  -4.286  1.00  0.00     0.031 C 
ATOM     53  C   UNL     1      -8.259   1.379   1.215  1.00  0.00     0.029 A 
ATOM     54  C   UNL     1      -9.378   0.495   1.343  1.00  0.00     0.049 A 
ATOM     55  H   UNL     1     -11.318   1.403   1.340  1.00  0.00     0.167 HD
ATOM     56  C   UNL     1      -7.389   2.183  -5.019  1.00  0.00     0.034 A 
ATOM     57  C   UNL     1      -9.002  -0.435   2.238  1.00  0.00     0.034 A 
ATOM     58  C   UNL     1      -6.886   0.918  -4.389  1.00  0.00     0.049 A 
ATOM     59  C   UNL     1      -8.189  -1.377   1.263  1.00  0.00     0.074 A 
ATOM     60  C   UNL     1      -5.587   0.554  -4.069  1.00  0.00     0.029 A 
ATOM     61  N   UNL     1      -7.695  -0.038  -3.722  1.00  0.00    -0.354 N 
ATOM     62  N   UNL     1      -7.680  -1.043   0.072  1.00  0.00    -0.248 NA
ATOM     63  C   UNL     1      -8.280  -2.819   1.394  1.00  0.00     0.031 C 
ATOM     64  C   UNL     1      -5.630  -0.587  -3.239  1.00  0.00     0.029 A 
ATOM     65  C   UNL     1      -6.937  -0.914  -2.917  1.00  0.00     0.049 A 
ATOM     66  H   UNL     1      -8.674  -0.084  -3.811  1.00  0.00     0.167 HD
ATOM     67  C   UNL     1      -7.617  -2.143  -0.789  1.00  0.00     0.074 A 
ATOM     68  C   UNL     1      -7.947  -3.226   0.155  1.00  0.00     0.031 C 
ATOM     69  C   UNL     1      -7.440  -2.116  -2.190  1.00  0.00     0.034 A 
BRANCH  56  70
ATOM     70  C   UNL     1      -6.499   2.917  -6.169  1.00  0.00     0.023 A 
ATOM     71  C   UNL     1      -5.235   2.398  -6.593  1.00  0.00     0.031 A 
ATOM     72  C   UNL     1      -6.856   4.077  -6.905  1.00  0.00     0.131 A 
ATOM     73  C   UNL     1      -4.379   3.042  -7.538  1.00  0.00     0.055 A 
ATOM     74  C   UNL     1      -6.003   4.733  -7.838  1.00  0.00     0.041 A 
ATOM     75  F   UNL     1      -8.085   4.605  -6.843  1.00  0.00    -0.206 F 
ATOM     76  C   UNL     1      -4.754   4.225  -8.152  1.00  0.00     0.022 A 
BRANCH  73  77
ATOM     77  S   UNL     1      -2.783   2.279  -8.012  1.00  0.00     0.124 S 
ATOM     78  O   UNL     1      -1.973   2.475  -6.815  1.00  0.00    -0.237 OA
ATOM     79  O   UNL     1      -3.165   0.904  -8.314  1.00  0.00    -0.237 OA
ATOM     80  O   UNL     1      -2.359   3.062  -9.175  1.00  0.00    -0.744 OA
ENDBRANCH  73  77
ENDBRANCH  56  70
BRANCH  57  81
ATOM     81  C   UNL     1      -9.079   0.057   3.690  1.00  0.00     0.023 A 
ATOM     82  C   UNL     1      -8.108   0.851   4.400  1.00  0.00     0.031 A 
ATOM     83  C   UNL     1     -10.424   0.273   4.077  1.00  0.00     0.131 A 
ATOM     84  C   UNL     1      -8.531   1.884   5.307  1.00  0.00     0.055 A 
ATOM     85  C   UNL     1     -10.829   1.328   4.906  1.00  0.00     0.041 A 
ATOM     86  F   UNL     1     -11.402  -0.421   3.473  1.00  0.00    -0.206 F 
ATOM     87  C   UNL     1      -9.890   2.152   5.502  1.00  0.00     0.022 A 
BRANCH  84  88
ATOM     88  S   UNL     1      -7.398   3.157   6.040  1.00  0.00     0.124 S 
ATOM     89  O   UNL     1      -7.297   2.719   7.429  1.00  0.00    -0.237 OA
ATOM     90  O   UNL     1      -6.183   3.052   5.247  1.00  0.00    -0.237 OA
ATOM     91  O   UNL     1      -8.151   4.401   5.854  1.00  0.00    -0.744 OA
ENDBRANCH  84  88
ENDBRANCH  57  81
BRANCH  69  92
ATOM     92  C   UNL     1      -7.631  -3.333  -3.137  1.00  0.00     0.023 A 
ATOM     93  C   UNL     1      -7.896  -4.621  -2.685  1.00  0.00     0.031 A 
ATOM     94  C   UNL     1      -7.590  -3.236  -4.558  1.00  0.00     0.131 A 
ATOM     95  C   UNL     1      -8.215  -5.687  -3.541  1.00  0.00     0.055 A 
ATOM     96  C   UNL     1      -7.850  -4.309  -5.426  1.00  0.00     0.041 A 
ATOM     97  F   UNL     1      -7.301  -2.096  -5.202  1.00  0.00    -0.206 F 
ATOM     98  C   UNL     1      -8.194  -5.548  -4.918  1.00  0.00     0.022 A 
BRANCH  95  99
ATOM     99  S   UNL     1      -8.707  -7.235  -2.749  1.00  0.00     0.124 S 
ATOM    100  O   UNL     1      -7.558  -7.519  -1.893  1.00  0.00    -0.237 OA
ATOM    101  O   UNL     1      -9.927  -6.838  -2.051  1.00  0.00    -0.237 OA
ATOM    102  O   UNL     1      -8.897  -8.151  -3.869  1.00  0.00    -0.744 OA
ENDBRANCH  95  99
ENDBRANCH  69  92
ENDBRANCH  43  44
ENDBRANCH  36  38
ENDBRANCH  35  36
ENDBRANCH  34  35
ENDBRANCH  33  34
ENDBRANCH  32  33
ENDBRANCH  31  32
ENDBRANCH  30  31
ENDBRANCH   1  30
TORSDOF 26
