REMARK SMILES O=C(OCCOCCOCCOCCOC(=O)[C@H]1C[C@@H](O)CN1C(=O)c1cc(F)c(F)cc1Cl)c1ccc(-c2c3nc(c(-c4cc(S(=O)(=O)[O-])ccc4F)c4ccc([nH]4)c(-c4cc(S(=O)(=O)[O-])ccc4F)c4nc(c(-c5cc(S(=O)(=O)[O-])ccc5F)c5ccc2[nH]5)C=C4)C=C3)cc1
REMARK SMILES IDX 8 1 7 2 6 3 5 4 4 5 3 6 2 7 1 8 35 9 36 10 97 11 37 12 96 13
REMARK SMILES IDX 38 14 39 15 40 16 90 17 41 18 95 19 89 20 91 21 42 22 94 23
REMARK SMILES IDX 88 24 87 25 43 27 75 28 55 29 74 30 56 31 59 32 73 33 92 34
REMARK SMILES IDX 57 35 58 36 72 38 93 39 60 40 44 41 45 42 53 43 46 44 52 45
REMARK SMILES IDX 54 46 51 47 47 48 48 49 49 50 50 51 76 52 77 53 85 54 78 55
REMARK SMILES IDX 84 56 86 57 83 58 79 59 80 60 81 61 82 62 61 63 62 64 70 65
REMARK SMILES IDX 63 66 69 67 71 68 68 69 64 70 65 71 66 72 67 73 9 74 10 75
REMARK SMILES IDX 11 76 12 77 13 78 14 79 15 80 16 81 17 82 18 83 19 84 23 85
REMARK SMILES IDX 20 86 22 87 24 88 25 89 26 90 27 91 33 92 28 93 32 94 34 95
REMARK SMILES IDX 29 96 30 97 31 98 21 99
REMARK H PARENT 91 26 59 37 21 100
REMARK Flexibility Score: inf
ROOT
ATOM      1  C   UNL     1       2.504  -2.014  -1.465  1.00  0.00     0.188 C 
ENDROOT
BRANCH   1   2
ATOM      2  C   UNL     1       2.701  -0.978  -0.378  1.00  0.00     0.188 C 
BRANCH   2   3
ATOM      3  O   UNL     1       3.979  -0.365  -0.458  1.00  0.00    -0.376 OA
BRANCH   3   4
ATOM      4  C   UNL     1       4.848  -0.669   0.625  1.00  0.00     0.202 C 
BRANCH   4   5
ATOM      5  C   UNL     1       4.577   0.112   1.902  1.00  0.00     0.261 C 
BRANCH   5   6
ATOM      6  O   UNL     1       3.272   0.698   2.038  1.00  0.00    -0.460 OA
BRANCH   6   7
ATOM      7  C   UNL     1       2.583   1.618   1.330  1.00  0.00     0.338 C 
ATOM      8  O   UNL     1       1.384   1.730   1.603  1.00  0.00    -0.246 OA
BRANCH   7   9
ATOM      9  C   UNL     1       3.107   2.475   0.214  1.00  0.00     0.060 A 
ATOM     10  C   UNL     1       2.214   3.446  -0.287  1.00  0.00     0.016 A 
ATOM     11  C   UNL     1       4.343   2.352  -0.420  1.00  0.00     0.016 A 
ATOM     12  C   UNL     1       2.524   4.222  -1.406  1.00  0.00     0.010 A 
ATOM     13  C   UNL     1       4.631   3.064  -1.586  1.00  0.00     0.010 A 
ATOM     14  C   UNL     1       3.733   4.016  -2.072  1.00  0.00    -0.014 A 
BRANCH  14  15
ATOM     15  C   UNL     1       4.212   4.940  -3.115  1.00  0.00     0.031 A 
ATOM     16  C   UNL     1       4.172   4.573  -4.564  1.00  0.00     0.074 A 
ATOM     17  C   UNL     1       4.847   6.042  -2.671  1.00  0.00     0.049 A 
ATOM     18  N   UNL     1       4.615   5.254  -5.584  1.00  0.00    -0.248 NA
ATOM     19  C   UNL     1       3.584   3.270  -4.918  1.00  0.00     0.031 C 
ATOM     20  C   UNL     1       5.015   6.378  -1.253  1.00  0.00     0.029 A 
ATOM     21  N   UNL     1       5.521   7.033  -3.329  1.00  0.00    -0.354 N 
ATOM     22  C   UNL     1       4.347   4.480  -6.707  1.00  0.00     0.074 A 
ATOM     23  C   UNL     1       3.741   3.253  -6.238  1.00  0.00     0.031 C 
ATOM     24  C   UNL     1       5.783   7.468  -1.147  1.00  0.00     0.029 A 
ATOM     25  C   UNL     1       6.165   7.907  -2.483  1.00  0.00     0.049 A 
ATOM     26  H   UNL     1       5.542   7.114  -4.310  1.00  0.00     0.167 HD
ATOM     27  C   UNL     1       4.584   4.797  -8.001  1.00  0.00     0.034 A 
ATOM     28  C   UNL     1       6.986   8.940  -2.756  1.00  0.00     0.034 A 
ATOM     29  C   UNL     1       5.216   6.032  -8.395  1.00  0.00     0.049 A 
ATOM     30  C   UNL     1       7.191   9.295  -4.202  1.00  0.00     0.074 A 
ATOM     31  C   UNL     1       5.417   6.517  -9.674  1.00  0.00     0.029 A 
ATOM     32  N   UNL     1       5.763   6.964  -7.522  1.00  0.00    -0.354 N 
ATOM     33  N   UNL     1       6.771   8.649  -5.265  1.00  0.00    -0.248 NA
ATOM     34  C   UNL     1       7.934  10.524  -4.501  1.00  0.00     0.031 C 
ATOM     35  C   UNL     1       6.157   7.693  -9.578  1.00  0.00     0.029 A 
ATOM     36  C   UNL     1       6.331   8.003  -8.237  1.00  0.00     0.049 A 
ATOM     37  H   UNL     1       5.747   6.896  -6.540  1.00  0.00     0.167 HD
ATOM     38  C   UNL     1       7.166   9.409  -6.357  1.00  0.00     0.074 A 
ATOM     39  C   UNL     1       7.848  10.572  -5.825  1.00  0.00     0.031 C 
ATOM     40  C   UNL     1       6.981   9.166  -7.678  1.00  0.00     0.034 A 
BRANCH  27  41
ATOM     41  C   UNL     1       4.132   3.872  -9.107  1.00  0.00     0.023 A 
ATOM     42  C   UNL     1       5.063   3.386 -10.047  1.00  0.00     0.031 A 
ATOM     43  C   UNL     1       2.764   3.678  -9.370  1.00  0.00     0.131 A 
ATOM     44  C   UNL     1       4.612   2.802 -11.239  1.00  0.00     0.055 A 
ATOM     45  C   UNL     1       2.322   3.051 -10.537  1.00  0.00     0.041 A 
ATOM     46  F   UNL     1       1.834   4.129  -8.513  1.00  0.00    -0.206 F 
ATOM     47  C   UNL     1       3.247   2.630 -11.488  1.00  0.00     0.022 A 
BRANCH  44  48
ATOM     48  S   UNL     1       5.772   2.343 -12.558  1.00  0.00     0.124 S 
ATOM     49  O   UNL     1       5.427   0.941 -12.788  1.00  0.00    -0.237 OA
ATOM     50  O   UNL     1       5.394   3.261 -13.628  1.00  0.00    -0.237 OA
ATOM     51  O   UNL     1       7.085   2.567 -11.964  1.00  0.00    -0.744 OA
ENDBRANCH  44  48
ENDBRANCH  27  41
BRANCH  28  52
ATOM     52  C   UNL     1       7.557   9.722  -1.623  1.00  0.00     0.023 A 
ATOM     53  C   UNL     1       8.404   9.108  -0.679  1.00  0.00     0.031 A 
ATOM     54  C   UNL     1       7.133  11.037  -1.369  1.00  0.00     0.131 A 
ATOM     55  C   UNL     1       8.739   9.782   0.503  1.00  0.00     0.055 A 
ATOM     56  C   UNL     1       7.530  11.732  -0.225  1.00  0.00     0.041 A 
ATOM     57  F   UNL     1       6.297  11.653  -2.219  1.00  0.00    -0.206 F 
ATOM     58  C   UNL     1       8.321  11.097   0.728  1.00  0.00     0.022 A 
BRANCH  55  59
ATOM     59  S   UNL     1       9.579   8.917   1.861  1.00  0.00     0.124 S 
ATOM     60  O   UNL     1      10.844   9.640   1.946  1.00  0.00    -0.237 OA
ATOM     61  O   UNL     1       8.655   9.130   2.973  1.00  0.00    -0.237 OA
ATOM     62  O   UNL     1       9.668   7.538   1.391  1.00  0.00    -0.744 OA
ENDBRANCH  55  59
ENDBRANCH  28  52
BRANCH  40  63
ATOM     63  C   UNL     1       7.500  10.167  -8.676  1.00  0.00     0.023 A 
ATOM     64  C   UNL     1       6.593  10.806  -9.543  1.00  0.00     0.031 A 
ATOM     65  C   UNL     1       8.875  10.305  -8.920  1.00  0.00     0.131 A 
ATOM     66  C   UNL     1       7.073  11.485 -10.667  1.00  0.00     0.055 A 
ATOM     67  C   UNL     1       9.350  11.037 -10.008  1.00  0.00     0.041 A 
ATOM     68  F   UNL     1       9.773   9.704  -8.123  1.00  0.00    -0.206 F 
ATOM     69  C   UNL     1       8.447  11.611 -10.900  1.00  0.00     0.022 A 
BRANCH  66  70
ATOM     70  S   UNL     1       5.933  12.112 -11.930  1.00  0.00     0.124 S 
ATOM     71  O   UNL     1       6.284  13.530 -11.978  1.00  0.00    -0.237 OA
ATOM     72  O   UNL     1       6.319  11.334 -13.103  1.00  0.00    -0.237 OA
ATOM     73  O   UNL     1       4.609  11.821 -11.388  1.00  0.00    -0.744 OA
ENDBRANCH  66  70
ENDBRANCH  40  63
ENDBRANCH  14  15
ENDBRANCH   7   9
ENDBRANCH   6   7
ENDBRANCH   5   6
ENDBRANCH   4   5
ENDBRANCH   3   4
ENDBRANCH   2   3
ENDBRANCH   1   2
BRANCH   1  74
ATOM     74  O   UNL     1       3.584  -2.914  -1.646  1.00  0.00    -0.377 OA
BRANCH  74  75
ATOM     75  C   UNL     1       4.882  -2.455  -2.039  1.00  0.00     0.188 C 
BRANCH  75  76
ATOM     76  C   UNL     1       5.055  -1.560  -3.265  1.00  0.00     0.188 C 
BRANCH  76  77
ATOM     77  O   UNL     1       3.864  -0.892  -3.608  1.00  0.00    -0.376 OA
BRANCH  77  78
ATOM     78  C   UNL     1       3.233  -1.328  -4.801  1.00  0.00     0.202 C 
BRANCH  78  79
ATOM     79  C   UNL     1       2.797  -2.809  -4.992  1.00  0.00     0.261 C 
BRANCH  79  80
ATOM     80  O   UNL     1       3.192  -3.807  -4.014  1.00  0.00    -0.462 OA
BRANCH  80  81
ATOM     81  C   UNL     1       4.314  -4.505  -4.325  1.00  0.00     0.329 C 
ATOM     82  O   UNL     1       4.934  -4.287  -5.364  1.00  0.00    -0.250 OA
BRANCH  81  83
ATOM     83  C   UNL     1       4.768  -5.616  -3.320  1.00  0.00     0.198 C 
ATOM     84  C   UNL     1       4.350  -5.741  -1.848  1.00  0.00     0.071 C 
ATOM     85  N   UNL     1       4.434  -6.938  -3.850  1.00  0.00    -0.322 N 
ATOM     86  C   UNL     1       3.176  -6.694  -1.856  1.00  0.00     0.136 C 
ATOM     87  C   UNL     1       3.637  -7.711  -2.887  1.00  0.00     0.152 C 
BRANCH  85  88
ATOM     88  C   UNL     1       5.108  -7.414  -4.961  1.00  0.00     0.256 C 
ATOM     89  O   UNL     1       6.022  -6.827  -5.508  1.00  0.00    -0.269 OA
BRANCH  88  90
ATOM     90  C   UNL     1       4.674  -8.715  -5.492  1.00  0.00     0.061 A 
ATOM     91  C   UNL     1       3.303  -8.919  -5.703  1.00  0.00     0.057 A 
ATOM     92  C   UNL     1       5.597  -9.739  -5.732  1.00  0.00     0.056 A 
ATOM     93  C   UNL     1       2.852 -10.188  -6.018  1.00  0.00     0.159 A 
ATOM     94  C   UNL     1       5.129 -10.999  -6.103  1.00  0.00     0.063 A 
ATOM     95  Cl  UNL     1       7.300  -9.562  -5.515  1.00  0.00    -0.083 Cl
ATOM     96  F   UNL     1       1.535 -10.417  -6.088  1.00  0.00    -0.204 F 
ATOM     97  C   UNL     1       3.760 -11.222  -6.210  1.00  0.00     0.160 A 
ATOM     98  F   UNL     1       3.319 -12.457  -6.478  1.00  0.00    -0.204 F 
ENDBRANCH  88  90
ENDBRANCH  85  88
BRANCH  86  99
ATOM     99  O   UNL     1       1.976  -6.058  -2.282  1.00  0.00    -0.391 OA
ATOM    100  H   UNL     1       2.113  -5.663  -3.157  1.00  0.00     0.211 HD
ENDBRANCH  86  99
ENDBRANCH  81  83
ENDBRANCH  80  81
ENDBRANCH  79  80
ENDBRANCH  78  79
ENDBRANCH  77  78
ENDBRANCH  76  77
ENDBRANCH  75  76
ENDBRANCH  74  75
ENDBRANCH   1  74
TORSDOF 26
