REMARK SMILES CC[C@@H](C)[C@H](NC(=O)[C@H](C)N1C(=O)N2CCC3=c4cc(OC)ccc4=N[C@H]3[C@@]2(C)C1=O)C(=O)OCCOCCOCCOCCOC(=O)c1ccc(-c2c3nc(c(-c4cc(S(=O)(=O)[O-])ccc4F)c4ccc([nH]4)c(-c4cc(S(=O)(=O)[O-])ccc4F)c4nc(c(-c5cc(S(=O)(=O)[O-])ccc5F)c5ccc2[nH]5)C=C4)C=C3)cc1
REMARK SMILES IDX 39 1 38 2 37 3 36 4 35 5 34 6 32 7 33 8 5 9 3 10 4 11 2 12
REMARK SMILES IDX 1 13 6 14 7 15 8 17 9 18 10 19 11 20 12 21 30 22 14 23 13 24
REMARK SMILES IDX 28 25 31 26 15 27 27 28 29 29 16 30 17 31 26 32 18 33 25 34
REMARK SMILES IDX 19 35 24 36 20 37 23 38 21 39 22 40 40 41 41 42 42 43 43 44
REMARK SMILES IDX 44 45 45 46 46 47 47 48 48 49 49 50 50 51 111 52 51 53
REMARK SMILES IDX 110 54 52 55 53 56 54 57 104 58 55 59 109 60 103 61 105 62
REMARK SMILES IDX 56 63 108 64 102 65 101 66 57 68 89 69 69 70 88 71 70 72
REMARK SMILES IDX 73 73 87 74 106 75 71 76 72 77 86 79 107 80 74 81 58 82
REMARK SMILES IDX 59 83 67 84 60 85 66 86 68 87 65 88 61 89 62 90 63 91 64 92
REMARK SMILES IDX 90 93 91 94 99 95 92 96 98 97 100 98 97 99 93 100 94 101
REMARK SMILES IDX 95 102 96 103 75 104 76 105 84 106 77 107 83 108 85 109
REMARK SMILES IDX 82 110 78 111 79 112 80 113 81 114
REMARK H PARENT 6 16 105 67 73 78
REMARK Flexibility Score: inf
ROOT
ATOM      1  C   UNL     1       3.101   5.684  -1.081  1.00  0.00     0.188 C 
ENDROOT
BRANCH   1   2
ATOM      2  C   UNL     1       3.908   5.389   0.145  1.00  0.00     0.188 C 
BRANCH   2   3
ATOM      3  O   UNL     1       3.152   4.893   1.252  1.00  0.00    -0.376 OA
BRANCH   3   4
ATOM      4  C   UNL     1       2.404   3.664   1.314  1.00  0.00     0.202 C 
BRANCH   4   5
ATOM      5  C   UNL     1       1.782   3.320   2.815  1.00  0.00     0.261 C 
BRANCH   5   6
ATOM      6  O   UNL     1       0.753   4.143   3.434  1.00  0.00    -0.462 OA
BRANCH   6   7
ATOM      7  C   UNL     1       0.792   4.191   4.805  1.00  0.00     0.328 C 
ATOM      8  O   UNL     1       1.001   3.206   5.505  1.00  0.00    -0.250 OA
BRANCH   7   9
ATOM      9  C   UNL     1       0.631   5.649   5.376  1.00  0.00     0.195 C 
BRANCH   9  10
ATOM     10  C   UNL     1      -0.368   5.739   6.536  1.00  0.00     0.019 C 
ATOM     11  C   UNL     1       0.285   5.284   7.834  1.00  0.00     0.010 C 
BRANCH  10  12
ATOM     12  C   UNL     1      -1.710   5.096   6.133  1.00  0.00     0.002 C 
ATOM     13  C   UNL     1      -2.555   4.635   7.297  1.00  0.00     0.004 C 
ENDBRANCH  10  12
ENDBRANCH   9  10
BRANCH   9  14
ATOM     14  N   UNL     1       0.290   6.762   4.503  1.00  0.00    -0.341 N 
ATOM     15  C   UNL     1       1.167   7.387   3.677  1.00  0.00     0.243 C 
ATOM     16  H   UNL     1      -0.640   7.083   4.511  1.00  0.00     0.164 HD
ATOM     17  O   UNL     1       0.886   8.508   3.246  1.00  0.00    -0.273 OA
BRANCH  15  18
ATOM     18  C   UNL     1       2.097   6.459   2.956  1.00  0.00     0.181 C 
ATOM     19  C   UNL     1       0.956   5.984   1.803  1.00  0.00     0.042 C 
BRANCH  18  20
ATOM     20  N   UNL     1       3.500   5.771   3.579  1.00  0.00    -0.250 N 
ATOM     21  C   UNL     1       4.142   4.971   4.605  1.00  0.00     0.328 C 
ATOM     22  C   UNL     1       4.580   6.144   2.888  1.00  0.00     0.259 C 
ATOM     23  N   UNL     1       5.661   4.778   4.204  1.00  0.00    -0.307 N 
ATOM     24  O   UNL     1       3.666   4.557   5.650  1.00  0.00    -0.248 OA
ATOM     25  C   UNL     1       5.576   5.005   2.810  1.00  0.00     0.147 C 
ATOM     26  O   UNL     1       4.763   7.281   2.457  1.00  0.00    -0.271 OA
ATOM     27  C   UNL     1       6.858   3.585   4.409  1.00  0.00     0.127 C 
ATOM     28  C   UNL     1       5.071   3.416   2.347  1.00  0.00     0.168 C 
ATOM     29  C   UNL     1       6.881   5.696   2.370  1.00  0.00     0.048 C 
ATOM     30  C   UNL     1       7.259   2.649   2.846  1.00  0.00     0.055 C 
ATOM     31  C   UNL     1       5.990   2.356   1.799  1.00  0.00    -0.032 C 
ATOM     32  N   UNL     1       4.185   2.520   3.260  1.00  0.00    -0.274 NA
ATOM     33  C   UNL     1       5.256   1.175   1.676  1.00  0.00     0.005 A 
ATOM     34  C   UNL     1       4.541   1.298   2.976  1.00  0.00     0.066 A 
ATOM     35  C   UNL     1       4.057   0.867   0.741  1.00  0.00     0.056 A 
ATOM     36  C   UNL     1       3.820   0.135   3.482  1.00  0.00     0.032 A 
ATOM     37  C   UNL     1       2.861   0.412   1.267  1.00  0.00     0.119 A 
ATOM     38  C   UNL     1       2.849  -0.158   2.611  1.00  0.00     0.048 A 
BRANCH  37  39
ATOM     39  O   UNL     1       1.638   0.619   0.641  1.00  0.00    -0.497 OA
ATOM     40  C   UNL     1       0.382   0.689   1.361  1.00  0.00     0.278 C 
ENDBRANCH  37  39
ENDBRANCH  18  20
ENDBRANCH  15  18
ENDBRANCH   9  14
ENDBRANCH   7   9
ENDBRANCH   6   7
ENDBRANCH   5   6
ENDBRANCH   4   5
ENDBRANCH   3   4
ENDBRANCH   2   3
ENDBRANCH   1   2
BRANCH   1  41
ATOM     41  O   UNL     1       2.503   4.475  -1.492  1.00  0.00    -0.377 OA
BRANCH  41  42
ATOM     42  C   UNL     1       3.410   3.562  -2.075  1.00  0.00     0.188 C 
BRANCH  42  43
ATOM     43  C   UNL     1       3.815   3.912  -3.502  1.00  0.00     0.188 C 
BRANCH  43  44
ATOM     44  O   UNL     1       2.971   4.672  -4.356  1.00  0.00    -0.376 OA
BRANCH  44  45
ATOM     45  C   UNL     1       1.637   5.006  -4.002  1.00  0.00     0.202 C 
BRANCH  45  46
ATOM     46  C   UNL     1       0.576   3.899  -4.068  1.00  0.00     0.261 C 
BRANCH  46  47
ATOM     47  O   UNL     1       0.590   2.865  -3.067  1.00  0.00    -0.460 OA
BRANCH  47  48
ATOM     48  C   UNL     1       1.173   1.692  -3.458  1.00  0.00     0.338 C 
ATOM     49  O   UNL     1       1.908   1.544  -4.396  1.00  0.00    -0.246 OA
BRANCH  48  50
ATOM     50  C   UNL     1       0.816   0.578  -2.531  1.00  0.00     0.060 A 
ATOM     51  C   UNL     1      -0.501   0.377  -2.111  1.00  0.00     0.016 A 
ATOM     52  C   UNL     1       1.799  -0.369  -2.211  1.00  0.00     0.016 A 
ATOM     53  C   UNL     1      -0.837  -0.789  -1.405  1.00  0.00     0.010 A 
ATOM     54  C   UNL     1       1.465  -1.526  -1.488  1.00  0.00     0.010 A 
ATOM     55  C   UNL     1       0.140  -1.758  -1.089  1.00  0.00    -0.014 A 
BRANCH  55  56
ATOM     56  C   UNL     1      -0.278  -3.090  -0.564  1.00  0.00     0.031 A 
ATOM     57  C   UNL     1      -0.163  -3.522   0.867  1.00  0.00     0.074 A 
ATOM     58  C   UNL     1      -0.743  -3.978  -1.454  1.00  0.00     0.049 A 
ATOM     59  N   UNL     1      -0.761  -4.492   1.509  1.00  0.00    -0.248 NA
ATOM     60  C   UNL     1       0.760  -2.759   1.694  1.00  0.00     0.031 C 
ATOM     61  C   UNL     1      -0.828  -3.737  -2.891  1.00  0.00     0.029 A 
ATOM     62  N   UNL     1      -1.209  -5.252  -1.284  1.00  0.00    -0.354 N 
ATOM     63  C   UNL     1      -0.358  -4.382   2.839  1.00  0.00     0.074 A 
ATOM     64  C   UNL     1       0.570  -3.276   2.902  1.00  0.00     0.031 C 
ATOM     65  C   UNL     1      -1.325  -4.832  -3.479  1.00  0.00     0.029 A 
ATOM     66  C   UNL     1      -1.577  -5.852  -2.460  1.00  0.00     0.049 A 
ATOM     67  H   UNL     1      -1.274  -5.693  -0.407  1.00  0.00     0.167 HD
ATOM     68  C   UNL     1      -0.701  -5.153   3.900  1.00  0.00     0.034 A 
ATOM     69  C   UNL     1      -2.068  -7.083  -2.693  1.00  0.00     0.034 A 
ATOM     70  C   UNL     1      -1.432  -6.388   3.767  1.00  0.00     0.049 A 
ATOM     71  C   UNL     1      -2.379  -7.980  -1.526  1.00  0.00     0.074 A 
ATOM     72  C   UNL     1      -1.844  -7.255   4.762  1.00  0.00     0.029 A 
ATOM     73  N   UNL     1      -1.774  -6.976   2.558  1.00  0.00    -0.354 N 
ATOM     74  N   UNL     1      -2.231  -7.747  -0.242  1.00  0.00    -0.248 NA
ATOM     75  C   UNL     1      -2.950  -9.296  -1.833  1.00  0.00     0.031 C 
ATOM     76  C   UNL     1      -2.313  -8.420   4.151  1.00  0.00     0.029 A 
ATOM     77  C   UNL     1      -2.313  -8.231   2.777  1.00  0.00     0.049 A 
ATOM     78  H   UNL     1      -1.651  -6.561   1.673  1.00  0.00     0.167 HD
ATOM     79  C   UNL     1      -2.710  -8.879   0.413  1.00  0.00     0.074 A 
ATOM     80  C   UNL     1      -3.172  -9.784  -0.619  1.00  0.00     0.031 C 
ATOM     81  C   UNL     1      -2.763  -9.139   1.745  1.00  0.00     0.034 A 
BRANCH  68  82
ATOM     82  C   UNL     1      -0.278  -4.729   5.291  1.00  0.00     0.023 A 
ATOM     83  C   UNL     1       0.537  -5.560   6.084  1.00  0.00     0.031 A 
ATOM     84  C   UNL     1      -0.817  -3.573   5.887  1.00  0.00     0.131 A 
ATOM     85  C   UNL     1       0.756  -5.246   7.433  1.00  0.00     0.055 A 
ATOM     86  C   UNL     1      -0.568  -3.247   7.223  1.00  0.00     0.041 A 
ATOM     87  F   UNL     1      -1.608  -2.748   5.181  1.00  0.00    -0.206 F 
ATOM     88  C   UNL     1       0.212  -4.092   8.006  1.00  0.00     0.022 A 
BRANCH  85  89
ATOM     89  S   UNL     1       1.700  -6.355   8.517  1.00  0.00     0.124 S 
ATOM     90  O   UNL     1       2.780  -5.481   8.970  1.00  0.00    -0.237 OA
ATOM     91  O   UNL     1       0.712  -6.704   9.534  1.00  0.00    -0.237 OA
ATOM     92  O   UNL     1       2.111  -7.441   7.635  1.00  0.00    -0.744 OA
ENDBRANCH  85  89
ENDBRANCH  68  82
BRANCH  69  93
ATOM     93  C   UNL     1      -2.366  -7.449  -4.104  1.00  0.00     0.023 A 
ATOM     94  C   UNL     1      -1.336  -7.482  -5.062  1.00  0.00     0.031 A 
ATOM     95  C   UNL     1      -3.693  -7.563  -4.545  1.00  0.00     0.131 A 
ATOM     96  C   UNL     1      -1.658  -7.525  -6.423  1.00  0.00     0.055 A 
ATOM     97  C   UNL     1      -4.004  -7.689  -5.899  1.00  0.00     0.041 A 
ATOM     98  F   UNL     1      -4.705  -7.511  -3.666  1.00  0.00    -0.206 F 
ATOM     99  C   UNL     1      -2.985  -7.645  -6.847  1.00  0.00     0.022 A 
BRANCH  96 100
ATOM    100  S   UNL     1      -0.383  -7.243  -7.683  1.00  0.00     0.124 S 
ATOM    101  O   UNL     1      -0.474  -8.459  -8.485  1.00  0.00    -0.237 OA
ATOM    102  O   UNL     1      -0.867  -6.024  -8.326  1.00  0.00    -0.237 OA
ATOM    103  O   UNL     1       0.843  -7.090  -6.907  1.00  0.00    -0.744 OA
ENDBRANCH  96 100
ENDBRANCH  69  93
BRANCH  81 104
ATOM    104  C   UNL     1      -3.323 -10.464   2.209  1.00  0.00     0.023 A 
ATOM    105  C   UNL     1      -4.435 -10.488   3.074  1.00  0.00     0.031 A 
ATOM    106  C   UNL     1      -2.659 -11.676   1.951  1.00  0.00     0.131 A 
ATOM    107  C   UNL     1      -4.811 -11.684   3.697  1.00  0.00     0.055 A 
ATOM    108  C   UNL     1      -3.078 -12.877   2.525  1.00  0.00     0.041 A 
ATOM    109  F   UNL     1      -1.585 -11.707   1.147  1.00  0.00    -0.206 F 
ATOM    110  C   UNL     1      -4.146 -12.881   3.418  1.00  0.00     0.022 A 
BRANCH 107 111
ATOM    111  S   UNL     1      -6.098 -11.706   4.976  1.00  0.00     0.124 S 
ATOM    112  O   UNL     1      -7.087 -12.611   4.393  1.00  0.00    -0.237 OA
ATOM    113  O   UNL     1      -5.375 -12.233   6.130  1.00  0.00    -0.237 OA
ATOM    114  O   UNL     1      -6.517 -10.313   5.080  1.00  0.00    -0.744 OA
ENDBRANCH 107 111
ENDBRANCH  81 104
ENDBRANCH  55  56
ENDBRANCH  48  50
ENDBRANCH  47  48
ENDBRANCH  46  47
ENDBRANCH  45  46
ENDBRANCH  44  45
ENDBRANCH  43  44
ENDBRANCH  42  43
ENDBRANCH  41  42
ENDBRANCH   1  41
TORSDOF 29
