REMARK SMILES CN1C(=O)C[C@@H](C(=O)OCCOCCOCCOCCOC(=O)c2ccc(-c3c4nc(c(-c5cc(S(=O)(=O)[O-])ccc5F)c5ccc([nH]5)c(-c5cc(S(=O)(=O)[O-])ccc5F)c5nc(c(-c6cc(S(=O)(=O)[O-])ccc6F)c6ccc3[nH]6)C=C5)C=C4)cc2)C12CCN(c1ccc(Cl)cn1)CC2
REMARK SMILES IDX 16 1 15 2 14 3 13 4 12 5 11 6 10 7 9 8 7 9 8 10 6 11 1 12
REMARK SMILES IDX 2 13 3 14 87 15 4 16 5 17 88 18 99 19 89 20 98 21 90 22
REMARK SMILES IDX 91 23 92 24 97 25 93 26 96 27 94 28 95 29 17 30 18 31 19 32
REMARK SMILES IDX 20 33 21 34 22 35 23 36 24 37 25 38 86 39 26 40 85 41 27 42
REMARK SMILES IDX 28 43 29 44 79 45 30 46 84 47 78 48 80 49 31 50 83 51 77 52
REMARK SMILES IDX 76 53 32 55 64 56 44 57 63 58 45 59 48 60 62 61 81 62 46 63
REMARK SMILES IDX 47 64 61 66 82 67 49 68 33 69 34 70 42 71 35 72 41 73 43 74
REMARK SMILES IDX 40 75 36 76 37 77 38 78 39 79 65 80 66 81 74 82 67 83 73 84
REMARK SMILES IDX 75 85 72 86 68 87 69 88 70 89 71 90 50 91 51 92 59 93 52 94
REMARK SMILES IDX 58 95 60 96 57 97 53 98 54 99 55 100 56 101
REMARK H PARENT 80 54 48 65
REMARK Flexibility Score: inf
ROOT
ATOM      1  C   UNL     1      -4.579   1.016   0.588  1.00  0.00     0.188 C 
ENDROOT
BRANCH   1   2
ATOM      2  O   UNL     1      -4.087  -0.324   0.579  1.00  0.00    -0.377 OA
BRANCH   2   3
ATOM      3  C   UNL     1      -4.839  -1.381   0.015  1.00  0.00     0.188 C 
BRANCH   3   4
ATOM      4  C   UNL     1      -5.434  -2.404   0.978  1.00  0.00     0.188 C 
BRANCH   4   5
ATOM      5  O   UNL     1      -5.841  -1.970   2.255  1.00  0.00    -0.376 OA
BRANCH   5   6
ATOM      6  C   UNL     1      -4.886  -1.318   3.087  1.00  0.00     0.202 C 
BRANCH   6   7
ATOM      7  C   UNL     1      -3.450  -1.872   3.248  1.00  0.00     0.261 C 
BRANCH   7   8
ATOM      8  O   UNL     1      -2.544  -1.795   2.103  1.00  0.00    -0.463 OA
BRANCH   8   9
ATOM      9  C   UNL     1      -2.207  -2.975   1.543  1.00  0.00     0.311 C 
ATOM     10  O   UNL     1      -2.708  -4.047   1.895  1.00  0.00    -0.252 OA
BRANCH   9  11
ATOM     11  C   UNL     1      -1.087  -3.022   0.503  1.00  0.00     0.134 C 
ATOM     12  C   UNL     1       1.471  -0.277   0.376  1.00  0.00     0.147 C 
ATOM     13  N   UNL     1       0.718  -1.514   0.520  1.00  0.00    -0.339 N 
ATOM     14  C   UNL     1       1.031  -2.459   1.475  1.00  0.00     0.223 C 
ATOM     15  C   UNL     1      -0.408  -1.909  -0.355  1.00  0.00     0.060 C 
ATOM     16  O   UNL     1       1.931  -2.401   2.296  1.00  0.00    -0.275 OA
ATOM     17  C   UNL     1       0.104  -3.624   1.291  1.00  0.00     0.118 C 
ATOM     18  C   UNL     1      -1.210  -0.666  -0.759  1.00  0.00     0.051 C 
ATOM     19  C   UNL     1       0.193  -2.589  -1.655  1.00  0.00     0.051 C 
ATOM     20  C   UNL     1      -2.015  -0.758  -2.038  1.00  0.00     0.120 C 
ATOM     21  C   UNL     1      -0.773  -2.672  -2.853  1.00  0.00     0.120 C 
ATOM     22  N   UNL     1      -1.222  -1.319  -3.120  1.00  0.00    -0.356 N 
BRANCH  22  23
ATOM     23  C   UNL     1      -1.750  -0.976  -4.367  1.00  0.00     0.128 A 
ATOM     24  C   UNL     1      -1.605   0.355  -4.785  1.00  0.00     0.048 A 
ATOM     25  N   UNL     1      -2.499  -1.849  -5.071  1.00  0.00    -0.238 NA
ATOM     26  C   UNL     1      -2.284   0.828  -5.905  1.00  0.00     0.026 A 
ATOM     27  C   UNL     1      -3.153  -1.366  -6.167  1.00  0.00     0.134 A 
ATOM     28  C   UNL     1      -3.089  -0.051  -6.605  1.00  0.00     0.059 A 
ATOM     29  Cl  UNL     1      -3.994   0.489  -7.959  1.00  0.00    -0.083 Cl
ENDBRANCH  22  23
ENDBRANCH   9  11
ENDBRANCH   8   9
ENDBRANCH   7   8
ENDBRANCH   6   7
ENDBRANCH   5   6
ENDBRANCH   4   5
ENDBRANCH   3   4
ENDBRANCH   2   3
ENDBRANCH   1   2
BRANCH   1  30
ATOM     30  C   UNL     1      -5.951   1.300  -0.028  1.00  0.00     0.188 C 
BRANCH  30  31
ATOM     31  O   UNL     1      -6.129   1.103  -1.436  1.00  0.00    -0.376 OA
BRANCH  31  32
ATOM     32  C   UNL     1      -4.983   1.093  -2.278  1.00  0.00     0.202 C 
BRANCH  32  33
ATOM     33  C   UNL     1      -4.562   2.438  -2.862  1.00  0.00     0.261 C 
BRANCH  33  34
ATOM     34  O   UNL     1      -3.955   3.264  -1.858  1.00  0.00    -0.460 OA
BRANCH  34  35
ATOM     35  C   UNL     1      -4.813   4.135  -1.285  1.00  0.00     0.338 C 
ATOM     36  O   UNL     1      -5.983   4.320  -1.596  1.00  0.00    -0.246 OA
BRANCH  35  37
ATOM     37  C   UNL     1      -4.207   4.732  -0.087  1.00  0.00     0.060 A 
ATOM     38  C   UNL     1      -5.027   4.840   1.041  1.00  0.00     0.016 A 
ATOM     39  C   UNL     1      -2.917   5.274  -0.092  1.00  0.00     0.016 A 
ATOM     40  C   UNL     1      -4.605   5.577   2.134  1.00  0.00     0.010 A 
ATOM     41  C   UNL     1      -2.495   6.028   1.006  1.00  0.00     0.010 A 
ATOM     42  C   UNL     1      -3.370   6.236   2.087  1.00  0.00    -0.014 A 
BRANCH  42  43
ATOM     43  C   UNL     1      -3.166   7.347   3.042  1.00  0.00     0.031 A 
ATOM     44  C   UNL     1      -3.464   8.746   2.567  1.00  0.00     0.074 A 
ATOM     45  C   UNL     1      -2.884   7.092   4.331  1.00  0.00     0.049 A 
ATOM     46  N   UNL     1      -3.425   9.873   3.226  1.00  0.00    -0.248 NA
ATOM     47  C   UNL     1      -3.874   8.891   1.159  1.00  0.00     0.031 C 
ATOM     48  C   UNL     1      -2.666   5.761   4.897  1.00  0.00     0.029 A 
ATOM     49  N   UNL     1      -2.757   7.938   5.400  1.00  0.00    -0.354 N 
ATOM     50  C   UNL     1      -3.816  10.854   2.320  1.00  0.00     0.074 A 
ATOM     51  C   UNL     1      -4.033  10.200   1.050  1.00  0.00     0.031 C 
ATOM     52  C   UNL     1      -2.434   5.881   6.215  1.00  0.00     0.029 A 
ATOM     53  C   UNL     1      -2.447   7.297   6.576  1.00  0.00     0.049 A 
ATOM     54  H   UNL     1      -2.876   8.913   5.332  1.00  0.00     0.167 HD
ATOM     55  C   UNL     1      -4.000  12.178   2.537  1.00  0.00     0.034 A 
ATOM     56  C   UNL     1      -2.183   7.807   7.795  1.00  0.00     0.034 A 
ATOM     57  C   UNL     1      -3.772  12.808   3.812  1.00  0.00     0.049 A 
ATOM     58  C   UNL     1      -2.280   9.306   7.978  1.00  0.00     0.074 A 
ATOM     59  C   UNL     1      -3.888  14.145   4.147  1.00  0.00     0.029 A 
ATOM     60  N   UNL     1      -3.381  12.139   4.965  1.00  0.00    -0.354 N 
ATOM     61  N   UNL     1      -2.631  10.226   7.106  1.00  0.00    -0.248 NA
ATOM     62  C   UNL     1      -1.961   9.832   9.310  1.00  0.00     0.031 C 
ATOM     63  C   UNL     1      -3.500  14.293   5.482  1.00  0.00     0.029 A 
ATOM     64  C   UNL     1      -3.226  13.040   6.005  1.00  0.00     0.049 A 
ATOM     65  H   UNL     1      -3.236  11.168   5.033  1.00  0.00     0.167 HD
ATOM     66  C   UNL     1      -2.607  11.434   7.800  1.00  0.00     0.074 A 
ATOM     67  C   UNL     1      -2.239  11.117   9.164  1.00  0.00     0.031 C 
ATOM     68  C   UNL     1      -2.859  12.693   7.357  1.00  0.00     0.034 A 
BRANCH  55  69
ATOM     69  C   UNL     1      -4.429  13.027   1.367  1.00  0.00     0.023 A 
ATOM     70  C   UNL     1      -5.684  12.862   0.754  1.00  0.00     0.031 A 
ATOM     71  C   UNL     1      -3.569  14.013   0.852  1.00  0.00     0.131 A 
ATOM     72  C   UNL     1      -6.023  13.636  -0.366  1.00  0.00     0.055 A 
ATOM     73  C   UNL     1      -3.942  14.831  -0.216  1.00  0.00     0.041 A 
ATOM     74  F   UNL     1      -2.347  14.194   1.376  1.00  0.00    -0.206 F 
ATOM     75  C   UNL     1      -5.173  14.639  -0.838  1.00  0.00     0.022 A 
BRANCH  72  76
ATOM     76  S   UNL     1      -7.542  13.236  -1.273  1.00  0.00     0.124 S 
ATOM     77  O   UNL     1      -7.276  11.864  -1.700  1.00  0.00    -0.237 OA
ATOM     78  O   UNL     1      -8.572  13.400  -0.253  1.00  0.00    -0.237 OA
ATOM     79  O   UNL     1      -7.568  14.222  -2.350  1.00  0.00    -0.744 OA
ENDBRANCH  72  76
ENDBRANCH  55  69
BRANCH  56  80
ATOM     80  C   UNL     1      -1.750   6.926   8.919  1.00  0.00     0.023 A 
ATOM     81  C   UNL     1      -2.450   6.898  10.135  1.00  0.00     0.031 A 
ATOM     82  C   UNL     1      -0.560   6.179   8.832  1.00  0.00     0.131 A 
ATOM     83  C   UNL     1      -1.914   6.211  11.236  1.00  0.00     0.055 A 
ATOM     84  C   UNL     1      -0.073   5.433   9.906  1.00  0.00     0.041 A 
ATOM     85  F   UNL     1       0.157   6.171   7.697  1.00  0.00    -0.206 F 
ATOM     86  C   UNL     1      -0.739   5.466  11.126  1.00  0.00     0.022 A 
BRANCH  83  87
ATOM     87  S   UNL     1      -2.695   6.438  12.858  1.00  0.00     0.124 S 
ATOM     88  O   UNL     1      -2.696   7.891  12.983  1.00  0.00    -0.237 OA
ATOM     89  O   UNL     1      -3.996   5.810  12.657  1.00  0.00    -0.237 OA
ATOM     90  O   UNL     1      -1.796   5.733  13.769  1.00  0.00    -0.744 OA
ENDBRANCH  83  87
ENDBRANCH  56  80
BRANCH  68  91
ATOM     91  C   UNL     1      -2.788  13.802   8.377  1.00  0.00     0.023 A 
ATOM     92  C   UNL     1      -1.583  14.139   9.017  1.00  0.00     0.031 A 
ATOM     93  C   UNL     1      -3.946  14.519   8.727  1.00  0.00     0.131 A 
ATOM     94  C   UNL     1      -1.578  15.110  10.028  1.00  0.00     0.055 A 
ATOM     95  C   UNL     1      -3.919  15.538   9.679  1.00  0.00     0.041 A 
ATOM     96  F   UNL     1      -5.125  14.240   8.148  1.00  0.00    -0.206 F 
ATOM     97  C   UNL     1      -2.734  15.826  10.348  1.00  0.00     0.022 A 
BRANCH  94  98
ATOM     98  S   UNL     1      -0.065  15.337  11.001  1.00  0.00     0.124 S 
ATOM     99  O   UNL     1       0.154  13.997  11.535  1.00  0.00    -0.237 OA
ATOM    100  O   UNL     1       0.890  15.785   9.992  1.00  0.00    -0.237 OA
ATOM    101  O   UNL     1      -0.442  16.346  11.989  1.00  0.00    -0.744 OA
ENDBRANCH  94  98
ENDBRANCH  68  91
ENDBRANCH  42  43
ENDBRANCH  35  37
ENDBRANCH  34  35
ENDBRANCH  33  34
ENDBRANCH  32  33
ENDBRANCH  31  32
ENDBRANCH  30  31
ENDBRANCH   1  30
TORSDOF 24
