REMARK SMILES C[C@@H](NC(=O)N1CC[N@@H+]2CCCC[C@H]2C1)C(=O)OCCOCCOCCOCCOC(=O)c1ccc(-c2c3nc(c(-c4cc(S(=O)(=O)[O-])ccc4F)c4ccc([nH]4)c(-c4cc(S(=O)(=O)[O-])ccc4F)c4nc(c(-c5cc(S(=O)(=O)[O-])ccc5F)c5ccc2[nH]5)C=C4)C=C3)cc1
REMARK SMILES IDX 25 1 24 2 23 3 22 4 21 5 20 6 19 7 18 8 16 9 17 10 2 11 1 12
REMARK SMILES IDX 3 13 4 14 5 16 6 17 7 18 15 19 8 20 14 21 9 22 13 23 10 24
REMARK SMILES IDX 12 26 11 27 26 28 27 29 28 30 29 31 30 32 31 33 32 34 33 35
REMARK SMILES IDX 34 36 95 37 35 38 94 39 36 40 37 41 38 42 88 43 39 44 93 45
REMARK SMILES IDX 87 46 89 47 40 48 92 49 86 50 85 51 41 53 73 54 53 55 72 56
REMARK SMILES IDX 54 57 57 58 71 59 90 60 55 61 56 62 70 64 91 65 58 66 42 67
REMARK SMILES IDX 43 68 51 69 44 70 50 71 52 72 49 73 45 74 46 75 47 76 48 77
REMARK SMILES IDX 74 78 75 79 83 80 76 81 82 82 84 83 81 84 77 85 78 86 79 87
REMARK SMILES IDX 80 88 59 89 60 90 68 91 61 92 67 93 69 94 66 95 62 96 63 97
REMARK SMILES IDX 64 98 65 99
REMARK H PARENT 3 15 9 25 89 52 57 63
REMARK Flexibility Score: inf
ROOT
ATOM      1  C   UNL     1      -2.800   2.454   0.226  1.00  0.00     0.188 C 
ENDROOT
BRANCH   1   2
ATOM      2  O   UNL     1      -1.611   1.707  -0.019  1.00  0.00    -0.377 OA
BRANCH   2   3
ATOM      3  C   UNL     1      -0.840   1.963  -1.179  1.00  0.00     0.188 C 
BRANCH   3   4
ATOM      4  C   UNL     1      -1.298   1.210  -2.445  1.00  0.00     0.188 C 
BRANCH   4   5
ATOM      5  O   UNL     1      -2.669   0.845  -2.449  1.00  0.00    -0.376 OA
BRANCH   5   6
ATOM      6  C   UNL     1      -3.006  -0.419  -1.899  1.00  0.00     0.202 C 
BRANCH   6   7
ATOM      7  C   UNL     1      -2.341  -0.842  -0.594  1.00  0.00     0.261 C 
BRANCH   7   8
ATOM      8  O   UNL     1      -0.926  -0.976  -0.594  1.00  0.00    -0.462 OA
BRANCH   8   9
ATOM      9  C   UNL     1      -0.458  -2.052  -1.268  1.00  0.00     0.328 C 
ATOM     10  O   UNL     1      -0.998  -2.561  -2.243  1.00  0.00    -0.250 OA
BRANCH   9  11
ATOM     11  C   UNL     1       0.761  -2.625  -0.571  1.00  0.00     0.190 C 
ATOM     12  C   UNL     1       1.438  -1.643   0.392  1.00  0.00     0.043 C 
BRANCH  11  13
ATOM     13  N   UNL     1       0.526  -3.955   0.014  1.00  0.00    -0.325 N 
ATOM     14  C   UNL     1      -0.299  -4.266   1.048  1.00  0.00     0.318 C 
ATOM     15  H   UNL     1       1.024  -4.704  -0.388  1.00  0.00     0.166 HD
ATOM     16  O   UNL     1       0.208  -4.840   2.012  1.00  0.00    -0.249 OA
BRANCH  14  17
ATOM     17  N   UNL     1      -1.638  -3.965   0.980  1.00  0.00    -0.313 N 
ATOM     18  C   UNL     1      -2.495  -4.436  -0.118  1.00  0.00     0.183 C 
ATOM     19  C   UNL     1      -2.369  -3.907   2.246  1.00  0.00     0.186 C 
ATOM     20  C   UNL     1      -3.938  -3.824  -0.157  1.00  0.00     0.284 C 
ATOM     21  C   UNL     1      -3.521  -2.903   2.126  1.00  0.00     0.203 C 
ATOM     22  N   UNL     1      -4.510  -3.260   1.085  1.00  0.00    -0.330 N 
ATOM     23  C   UNL     1      -4.275  -2.725   3.447  1.00  0.00     0.067 C 
ATOM     24  C   UNL     1      -5.419  -2.123   0.848  1.00  0.00     0.262 C 
ATOM     25  H   UNL     1      -5.054  -4.040   1.453  1.00  0.00     0.348 HD
ATOM     26  C   UNL     1      -5.204  -1.519   3.331  1.00  0.00     0.012 C 
ATOM     27  C   UNL     1      -6.133  -1.651   2.125  1.00  0.00     0.062 C 
ENDBRANCH  14  17
ENDBRANCH  11  13
ENDBRANCH   9  11
ENDBRANCH   8   9
ENDBRANCH   7   8
ENDBRANCH   6   7
ENDBRANCH   5   6
ENDBRANCH   4   5
ENDBRANCH   3   4
ENDBRANCH   2   3
ENDBRANCH   1   2
BRANCH   1  28
ATOM     28  C   UNL     1      -3.634   3.044  -0.925  1.00  0.00     0.188 C 
BRANCH  28  29
ATOM     29  O   UNL     1      -2.858   3.678  -1.935  1.00  0.00    -0.376 OA
BRANCH  29  30
ATOM     30  C   UNL     1      -2.786   5.095  -1.892  1.00  0.00     0.202 C 
BRANCH  30  31
ATOM     31  C   UNL     1      -1.864   5.660  -0.800  1.00  0.00     0.261 C 
BRANCH  31  32
ATOM     32  O   UNL     1      -2.263   5.410   0.558  1.00  0.00    -0.460 OA
BRANCH  32  33
ATOM     33  C   UNL     1      -3.505   5.798   0.925  1.00  0.00     0.338 C 
ATOM     34  O   UNL     1      -4.304   6.417   0.243  1.00  0.00    -0.246 OA
BRANCH  33  35
ATOM     35  C   UNL     1      -3.829   5.182   2.231  1.00  0.00     0.060 A 
ATOM     36  C   UNL     1      -5.046   4.500   2.369  1.00  0.00     0.016 A 
ATOM     37  C   UNL     1      -2.954   5.292   3.316  1.00  0.00     0.016 A 
ATOM     38  C   UNL     1      -5.428   3.997   3.614  1.00  0.00     0.010 A 
ATOM     39  C   UNL     1      -3.345   4.803   4.566  1.00  0.00     0.010 A 
ATOM     40  C   UNL     1      -4.607   4.204   4.731  1.00  0.00    -0.014 A 
BRANCH  40  41
ATOM     41  C   UNL     1      -5.177   4.069   6.097  1.00  0.00     0.031 A 
ATOM     42  C   UNL     1      -5.732   5.314   6.742  1.00  0.00     0.074 A 
ATOM     43  C   UNL     1      -5.215   2.894   6.748  1.00  0.00     0.049 A 
ATOM     44  N   UNL     1      -6.212   5.490   7.945  1.00  0.00    -0.248 NA
ATOM     45  C   UNL     1      -5.736   6.528   5.909  1.00  0.00     0.031 C 
ATOM     46  C   UNL     1      -4.760   1.613   6.214  1.00  0.00     0.029 A 
ATOM     47  N   UNL     1      -5.653   2.595   8.015  1.00  0.00    -0.354 N 
ATOM     48  C   UNL     1      -6.568   6.834   8.016  1.00  0.00     0.074 A 
ATOM     49  C   UNL     1      -6.213   7.432   6.748  1.00  0.00     0.031 C 
ATOM     50  C   UNL     1      -4.928   0.666   7.154  1.00  0.00     0.029 A 
ATOM     51  C   UNL     1      -5.465   1.279   8.370  1.00  0.00     0.049 A 
ATOM     52  H   UNL     1      -6.064   3.260   8.614  1.00  0.00     0.167 HD
ATOM     53  C   UNL     1      -7.145   7.507   9.041  1.00  0.00     0.034 A 
ATOM     54  C   UNL     1      -5.674   0.655   9.549  1.00  0.00     0.034 A 
ATOM     55  C   UNL     1      -7.476   6.904  10.307  1.00  0.00     0.049 A 
ATOM     56  C   UNL     1      -6.227   1.447  10.714  1.00  0.00     0.074 A 
ATOM     57  C   UNL     1      -8.066   7.490  11.412  1.00  0.00     0.029 A 
ATOM     58  N   UNL     1      -7.229   5.580  10.643  1.00  0.00    -0.354 N 
ATOM     59  N   UNL     1      -6.566   2.716  10.768  1.00  0.00    -0.248 NA
ATOM     60  C   UNL     1      -6.431   0.720  11.974  1.00  0.00     0.031 C 
ATOM     61  C   UNL     1      -8.107   6.543  12.440  1.00  0.00     0.029 A 
ATOM     62  C   UNL     1      -7.623   5.340  11.950  1.00  0.00     0.049 A 
ATOM     63  H   UNL     1      -6.833   4.909  10.041  1.00  0.00     0.167 HD
ATOM     64  C   UNL     1      -7.054   2.926  12.057  1.00  0.00     0.074 A 
ATOM     65  C   UNL     1      -6.976   1.653  12.742  1.00  0.00     0.031 C 
ATOM     66  C   UNL     1      -7.532   4.065  12.623  1.00  0.00     0.034 A 
BRANCH  53  67
ATOM     67  C   UNL     1      -7.390   8.984   8.844  1.00  0.00     0.023 A 
ATOM     68  C   UNL     1      -8.277   9.465   7.864  1.00  0.00     0.031 A 
ATOM     69  C   UNL     1      -6.691   9.926   9.618  1.00  0.00     0.131 A 
ATOM     70  C   UNL     1      -8.384  10.845   7.634  1.00  0.00     0.055 A 
ATOM     71  C   UNL     1      -6.865  11.300   9.441  1.00  0.00     0.041 A 
ATOM     72  F   UNL     1      -5.810   9.527  10.550  1.00  0.00    -0.206 F 
ATOM     73  C   UNL     1      -7.704  11.766   8.434  1.00  0.00     0.022 A 
BRANCH  70  74
ATOM     74  S   UNL     1      -9.306  11.412   6.179  1.00  0.00     0.124 S 
ATOM     75  O   UNL     1      -8.584  10.749   5.095  1.00  0.00    -0.237 OA
ATOM     76  O   UNL     1     -10.652  10.919   6.446  1.00  0.00    -0.237 OA
ATOM     77  O   UNL     1      -9.153  12.865   6.221  1.00  0.00    -0.744 OA
ENDBRANCH  70  74
ENDBRANCH  53  67
BRANCH  54  78
ATOM     78  C   UNL     1      -5.317  -0.785   9.720  1.00  0.00     0.023 A 
ATOM     79  C   UNL     1      -6.294  -1.747  10.022  1.00  0.00     0.031 A 
ATOM     80  C   UNL     1      -3.977  -1.207   9.652  1.00  0.00     0.131 A 
ATOM     81  C   UNL     1      -5.913  -3.072  10.291  1.00  0.00     0.055 A 
ATOM     82  C   UNL     1      -3.609  -2.537   9.866  1.00  0.00     0.041 A 
ATOM     83  F   UNL     1      -3.001  -0.328   9.373  1.00  0.00    -0.206 F 
ATOM     84  C   UNL     1      -4.579  -3.476  10.202  1.00  0.00     0.022 A 
BRANCH  81  85
ATOM     85  S   UNL     1      -7.179  -4.245  10.851  1.00  0.00     0.124 S 
ATOM     86  O   UNL     1      -7.671  -3.595  12.061  1.00  0.00    -0.237 OA
ATOM     87  O   UNL     1      -8.095  -4.266   9.716  1.00  0.00    -0.237 OA
ATOM     88  O   UNL     1      -6.428  -5.480  11.066  1.00  0.00    -0.744 OA
ENDBRANCH  81  85
ENDBRANCH  54  78
BRANCH  66  89
ATOM     89  C   UNL     1      -8.059   3.971  14.037  1.00  0.00     0.023 A 
ATOM     90  C   UNL     1      -7.218   3.699  15.129  1.00  0.00     0.031 A 
ATOM     91  C   UNL     1      -9.429   4.165  14.291  1.00  0.00     0.131 A 
ATOM     92  C   UNL     1      -7.762   3.576  16.418  1.00  0.00     0.055 A 
ATOM     93  C   UNL     1      -9.955   4.103  15.582  1.00  0.00     0.041 A 
ATOM     94  F   UNL     1     -10.281   4.427  13.286  1.00  0.00    -0.206 F 
ATOM     95  C   UNL     1      -9.122   3.794  16.653  1.00  0.00     0.022 A 
BRANCH  92  96
ATOM     96  S   UNL     1      -6.684   3.037  17.773  1.00  0.00     0.124 S 
ATOM     97  O   UNL     1      -6.197   1.752  17.282  1.00  0.00    -0.237 OA
ATOM     98  O   UNL     1      -5.698   4.111  17.834  1.00  0.00    -0.237 OA
ATOM     99  O   UNL     1      -7.587   2.960  18.921  1.00  0.00    -0.744 OA
ENDBRANCH  92  96
ENDBRANCH  66  89
ENDBRANCH  40  41
ENDBRANCH  33  35
ENDBRANCH  32  33
ENDBRANCH  31  32
ENDBRANCH  30  31
ENDBRANCH  29  30
ENDBRANCH  28  29
ENDBRANCH   1  28
TORSDOF 25
