REMARK SMILES CC[C@H](C)[C@@H](NC(=O)c1csc(NC(C)=O)n1)C(=O)OCCOCCOCCOCCOC(=O)c1ccc(-c2c3nc(c(-c4cc(S(=O)(=O)[O-])ccc4F)c4ccc([nH]4)c(-c4cc(S(=O)(=O)[O-])ccc4F)c4nc(c(-c5cc(S(=O)(=O)[O-])ccc5F)c5ccc2[nH]5)C=C4)C=C3)cc1
REMARK SMILES IDX 26 1 25 2 24 3 23 4 22 5 21 6 20 7 18 8 19 9 5 10 3 11 4 12
REMARK SMILES IDX 2 13 1 14 6 15 7 16 8 18 9 19 10 20 17 21 11 22 12 23 13 24
REMARK SMILES IDX 14 25 15 27 16 28 27 29 28 30 29 31 30 32 31 33 32 34 33 35
REMARK SMILES IDX 34 36 35 37 36 38 97 39 37 40 96 41 38 42 39 43 40 44 90 45
REMARK SMILES IDX 41 46 95 47 89 48 91 49 42 50 94 51 88 52 87 53 43 55 75 56
REMARK SMILES IDX 55 57 74 58 56 59 59 60 73 61 92 62 57 63 58 64 72 66 93 67
REMARK SMILES IDX 60 68 44 69 45 70 53 71 46 72 52 73 54 74 51 75 47 76 48 77
REMARK SMILES IDX 49 78 50 79 76 80 77 81 85 82 78 83 84 84 86 85 83 86 79 87
REMARK SMILES IDX 80 88 81 89 82 90 61 91 62 92 70 93 63 94 69 95 71 96 68 97
REMARK SMILES IDX 64 98 65 99 66 100 67 101
REMARK H PARENT 6 17 13 26 91 54 59 65
REMARK Flexibility Score: inf
ROOT
ATOM      1  O   UNL     1       1.885  -3.958  -3.258  1.00  0.00    -0.377 OA
ENDROOT
BRANCH   1   2
ATOM      2  C   UNL     1       0.512  -4.079  -3.598  1.00  0.00     0.188 C 
BRANCH   2   3
ATOM      3  C   UNL     1       0.210  -4.583  -5.014  1.00  0.00     0.188 C 
BRANCH   3   4
ATOM      4  O   UNL     1       0.898  -3.939  -6.095  1.00  0.00    -0.376 OA
BRANCH   4   5
ATOM      5  C   UNL     1       2.306  -3.863  -5.971  1.00  0.00     0.202 C 
BRANCH   5   6
ATOM      6  C   UNL     1       2.927  -2.543  -5.473  1.00  0.00     0.261 C 
BRANCH   6   7
ATOM      7  O   UNL     1       2.254  -1.586  -4.629  1.00  0.00    -0.462 OA
BRANCH   7   8
ATOM      8  C   UNL     1       0.984  -1.156  -4.810  1.00  0.00     0.329 C 
ATOM      9  O   UNL     1       0.081  -1.689  -5.444  1.00  0.00    -0.250 OA
BRANCH   8  10
ATOM     10  C   UNL     1       0.756   0.191  -4.131  1.00  0.00     0.195 C 
BRANCH  10  11
ATOM     11  C   UNL     1       0.973   0.109  -2.562  1.00  0.00     0.019 C 
ATOM     12  C   UNL     1       0.673   1.442  -1.864  1.00  0.00     0.010 C 
BRANCH  11  13
ATOM     13  C   UNL     1       0.178  -1.054  -1.900  1.00  0.00     0.002 C 
ATOM     14  C   UNL     1      -0.258  -0.904  -0.444  1.00  0.00     0.004 C 
ENDBRANCH  11  13
ENDBRANCH  10  11
BRANCH  10  15
ATOM     15  N   UNL     1       1.579   1.262  -4.739  1.00  0.00    -0.337 N 
ATOM     16  C   UNL     1       1.978   1.568  -6.023  1.00  0.00     0.271 C 
ATOM     17  H   UNL     1       1.921   1.901  -4.073  1.00  0.00     0.164 HD
ATOM     18  O   UNL     1       2.342   2.733  -6.200  1.00  0.00    -0.267 OA
BRANCH  16  19
ATOM     19  C   UNL     1       2.139   0.572  -7.092  1.00  0.00     0.141 A 
ATOM     20  C   UNL     1       3.278   0.540  -7.883  1.00  0.00     0.102 A 
ATOM     21  N   UNL     1       1.204  -0.397  -7.447  1.00  0.00    -0.215 NA
ATOM     22  S   UNL     1       3.190  -0.734  -9.024  1.00  0.00    -0.104 S 
ATOM     23  C   UNL     1       1.707  -1.221  -8.345  1.00  0.00     0.190 A 
BRANCH  23  24
ATOM     24  N   UNL     1       1.133  -2.448  -8.601  1.00  0.00    -0.302 N 
ATOM     25  C   UNL     1       1.672  -3.481  -9.341  1.00  0.00     0.223 C 
ATOM     26  H   UNL     1       0.241  -2.605  -8.213  1.00  0.00     0.172 HD
ATOM     27  C   UNL     1       0.935  -4.794  -9.167  1.00  0.00     0.114 C 
ATOM     28  O   UNL     1       2.681  -3.447 -10.038  1.00  0.00    -0.275 OA
ENDBRANCH  23  24
ENDBRANCH  16  19
ENDBRANCH  10  15
ENDBRANCH   8  10
ENDBRANCH   7   8
ENDBRANCH   6   7
ENDBRANCH   5   6
ENDBRANCH   4   5
ENDBRANCH   3   4
ENDBRANCH   2   3
ENDBRANCH   1   2
BRANCH   1  29
ATOM     29  C   UNL     1       2.671  -5.114  -2.996  1.00  0.00     0.188 C 
BRANCH  29  30
ATOM     30  C   UNL     1       2.068  -6.495  -3.271  1.00  0.00     0.188 C 
BRANCH  30  31
ATOM     31  O   UNL     1       0.763  -6.645  -2.732  1.00  0.00    -0.376 OA
BRANCH  31  32
ATOM     32  C   UNL     1       0.647  -7.128  -1.398  1.00  0.00     0.202 C 
BRANCH  32  33
ATOM     33  C   UNL     1       1.318  -6.319  -0.273  1.00  0.00     0.261 C 
BRANCH  33  34
ATOM     34  O   UNL     1       2.760  -6.260  -0.234  1.00  0.00    -0.460 OA
BRANCH  34  35
ATOM     35  C   UNL     1       3.503  -7.349  -0.528  1.00  0.00     0.338 C 
ATOM     36  O   UNL     1       3.100  -8.489  -0.676  1.00  0.00    -0.246 OA
BRANCH  35  37
ATOM     37  C   UNL     1       4.861  -6.883  -0.903  1.00  0.00     0.060 A 
ATOM     38  C   UNL     1       5.413  -7.309  -2.121  1.00  0.00     0.016 A 
ATOM     39  C   UNL     1       5.583  -6.022  -0.072  1.00  0.00     0.016 A 
ATOM     40  C   UNL     1       6.702  -6.917  -2.487  1.00  0.00     0.010 A 
ATOM     41  C   UNL     1       6.886  -5.655  -0.423  1.00  0.00     0.010 A 
ATOM     42  C   UNL     1       7.467  -6.136  -1.611  1.00  0.00    -0.014 A 
BRANCH  42  43
ATOM     43  C   UNL     1       8.942  -6.079  -1.787  1.00  0.00     0.031 A 
ATOM     44  C   UNL     1       9.763  -7.112  -1.058  1.00  0.00     0.074 A 
ATOM     45  C   UNL     1       9.540  -5.170  -2.576  1.00  0.00     0.049 A 
ATOM     46  N   UNL     1      11.061  -7.251  -0.988  1.00  0.00    -0.248 NA
ATOM     47  C   UNL     1       9.007  -8.124  -0.303  1.00  0.00     0.031 C 
ATOM     48  C   UNL     1       8.854  -4.163  -3.383  1.00  0.00     0.029 A 
ATOM     49  N   UNL     1      10.873  -4.946  -2.823  1.00  0.00    -0.354 N 
ATOM     50  C   UNL     1      11.276  -8.361  -0.176  1.00  0.00     0.074 A 
ATOM     51  C   UNL     1       9.977  -8.834   0.248  1.00  0.00     0.031 C 
ATOM     52  C   UNL     1       9.773  -3.422  -4.028  1.00  0.00     0.029 A 
ATOM     53  C   UNL     1      11.113  -3.873  -3.650  1.00  0.00     0.049 A 
ATOM     54  H   UNL     1      11.591  -5.503  -2.443  1.00  0.00     0.167 HD
ATOM     55  C   UNL     1      12.450  -8.937   0.181  1.00  0.00     0.034 A 
ATOM     56  C   UNL     1      12.278  -3.308  -4.030  1.00  0.00     0.034 A 
ATOM     57  C   UNL     1      13.738  -8.442  -0.232  1.00  0.00     0.049 A 
ATOM     58  C   UNL     1      13.579  -3.901  -3.531  1.00  0.00     0.074 A 
ATOM     59  C   UNL     1      14.991  -8.947   0.068  1.00  0.00     0.029 A 
ATOM     60  N   UNL     1      13.941  -7.317  -1.020  1.00  0.00    -0.354 N 
ATOM     61  N   UNL     1      13.771  -4.951  -2.764  1.00  0.00    -0.248 NA
ATOM     62  C   UNL     1      14.819  -3.234  -3.953  1.00  0.00     0.031 C 
ATOM     63  C   UNL     1      15.950  -8.084  -0.471  1.00  0.00     0.029 A 
ATOM     64  C   UNL     1      15.299  -7.090  -1.184  1.00  0.00     0.049 A 
ATOM     65  H   UNL     1      13.226  -6.762  -1.406  1.00  0.00     0.167 HD
ATOM     66  C   UNL     1      15.154  -5.089  -2.646  1.00  0.00     0.074 A 
ATOM     67  C   UNL     1      15.744  -4.022  -3.427  1.00  0.00     0.031 C 
ATOM     68  C   UNL     1      15.873  -6.016  -1.962  1.00  0.00     0.034 A 
BRANCH  55  69
ATOM     69  C   UNL     1      12.381 -10.119   1.117  1.00  0.00     0.023 A 
ATOM     70  C   UNL     1      11.759 -11.325   0.747  1.00  0.00     0.031 A 
ATOM     71  C   UNL     1      12.903 -10.020   2.419  1.00  0.00     0.131 A 
ATOM     72  C   UNL     1      11.608 -12.352   1.691  1.00  0.00     0.055 A 
ATOM     73  C   UNL     1      12.825 -11.078   3.326  1.00  0.00     0.041 A 
ATOM     74  F   UNL     1      13.482  -8.884   2.838  1.00  0.00    -0.206 F 
ATOM     75  C   UNL     1      12.160 -12.247   2.970  1.00  0.00     0.022 A 
BRANCH  72  76
ATOM     76  S   UNL     1      10.545 -13.762   1.275  1.00  0.00     0.124 S 
ATOM     77  O   UNL     1       9.272 -13.100   0.998  1.00  0.00    -0.237 OA
ATOM     78  O   UNL     1      11.226 -14.343   0.125  1.00  0.00    -0.237 OA
ATOM     79  O   UNL     1      10.563 -14.575   2.490  1.00  0.00    -0.744 OA
ENDBRANCH  72  76
ENDBRANCH  55  69
BRANCH  56  80
ATOM     80  C   UNL     1      12.291  -2.087  -4.891  1.00  0.00     0.023 A 
ATOM     81  C   UNL     1      12.897  -2.095  -6.159  1.00  0.00     0.031 A 
ATOM     82  C   UNL     1      11.764  -0.869  -4.424  1.00  0.00     0.131 A 
ATOM     83  C   UNL     1      13.006  -0.901  -6.892  1.00  0.00     0.055 A 
ATOM     84  C   UNL     1      11.824   0.303  -5.182  1.00  0.00     0.041 A 
ATOM     85  F   UNL     1      11.183  -0.799  -3.216  1.00  0.00    -0.206 F 
ATOM     86  C   UNL     1      12.460   0.294  -6.419  1.00  0.00     0.022 A 
BRANCH  83  87
ATOM     87  S   UNL     1      13.960  -0.912  -8.435  1.00  0.00     0.124 S 
ATOM     88  O   UNL     1      15.269  -1.357  -7.970  1.00  0.00    -0.237 OA
ATOM     89  O   UNL     1      13.210  -1.863  -9.248  1.00  0.00    -0.237 OA
ATOM     90  O   UNL     1      13.896   0.477  -8.885  1.00  0.00    -0.744 OA
ENDBRANCH  83  87
ENDBRANCH  56  80
BRANCH  68  91
ATOM     91  C   UNL     1      17.378  -5.950  -2.074  1.00  0.00     0.023 A 
ATOM     92  C   UNL     1      18.119  -4.879  -1.545  1.00  0.00     0.031 A 
ATOM     93  C   UNL     1      18.081  -6.983  -2.721  1.00  0.00     0.131 A 
ATOM     94  C   UNL     1      19.511  -4.839  -1.719  1.00  0.00     0.055 A 
ATOM     95  C   UNL     1      19.472  -6.969  -2.835  1.00  0.00     0.041 A 
ATOM     96  F   UNL     1      17.426  -8.031  -3.247  1.00  0.00    -0.206 F 
ATOM     97  C   UNL     1      20.194  -5.886  -2.344  1.00  0.00     0.022 A 
BRANCH  94  98
ATOM     98  S   UNL     1      20.413  -3.353  -1.199  1.00  0.00     0.124 S 
ATOM     99  O   UNL     1      19.754  -2.310  -1.978  1.00  0.00    -0.237 OA
ATOM    100  O   UNL     1      20.166  -3.326   0.239  1.00  0.00    -0.237 OA
ATOM    101  O   UNL     1      21.794  -3.637  -1.585  1.00  0.00    -0.744 OA
ENDBRANCH  94  98
ENDBRANCH  68  91
ENDBRANCH  42  43
ENDBRANCH  35  37
ENDBRANCH  34  35
ENDBRANCH  33  34
ENDBRANCH  32  33
ENDBRANCH  31  32
ENDBRANCH  30  31
ENDBRANCH  29  30
ENDBRANCH   1  29
TORSDOF 28
