REMARK SMILES CC(C)Cc1ccc([C@H](CC(=O)OCCOCCOCCOCCOC(=O)c2ccc(-c3c4nc(c(-c5cc(S(=O)(=O)[O-])ccc5F)c5ccc([nH]5)c(-c5cc(S(=O)(=O)[O-])ccc5F)c5nc(c(-c6cc(S(=O)(=O)[O-])ccc6F)c6ccc3[nH]6)C=C5)C=C4)cc2)C(F)(F)F)cc1
REMARK SMILES IDX 18 1 17 2 16 3 15 4 14 5 13 6 11 7 12 8 10 9 9 10 8 11 5 12
REMARK SMILES IDX 6 13 96 14 7 15 95 16 4 17 2 18 1 19 3 20 91 21 92 22 93 23
REMARK SMILES IDX 94 24 19 25 20 26 21 27 22 28 23 29 24 30 25 31 26 32 27 33
REMARK SMILES IDX 28 34 29 35 90 36 30 37 89 38 31 39 32 40 33 41 83 42 34 43
REMARK SMILES IDX 88 44 82 45 84 46 35 47 87 48 81 49 80 50 36 52 68 53 48 54
REMARK SMILES IDX 67 55 49 56 52 57 66 58 85 59 50 60 51 61 65 63 86 64 53 65
REMARK SMILES IDX 37 66 38 67 46 68 39 69 45 70 47 71 44 72 40 73 41 74 42 75
REMARK SMILES IDX 43 76 69 77 70 78 78 79 71 80 77 81 79 82 76 83 72 84 73 85
REMARK SMILES IDX 74 86 75 87 54 88 55 89 63 90 56 91 62 92 64 93 61 94 57 95
REMARK SMILES IDX 58 96 59 97 60 98
REMARK H PARENT 84 51 52 62
REMARK Flexibility Score: inf
ROOT
ATOM      1  C   UNL     1      -0.522  -5.427  -1.167  1.00  0.00     0.188 C 
ENDROOT
BRANCH   1   2
ATOM      2  C   UNL     1      -0.034  -4.663   0.072  1.00  0.00     0.188 C 
BRANCH   2   3
ATOM      3  O   UNL     1      -0.301  -5.141   1.382  1.00  0.00    -0.376 OA
BRANCH   3   4
ATOM      4  C   UNL     1      -1.625  -5.483   1.782  1.00  0.00     0.202 C 
BRANCH   4   5
ATOM      5  C   UNL     1      -2.829  -4.595   1.423  1.00  0.00     0.261 C 
BRANCH   5   6
ATOM      6  O   UNL     1      -2.879  -4.213   0.040  1.00  0.00    -0.463 OA
BRANCH   6   7
ATOM      7  C   UNL     1      -2.955  -2.894  -0.237  1.00  0.00     0.306 C 
ATOM      8  O   UNL     1      -3.103  -2.005   0.593  1.00  0.00    -0.252 OA
BRANCH   7   9
ATOM      9  C   UNL     1      -2.640  -2.587  -1.683  1.00  0.00     0.140 C 
BRANCH   9  10
ATOM     10  C   UNL     1      -3.078  -3.613  -2.743  1.00  0.00     0.136 C 
BRANCH  10  11
ATOM     11  C   UNL     1      -4.567  -3.847  -2.869  1.00  0.00    -0.035 A 
ATOM     12  C   UNL     1      -7.296  -4.305  -3.301  1.00  0.00    -0.048 A 
ATOM     13  C   UNL     1      -6.362  -5.257  -3.711  1.00  0.00     0.004 A 
ATOM     14  C   UNL     1      -6.865  -3.176  -2.595  1.00  0.00     0.004 A 
ATOM     15  C   UNL     1      -5.008  -5.030  -3.491  1.00  0.00     0.004 A 
ATOM     16  C   UNL     1      -5.513  -2.935  -2.401  1.00  0.00     0.004 A 
BRANCH  12  17
ATOM     17  C   UNL     1      -8.743  -4.419  -3.705  1.00  0.00     0.038 C 
BRANCH  17  18
ATOM     18  C   UNL     1      -9.148  -3.245  -4.625  1.00  0.00    -0.013 C 
ATOM     19  C   UNL     1      -8.411  -3.288  -5.968  1.00  0.00     0.008 C 
ATOM     20  C   UNL     1     -10.657  -3.238  -4.840  1.00  0.00     0.008 C 
ENDBRANCH  17  18
ENDBRANCH  12  17
ENDBRANCH  10  11
BRANCH  10  21
ATOM     21  C   UNL     1      -2.443  -3.205  -4.076  1.00  0.00     0.396 C 
ATOM     22  F   UNL     1      -1.090  -3.162  -3.959  1.00  0.00    -0.170 F 
ATOM     23  F   UNL     1      -2.712  -4.068  -5.079  1.00  0.00    -0.170 F 
ATOM     24  F   UNL     1      -2.840  -1.973  -4.468  1.00  0.00    -0.170 F 
ENDBRANCH  10  21
ENDBRANCH   9  10
ENDBRANCH   7   9
ENDBRANCH   6   7
ENDBRANCH   5   6
ENDBRANCH   4   5
ENDBRANCH   3   4
ENDBRANCH   2   3
ENDBRANCH   1   2
BRANCH   1  25
ATOM     25  O   UNL     1      -1.616  -6.294  -0.953  1.00  0.00    -0.377 OA
BRANCH  25  26
ATOM     26  C   UNL     1      -1.339  -7.674  -0.728  1.00  0.00     0.188 C 
BRANCH  26  27
ATOM     27  C   UNL     1       0.034  -8.074  -0.152  1.00  0.00     0.188 C 
BRANCH  27  28
ATOM     28  O   UNL     1       1.148  -7.476  -0.801  1.00  0.00    -0.376 OA
BRANCH  28  29
ATOM     29  C   UNL     1       1.751  -8.144  -1.902  1.00  0.00     0.202 C 
BRANCH  29  30
ATOM     30  C   UNL     1       0.897  -8.434  -3.152  1.00  0.00     0.261 C 
BRANCH  30  31
ATOM     31  O   UNL     1      -0.238  -9.299  -2.978  1.00  0.00    -0.460 OA
BRANCH  31  32
ATOM     32  C   UNL     1      -0.021 -10.500  -2.398  1.00  0.00     0.338 C 
ATOM     33  O   UNL     1       1.053 -10.976  -2.096  1.00  0.00    -0.246 OA
BRANCH  32  34
ATOM     34  C   UNL     1      -1.327 -11.060  -1.987  1.00  0.00     0.060 A 
ATOM     35  C   UNL     1      -1.501 -11.405  -0.641  1.00  0.00     0.016 A 
ATOM     36  C   UNL     1      -2.347 -11.291  -2.914  1.00  0.00     0.016 A 
ATOM     37  C   UNL     1      -2.663 -12.055  -0.232  1.00  0.00     0.010 A 
ATOM     38  C   UNL     1      -3.506 -11.963  -2.506  1.00  0.00     0.010 A 
ATOM     39  C   UNL     1      -3.639 -12.399  -1.175  1.00  0.00    -0.014 A 
BRANCH  39  40
ATOM     40  C   UNL     1      -4.638 -13.434  -0.803  1.00  0.00     0.031 A 
ATOM     41  C   UNL     1      -4.370 -14.859  -1.220  1.00  0.00     0.074 A 
ATOM     42  C   UNL     1      -5.699 -13.143  -0.028  1.00  0.00     0.049 A 
ATOM     43  N   UNL     1      -5.058 -15.944  -0.975  1.00  0.00    -0.248 NA
ATOM     44  C   UNL     1      -3.156 -15.088  -2.021  1.00  0.00     0.031 C 
ATOM     45  C   UNL     1      -6.031 -11.814   0.483  1.00  0.00     0.029 A 
ATOM     46  N   UNL     1      -6.685 -13.954   0.476  1.00  0.00    -0.354 N 
ATOM     47  C   UNL     1      -4.363 -16.980  -1.592  1.00  0.00     0.074 A 
ATOM     48  C   UNL     1      -3.227 -16.387  -2.261  1.00  0.00     0.031 C 
ATOM     49  C   UNL     1      -7.146 -11.902   1.230  1.00  0.00     0.029 A 
ATOM     50  C   UNL     1      -7.624 -13.284   1.225  1.00  0.00     0.049 A 
ATOM     51  H   UNL     1      -6.718 -14.924   0.315  1.00  0.00     0.167 HD
ATOM     52  C   UNL     1      -4.638 -18.308  -1.590  1.00  0.00     0.034 A 
ATOM     53  C   UNL     1      -8.747 -13.734   1.822  1.00  0.00     0.034 A 
ATOM     54  C   UNL     1      -5.778 -18.886  -0.923  1.00  0.00     0.049 A 
ATOM     55  C   UNL     1      -9.076 -15.209   1.742  1.00  0.00     0.074 A 
ATOM     56  C   UNL     1      -6.148 -20.218  -0.849  1.00  0.00     0.029 A 
ATOM     57  N   UNL     1      -6.741 -18.169  -0.223  1.00  0.00    -0.354 N 
ATOM     58  N   UNL     1      -8.404 -16.180   1.165  1.00  0.00    -0.248 NA
ATOM     59  C   UNL     1     -10.308 -15.647   2.410  1.00  0.00     0.031 C 
ATOM     60  C   UNL     1      -7.374 -20.296  -0.181  1.00  0.00     0.029 A 
ATOM     61  C   UNL     1      -7.722 -19.026   0.251  1.00  0.00     0.049 A 
ATOM     62  H   UNL     1      -6.728 -17.194  -0.085  1.00  0.00     0.167 HD
ATOM     63  C   UNL     1      -9.116 -17.348   1.435  1.00  0.00     0.074 A 
ATOM     64  C   UNL     1     -10.250 -16.960   2.247  1.00  0.00     0.031 C 
ATOM     65  C   UNL     1      -8.858 -18.625   1.050  1.00  0.00     0.034 A 
BRANCH  52  66
ATOM     66  C   UNL     1      -3.721 -19.210  -2.381  1.00  0.00     0.023 A 
ATOM     67  C   UNL     1      -2.364 -19.372  -2.050  1.00  0.00     0.031 A 
ATOM     68  C   UNL     1      -4.211 -19.904  -3.503  1.00  0.00     0.131 A 
ATOM     69  C   UNL     1      -1.532 -20.153  -2.868  1.00  0.00     0.055 A 
ATOM     70  C   UNL     1      -3.397 -20.745  -4.263  1.00  0.00     0.041 A 
ATOM     71  F   UNL     1      -5.490 -19.766  -3.886  1.00  0.00    -0.206 F 
ATOM     72  C   UNL     1      -2.046 -20.863  -3.955  1.00  0.00     0.022 A 
BRANCH  69  73
ATOM     73  S   UNL     1       0.258 -20.114  -2.576  1.00  0.00     0.124 S 
ATOM     74  O   UNL     1       0.551 -18.691  -2.734  1.00  0.00    -0.237 OA
ATOM     75  O   UNL     1       0.369 -20.643  -1.222  1.00  0.00    -0.237 OA
ATOM     76  O   UNL     1       0.796 -20.973  -3.629  1.00  0.00    -0.744 OA
ENDBRANCH  69  73
ENDBRANCH  52  66
BRANCH  53  77
ATOM     77  C   UNL     1      -9.674 -12.790   2.516  1.00  0.00     0.023 A 
ATOM     78  C   UNL     1      -9.973 -12.926   3.882  1.00  0.00     0.031 A 
ATOM     79  C   UNL     1     -10.345 -11.785   1.795  1.00  0.00     0.131 A 
ATOM     80  C   UNL     1     -10.959 -12.115   4.468  1.00  0.00     0.055 A 
ATOM     81  C   UNL     1     -11.276 -10.938   2.398  1.00  0.00     0.041 A 
ATOM     82  F   UNL     1     -10.105 -11.614   0.485  1.00  0.00    -0.206 F 
ATOM     83  C   UNL     1     -11.601 -11.112   3.739  1.00  0.00     0.022 A 
BRANCH  80  84
ATOM     84  S   UNL     1     -11.475 -12.466   6.172  1.00  0.00     0.124 S 
ATOM     85  O   UNL     1     -11.902 -13.856   6.072  1.00  0.00    -0.237 OA
ATOM     86  O   UNL     1     -10.243 -12.224   6.916  1.00  0.00    -0.237 OA
ATOM     87  O   UNL     1     -12.543 -11.498   6.410  1.00  0.00    -0.744 OA
ENDBRANCH  80  84
ENDBRANCH  53  77
BRANCH  65  88
ATOM     88  C   UNL     1      -9.800 -19.699   1.550  1.00  0.00     0.023 A 
ATOM     89  C   UNL     1     -11.162 -19.711   1.203  1.00  0.00     0.031 A 
ATOM     90  C   UNL     1      -9.335 -20.702   2.420  1.00  0.00     0.131 A 
ATOM     91  C   UNL     1     -12.027 -20.646   1.793  1.00  0.00     0.055 A 
ATOM     92  C   UNL     1     -10.185 -21.681   2.937  1.00  0.00     0.041 A 
ATOM     93  F   UNL     1      -8.045 -20.744   2.791  1.00  0.00    -0.206 F 
ATOM     94  C   UNL     1     -11.544 -21.644   2.642  1.00  0.00     0.022 A 
BRANCH  91  95
ATOM     95  S   UNL     1     -13.814 -20.446   1.552  1.00  0.00     0.124 S 
ATOM     96  O   UNL     1     -14.029 -19.077   2.009  1.00  0.00    -0.237 OA
ATOM     97  O   UNL     1     -13.962 -20.670   0.118  1.00  0.00    -0.237 OA
ATOM     98  O   UNL     1     -14.393 -21.483   2.405  1.00  0.00    -0.744 OA
ENDBRANCH  91  95
ENDBRANCH  65  88
ENDBRANCH  39  40
ENDBRANCH  32  34
ENDBRANCH  31  32
ENDBRANCH  30  31
ENDBRANCH  29  30
ENDBRANCH  28  29
ENDBRANCH  27  28
ENDBRANCH  26  27
ENDBRANCH  25  26
ENDBRANCH   1  25
TORSDOF 28
