REMARK SMILES Cc1cscc1CNC(=O)CC(C)(C)C(=O)OCCOCCOCCOCCOC(=O)c1ccc(-c2c3nc(c(-c4cc(S(=O)(=O)[O-])ccc4F)c4ccc([nH]4)c(-c4cc(S(=O)(=O)[O-])ccc4F)c4nc(c(-c5cc(S(=O)(=O)[O-])ccc5F)c5ccc2[nH]5)C=C4)C=C3)cc1
REMARK SMILES IDX 22 1 21 2 20 3 19 4 18 5 17 6 15 7 16 8 12 9 13 10 14 11
REMARK SMILES IDX 11 12 9 13 8 14 10 16 7 17 6 18 1 19 2 20 3 21 4 22 5 23
REMARK SMILES IDX 23 24 24 25 25 26 26 27 27 28 28 29 29 30 30 31 31 32 32 33
REMARK SMILES IDX 33 34 94 35 34 36 93 37 35 38 36 39 37 40 87 41 38 42 92 43
REMARK SMILES IDX 86 44 88 45 39 46 91 47 85 48 84 49 40 51 72 52 52 53 71 54
REMARK SMILES IDX 53 55 56 56 70 57 89 58 54 59 55 60 69 62 90 63 57 64 41 65
REMARK SMILES IDX 42 66 50 67 43 68 49 69 51 70 48 71 44 72 45 73 46 74 47 75
REMARK SMILES IDX 73 76 74 77 82 78 75 79 81 80 83 81 80 82 76 83 77 84 78 85
REMARK SMILES IDX 79 86 58 87 59 88 67 89 60 90 66 91 68 92 65 93 61 94 62 95
REMARK SMILES IDX 63 96 64 97
REMARK H PARENT 8 15 88 50 56 61
REMARK Flexibility Score: inf
ROOT
ATOM      1  C   UNL     1      -2.968   6.423   0.764  1.00  0.00     0.188 C 
ENDROOT
BRANCH   1   2
ATOM      2  C   UNL     1      -3.056   6.140  -0.735  1.00  0.00     0.188 C 
BRANCH   2   3
ATOM      3  O   UNL     1      -4.187   5.490  -1.262  1.00  0.00    -0.376 OA
BRANCH   3   4
ATOM      4  C   UNL     1      -4.606   4.186  -0.907  1.00  0.00     0.202 C 
BRANCH   4   5
ATOM      5  C   UNL     1      -3.837   3.086  -0.138  1.00  0.00     0.261 C 
BRANCH   5   6
ATOM      6  O   UNL     1      -2.866   3.435   0.860  1.00  0.00    -0.463 OA
BRANCH   6   7
ATOM      7  C   UNL     1      -1.618   3.560   0.360  1.00  0.00     0.312 C 
ATOM      8  O   UNL     1      -1.408   3.429  -0.839  1.00  0.00    -0.252 OA
BRANCH   7   9
ATOM      9  C   UNL     1      -0.499   3.790   1.402  1.00  0.00     0.071 C 
ATOM     10  C   UNL     1      -0.140   2.410   1.975  1.00  0.00     0.024 C 
ATOM     11  C   UNL     1      -0.874   4.614   2.662  1.00  0.00     0.024 C 
BRANCH   9  12
ATOM     12  C   UNL     1       0.723   4.492   0.719  1.00  0.00     0.118 C 
BRANCH  12  13
ATOM     13  C   UNL     1       0.935   4.344  -0.790  1.00  0.00     0.221 C 
ATOM     14  N   UNL     1       1.330   3.163  -1.337  1.00  0.00    -0.352 N 
ATOM     15  H   UNL     1       1.187   3.076  -2.307  1.00  0.00     0.163 HD
ATOM     16  O   UNL     1       0.760   5.309  -1.540  1.00  0.00    -0.275 OA
BRANCH  14  17
ATOM     17  C   UNL     1       1.928   2.025  -0.697  1.00  0.00     0.152 C 
BRANCH  17  18
ATOM     18  C   UNL     1       1.105   0.765  -0.783  1.00  0.00    -0.015 A 
ATOM     19  C   UNL     1       3.016  -0.746   0.120  1.00  0.00     0.045 C 
ATOM     20  C   UNL     1       1.609  -0.513  -0.318  1.00  0.00    -0.035 A 
ATOM     21  C   UNL     1       0.621  -1.480  -0.301  1.00  0.00     0.068 A 
ATOM     22  S   UNL     1      -0.859  -0.919  -0.931  1.00  0.00    -0.152 S 
ATOM     23  C   UNL     1      -0.196   0.626  -1.234  1.00  0.00     0.070 A 
ENDBRANCH  17  18
ENDBRANCH  14  17
ENDBRANCH  12  13
ENDBRANCH   9  12
ENDBRANCH   7   9
ENDBRANCH   6   7
ENDBRANCH   5   6
ENDBRANCH   4   5
ENDBRANCH   3   4
ENDBRANCH   2   3
ENDBRANCH   1   2
BRANCH   1  24
ATOM     24  O   UNL     1      -3.804   5.684   1.625  1.00  0.00    -0.377 OA
BRANCH  24  25
ATOM     25  C   UNL     1      -5.186   6.002   1.710  1.00  0.00     0.188 C 
BRANCH  25  26
ATOM     26  C   UNL     1      -5.789   7.107   0.823  1.00  0.00     0.188 C 
BRANCH  26  27
ATOM     27  O   UNL     1      -4.919   8.192   0.548  1.00  0.00    -0.376 OA
BRANCH  27  28
ATOM     28  C   UNL     1      -4.947   9.328   1.399  1.00  0.00     0.202 C 
BRANCH  28  29
ATOM     29  C   UNL     1      -4.618   9.138   2.890  1.00  0.00     0.261 C 
BRANCH  29  30
ATOM     30  O   UNL     1      -5.471   8.259   3.640  1.00  0.00    -0.460 OA
BRANCH  30  31
ATOM     31  C   UNL     1      -6.800   8.486   3.605  1.00  0.00     0.338 C 
ATOM     32  O   UNL     1      -7.367   9.420   3.061  1.00  0.00    -0.246 OA
BRANCH  31  33
ATOM     33  C   UNL     1      -7.482   7.299   4.160  1.00  0.00     0.060 A 
ATOM     34  C   UNL     1      -8.418   6.625   3.365  1.00  0.00     0.016 A 
ATOM     35  C   UNL     1      -7.212   6.863   5.459  1.00  0.00     0.016 A 
ATOM     36  C   UNL     1      -9.138   5.554   3.890  1.00  0.00     0.010 A 
ATOM     37  C   UNL     1      -7.950   5.803   5.993  1.00  0.00     0.010 A 
ATOM     38  C   UNL     1      -8.953   5.182   5.227  1.00  0.00    -0.014 A 
BRANCH  38  39
ATOM     39  C   UNL     1      -9.990   4.355   5.893  1.00  0.00     0.031 A 
ATOM     40  C   UNL     1     -11.050   5.071   6.690  1.00  0.00     0.074 A 
ATOM     41  C   UNL     1     -10.035   3.019   5.751  1.00  0.00     0.049 A 
ATOM     42  N   UNL     1     -12.044   4.586   7.387  1.00  0.00    -0.248 NA
ATOM     43  C   UNL     1     -10.965   6.540   6.702  1.00  0.00     0.031 C 
ATOM     44  C   UNL     1      -9.111   2.223   4.947  1.00  0.00     0.029 A 
ATOM     45  N   UNL     1     -10.904   2.098   6.280  1.00  0.00    -0.354 N 
ATOM     46  C   UNL     1     -12.702   5.690   7.922  1.00  0.00     0.074 A 
ATOM     47  C   UNL     1     -11.957   6.861   7.515  1.00  0.00     0.031 C 
ATOM     48  C   UNL     1      -9.468   0.929   5.031  1.00  0.00     0.029 A 
ATOM     49  C   UNL     1     -10.616   0.801   5.928  1.00  0.00     0.049 A 
ATOM     50  H   UNL     1     -11.663   2.343   6.857  1.00  0.00     0.167 HD
ATOM     51  C   UNL     1     -13.833   5.727   8.669  1.00  0.00     0.034 A 
ATOM     52  C   UNL     1     -11.204  -0.353   6.305  1.00  0.00     0.034 A 
ATOM     53  C   UNL     1     -14.550   4.547   9.084  1.00  0.00     0.049 A 
ATOM     54  C   UNL     1     -12.388  -0.300   7.244  1.00  0.00     0.074 A 
ATOM     55  C   UNL     1     -15.696   4.459   9.854  1.00  0.00     0.029 A 
ATOM     56  N   UNL     1     -14.182   3.243   8.773  1.00  0.00    -0.354 N 
ATOM     57  N   UNL     1     -12.994   0.746   7.758  1.00  0.00    -0.248 NA
ATOM     58  C   UNL     1     -12.971  -1.587   7.645  1.00  0.00     0.031 C 
ATOM     59  C   UNL     1     -15.971   3.106  10.078  1.00  0.00     0.029 A 
ATOM     60  C   UNL     1     -15.058   2.346   9.365  1.00  0.00     0.049 A 
ATOM     61  H   UNL     1     -13.412   2.993   8.213  1.00  0.00     0.167 HD
ATOM     62  C   UNL     1     -14.060   0.241   8.503  1.00  0.00     0.074 A 
ATOM     63  C   UNL     1     -14.013  -1.200   8.365  1.00  0.00     0.031 C 
ATOM     64  C   UNL     1     -14.999   0.908   9.224  1.00  0.00     0.034 A 
BRANCH  51  65
ATOM     65  C   UNL     1     -14.310   7.086   9.127  1.00  0.00     0.023 A 
ATOM     66  C   UNL     1     -14.671   8.091   8.212  1.00  0.00     0.031 A 
ATOM     67  C   UNL     1     -14.337   7.407  10.496  1.00  0.00     0.131 A 
ATOM     68  C   UNL     1     -14.944   9.390   8.668  1.00  0.00     0.055 A 
ATOM     69  C   UNL     1     -14.708   8.674  10.949  1.00  0.00     0.041 A 
ATOM     70  F   UNL     1     -13.977   6.500  11.418  1.00  0.00    -0.206 F 
ATOM     71  C   UNL     1     -14.993   9.681  10.032  1.00  0.00     0.022 A 
BRANCH  68  72
ATOM     72  S   UNL     1     -15.040  10.731   7.449  1.00  0.00     0.124 S 
ATOM     73  O   UNL     1     -13.739  10.625   6.792  1.00  0.00    -0.237 OA
ATOM     74  O   UNL     1     -16.195  10.346   6.647  1.00  0.00    -0.237 OA
ATOM     75  O   UNL     1     -15.219  11.927   8.270  1.00  0.00    -0.744 OA
ENDBRANCH  68  72
ENDBRANCH  51  65
BRANCH  52  76
ATOM     76  C   UNL     1     -10.683  -1.665   5.819  1.00  0.00     0.023 A 
ATOM     77  C   UNL     1     -11.485  -2.517   5.043  1.00  0.00     0.031 A 
ATOM     78  C   UNL     1      -9.399  -2.115   6.176  1.00  0.00     0.131 A 
ATOM     79  C   UNL     1     -11.016  -3.793   4.691  1.00  0.00     0.055 A 
ATOM     80  C   UNL     1      -8.914  -3.360   5.772  1.00  0.00     0.041 A 
ATOM     81  F   UNL     1      -8.593  -1.344   6.923  1.00  0.00    -0.206 F 
ATOM     82  C   UNL     1      -9.730  -4.213   5.036  1.00  0.00     0.022 A 
BRANCH  79  83
ATOM     83  S   UNL     1     -12.151  -4.935   3.855  1.00  0.00     0.124 S 
ATOM     84  O   UNL     1     -13.235  -5.037   4.825  1.00  0.00    -0.237 OA
ATOM     85  O   UNL     1     -12.455  -4.212   2.624  1.00  0.00    -0.237 OA
ATOM     86  O   UNL     1     -11.349  -6.144   3.683  1.00  0.00    -0.744 OA
ENDBRANCH  79  83
ENDBRANCH  52  76
BRANCH  64  87
ATOM     87  C   UNL     1     -16.096   0.086   9.863  1.00  0.00     0.023 A 
ATOM     88  C   UNL     1     -15.835  -0.855  10.874  1.00  0.00     0.031 A 
ATOM     89  C   UNL     1     -17.429   0.243   9.438  1.00  0.00     0.131 A 
ATOM     90  C   UNL     1     -16.878  -1.649  11.378  1.00  0.00     0.055 A 
ATOM     91  C   UNL     1     -18.473  -0.496   9.996  1.00  0.00     0.041 A 
ATOM     92  F   UNL     1     -17.740   1.123   8.473  1.00  0.00    -0.206 F 
ATOM     93  C   UNL     1     -18.198  -1.460  10.960  1.00  0.00     0.022 A 
BRANCH  90  94
ATOM     94  S   UNL     1     -16.470  -3.013  12.502  1.00  0.00     0.124 S 
ATOM     95  O   UNL     1     -15.519  -3.785  11.709  1.00  0.00    -0.237 OA
ATOM     96  O   UNL     1     -15.917  -2.312  13.656  1.00  0.00    -0.237 OA
ATOM     97  O   UNL     1     -17.759  -3.664  12.732  1.00  0.00    -0.744 OA
ENDBRANCH  90  94
ENDBRANCH  64  87
ENDBRANCH  38  39
ENDBRANCH  31  33
ENDBRANCH  30  31
ENDBRANCH  29  30
ENDBRANCH  28  29
ENDBRANCH  27  28
ENDBRANCH  26  27
ENDBRANCH  25  26
ENDBRANCH  24  25
ENDBRANCH   1  24
TORSDOF 27
