REMARK SMILES CC(C)(C)[C@H](CCC(=O)OCCOCCOCCOCCOC(=O)c1ccc(-c2c3nc(c(-c4cc(S(=O)(=O)[O-])ccc4F)c4ccc([nH]4)c(-c4cc(S(=O)(=O)[O-])ccc4F)c4nc(c(-c5cc(S(=O)(=O)[O-])ccc5F)c5ccc2[nH]5)C=C4)C=C3)cc1)CC[NH+]1CCOCC1
REMARK SMILES IDX 15 1 14 2 13 3 12 4 11 5 10 6 8 7 9 8 7 9 6 10 5 11 2 12
REMARK SMILES IDX 1 13 3 14 4 15 88 16 89 17 90 18 91 19 95 20 92 22 94 23
REMARK SMILES IDX 93 24 16 25 17 26 18 27 19 28 20 29 21 30 22 31 23 32 24 33
REMARK SMILES IDX 25 34 26 35 87 36 27 37 86 38 28 39 29 40 30 41 80 42 31 43
REMARK SMILES IDX 85 44 79 45 81 46 32 47 84 48 78 49 77 50 33 52 65 53 45 54
REMARK SMILES IDX 64 55 46 56 49 57 63 58 82 59 47 60 48 61 62 63 83 64 50 65
REMARK SMILES IDX 34 66 35 67 43 68 36 69 42 70 44 71 41 72 37 73 38 74 39 75
REMARK SMILES IDX 40 76 66 77 67 78 75 79 68 80 74 81 76 82 73 83 69 84 70 85
REMARK SMILES IDX 71 86 72 87 51 88 52 89 60 90 53 91 59 92 61 93 58 94 54 95
REMARK SMILES IDX 55 96 56 97 57 98
REMARK H PARENT 90 21 81 51 49 62
REMARK Flexibility Score: inf
ROOT
ATOM      1  C   UNL     1      -2.121  -2.448   5.069  1.00  0.00     0.188 C 
ENDROOT
BRANCH   1   2
ATOM      2  C   UNL     1      -3.167  -3.028   4.104  1.00  0.00     0.188 C 
BRANCH   2   3
ATOM      3  O   UNL     1      -3.245  -4.448   4.007  1.00  0.00    -0.376 OA
BRANCH   3   4
ATOM      4  C   UNL     1      -2.095  -5.143   3.510  1.00  0.00     0.202 C 
BRANCH   4   5
ATOM      5  C   UNL     1      -1.585  -4.783   2.104  1.00  0.00     0.261 C 
BRANCH   5   6
ATOM      6  O   UNL     1      -1.109  -3.428   1.930  1.00  0.00    -0.463 OA
BRANCH   6   7
ATOM      7  C   UNL     1      -1.747  -2.687   0.990  1.00  0.00     0.305 C 
ATOM      8  O   UNL     1      -2.789  -3.020   0.432  1.00  0.00    -0.252 OA
BRANCH   7   9
ATOM      9  C   UNL     1      -1.130  -1.318   0.757  1.00  0.00     0.123 C 
BRANCH   9  10
ATOM     10  C   UNL     1       0.343  -1.100   0.325  1.00  0.00     0.016 C 
BRANCH  10  11
ATOM     11  C   UNL     1       1.263  -2.303  -0.009  1.00  0.00     0.000 C 
BRANCH  11  12
ATOM     12  C   UNL     1       0.989  -3.008  -1.414  1.00  0.00    -0.035 C 
ATOM     13  C   UNL     1       1.789  -2.370  -2.566  1.00  0.00     0.011 C 
ATOM     14  C   UNL     1      -0.482  -3.011  -1.867  1.00  0.00     0.011 C 
ATOM     15  C   UNL     1       1.405  -4.494  -1.280  1.00  0.00     0.011 C 
ENDBRANCH  11  12
BRANCH  11  16
ATOM     16  C   UNL     1       2.800  -1.931   0.137  1.00  0.00     0.065 C 
BRANCH  16  17
ATOM     17  C   UNL     1       3.465  -1.196   1.336  1.00  0.00     0.262 C 
BRANCH  17  18
ATOM     18  N   UNL     1       3.726  -1.738   2.671  1.00  0.00    -0.331 N 
ATOM     19  C   UNL     1       4.123  -3.151   2.783  1.00  0.00     0.291 C 
ATOM     20  C   UNL     1       2.660  -1.472   3.630  1.00  0.00     0.291 C 
ATOM     21  H   UNL     1       4.564  -1.204   2.904  1.00  0.00     0.348 HD
ATOM     22  C   UNL     1       2.954  -4.148   2.712  1.00  0.00     0.221 C 
ATOM     23  C   UNL     1       1.501  -2.403   3.375  1.00  0.00     0.221 C 
ATOM     24  O   UNL     1       1.860  -3.772   3.564  1.00  0.00    -0.370 OA
ENDBRANCH  17  18
ENDBRANCH  16  17
ENDBRANCH  11  16
ENDBRANCH  10  11
ENDBRANCH   9  10
ENDBRANCH   7   9
ENDBRANCH   6   7
ENDBRANCH   5   6
ENDBRANCH   4   5
ENDBRANCH   3   4
ENDBRANCH   2   3
ENDBRANCH   1   2
BRANCH   1  25
ATOM     25  O   UNL     1      -0.930  -3.200   5.031  1.00  0.00    -0.377 OA
BRANCH  25  26
ATOM     26  C   UNL     1      -0.049  -3.276   6.144  1.00  0.00     0.188 C 
BRANCH  26  27
ATOM     27  C   UNL     1      -0.494  -2.709   7.482  1.00  0.00     0.188 C 
BRANCH  27  28
ATOM     28  O   UNL     1      -0.822  -1.317   7.525  1.00  0.00    -0.376 OA
BRANCH  28  29
ATOM     29  C   UNL     1      -0.098  -0.393   6.716  1.00  0.00     0.202 C 
BRANCH  29  30
ATOM     30  C   UNL     1       1.216   0.131   7.293  1.00  0.00     0.261 C 
BRANCH  30  31
ATOM     31  O   UNL     1       2.313  -0.727   6.940  1.00  0.00    -0.460 OA
BRANCH  31  32
ATOM     32  C   UNL     1       2.684  -1.600   7.897  1.00  0.00     0.338 C 
ATOM     33  O   UNL     1       2.189  -1.718   9.013  1.00  0.00    -0.246 OA
BRANCH  32  34
ATOM     34  C   UNL     1       3.717  -2.510   7.385  1.00  0.00     0.060 A 
ATOM     35  C   UNL     1       3.538  -3.881   7.592  1.00  0.00     0.016 A 
ATOM     36  C   UNL     1       4.904  -2.018   6.832  1.00  0.00     0.016 A 
ATOM     37  C   UNL     1       4.589  -4.758   7.349  1.00  0.00     0.010 A 
ATOM     38  C   UNL     1       5.956  -2.901   6.580  1.00  0.00     0.010 A 
ATOM     39  C   UNL     1       5.824  -4.262   6.910  1.00  0.00    -0.014 A 
BRANCH  39  40
ATOM     40  C   UNL     1       7.026  -5.119   7.051  1.00  0.00     0.031 A 
ATOM     41  C   UNL     1       7.921  -4.897   8.244  1.00  0.00     0.074 A 
ATOM     42  C   UNL     1       7.274  -6.117   6.186  1.00  0.00     0.049 A 
ATOM     43  N   UNL     1       9.008  -5.531   8.602  1.00  0.00    -0.248 NA
ATOM     44  C   UNL     1       7.537  -3.807   9.156  1.00  0.00     0.031 C 
ATOM     45  C   UNL     1       6.443  -6.459   5.033  1.00  0.00     0.029 A 
ATOM     46  N   UNL     1       8.292  -7.035   6.154  1.00  0.00    -0.354 N 
ATOM     47  C   UNL     1       9.440  -4.912   9.771  1.00  0.00     0.074 A 
ATOM     48  C   UNL     1       8.525  -3.824  10.034  1.00  0.00     0.031 C 
ATOM     49  C   UNL     1       6.982  -7.522   4.410  1.00  0.00     0.029 A 
ATOM     50  C   UNL     1       8.212  -7.910   5.098  1.00  0.00     0.049 A 
ATOM     51  H   UNL     1       9.012  -7.064   6.825  1.00  0.00     0.167 HD
ATOM     52  C   UNL     1      10.496  -5.231  10.560  1.00  0.00     0.034 A 
ATOM     53  C   UNL     1       9.046  -8.903   4.727  1.00  0.00     0.034 A 
ATOM     54  C   UNL     1      11.400  -6.318  10.277  1.00  0.00     0.049 A 
ATOM     55  C   UNL     1      10.267  -9.183   5.573  1.00  0.00     0.074 A 
ATOM     56  C   UNL     1      12.491  -6.746  11.012  1.00  0.00     0.029 A 
ATOM     57  N   UNL     1      11.327  -7.142   9.160  1.00  0.00    -0.354 N 
ATOM     58  N   UNL     1      10.658  -8.601   6.685  1.00  0.00    -0.248 NA
ATOM     59  C   UNL     1      11.149 -10.265   5.119  1.00  0.00     0.031 C 
ATOM     60  C   UNL     1      13.129  -7.765  10.296  1.00  0.00     0.029 A 
ATOM     61  C   UNL     1      12.379  -8.045   9.164  1.00  0.00     0.049 A 
ATOM     62  H   UNL     1      10.630  -7.091   8.466  1.00  0.00     0.167 HD
ATOM     63  C   UNL     1      11.809  -9.279   7.085  1.00  0.00     0.074 A 
ATOM     64  C   UNL     1      12.037 -10.318   6.101  1.00  0.00     0.031 C 
ATOM     65  C   UNL     1      12.600  -9.071   8.170  1.00  0.00     0.034 A 
BRANCH  52  66
ATOM     66  C   UNL     1      10.761  -4.348  11.759  1.00  0.00     0.023 A 
ATOM     67  C   UNL     1       9.835  -4.212  12.810  1.00  0.00     0.031 A 
ATOM     68  C   UNL     1      11.946  -3.593  11.829  1.00  0.00     0.131 A 
ATOM     69  C   UNL     1      10.073  -3.287  13.838  1.00  0.00     0.055 A 
ATOM     70  C   UNL     1      12.217  -2.741  12.902  1.00  0.00     0.041 A 
ATOM     71  F   UNL     1      12.856  -3.656  10.845  1.00  0.00    -0.206 F 
ATOM     72  C   UNL     1      11.270  -2.571  13.906  1.00  0.00     0.022 A 
BRANCH  69  73
ATOM     73  S   UNL     1       8.727  -2.908  14.995  1.00  0.00     0.124 S 
ATOM     74  O   UNL     1       7.672  -2.468  14.085  1.00  0.00    -0.237 OA
ATOM     75  O   UNL     1       8.509  -4.189  15.656  1.00  0.00    -0.237 OA
ATOM     76  O   UNL     1       9.287  -1.856  15.841  1.00  0.00    -0.744 OA
ENDBRANCH  69  73
ENDBRANCH  52  66
BRANCH  53  77
ATOM     77  C   UNL     1       8.778  -9.699   3.494  1.00  0.00     0.023 A 
ATOM     78  C   UNL     1       8.559 -11.084   3.558  1.00  0.00     0.031 A 
ATOM     79  C   UNL     1       8.798  -9.095   2.224  1.00  0.00     0.131 A 
ATOM     80  C   UNL     1       8.423 -11.827   2.375  1.00  0.00     0.055 A 
ATOM     81  C   UNL     1       8.603  -9.829   1.053  1.00  0.00     0.041 A 
ATOM     82  F   UNL     1       9.006  -7.774   2.103  1.00  0.00    -0.206 F 
ATOM     83  C   UNL     1       8.428 -11.207   1.124  1.00  0.00     0.022 A 
BRANCH  80  84
ATOM     84  S   UNL     1       8.338 -13.636   2.490  1.00  0.00     0.124 S 
ATOM     85  O   UNL     1       9.591 -13.948   3.168  1.00  0.00    -0.237 OA
ATOM     86  O   UNL     1       7.120 -13.832   3.269  1.00  0.00    -0.237 OA
ATOM     87  O   UNL     1       8.259 -14.061   1.095  1.00  0.00    -0.744 OA
ENDBRANCH  80  84
ENDBRANCH  53  77
BRANCH  65  88
ATOM     88  C   UNL     1      13.753 -10.028   8.377  1.00  0.00     0.023 A 
ATOM     89  C   UNL     1      14.817 -10.123   7.464  1.00  0.00     0.031 A 
ATOM     90  C   UNL     1      13.771 -10.878   9.499  1.00  0.00     0.131 A 
ATOM     91  C   UNL     1      15.812 -11.096   7.647  1.00  0.00     0.055 A 
ATOM     92  C   UNL     1      14.804 -11.789   9.717  1.00  0.00     0.041 A 
ATOM     93  F   UNL     1      12.780 -10.836  10.405  1.00  0.00    -0.206 F 
ATOM     94  C   UNL     1      15.823 -11.915   8.779  1.00  0.00     0.022 A 
BRANCH  91  95
ATOM     95  S   UNL     1      17.020 -11.366   6.321  1.00  0.00     0.124 S 
ATOM     96  O   UNL     1      16.156 -11.644   5.177  1.00  0.00    -0.237 OA
ATOM     97  O   UNL     1      17.734 -10.094   6.286  1.00  0.00    -0.237 OA
ATOM     98  O   UNL     1      17.804 -12.504   6.797  1.00  0.00    -0.744 OA
ENDBRANCH  91  95
ENDBRANCH  65  88
ENDBRANCH  39  40
ENDBRANCH  32  34
ENDBRANCH  31  32
ENDBRANCH  30  31
ENDBRANCH  29  30
ENDBRANCH  28  29
ENDBRANCH  27  28
ENDBRANCH  26  27
ENDBRANCH  25  26
ENDBRANCH   1  25
TORSDOF 29
