REMARK SMILES O=C(C[C@H](C(=O)OCCOCCOCCOCCOC(=O)c1ccc(-c2c3nc(c(-c4cc(S(=O)(=O)[O-])ccc4F)c4ccc([nH]4)c(-c4cc(S(=O)(=O)[O-])ccc4F)c4nc(c(-c5cc(S(=O)(=O)[O-])ccc5F)c5ccc2[nH]5)C=C4)C=C3)cc1)c1ccccc1)Nc1ccc(Cl)cc1Cl
REMARK SMILES IDX 13 1 12 2 11 3 10 4 9 5 8 6 7 7 5 8 6 9 4 10 3 11 2 12 1 13
REMARK SMILES IDX 91 14 92 16 93 17 98 18 94 19 97 20 99 21 95 22 96 23 85 24
REMARK SMILES IDX 86 25 90 26 87 27 89 28 88 29 14 30 15 31 16 32 17 33 18 34
REMARK SMILES IDX 19 35 20 36 21 37 22 38 23 39 84 40 24 41 83 42 25 43 26 44
REMARK SMILES IDX 27 45 77 46 28 47 82 48 76 49 78 50 29 51 81 52 75 53 74 54
REMARK SMILES IDX 30 56 62 57 42 58 61 59 43 60 46 61 60 62 79 63 44 64 45 65
REMARK SMILES IDX 59 67 80 68 47 69 31 70 32 71 40 72 33 73 39 74 41 75 38 76
REMARK SMILES IDX 34 77 35 78 36 79 37 80 63 81 64 82 72 83 65 84 71 85 73 86
REMARK SMILES IDX 70 87 66 88 67 89 68 90 69 91 48 92 49 93 57 94 50 95 56 96
REMARK SMILES IDX 58 97 55 98 51 99 52 100 53 101 54 102
REMARK H PARENT 91 15 78 55 46 66
REMARK Flexibility Score: inf
ROOT
ATOM      1  O   UNL     1       1.158   1.768   0.540  1.00  0.00    -0.377 OA
ENDROOT
BRANCH   1   2
ATOM      2  C   UNL     1       1.211   1.651  -0.885  1.00  0.00     0.188 C 
BRANCH   2   3
ATOM      3  C   UNL     1       1.417   0.225  -1.384  1.00  0.00     0.188 C 
BRANCH   3   4
ATOM      4  O   UNL     1       0.385  -0.737  -1.289  1.00  0.00    -0.376 OA
BRANCH   4   5
ATOM      5  C   UNL     1       0.632  -1.985  -0.623  1.00  0.00     0.202 C 
BRANCH   5   6
ATOM      6  C   UNL     1       2.008  -2.702  -0.551  1.00  0.00     0.261 C 
BRANCH   6   7
ATOM      7  O   UNL     1       3.167  -1.856  -0.516  1.00  0.00    -0.463 OA
BRANCH   7   8
ATOM      8  C   UNL     1       3.718  -1.618  -1.736  1.00  0.00     0.314 C 
ATOM      9  O   UNL     1       3.344  -2.217  -2.743  1.00  0.00    -0.252 OA
BRANCH   8  10
ATOM     10  C   UNL     1       4.600  -0.339  -1.801  1.00  0.00     0.138 C 
BRANCH  10  11
ATOM     11  C   UNL     1       5.166   0.358  -0.545  1.00  0.00     0.120 C 
BRANCH  11  12
ATOM     12  C   UNL     1       5.141  -0.430   0.743  1.00  0.00     0.225 C 
ATOM     13  O   UNL     1       5.957  -1.332   0.917  1.00  0.00    -0.275 OA
ATOM     14  N   UNL     1       4.106  -0.099   1.618  1.00  0.00    -0.325 N 
ATOM     15  H   UNL     1       3.516   0.663   1.416  1.00  0.00     0.169 HD
BRANCH  14  16
ATOM     16  C   UNL     1       3.903  -0.860   2.797  1.00  0.00     0.060 A 
ATOM     17  C   UNL     1       2.669  -1.503   2.933  1.00  0.00     0.029 A 
ATOM     18  C   UNL     1       4.909  -1.114   3.742  1.00  0.00     0.066 A 
ATOM     19  C   UNL     1       2.509  -2.532   3.859  1.00  0.00     0.023 A 
ATOM     20  C   UNL     1       4.743  -2.130   4.686  1.00  0.00     0.043 A 
ATOM     21  Cl  UNL     1       6.332  -0.135   3.839  1.00  0.00    -0.082 Cl
ATOM     22  C   UNL     1       3.574  -2.885   4.681  1.00  0.00     0.042 A 
ATOM     23  Cl  UNL     1       3.456  -4.306   5.642  1.00  0.00    -0.084 Cl
ENDBRANCH  14  16
ENDBRANCH  11  12
ENDBRANCH  10  11
BRANCH  10  24
ATOM     24  C   UNL     1       5.541  -0.354  -3.012  1.00  0.00    -0.033 A 
ATOM     25  C   UNL     1       5.956  -1.561  -3.596  1.00  0.00     0.004 A 
ATOM     26  C   UNL     1       5.845   0.848  -3.673  1.00  0.00     0.004 A 
ATOM     27  C   UNL     1       6.527  -1.579  -4.866  1.00  0.00     0.000 A 
ATOM     28  C   UNL     1       6.457   0.829  -4.928  1.00  0.00     0.000 A 
ATOM     29  C   UNL     1       6.766  -0.385  -5.538  1.00  0.00     0.000 A 
ENDBRANCH  10  24
ENDBRANCH   8  10
ENDBRANCH   7   8
ENDBRANCH   6   7
ENDBRANCH   5   6
ENDBRANCH   4   5
ENDBRANCH   3   4
ENDBRANCH   2   3
ENDBRANCH   1   2
BRANCH   1  30
ATOM     30  C   UNL     1       0.256   0.890   1.210  1.00  0.00     0.188 C 
BRANCH  30  31
ATOM     31  C   UNL     1      -1.210   0.853   0.746  1.00  0.00     0.188 C 
BRANCH  31  32
ATOM     32  O   UNL     1      -1.464   1.633  -0.405  1.00  0.00    -0.376 OA
BRANCH  32  33
ATOM     33  C   UNL     1      -1.915   2.965  -0.187  1.00  0.00     0.202 C 
BRANCH  33  34
ATOM     34  C   UNL     1      -1.111   3.911   0.732  1.00  0.00     0.261 C 
BRANCH  34  35
ATOM     35  O   UNL     1      -0.777   3.443   2.052  1.00  0.00    -0.460 OA
BRANCH  35  36
ATOM     36  C   UNL     1      -1.790   3.173   2.898  1.00  0.00     0.338 C 
ATOM     37  O   UNL     1      -2.986   3.287   2.655  1.00  0.00    -0.246 OA
BRANCH  36  38
ATOM     38  C   UNL     1      -1.239   2.517   4.105  1.00  0.00     0.060 A 
ATOM     39  C   UNL     1      -1.673   1.226   4.436  1.00  0.00     0.016 A 
ATOM     40  C   UNL     1      -0.318   3.176   4.924  1.00  0.00     0.016 A 
ATOM     41  C   UNL     1      -1.242   0.620   5.618  1.00  0.00     0.010 A 
ATOM     42  C   UNL     1       0.097   2.576   6.121  1.00  0.00     0.010 A 
ATOM     43  C   UNL     1      -0.402   1.317   6.498  1.00  0.00    -0.014 A 
BRANCH  43  44
ATOM     44  C   UNL     1      -0.237   0.818   7.891  1.00  0.00     0.031 A 
ATOM     45  C   UNL     1      -1.104   1.403   8.972  1.00  0.00     0.074 A 
ATOM     46  C   UNL     1       0.633  -0.159   8.197  1.00  0.00     0.049 A 
ATOM     47  N   UNL     1      -1.157   1.111  10.245  1.00  0.00    -0.248 NA
ATOM     48  C   UNL     1      -2.020   2.474   8.557  1.00  0.00     0.031 C 
ATOM     49  C   UNL     1       1.528  -0.801   7.244  1.00  0.00     0.029 A 
ATOM     50  N   UNL     1       0.905  -0.782   9.392  1.00  0.00    -0.354 N 
ATOM     51  C   UNL     1      -2.097   1.977  10.792  1.00  0.00     0.074 A 
ATOM     52  C   UNL     1      -2.559   2.825   9.713  1.00  0.00     0.031 C 
ATOM     53  C   UNL     1       2.234  -1.742   7.891  1.00  0.00     0.029 A 
ATOM     54  C   UNL     1       1.858  -1.769   9.298  1.00  0.00     0.049 A 
ATOM     55  H   UNL     1       0.459  -0.544  10.237  1.00  0.00     0.167 HD
ATOM     56  C   UNL     1      -2.534   2.057  12.074  1.00  0.00     0.034 A 
ATOM     57  C   UNL     1       2.374  -2.601  10.228  1.00  0.00     0.034 A 
ATOM     58  C   UNL     1      -2.050   1.217  13.143  1.00  0.00     0.049 A 
ATOM     59  C   UNL     1       1.902  -2.468  11.655  1.00  0.00     0.074 A 
ATOM     60  C   UNL     1      -2.441   1.202  14.471  1.00  0.00     0.029 A 
ATOM     61  N   UNL     1      -1.053   0.255  13.017  1.00  0.00    -0.354 N 
ATOM     62  N   UNL     1       0.994  -1.661  12.154  1.00  0.00    -0.248 NA
ATOM     63  C   UNL     1       2.531  -3.352  12.643  1.00  0.00     0.031 C 
ATOM     64  C   UNL     1      -1.625   0.298  15.161  1.00  0.00     0.029 A 
ATOM     65  C   UNL     1      -0.789  -0.326  14.250  1.00  0.00     0.049 A 
ATOM     66  H   UNL     1      -0.601   0.021  12.175  1.00  0.00     0.167 HD
ATOM     67  C   UNL     1       0.931  -1.956  13.514  1.00  0.00     0.074 A 
ATOM     68  C   UNL     1       1.868  -3.037  13.745  1.00  0.00     0.031 C 
ATOM     69  C   UNL     1       0.170  -1.383  14.482  1.00  0.00     0.034 A 
BRANCH  56  70
ATOM     70  C   UNL     1      -3.533   3.147  12.388  1.00  0.00     0.023 A 
ATOM     71  C   UNL     1      -4.798   3.197  11.774  1.00  0.00     0.031 A 
ATOM     72  C   UNL     1      -3.187   4.192  13.262  1.00  0.00     0.131 A 
ATOM     73  C   UNL     1      -5.623   4.316  11.964  1.00  0.00     0.055 A 
ATOM     74  C   UNL     1      -4.055   5.253  13.524  1.00  0.00     0.041 A 
ATOM     75  F   UNL     1      -1.984   4.216  13.857  1.00  0.00    -0.206 F 
ATOM     76  C   UNL     1      -5.274   5.331  12.857  1.00  0.00     0.022 A 
BRANCH  73  77
ATOM     77  S   UNL     1      -7.067   4.517  10.883  1.00  0.00     0.124 S 
ATOM     78  O   UNL     1      -6.450   4.479   9.559  1.00  0.00    -0.237 OA
ATOM     79  O   UNL     1      -7.889   3.366  11.237  1.00  0.00    -0.237 OA
ATOM     80  O   UNL     1      -7.609   5.817  11.272  1.00  0.00    -0.744 OA
ENDBRANCH  73  77
ENDBRANCH  56  70
BRANCH  57  81
ATOM     81  C   UNL     1       3.392  -3.634   9.862  1.00  0.00     0.023 A 
ATOM     82  C   UNL     1       3.130  -5.003  10.049  1.00  0.00     0.031 A 
ATOM     83  C   UNL     1       4.660  -3.275   9.368  1.00  0.00     0.131 A 
ATOM     84  C   UNL     1       4.130  -5.955   9.787  1.00  0.00     0.055 A 
ATOM     85  C   UNL     1       5.628  -4.229   9.049  1.00  0.00     0.041 A 
ATOM     86  F   UNL     1       4.972  -1.984   9.175  1.00  0.00    -0.206 F 
ATOM     87  C   UNL     1       5.370  -5.578   9.270  1.00  0.00     0.022 A 
BRANCH  84  88
ATOM     88  S   UNL     1       3.821  -7.689  10.227  1.00  0.00     0.124 S 
ATOM     89  O   UNL     1       3.566  -7.591  11.660  1.00  0.00    -0.237 OA
ATOM     90  O   UNL     1       2.669  -8.016   9.393  1.00  0.00    -0.237 OA
ATOM     91  O   UNL     1       5.065  -8.361   9.860  1.00  0.00    -0.744 OA
ENDBRANCH  84  88
ENDBRANCH  57  81
BRANCH  69  92
ATOM     92  C   UNL     1       0.306  -1.947  15.879  1.00  0.00     0.023 A 
ATOM     93  C   UNL     1       1.518  -1.882  16.590  1.00  0.00     0.031 A 
ATOM     94  C   UNL     1      -0.780  -2.599  16.491  1.00  0.00     0.131 A 
ATOM     95  C   UNL     1       1.640  -2.530  17.829  1.00  0.00     0.055 A 
ATOM     96  C   UNL     1      -0.675  -3.173  17.759  1.00  0.00     0.041 A 
ATOM     97  F   UNL     1      -1.962  -2.698  15.861  1.00  0.00    -0.206 F 
ATOM     98  C   UNL     1       0.545  -3.158  18.427  1.00  0.00     0.022 A 
BRANCH  95  99
ATOM     99  S   UNL     1       3.284  -2.659  18.586  1.00  0.00     0.124 S 
ATOM    100  O   UNL     1       4.051  -3.316  17.532  1.00  0.00    -0.237 OA
ATOM    101  O   UNL     1       3.620  -1.263  18.844  1.00  0.00    -0.237 OA
ATOM    102  O   UNL     1       3.050  -3.471  19.779  1.00  0.00    -0.744 OA
ENDBRANCH  95  99
ENDBRANCH  69  92
ENDBRANCH  43  44
ENDBRANCH  36  38
ENDBRANCH  35  36
ENDBRANCH  34  35
ENDBRANCH  33  34
ENDBRANCH  32  33
ENDBRANCH  31  32
ENDBRANCH  30  31
ENDBRANCH   1  30
TORSDOF 27
