REMARK SMILES CC[C@H](C)[C@H](NC(=O)CN1C(=O)/C(=C/c2ccc(C)cc2)SC1=S)C(=O)OCCOCCOCCOCCOC(=O)c1ccc(-c2c3nc(c(-c4cc(S(=O)(=O)[O-])ccc4F)c4ccc([nH]4)c(-c4cc(S(=O)(=O)[O-])ccc4F)c4nc(c(-c5cc(S(=O)(=O)[O-])ccc5F)c5ccc2[nH]5)C=C4)C=C3)cc1
REMARK SMILES IDX 32 1 31 2 30 3 29 4 28 5 27 6 25 7 26 8 5 9 3 10 4 11 2 12
REMARK SMILES IDX 1 13 6 14 7 15 8 17 9 18 10 19 11 20 23 21 12 22 13 23 22 24
REMARK SMILES IDX 24 25 14 26 15 27 16 28 21 29 17 30 20 31 18 32 19 33 33 34
REMARK SMILES IDX 34 35 35 36 36 37 37 38 38 39 39 40 40 41 41 42 42 43 43 44
REMARK SMILES IDX 104 45 44 46 103 47 45 48 46 49 47 50 97 51 48 52 102 53
REMARK SMILES IDX 96 54 98 55 49 56 101 57 95 58 94 59 50 61 82 62 62 63 81 64
REMARK SMILES IDX 63 65 66 66 80 67 99 68 64 69 65 70 79 72 100 73 67 74 51 75
REMARK SMILES IDX 52 76 60 77 53 78 59 79 61 80 58 81 54 82 55 83 56 84 57 85
REMARK SMILES IDX 83 86 84 87 92 88 85 89 91 90 93 91 90 92 86 93 87 94 88 95
REMARK SMILES IDX 89 96 68 97 69 98 77 99 70 100 76 101 78 102 75 103 71 104
REMARK SMILES IDX 72 105 73 106 74 107
REMARK H PARENT 6 16 98 60 66 71
REMARK Flexibility Score: inf
ROOT
ATOM      1  C   UNL     1      -0.239  -2.100   0.175  1.00  0.00     0.188 C 
ENDROOT
BRANCH   1   2
ATOM      2  C   UNL     1      -1.519  -2.370  -0.930  1.00  0.00     0.188 C 
BRANCH   2   3
ATOM      3  O   UNL     1      -1.506  -2.770  -2.337  1.00  0.00    -0.376 OA
BRANCH   3   4
ATOM      4  C   UNL     1      -1.599  -3.991  -3.111  1.00  0.00     0.202 C 
BRANCH   4   5
ATOM      5  C   UNL     1      -1.317  -3.903  -4.635  1.00  0.00     0.261 C 
BRANCH   5   6
ATOM      6  O   UNL     1      -0.359  -2.909  -4.907  1.00  0.00    -0.462 OA
BRANCH   6   7
ATOM      7  C   UNL     1      -0.831  -1.743  -4.429  1.00  0.00     0.328 C 
ATOM      8  O   UNL     1      -1.869  -1.201  -4.789  1.00  0.00    -0.250 OA
BRANCH   7   9
ATOM      9  C   UNL     1       0.149  -1.189  -3.416  1.00  0.00     0.195 C 
BRANCH   9  10
ATOM     10  C   UNL     1       0.849  -0.038  -4.256  1.00  0.00     0.019 C 
ATOM     11  C   UNL     1       1.676   0.899  -3.382  1.00  0.00     0.010 C 
BRANCH  10  12
ATOM     12  C   UNL     1       1.649  -0.463  -5.513  1.00  0.00     0.002 C 
ATOM     13  C   UNL     1       0.874  -0.426  -6.828  1.00  0.00     0.004 C 
ENDBRANCH  10  12
ENDBRANCH   9  10
BRANCH   9  14
ATOM     14  N   UNL     1       1.059  -2.206  -2.664  1.00  0.00    -0.341 N 
ATOM     15  C   UNL     1       1.136  -3.276  -1.787  1.00  0.00     0.240 C 
ATOM     16  H   UNL     1       1.984  -1.998  -2.928  1.00  0.00     0.164 HD
ATOM     17  O   UNL     1       2.282  -3.218  -1.268  1.00  0.00    -0.273 OA
BRANCH  15  18
ATOM     18  C   UNL     1       0.281  -4.729  -1.239  1.00  0.00     0.227 C 
BRANCH  18  19
ATOM     19  N   UNL     1      -1.101  -5.372  -0.797  1.00  0.00    -0.283 N 
ATOM     20  C   UNL     1      -1.891  -4.974   0.305  1.00  0.00     0.266 C 
ATOM     21  C   UNL     1      -1.577  -6.606  -1.251  1.00  0.00     0.148 C 
ATOM     22  O   UNL     1      -1.752  -4.286   1.266  1.00  0.00    -0.268 OA
ATOM     23  C   UNL     1      -3.201  -5.661   0.152  1.00  0.00     0.081 C 
ATOM     24  S   UNL     1      -2.807  -7.277  -0.164  1.00  0.00    -0.054 SA
ATOM     25  S   UNL     1      -1.415  -7.418  -2.680  1.00  0.00    -0.052 S 
ATOM     26  C   UNL     1      -4.269  -4.947  -0.232  1.00  0.00     0.029 C 
BRANCH  26  27
ATOM     27  C   UNL     1      -5.434  -5.471  -0.957  1.00  0.00    -0.024 A 
ATOM     28  C   UNL     1      -6.022  -6.691  -0.617  1.00  0.00     0.008 A 
ATOM     29  C   UNL     1      -5.956  -4.741  -2.034  1.00  0.00     0.008 A 
ATOM     30  C   UNL     1      -7.076  -7.204  -1.369  1.00  0.00     0.004 A 
ATOM     31  C   UNL     1      -7.032  -5.242  -2.770  1.00  0.00     0.004 A 
ATOM     32  C   UNL     1      -7.589  -6.486  -2.450  1.00  0.00    -0.051 A 
ATOM     33  C   UNL     1      -8.748  -7.023  -3.230  1.00  0.00     0.044 C 
ENDBRANCH  26  27
ENDBRANCH  18  19
ENDBRANCH  15  18
ENDBRANCH   9  14
ENDBRANCH   7   9
ENDBRANCH   6   7
ENDBRANCH   5   6
ENDBRANCH   4   5
ENDBRANCH   3   4
ENDBRANCH   2   3
ENDBRANCH   1   2
BRANCH   1  34
ATOM     34  O   UNL     1       0.312  -3.249   0.849  1.00  0.00    -0.377 OA
BRANCH  34  35
ATOM     35  C   UNL     1       1.630  -3.298   1.453  1.00  0.00     0.188 C 
BRANCH  35  36
ATOM     36  C   UNL     1       2.218  -4.761   1.408  1.00  0.00     0.188 C 
BRANCH  36  37
ATOM     37  O   UNL     1       1.226  -5.804   1.495  1.00  0.00    -0.376 OA
BRANCH  37  38
ATOM     38  C   UNL     1       0.634  -5.998   2.766  1.00  0.00     0.202 C 
BRANCH  38  39
ATOM     39  C   UNL     1       1.556  -6.849   3.639  1.00  0.00     0.261 C 
BRANCH  39  40
ATOM     40  O   UNL     1       1.793  -8.110   2.969  1.00  0.00    -0.460 OA
BRANCH  40  41
ATOM     41  C   UNL     1       3.060  -8.268   2.492  1.00  0.00     0.338 C 
ATOM     42  O   UNL     1       4.068  -8.240   3.179  1.00  0.00    -0.246 OA
BRANCH  41  43
ATOM     43  C   UNL     1       3.057  -8.372   1.002  1.00  0.00     0.060 A 
ATOM     44  C   UNL     1       4.239  -8.165   0.272  1.00  0.00     0.016 A 
ATOM     45  C   UNL     1       1.853  -8.469   0.319  1.00  0.00     0.016 A 
ATOM     46  C   UNL     1       4.188  -7.885  -1.110  1.00  0.00     0.010 A 
ATOM     47  C   UNL     1       1.818  -8.164  -1.033  1.00  0.00     0.010 A 
ATOM     48  C   UNL     1       2.955  -7.800  -1.762  1.00  0.00    -0.014 A 
BRANCH  48  49
ATOM     49  C   UNL     1       2.696  -7.119  -3.058  1.00  0.00     0.031 A 
ATOM     50  C   UNL     1       1.771  -7.681  -4.106  1.00  0.00     0.074 A 
ATOM     51  C   UNL     1       3.015  -5.806  -3.140  1.00  0.00     0.049 A 
ATOM     52  N   UNL     1       1.320  -7.036  -5.131  1.00  0.00    -0.248 NA
ATOM     53  C   UNL     1       1.248  -9.039  -4.074  1.00  0.00     0.031 C 
ATOM     54  C   UNL     1       2.409  -4.818  -4.030  1.00  0.00     0.029 A 
ATOM     55  N   UNL     1       3.965  -5.071  -2.418  1.00  0.00    -0.354 N 
ATOM     56  C   UNL     1       0.295  -7.737  -5.740  1.00  0.00     0.074 A 
ATOM     57  C   UNL     1       0.329  -9.008  -5.054  1.00  0.00     0.031 C 
ATOM     58  C   UNL     1       3.094  -3.680  -3.957  1.00  0.00     0.029 A 
ATOM     59  C   UNL     1       4.252  -3.912  -3.159  1.00  0.00     0.049 A 
ATOM     60  H   UNL     1       4.359  -5.321  -1.551  1.00  0.00     0.167 HD
ATOM     61  C   UNL     1      -0.494  -7.090  -6.665  1.00  0.00     0.034 A 
ATOM     62  C   UNL     1       5.484  -3.569  -3.595  1.00  0.00     0.034 A 
ATOM     63  C   UNL     1       0.169  -5.844  -7.165  1.00  0.00     0.049 A 
ATOM     64  C   UNL     1       5.444  -3.682  -5.140  1.00  0.00     0.074 A 
ATOM     65  C   UNL     1      -0.230  -4.577  -7.560  1.00  0.00     0.029 A 
ATOM     66  N   UNL     1       1.578  -5.811  -7.271  1.00  0.00    -0.354 N 
ATOM     67  N   UNL     1       4.591  -4.452  -5.808  1.00  0.00    -0.248 NA
ATOM     68  C   UNL     1       6.094  -2.724  -6.029  1.00  0.00     0.031 C 
ATOM     69  C   UNL     1       0.931  -3.788  -7.785  1.00  0.00     0.029 A 
ATOM     70  C   UNL     1       2.064  -4.556  -7.562  1.00  0.00     0.049 A 
ATOM     71  H   UNL     1       2.151  -6.601  -7.149  1.00  0.00     0.167 HD
ATOM     72  C   UNL     1       4.437  -3.993  -7.100  1.00  0.00     0.074 A 
ATOM     73  C   UNL     1       5.452  -2.945  -7.194  1.00  0.00     0.031 C 
ATOM     74  C   UNL     1       3.442  -4.335  -7.997  1.00  0.00     0.034 A 
BRANCH  61  75
ATOM     75  C   UNL     1      -1.967  -7.467  -7.042  1.00  0.00     0.023 A 
ATOM     76  C   UNL     1      -2.776  -6.569  -7.793  1.00  0.00     0.031 A 
ATOM     77  C   UNL     1      -2.677  -8.615  -6.626  1.00  0.00     0.131 A 
ATOM     78  C   UNL     1      -4.165  -6.760  -8.012  1.00  0.00     0.055 A 
ATOM     79  C   UNL     1      -4.050  -8.835  -6.885  1.00  0.00     0.041 A 
ATOM     80  F   UNL     1      -2.098  -9.610  -5.952  1.00  0.00    -0.206 F 
ATOM     81  C   UNL     1      -4.809  -7.901  -7.566  1.00  0.00     0.022 A 
BRANCH  78  82
ATOM     82  S   UNL     1      -5.135  -5.479  -8.876  1.00  0.00     0.124 S 
ATOM     83  O   UNL     1      -5.246  -4.446  -7.851  1.00  0.00    -0.237 OA
ATOM     84  O   UNL     1      -4.295  -5.160 -10.024  1.00  0.00    -0.237 OA
ATOM     85  O   UNL     1      -6.388  -6.161  -9.201  1.00  0.00    -0.744 OA
ENDBRANCH  78  82
ENDBRANCH  61  75
BRANCH  62  86
ATOM     86  C   UNL     1       6.449  -3.732  -2.453  1.00  0.00     0.023 A 
ATOM     87  C   UNL     1       6.226  -2.848  -1.342  1.00  0.00     0.031 A 
ATOM     88  C   UNL     1       6.938  -5.010  -2.139  1.00  0.00     0.131 A 
ATOM     89  C   UNL     1       6.254  -3.325  -0.011  1.00  0.00     0.055 A 
ATOM     90  C   UNL     1       6.978  -5.472  -0.809  1.00  0.00     0.041 A 
ATOM     91  F   UNL     1       7.177  -5.900  -3.114  1.00  0.00    -0.206 F 
ATOM     92  C   UNL     1       6.576  -4.655   0.251  1.00  0.00     0.022 A 
BRANCH  89  93
ATOM     93  S   UNL     1       5.620  -2.299   1.370  1.00  0.00     0.124 S 
ATOM     94  O   UNL     1       6.841  -1.687   1.883  1.00  0.00    -0.237 OA
ATOM     95  O   UNL     1       4.683  -1.387   0.723  1.00  0.00    -0.237 OA
ATOM     96  O   UNL     1       4.994  -3.278   2.260  1.00  0.00    -0.744 OA
ENDBRANCH  89  93
ENDBRANCH  62  86
BRANCH  74  97
ATOM     97  C   UNL     1       3.623  -4.385  -9.510  1.00  0.00     0.023 A 
ATOM     98  C   UNL     1       4.813  -4.023 -10.132  1.00  0.00     0.031 A 
ATOM     99  C   UNL     1       2.638  -4.956 -10.374  1.00  0.00     0.131 A 
ATOM    100  C   UNL     1       4.988  -4.180 -11.514  1.00  0.00     0.055 A 
ATOM    101  C   UNL     1       2.818  -5.127 -11.747  1.00  0.00     0.041 A 
ATOM    102  F   UNL     1       1.472  -5.445  -9.930  1.00  0.00    -0.206 F 
ATOM    103  C   UNL     1       4.007  -4.739 -12.329  1.00  0.00     0.022 A 
BRANCH 100 104
ATOM    104  S   UNL     1       6.570  -3.658 -12.200  1.00  0.00     0.124 S 
ATOM    105  O   UNL     1       6.518  -2.213 -11.994  1.00  0.00    -0.237 OA
ATOM    106  O   UNL     1       7.523  -4.381 -11.364  1.00  0.00    -0.237 OA
ATOM    107  O   UNL     1       6.503  -4.097 -13.591  1.00  0.00    -0.744 OA
ENDBRANCH 100 104
ENDBRANCH  74  97
ENDBRANCH  48  49
ENDBRANCH  41  43
ENDBRANCH  40  41
ENDBRANCH  39  40
ENDBRANCH  38  39
ENDBRANCH  37  38
ENDBRANCH  36  37
ENDBRANCH  35  36
ENDBRANCH  34  35
ENDBRANCH   1  34
TORSDOF 29
