REMARK SMILES Cc1ccnc(C(=O)c2[nH]c3ccc(F)cc3c2CC(=O)OCCOCCOCCOCCOC(=O)c2ccc(-c3c4nc(c(-c5cc(S(=O)(=O)[O-])ccc5F)c5ccc([nH]5)c(-c5cc(S(=O)(=O)[O-])ccc5F)c5nc(c(-c6cc(S(=O)(=O)[O-])ccc6F)c6ccc3[nH]6)C=C5)C=C4)cc2)c1
REMARK SMILES IDX 28 1 27 2 26 3 25 4 24 5 23 6 22 7 20 8 21 9 19 10 18 11
REMARK SMILES IDX 9 12 10 13 11 14 17 16 12 17 16 18 13 19 14 20 15 21 7 22
REMARK SMILES IDX 8 23 6 24 1 25 2 26 3 27 100 28 4 29 5 30 29 31 30 32 31 33
REMARK SMILES IDX 32 34 33 35 34 36 35 37 36 38 37 39 38 40 99 41 39 42 98 43
REMARK SMILES IDX 40 44 41 45 42 46 92 47 43 48 97 49 91 50 93 51 44 52 96 53
REMARK SMILES IDX 90 54 89 55 45 57 77 58 57 59 76 60 58 61 61 62 75 63 94 64
REMARK SMILES IDX 59 65 60 66 74 68 95 69 62 70 46 71 47 72 55 73 48 74 54 75
REMARK SMILES IDX 56 76 53 77 49 78 50 79 51 80 52 81 78 82 79 83 87 84 80 85
REMARK SMILES IDX 86 86 88 87 85 88 81 89 82 90 83 91 84 92 63 93 64 94 72 95
REMARK SMILES IDX 65 96 71 97 73 98 70 99 66 100 67 101 68 102 69 103
REMARK H PARENT 10 15 93 56 61 67
REMARK Flexibility Score: inf
ROOT
ATOM      1  O   UNL     1      -1.995  -1.263   1.007  1.00  0.00    -0.377 OA
ENDROOT
BRANCH   1   2
ATOM      2  C   UNL     1      -1.623  -2.040  -0.120  1.00  0.00     0.188 C 
BRANCH   2   3
ATOM      3  C   UNL     1      -1.401  -1.152  -1.359  1.00  0.00     0.188 C 
BRANCH   3   4
ATOM      4  O   UNL     1      -2.500  -0.321  -1.630  1.00  0.00    -0.376 OA
BRANCH   4   5
ATOM      5  C   UNL     1      -3.200  -0.758  -2.783  1.00  0.00     0.202 C 
BRANCH   5   6
ATOM      6  C   UNL     1      -3.614  -2.247  -2.704  1.00  0.00     0.261 C 
BRANCH   6   7
ATOM      7  O   UNL     1      -2.490  -3.199  -2.577  1.00  0.00    -0.463 OA
BRANCH   7   8
ATOM      8  C   UNL     1      -1.623  -3.341  -3.613  1.00  0.00     0.310 C 
ATOM      9  O   UNL     1      -1.969  -3.139  -4.775  1.00  0.00    -0.252 OA
BRANCH   8  10
ATOM     10  C   UNL     1      -0.132  -3.625  -3.245  1.00  0.00     0.161 C 
BRANCH  10  11
ATOM     11  C   UNL     1       0.372  -3.809  -1.793  1.00  0.00     0.000 A 
ATOM     12  C   UNL     1       1.313  -3.091  -0.963  1.00  0.00     0.093 A 
ATOM     13  N   UNL     1       1.617  -4.014   0.047  1.00  0.00    -0.352 N 
ATOM     14  C   UNL     1       0.795  -5.113   0.060  1.00  0.00     0.046 A 
ATOM     15  H   UNL     1       2.353  -3.886   0.688  1.00  0.00     0.167 HD
ATOM     16  C   UNL     1      -0.003  -5.024  -1.072  1.00  0.00     0.007 A 
ATOM     17  C   UNL     1       0.734  -6.197   0.957  1.00  0.00     0.030 A 
ATOM     18  C   UNL     1      -0.910  -6.083  -1.325  1.00  0.00     0.049 A 
ATOM     19  C   UNL     1      -0.191  -7.215   0.699  1.00  0.00     0.041 A 
ATOM     20  C   UNL     1      -0.996  -7.152  -0.427  1.00  0.00     0.123 A 
ATOM     21  F   UNL     1      -1.865  -8.143  -0.668  1.00  0.00    -0.207 F 
BRANCH  12  22
ATOM     22  C   UNL     1       2.218  -1.865  -1.017  1.00  0.00     0.227 C 
ATOM     23  O   UNL     1       3.420  -2.091  -1.195  1.00  0.00    -0.285 OA
BRANCH  22  24
ATOM     24  C   UNL     1       1.891  -0.366  -0.636  1.00  0.00     0.113 A 
ATOM     25  C   UNL     1      -0.981   1.851   0.642  1.00  0.00     0.044 C 
ATOM     26  C   UNL     1       0.394   1.434   0.169  1.00  0.00    -0.047 A 
ATOM     27  C   UNL     1       1.312   2.372  -0.241  1.00  0.00     0.023 A 
ATOM     28  C   UNL     1       0.795   0.080   0.088  1.00  0.00     0.036 A 
ATOM     29  C   UNL     1       2.497   1.892  -0.780  1.00  0.00     0.112 A 
ATOM     30  N   UNL     1       2.785   0.574  -1.036  1.00  0.00    -0.253 NA
ENDBRANCH  22  24
ENDBRANCH  12  22
ENDBRANCH  10  11
ENDBRANCH   8  10
ENDBRANCH   7   8
ENDBRANCH   6   7
ENDBRANCH   5   6
ENDBRANCH   4   5
ENDBRANCH   3   4
ENDBRANCH   2   3
ENDBRANCH   1   2
BRANCH   1  31
ATOM     31  C   UNL     1      -1.587  -1.851   2.236  1.00  0.00     0.188 C 
BRANCH  31  32
ATOM     32  C   UNL     1      -0.672  -0.904   3.010  1.00  0.00     0.188 C 
BRANCH  32  33
ATOM     33  O   UNL     1       0.691  -0.701   2.641  1.00  0.00    -0.376 OA
BRANCH  33  34
ATOM     34  C   UNL     1       1.625  -1.763   2.773  1.00  0.00     0.202 C 
BRANCH  34  35
ATOM     35  C   UNL     1       2.323  -1.841   4.133  1.00  0.00     0.261 C 
BRANCH  35  36
ATOM     36  O   UNL     1       1.365  -2.109   5.159  1.00  0.00    -0.460 OA
BRANCH  36  37
ATOM     37  C   UNL     1       0.946  -1.004   5.848  1.00  0.00     0.338 C 
ATOM     38  O   UNL     1       1.483   0.069   5.897  1.00  0.00    -0.246 OA
BRANCH  37  39
ATOM     39  C   UNL     1      -0.468  -1.269   6.242  1.00  0.00     0.060 A 
ATOM     40  C   UNL     1      -1.388  -0.219   6.064  1.00  0.00     0.016 A 
ATOM     41  C   UNL     1      -0.916  -2.568   6.513  1.00  0.00     0.016 A 
ATOM     42  C   UNL     1      -2.754  -0.461   6.188  1.00  0.00     0.010 A 
ATOM     43  C   UNL     1      -2.278  -2.804   6.671  1.00  0.00     0.010 A 
ATOM     44  C   UNL     1      -3.190  -1.738   6.560  1.00  0.00    -0.014 A 
BRANCH  44  45
ATOM     45  C   UNL     1      -4.492  -1.869   7.244  1.00  0.00     0.031 A 
ATOM     46  C   UNL     1      -4.459  -1.692   8.738  1.00  0.00     0.074 A 
ATOM     47  C   UNL     1      -5.632  -2.141   6.589  1.00  0.00     0.049 A 
ATOM     48  N   UNL     1      -5.403  -1.859   9.621  1.00  0.00    -0.248 NA
ATOM     49  C   UNL     1      -3.161  -1.291   9.311  1.00  0.00     0.031 C 
ATOM     50  C   UNL     1      -5.771  -2.276   5.140  1.00  0.00     0.029 A 
ATOM     51  N   UNL     1      -6.893  -2.366   7.074  1.00  0.00    -0.354 N 
ATOM     52  C   UNL     1      -4.808  -1.592  10.851  1.00  0.00     0.074 A 
ATOM     53  C   UNL     1      -3.417  -1.303  10.605  1.00  0.00     0.031 C 
ATOM     54  C   UNL     1      -7.051  -2.580   4.856  1.00  0.00     0.029 A 
ATOM     55  C   UNL     1      -7.806  -2.700   6.103  1.00  0.00     0.049 A 
ATOM     56  H   UNL     1      -7.124  -2.295   8.028  1.00  0.00     0.167 HD
ATOM     57  C   UNL     1      -5.378  -1.581  12.077  1.00  0.00     0.034 A 
ATOM     58  C   UNL     1      -9.092  -3.088   6.226  1.00  0.00     0.034 A 
ATOM     59  C   UNL     1      -6.762  -1.904  12.292  1.00  0.00     0.049 A 
ATOM     60  C   UNL     1      -9.689  -3.164   7.615  1.00  0.00     0.074 A 
ATOM     61  C   UNL     1      -7.465  -1.937  13.481  1.00  0.00     0.029 A 
ATOM     62  N   UNL     1      -7.651  -2.270  11.288  1.00  0.00    -0.354 N 
ATOM     63  N   UNL     1      -9.126  -2.905   8.775  1.00  0.00    -0.248 NA
ATOM     64  C   UNL     1     -11.094  -3.578   7.709  1.00  0.00     0.031 C 
ATOM     65  C   UNL     1      -8.754  -2.402  13.206  1.00  0.00     0.029 A 
ATOM     66  C   UNL     1      -8.887  -2.566  11.834  1.00  0.00     0.049 A 
ATOM     67  H   UNL     1      -7.433  -2.313  10.329  1.00  0.00     0.167 HD
ATOM     68  C   UNL     1     -10.121  -3.090   9.733  1.00  0.00     0.074 A 
ATOM     69  C   UNL     1     -11.319  -3.471   9.011  1.00  0.00     0.031 C 
ATOM     70  C   UNL     1     -10.061  -2.952  11.084  1.00  0.00     0.034 A 
BRANCH  57  71
ATOM     71  C   UNL     1      -4.478  -1.284  13.250  1.00  0.00     0.023 A 
ATOM     72  C   UNL     1      -3.799  -0.057  13.374  1.00  0.00     0.031 A 
ATOM     73  C   UNL     1      -4.230  -2.272  14.218  1.00  0.00     0.131 A 
ATOM     74  C   UNL     1      -2.845   0.116  14.388  1.00  0.00     0.055 A 
ATOM     75  C   UNL     1      -3.349  -2.059  15.280  1.00  0.00     0.041 A 
ATOM     76  F   UNL     1      -4.816  -3.477  14.131  1.00  0.00    -0.206 F 
ATOM     77  C   UNL     1      -2.637  -0.866  15.360  1.00  0.00     0.022 A 
BRANCH  74  78
ATOM     78  S   UNL     1      -1.757   1.566  14.316  1.00  0.00     0.124 S 
ATOM     79  O   UNL     1      -1.120   1.392  13.012  1.00  0.00    -0.237 OA
ATOM     80  O   UNL     1      -2.699   2.673  14.425  1.00  0.00    -0.237 OA
ATOM     81  O   UNL     1      -0.869   1.386  15.463  1.00  0.00    -0.744 OA
ENDBRANCH  74  78
ENDBRANCH  57  71
BRANCH  58  82
ATOM     82  C   UNL     1      -9.891  -3.469   5.025  1.00  0.00     0.023 A 
ATOM     83  C   UNL     1     -11.040  -2.751   4.657  1.00  0.00     0.031 A 
ATOM     84  C   UNL     1      -9.542  -4.590   4.250  1.00  0.00     0.131 A 
ATOM     85  C   UNL     1     -11.822  -3.185   3.574  1.00  0.00     0.055 A 
ATOM     86  C   UNL     1     -10.291  -4.986   3.140  1.00  0.00     0.041 A 
ATOM     87  F   UNL     1      -8.456  -5.317   4.558  1.00  0.00    -0.206 F 
ATOM     88  C   UNL     1     -11.447  -4.288   2.804  1.00  0.00     0.022 A 
BRANCH  85  89
ATOM     89  S   UNL     1     -13.388  -2.334   3.235  1.00  0.00     0.124 S 
ATOM     90  O   UNL     1     -14.100  -2.511   4.495  1.00  0.00    -0.237 OA
ATOM     91  O   UNL     1     -12.937  -0.979   2.936  1.00  0.00    -0.237 OA
ATOM     92  O   UNL     1     -13.936  -3.071   2.097  1.00  0.00    -0.744 OA
ENDBRANCH  85  89
ENDBRANCH  58  82
BRANCH  70  93
ATOM     93  C   UNL     1     -11.340  -3.163  11.857  1.00  0.00     0.023 A 
ATOM     94  C   UNL     1     -11.970  -4.416  11.924  1.00  0.00     0.031 A 
ATOM     95  C   UNL     1     -11.932  -2.086  12.543  1.00  0.00     0.131 A 
ATOM     96  C   UNL     1     -13.186  -4.549  12.610  1.00  0.00     0.055 A 
ATOM     97  C   UNL     1     -13.103  -2.242  13.285  1.00  0.00     0.041 A 
ATOM     98  F   UNL     1     -11.374  -0.865  12.512  1.00  0.00    -0.206 F 
ATOM     99  C   UNL     1     -13.745  -3.476  13.309  1.00  0.00     0.022 A 
BRANCH  96 100
ATOM    100  S   UNL     1     -14.085  -6.119  12.486  1.00  0.00     0.124 S 
ATOM    101  O   UNL     1     -14.259  -6.253  11.043  1.00  0.00    -0.237 OA
ATOM    102  O   UNL     1     -13.158  -7.059  13.107  1.00  0.00    -0.237 OA
ATOM    103  O   UNL     1     -15.313  -5.870  13.239  1.00  0.00    -0.744 OA
ENDBRANCH  96 100
ENDBRANCH  70  93
ENDBRANCH  44  45
ENDBRANCH  37  39
ENDBRANCH  36  37
ENDBRANCH  35  36
ENDBRANCH  34  35
ENDBRANCH  33  34
ENDBRANCH  32  33
ENDBRANCH  31  32
ENDBRANCH   1  31
TORSDOF 26
