REMARK SMILES C[C@@H](C(=O)OCCOCCOCCOCCOC(=O)c1ccc(-c2c3nc(c(-c4cc(S(=O)(=O)[O-])ccc4F)c4ccc([nH]4)c(-c4cc(S(=O)(=O)[O-])ccc4F)c4nc(c(-c5cc(S(=O)(=O)[O-])ccc5F)c5ccc2[nH]5)C=C4)C=C3)cc1)[N@@H+]1CCc2n[nH]c(C(c3ccccc3)c3ccccc3)c2C1
REMARK SMILES IDX 11 1 10 2 9 3 8 4 7 5 6 6 5 7 3 8 4 9 2 10 1 11 83 12 84 13
REMARK SMILES IDX 104 14 85 16 103 17 86 18 89 19 87 20 88 21 90 23 91 24
REMARK SMILES IDX 92 25 96 26 93 27 95 28 94 29 97 30 98 31 102 32 99 33
REMARK SMILES IDX 101 34 100 35 12 36 13 37 14 38 15 39 16 40 17 41 18 42
REMARK SMILES IDX 19 43 20 44 21 45 82 46 22 47 81 48 23 49 24 50 25 51 75 52
REMARK SMILES IDX 26 53 80 54 74 55 76 56 27 57 79 58 73 59 72 60 28 62 60 63
REMARK SMILES IDX 40 64 59 65 41 66 44 67 58 68 77 69 42 70 43 71 57 73 78 74
REMARK SMILES IDX 45 75 29 76 30 77 38 78 31 79 37 80 39 81 36 82 32 83 33 84
REMARK SMILES IDX 34 85 35 86 61 87 62 88 70 89 63 90 69 91 71 92 68 93 64 94
REMARK SMILES IDX 65 95 66 96 67 97 46 98 47 99 55 100 48 101 54 102 56 103
REMARK SMILES IDX 53 104 49 105 50 106 51 107 52 108
REMARK H PARENT 83 15 88 22 76 61 44 72
REMARK Flexibility Score: inf
ROOT
ATOM      1  O   UNL     1       2.130   3.569   2.953  1.00  0.00    -0.377 OA
ENDROOT
BRANCH   1   2
ATOM      2  C   UNL     1       0.748   3.242   3.098  1.00  0.00     0.188 C 
BRANCH   2   3
ATOM      3  C   UNL     1       0.291   2.786   4.496  1.00  0.00     0.188 C 
BRANCH   3   4
ATOM      4  O   UNL     1       0.272   1.378   4.748  1.00  0.00    -0.376 OA
BRANCH   4   5
ATOM      5  C   UNL     1       1.513   0.713   5.035  1.00  0.00     0.202 C 
BRANCH   5   6
ATOM      6  C   UNL     1       1.264  -0.838   5.220  1.00  0.00     0.261 C 
BRANCH   6   7
ATOM      7  O   UNL     1       1.138  -1.516   3.921  1.00  0.00    -0.459 OA
BRANCH   7   8
ATOM      8  C   UNL     1       0.251  -2.530   3.670  1.00  0.00     0.364 C 
ATOM      9  O   UNL     1      -0.132  -3.315   4.531  1.00  0.00    -0.245 OA
BRANCH   8  10
ATOM     10  C   UNL     1      -0.317  -2.518   2.156  1.00  0.00     0.292 C 
ATOM     11  C   UNL     1       0.640  -3.034   1.080  1.00  0.00     0.088 C 
BRANCH  10  12
ATOM     12  N   UNL     1      -1.019  -1.232   1.831  1.00  0.00    -0.319 N 
ATOM     13  C   UNL     1      -1.334  -0.874   0.418  1.00  0.00     0.269 C 
ATOM     14  C   UNL     1      -0.310  -0.131   2.455  1.00  0.00     0.303 C 
ATOM     15  H   UNL     1      -1.950  -1.410   2.207  1.00  0.00     0.349 HD
ATOM     16  C   UNL     1      -0.738   0.495  -0.121  1.00  0.00     0.120 C 
ATOM     17  C   UNL     1       0.965   0.156   1.706  1.00  0.00     0.052 A 
ATOM     18  C   UNL     1       0.644   0.659   0.414  1.00  0.00     0.077 A 
ATOM     19  C   UNL     1       2.363  -0.027   1.604  1.00  0.00     0.056 A 
ATOM     20  N   UNL     1       1.672   1.265  -0.161  1.00  0.00    -0.180 NA
ATOM     21  N   UNL     1       2.631   1.070   0.771  1.00  0.00    -0.281 N 
ATOM     22  H   UNL     1       3.432   1.637   0.856  1.00  0.00     0.190 HD
BRANCH  19  23
ATOM     23  C   UNL     1       3.636  -0.925   1.943  1.00  0.00     0.098 C 
BRANCH  23  24
ATOM     24  C   UNL     1       3.906  -1.616   3.310  1.00  0.00    -0.035 A 
ATOM     25  C   UNL     1       4.794  -1.028   4.236  1.00  0.00     0.005 A 
ATOM     26  C   UNL     1       3.433  -2.898   3.664  1.00  0.00     0.005 A 
ATOM     27  C   UNL     1       5.156  -1.671   5.436  1.00  0.00     0.000 A 
ATOM     28  C   UNL     1       3.779  -3.541   4.864  1.00  0.00     0.000 A 
ATOM     29  C   UNL     1       4.643  -2.925   5.754  1.00  0.00     0.000 A 
ENDBRANCH  23  24
BRANCH  23  30
ATOM     30  C   UNL     1       4.069  -1.750   0.675  1.00  0.00    -0.035 A 
ATOM     31  C   UNL     1       4.142  -3.151   0.601  1.00  0.00     0.005 A 
ATOM     32  C   UNL     1       4.383  -1.060  -0.515  1.00  0.00     0.005 A 
ATOM     33  C   UNL     1       4.378  -3.818  -0.610  1.00  0.00     0.000 A 
ATOM     34  C   UNL     1       4.602  -1.717  -1.728  1.00  0.00     0.000 A 
ATOM     35  C   UNL     1       4.576  -3.101  -1.781  1.00  0.00     0.000 A 
ENDBRANCH  23  30
ENDBRANCH  19  23
ENDBRANCH  10  12
ENDBRANCH   8  10
ENDBRANCH   7   8
ENDBRANCH   6   7
ENDBRANCH   5   6
ENDBRANCH   4   5
ENDBRANCH   3   4
ENDBRANCH   2   3
ENDBRANCH   1   2
BRANCH   1  36
ATOM     36  C   UNL     1       2.598   4.638   3.767  1.00  0.00     0.188 C 
BRANCH  36  37
ATOM     37  C   UNL     1       2.073   6.062   3.490  1.00  0.00     0.188 C 
BRANCH  37  38
ATOM     38  O   UNL     1       0.790   6.134   2.881  1.00  0.00    -0.376 OA
BRANCH  38  39
ATOM     39  C   UNL     1       0.765   6.890   1.662  1.00  0.00     0.202 C 
BRANCH  39  40
ATOM     40  C   UNL     1       1.298   6.125   0.438  1.00  0.00     0.261 C 
BRANCH  40  41
ATOM     41  O   UNL     1       2.679   5.733   0.535  1.00  0.00    -0.460 OA
BRANCH  41  42
ATOM     42  C   UNL     1       3.581   6.737   0.468  1.00  0.00     0.338 C 
ATOM     43  O   UNL     1       3.354   7.925   0.355  1.00  0.00    -0.246 OA
BRANCH  42  44
ATOM     44  C   UNL     1       4.917   6.156   0.677  1.00  0.00     0.060 A 
ATOM     45  C   UNL     1       5.533   6.295   1.926  1.00  0.00     0.016 A 
ATOM     46  C   UNL     1       5.588   5.551  -0.389  1.00  0.00     0.016 A 
ATOM     47  C   UNL     1       6.840   5.848   2.108  1.00  0.00     0.010 A 
ATOM     48  C   UNL     1       6.908   5.130  -0.213  1.00  0.00     0.010 A 
ATOM     49  C   UNL     1       7.549   5.312   1.025  1.00  0.00    -0.014 A 
BRANCH  49  50
ATOM     50  C   UNL     1       9.024   5.203   1.124  1.00  0.00     0.031 A 
ATOM     51  C   UNL     1       9.841   6.410   0.747  1.00  0.00     0.074 A 
ATOM     52  C   UNL     1       9.621   4.086   1.574  1.00  0.00     0.049 A 
ATOM     53  N   UNL     1      11.137   6.573   0.753  1.00  0.00    -0.248 NA
ATOM     54  C   UNL     1       9.085   7.595   0.309  1.00  0.00     0.031 C 
ATOM     55  C   UNL     1       8.930   2.878   2.022  1.00  0.00     0.029 A 
ATOM     56  N   UNL     1      10.952   3.789   1.726  1.00  0.00    -0.354 N 
ATOM     57  C   UNL     1      11.354   7.881   0.334  1.00  0.00     0.074 A 
ATOM     58  C   UNL     1      10.056   8.455   0.050  1.00  0.00     0.031 C 
ATOM     59  C   UNL     1       9.847   1.964   2.387  1.00  0.00     0.029 A 
ATOM     60  C   UNL     1      11.186   2.509   2.168  1.00  0.00     0.049 A 
ATOM     61  H   UNL     1      11.672   4.433   1.536  1.00  0.00     0.167 HD
ATOM     62  C   UNL     1      12.527   8.546   0.202  1.00  0.00     0.034 A 
ATOM     63  C   UNL     1      12.351   1.852   2.351  1.00  0.00     0.034 A 
ATOM     64  C   UNL     1      13.815   7.949   0.444  1.00  0.00     0.049 A 
ATOM     65  C   UNL     1      13.650   2.576   2.078  1.00  0.00     0.074 A 
ATOM     66  C   UNL     1      15.067   8.524   0.331  1.00  0.00     0.029 A 
ATOM     67  N   UNL     1      14.016   6.628   0.825  1.00  0.00    -0.354 N 
ATOM     68  N   UNL     1      13.843   3.820   1.698  1.00  0.00    -0.248 NA
ATOM     69  C   UNL     1      14.889   1.809   2.266  1.00  0.00     0.031 C 
ATOM     70  C   UNL     1      16.026   7.533   0.570  1.00  0.00     0.029 A 
ATOM     71  C   UNL     1      15.373   6.360   0.913  1.00  0.00     0.049 A 
ATOM     72  H   UNL     1      13.300   5.978   1.006  1.00  0.00     0.167 HD
ATOM     73  C   UNL     1      15.225   3.989   1.637  1.00  0.00     0.074 A 
ATOM     74  C   UNL     1      15.815   2.726   2.027  1.00  0.00     0.031 C 
ATOM     75  C   UNL     1      15.944   5.090   1.297  1.00  0.00     0.034 A 
BRANCH  62  76
ATOM     76  C   UNL     1      12.456   9.969  -0.292  1.00  0.00     0.023 A 
ATOM     77  C   UNL     1      11.843  10.984   0.464  1.00  0.00     0.031 A 
ATOM     78  C   UNL     1      12.963  10.304  -1.559  1.00  0.00     0.131 A 
ATOM     79  C   UNL     1      11.693  12.268  -0.081  1.00  0.00     0.055 A 
ATOM     80  C   UNL     1      12.877  11.602  -2.065  1.00  0.00     0.041 A 
ATOM     81  F   UNL     1      13.532   9.369  -2.336  1.00  0.00    -0.206 F 
ATOM     82  C   UNL     1      12.227  12.590  -1.332  1.00  0.00     0.022 A 
BRANCH  79  83
ATOM     83  S   UNL     1      10.665  13.473   0.804  1.00  0.00     0.124 S 
ATOM     84  O   UNL     1       9.384  12.775   0.873  1.00  0.00    -0.237 OA
ATOM     85  O   UNL     1      11.377  13.627   2.067  1.00  0.00    -0.237 OA
ATOM     86  O   UNL     1      10.682  14.645  -0.069  1.00  0.00    -0.744 OA
ENDBRANCH  79  83
ENDBRANCH  62  76
BRANCH  63  87
ATOM     87  C   UNL     1      12.360   0.419   2.767  1.00  0.00     0.023 A 
ATOM     88  C   UNL     1      12.944   0.016   3.978  1.00  0.00     0.031 A 
ATOM     89  C   UNL     1      11.849  -0.579   1.917  1.00  0.00     0.131 A 
ATOM     90  C   UNL     1      13.048  -1.351   4.284  1.00  0.00     0.055 A 
ATOM     91  C   UNL     1      11.907  -1.933   2.250  1.00  0.00     0.041 A 
ATOM     92  F   UNL     1      11.284  -0.249   0.745  1.00  0.00    -0.206 F 
ATOM     93  C   UNL     1      12.523  -2.327   3.434  1.00  0.00     0.022 A 
BRANCH  90  94
ATOM     94  S   UNL     1      13.963  -1.841   5.772  1.00  0.00     0.124 S 
ATOM     95  O   UNL     1      15.276  -1.258   5.518  1.00  0.00    -0.237 OA
ATOM     96  O   UNL     1      13.176  -1.216   6.830  1.00  0.00    -0.237 OA
ATOM     97  O   UNL     1      13.911  -3.301   5.738  1.00  0.00    -0.744 OA
ENDBRANCH  90  94
ENDBRANCH  63  87
BRANCH  75  98
ATOM     98  C   UNL     1      17.448   4.988   1.384  1.00  0.00     0.023 A 
ATOM     99  C   UNL     1      18.189   4.162   0.521  1.00  0.00     0.031 A 
ATOM    100  C   UNL     1      18.149   5.735   2.348  1.00  0.00     0.131 A 
ATOM    101  C   UNL     1      19.581   4.064   0.672  1.00  0.00     0.055 A 
ATOM    102  C   UNL     1      19.539   5.678   2.455  1.00  0.00     0.041 A 
ATOM    103  F   UNL     1      17.493   6.540   3.199  1.00  0.00    -0.206 F 
ATOM    104  C   UNL     1      20.262   4.829   1.622  1.00  0.00     0.022 A 
BRANCH 101 105
ATOM    105  S   UNL     1      20.484   2.855  -0.335  1.00  0.00     0.124 S 
ATOM    106  O   UNL     1      19.832   1.603   0.035  1.00  0.00    -0.237 OA
ATOM    107  O   UNL     1      20.232   3.328  -1.692  1.00  0.00    -0.237 OA
ATOM    108  O   UNL     1      21.866   2.993   0.121  1.00  0.00    -0.744 OA
ENDBRANCH 101 105
ENDBRANCH  75  98
ENDBRANCH  49  50
ENDBRANCH  42  44
ENDBRANCH  41  42
ENDBRANCH  40  41
ENDBRANCH  39  40
ENDBRANCH  38  39
ENDBRANCH  37  38
ENDBRANCH  36  37
ENDBRANCH   1  36
TORSDOF 27
