REMARK SMILES CC1=C(C)C[C@@H](C(=O)OCCOCCOCCOCCOC(=O)c2ccc(-c3c4nc(c(-c5cc(S(=O)(=O)[O-])ccc5F)c5ccc([nH]5)c(-c5cc(S(=O)(=O)[O-])ccc5F)c5nc(c(-c6cc(S(=O)(=O)[O-])ccc6F)c6ccc3[nH]6)C=C5)C=C4)cc2)[C@@H](C(=O)NCC[NH+]2CCOCC2)C1
REMARK SMILES IDX 14 1 13 2 12 3 11 4 10 5 9 6 7 7 8 8 6 9 1 10 2 11 3 12
REMARK SMILES IDX 99 13 4 14 5 15 87 16 88 17 89 18 90 19 91 21 92 22 93 23
REMARK SMILES IDX 94 24 98 25 95 27 97 28 96 29 15 30 16 31 17 32 18 33 19 34
REMARK SMILES IDX 20 35 21 36 22 37 23 38 24 39 25 40 86 41 26 42 85 43 27 44
REMARK SMILES IDX 28 45 29 46 79 47 30 48 84 49 78 50 80 51 31 52 83 53 77 54
REMARK SMILES IDX 76 55 32 57 64 58 44 59 63 60 45 61 48 62 62 63 81 64 46 65
REMARK SMILES IDX 47 66 61 68 82 69 49 70 33 71 34 72 42 73 35 74 41 75 43 76
REMARK SMILES IDX 40 77 36 78 37 79 38 80 39 81 65 82 66 83 74 84 67 85 73 86
REMARK SMILES IDX 75 87 72 88 68 89 69 90 70 91 71 92 50 93 51 94 59 95 52 96
REMARK SMILES IDX 58 97 60 98 57 99 53 100 54 101 55 102 56 103
REMARK H PARENT 90 20 93 26 80 56 48 67
REMARK Flexibility Score: inf
ROOT
ATOM      1  C   UNL     1       1.097   6.528   1.347  1.00  0.00     0.188 C 
ENDROOT
BRANCH   1   2
ATOM      2  C   UNL     1      -0.342   6.955   1.684  1.00  0.00     0.188 C 
BRANCH   2   3
ATOM      3  O   UNL     1      -0.589   6.966   3.074  1.00  0.00    -0.376 OA
BRANCH   3   4
ATOM      4  C   UNL     1      -1.667   6.197   3.573  1.00  0.00     0.202 C 
BRANCH   4   5
ATOM      5  C   UNL     1      -1.677   4.675   3.344  1.00  0.00     0.261 C 
BRANCH   5   6
ATOM      6  O   UNL     1      -0.996   4.202   2.172  1.00  0.00    -0.463 OA
BRANCH   6   7
ATOM      7  C   UNL     1      -1.772   3.976   1.094  1.00  0.00     0.310 C 
ATOM      8  O   UNL     1      -2.940   4.351   1.010  1.00  0.00    -0.252 OA
BRANCH   7   9
ATOM      9  C   UNL     1      -1.060   3.319  -0.075  1.00  0.00     0.116 C 
ATOM     10  C   UNL     1       0.635  -0.693  -0.624  1.00  0.00     0.039 C 
ATOM     11  C   UNL     1      -0.062   0.630  -0.771  1.00  0.00    -0.074 C 
ATOM     12  C   UNL     1      -1.383   0.802  -0.568  1.00  0.00    -0.073 C 
ATOM     13  C   UNL     1       0.793   1.857  -1.010  1.00  0.00     0.045 C 
ATOM     14  C   UNL     1      -2.367  -0.293  -0.263  1.00  0.00     0.039 C 
ATOM     15  C   UNL     1      -1.970   2.188  -0.613  1.00  0.00     0.046 C 
ATOM     16  C   UNL     1       0.440   2.965   0.014  1.00  0.00     0.097 C 
BRANCH  16  17
ATOM     17  C   UNL     1       1.034   2.462   1.333  1.00  0.00     0.224 C 
ATOM     18  O   UNL     1       0.478   1.659   2.072  1.00  0.00    -0.275 OA
ATOM     19  N   UNL     1       2.375   2.798   1.427  1.00  0.00    -0.350 N 
ATOM     20  H   UNL     1       2.657   3.716   1.210  1.00  0.00     0.163 HD
BRANCH  19  21
ATOM     21  C   UNL     1       3.374   1.830   1.839  1.00  0.00     0.177 C 
BRANCH  21  22
ATOM     22  C   UNL     1       4.779   2.087   1.232  1.00  0.00     0.283 C 
BRANCH  22  23
ATOM     23  N   UNL     1       5.607   2.935   2.097  1.00  0.00    -0.330 N 
ATOM     24  C   UNL     1       5.499   4.370   1.792  1.00  0.00     0.291 C 
ATOM     25  C   UNL     1       7.033   2.552   2.119  1.00  0.00     0.291 C 
ATOM     26  H   UNL     1       5.219   2.772   3.026  1.00  0.00     0.348 HD
ATOM     27  C   UNL     1       6.365   4.870   0.627  1.00  0.00     0.221 C 
ATOM     28  C   UNL     1       7.851   3.072   0.927  1.00  0.00     0.221 C 
ATOM     29  O   UNL     1       7.736   4.493   0.792  1.00  0.00    -0.370 OA
ENDBRANCH  22  23
ENDBRANCH  21  22
ENDBRANCH  19  21
ENDBRANCH  16  17
ENDBRANCH   7   9
ENDBRANCH   6   7
ENDBRANCH   5   6
ENDBRANCH   4   5
ENDBRANCH   3   4
ENDBRANCH   2   3
ENDBRANCH   1   2
BRANCH   1  30
ATOM     30  O   UNL     1       1.772   5.609   2.200  1.00  0.00    -0.377 OA
BRANCH  30  31
ATOM     31  C   UNL     1       1.857   5.888   3.606  1.00  0.00     0.188 C 
BRANCH  31  32
ATOM     32  C   UNL     1       1.943   7.342   4.137  1.00  0.00     0.188 C 
BRANCH  32  33
ATOM     33  O   UNL     1       2.220   8.327   3.149  1.00  0.00    -0.376 OA
BRANCH  33  34
ATOM     34  C   UNL     1       3.541   8.855   3.160  1.00  0.00     0.202 C 
BRANCH  34  35
ATOM     35  C   UNL     1       4.609   7.843   2.741  1.00  0.00     0.261 C 
BRANCH  35  36
ATOM     36  O   UNL     1       4.798   6.774   3.682  1.00  0.00    -0.460 OA
BRANCH  36  37
ATOM     37  C   UNL     1       5.273   7.112   4.903  1.00  0.00     0.338 C 
ATOM     38  O   UNL     1       5.566   8.226   5.288  1.00  0.00    -0.246 OA
BRANCH  37  39
ATOM     39  C   UNL     1       5.223   5.907   5.754  1.00  0.00     0.060 A 
ATOM     40  C   UNL     1       4.409   5.913   6.888  1.00  0.00     0.016 A 
ATOM     41  C   UNL     1       6.010   4.794   5.453  1.00  0.00     0.016 A 
ATOM     42  C   UNL     1       4.437   4.824   7.760  1.00  0.00     0.010 A 
ATOM     43  C   UNL     1       6.002   3.686   6.300  1.00  0.00     0.010 A 
ATOM     44  C   UNL     1       5.272   3.726   7.497  1.00  0.00    -0.014 A 
BRANCH  44  45
ATOM     45  C   UNL     1       5.554   2.755   8.587  1.00  0.00     0.031 A 
ATOM     46  C   UNL     1       6.878   2.846   9.305  1.00  0.00     0.074 A 
ATOM     47  C   UNL     1       4.630   1.860   8.980  1.00  0.00     0.049 A 
ATOM     48  N   UNL     1       7.303   2.193  10.357  1.00  0.00    -0.248 NA
ATOM     49  C   UNL     1       7.862   3.791   8.753  1.00  0.00     0.031 C 
ATOM     50  C   UNL     1       3.325   1.658   8.352  1.00  0.00     0.029 A 
ATOM     51  N   UNL     1       4.644   0.963  10.019  1.00  0.00    -0.354 N 
ATOM     52  C   UNL     1       8.595   2.654  10.592  1.00  0.00     0.074 A 
ATOM     53  C   UNL     1       8.912   3.579   9.528  1.00  0.00     0.031 C 
ATOM     54  C   UNL     1       2.652   0.716   9.037  1.00  0.00     0.029 A 
ATOM     55  C   UNL     1       3.480   0.241  10.143  1.00  0.00     0.049 A 
ATOM     56  H   UNL     1       5.416   0.847  10.619  1.00  0.00     0.167 HD
ATOM     57  C   UNL     1       9.432   2.364  11.619  1.00  0.00     0.034 A 
ATOM     58  C   UNL     1       3.122  -0.685  11.057  1.00  0.00     0.034 A 
ATOM     59  C   UNL     1       9.106   1.442  12.677  1.00  0.00     0.049 A 
ATOM     60  C   UNL     1       4.074  -1.007  12.185  1.00  0.00     0.074 A 
ATOM     61  C   UNL     1       9.863   1.087  13.778  1.00  0.00     0.029 A 
ATOM     62  N   UNL     1       7.921   0.721  12.761  1.00  0.00    -0.354 N 
ATOM     63  N   UNL     1       5.271  -0.520  12.427  1.00  0.00    -0.248 NA
ATOM     64  C   UNL     1       3.611  -1.983  13.180  1.00  0.00     0.031 C 
ATOM     65  C   UNL     1       9.164   0.108  14.495  1.00  0.00     0.029 A 
ATOM     66  C   UNL     1       7.937  -0.093  13.883  1.00  0.00     0.049 A 
ATOM     67  H   UNL     1       7.178   0.780  12.117  1.00  0.00     0.167 HD
ATOM     68  C   UNL     1       5.686  -1.107  13.621  1.00  0.00     0.074 A 
ATOM     69  C   UNL     1       4.603  -1.965  14.057  1.00  0.00     0.031 C 
ATOM     70  C   UNL     1       6.852  -0.950  14.300  1.00  0.00     0.034 A 
BRANCH  57  71
ATOM     71  C   UNL     1      10.784   3.038  11.616  1.00  0.00     0.023 A 
ATOM     72  C   UNL     1      10.913   4.436  11.704  1.00  0.00     0.031 A 
ATOM     73  C   UNL     1      11.958   2.279  11.468  1.00  0.00     0.131 A 
ATOM     74  C   UNL     1      12.173   5.036  11.558  1.00  0.00     0.055 A 
ATOM     75  C   UNL     1      13.219   2.877  11.410  1.00  0.00     0.041 A 
ATOM     76  F   UNL     1      11.899   0.943  11.354  1.00  0.00    -0.206 F 
ATOM     77  C   UNL     1      13.330   4.264  11.438  1.00  0.00     0.022 A 
BRANCH  74  78
ATOM     78  S   UNL     1      12.259   6.838  11.371  1.00  0.00     0.124 S 
ATOM     79  O   UNL     1      11.451   7.049  10.172  1.00  0.00    -0.237 OA
ATOM     80  O   UNL     1      11.683   7.315  12.622  1.00  0.00    -0.237 OA
ATOM     81  O   UNL     1      13.688   7.097  11.203  1.00  0.00    -0.744 OA
ENDBRANCH  74  78
ENDBRANCH  57  71
BRANCH  58  82
ATOM     82  C   UNL     1       1.801  -1.372  10.963  1.00  0.00     0.023 A 
ATOM     83  C   UNL     1       0.820  -1.207  11.954  1.00  0.00     0.031 A 
ATOM     84  C   UNL     1       1.526  -2.257   9.905  1.00  0.00     0.131 A 
ATOM     85  C   UNL     1      -0.367  -1.954  11.897  1.00  0.00     0.055 A 
ATOM     86  C   UNL     1       0.322  -2.959   9.825  1.00  0.00     0.041 A 
ATOM     87  F   UNL     1       2.429  -2.451   8.931  1.00  0.00    -0.206 F 
ATOM     88  C   UNL     1      -0.627  -2.820  10.833  1.00  0.00     0.022 A 
BRANCH  85  89
ATOM     89  S   UNL     1      -1.535  -1.842  13.281  1.00  0.00     0.124 S 
ATOM     90  O   UNL     1      -0.705  -2.258  14.406  1.00  0.00    -0.237 OA
ATOM     91  O   UNL     1      -1.911  -0.432  13.248  1.00  0.00    -0.237 OA
ATOM     92  O   UNL     1      -2.596  -2.776  12.909  1.00  0.00    -0.744 OA
ENDBRANCH  85  89
ENDBRANCH  58  82
BRANCH  70  93
ATOM     93  C   UNL     1       6.989  -1.690  15.609  1.00  0.00     0.023 A 
ATOM     94  C   UNL     1       7.019  -3.095  15.667  1.00  0.00     0.031 A 
ATOM     95  C   UNL     1       7.062  -0.978  16.820  1.00  0.00     0.131 A 
ATOM     96  C   UNL     1       7.047  -3.743  16.911  1.00  0.00     0.055 A 
ATOM     97  C   UNL     1       7.157  -1.628  18.051  1.00  0.00     0.041 A 
ATOM     98  F   UNL     1       7.040   0.364  16.826  1.00  0.00    -0.206 F 
ATOM     99  C   UNL     1       7.131  -3.019  18.102  1.00  0.00     0.022 A 
BRANCH  96 100
ATOM    100  S   UNL     1       6.849  -5.546  16.956  1.00  0.00     0.124 S 
ATOM    101  O   UNL     1       5.600  -5.734  16.226  1.00  0.00    -0.237 OA
ATOM    102  O   UNL     1       8.058  -6.008  16.282  1.00  0.00    -0.237 OA
ATOM    103  O   UNL     1       6.783  -5.848  18.385  1.00  0.00    -0.744 OA
ENDBRANCH  96 100
ENDBRANCH  70  93
ENDBRANCH  44  45
ENDBRANCH  37  39
ENDBRANCH  36  37
ENDBRANCH  35  36
ENDBRANCH  34  35
ENDBRANCH  33  34
ENDBRANCH  32  33
ENDBRANCH  31  32
ENDBRANCH  30  31
ENDBRANCH   1  30
TORSDOF 27
