REMARK SMILES O=C(CSc1nc2cnccc2n1CCC1CC1)OCCOCCOCCOCCOC(=O)c1ccc(-c2c3nc(c(-c4cc(S(=O)(=O)[O-])ccc4F)c4ccc([nH]4)c(-c4cc(S(=O)(=O)[O-])ccc4F)c4nc(c(-c5cc(S(=O)(=O)[O-])ccc5F)c5ccc2[nH]5)C=C4)C=C3)cc1
REMARK SMILES IDX 24 1 23 2 22 3 21 4 20 5 19 6 2 7 1 8 3 9 4 10 5 11 6 12
REMARK SMILES IDX 13 13 7 14 12 15 8 16 11 17 9 18 10 19 14 20 15 21 16 22
REMARK SMILES IDX 17 23 18 24 25 25 26 26 27 27 28 28 29 29 30 30 31 31 32 32
REMARK SMILES IDX 33 33 34 34 35 35 96 36 36 37 95 38 37 39 38 40 39 41 89 42
REMARK SMILES IDX 40 43 94 44 88 45 90 46 41 47 93 48 87 49 86 50 42 52 74 53
REMARK SMILES IDX 54 54 73 55 55 56 58 57 72 58 91 59 56 60 57 61 71 63 92 64
REMARK SMILES IDX 59 65 43 66 44 67 52 68 45 69 51 70 53 71 50 72 46 73 47 74
REMARK SMILES IDX 48 75 49 76 75 77 76 78 84 79 77 80 83 81 85 82 82 83 78 84
REMARK SMILES IDX 79 85 80 86 81 87 60 88 61 89 69 90 62 91 68 92 70 93 67 94
REMARK SMILES IDX 63 95 64 96 65 97 66 98
REMARK H PARENT 90 51 58 62
REMARK Flexibility Score: inf
ROOT
ATOM      1  C   UNL     1       2.022   0.574   3.454  1.00  0.00     0.188 C 
ENDROOT
BRANCH   1   2
ATOM      2  C   UNL     1       2.654  -0.314   2.389  1.00  0.00     0.188 C 
BRANCH   2   3
ATOM      3  O   UNL     1       4.060  -0.495   2.550  1.00  0.00    -0.376 OA
BRANCH   3   4
ATOM      4  C   UNL     1       4.960  -0.294   1.450  1.00  0.00     0.202 C 
BRANCH   4   5
ATOM      5  C   UNL     1       4.404   0.140   0.093  1.00  0.00     0.261 C 
BRANCH   5   6
ATOM      6  O   UNL     1       3.360  -0.735  -0.368  1.00  0.00    -0.463 OA
BRANCH   6   7
ATOM      7  C   UNL     1       3.523  -2.061  -0.127  1.00  0.00     0.316 C 
ATOM      8  O   UNL     1       2.818  -2.662   0.680  1.00  0.00    -0.251 OA
BRANCH   7   9
ATOM      9  C   UNL     1       4.566  -2.757  -0.948  1.00  0.00     0.200 C 
BRANCH   9  10
ATOM     10  S   UNL     1       4.792  -1.980  -2.568  1.00  0.00    -0.076 SA
BRANCH  10  11
ATOM     11  C   UNL     1       3.424  -2.611  -3.412  1.00  0.00     0.169 A 
ATOM     12  N   UNL     1       3.295  -3.887  -3.690  1.00  0.00    -0.221 NA
ATOM     13  N   UNL     1       2.390  -1.864  -3.932  1.00  0.00    -0.319 N 
ATOM     14  C   UNL     1       2.273  -3.941  -4.601  1.00  0.00     0.108 A 
ATOM     15  C   UNL     1       1.759  -2.672  -4.853  1.00  0.00     0.072 A 
ATOM     16  C   UNL     1       1.723  -5.034  -5.273  1.00  0.00     0.141 A 
ATOM     17  C   UNL     1       0.777  -2.446  -5.813  1.00  0.00     0.049 A 
ATOM     18  N   UNL     1       0.719  -4.856  -6.171  1.00  0.00    -0.262 NA
ATOM     19  C   UNL     1       0.298  -3.593  -6.427  1.00  0.00     0.113 A 
BRANCH  13  20
ATOM     20  C   UNL     1       1.934  -0.544  -3.533  1.00  0.00     0.125 C 
BRANCH  20  21
ATOM     21  C   UNL     1       0.430  -0.378  -3.239  1.00  0.00     0.025 C 
BRANCH  21  22
ATOM     22  C   UNL     1      -0.201  -1.142  -2.108  1.00  0.00    -0.009 C 
ATOM     23  C   UNL     1      -0.479  -2.633  -2.086  1.00  0.00     0.004 C 
ATOM     24  C   UNL     1       0.591  -2.049  -1.223  1.00  0.00     0.004 C 
ENDBRANCH  21  22
ENDBRANCH  20  21
ENDBRANCH  13  20
ENDBRANCH  10  11
ENDBRANCH   9  10
ENDBRANCH   7   9
ENDBRANCH   6   7
ENDBRANCH   5   6
ENDBRANCH   4   5
ENDBRANCH   3   4
ENDBRANCH   2   3
ENDBRANCH   1   2
BRANCH   1  25
ATOM     25  O   UNL     1       2.447   1.925   3.475  1.00  0.00    -0.377 OA
BRANCH  25  26
ATOM     26  C   UNL     1       3.832   2.140   3.285  1.00  0.00     0.188 C 
BRANCH  26  27
ATOM     27  C   UNL     1       4.830   1.578   4.327  1.00  0.00     0.188 C 
BRANCH  27  28
ATOM     28  O   UNL     1       4.350   1.067   5.551  1.00  0.00    -0.376 OA
BRANCH  28  29
ATOM     29  C   UNL     1       3.473   1.866   6.319  1.00  0.00     0.202 C 
BRANCH  29  30
ATOM     30  C   UNL     1       3.546   3.415   6.376  1.00  0.00     0.261 C 
BRANCH  30  31
ATOM     31  O   UNL     1       4.075   4.099   5.226  1.00  0.00    -0.460 OA
BRANCH  31  32
ATOM     32  C   UNL     1       5.270   4.756   5.338  1.00  0.00     0.338 C 
ATOM     33  O   UNL     1       5.832   5.049   6.361  1.00  0.00    -0.246 OA
BRANCH  32  34
ATOM     34  C   UNL     1       5.915   4.740   3.977  1.00  0.00     0.060 A 
ATOM     35  C   UNL     1       5.236   5.131   2.821  1.00  0.00     0.016 A 
ATOM     36  C   UNL     1       7.120   4.023   3.858  1.00  0.00     0.016 A 
ATOM     37  C   UNL     1       5.699   4.690   1.572  1.00  0.00     0.010 A 
ATOM     38  C   UNL     1       7.570   3.571   2.608  1.00  0.00     0.010 A 
ATOM     39  C   UNL     1       6.848   3.874   1.453  1.00  0.00    -0.014 A 
BRANCH  39  40
ATOM     40  C   UNL     1       7.377   3.633   0.087  1.00  0.00     0.031 A 
ATOM     41  C   UNL     1       7.738   4.911  -0.599  1.00  0.00     0.074 A 
ATOM     42  C   UNL     1       7.764   2.488  -0.523  1.00  0.00     0.049 A 
ATOM     43  N   UNL     1       7.297   5.407  -1.709  1.00  0.00    -0.248 NA
ATOM     44  C   UNL     1       8.635   5.800   0.155  1.00  0.00     0.031 C 
ATOM     45  C   UNL     1       7.971   1.174   0.084  1.00  0.00     0.029 A 
ATOM     46  N   UNL     1       8.166   2.290  -1.828  1.00  0.00    -0.354 N 
ATOM     47  C   UNL     1       7.970   6.620  -1.866  1.00  0.00     0.074 A 
ATOM     48  C   UNL     1       8.647   6.877  -0.622  1.00  0.00     0.031 C 
ATOM     49  C   UNL     1       8.608   0.366  -0.795  1.00  0.00     0.029 A 
ATOM     50  C   UNL     1       8.815   1.079  -2.049  1.00  0.00     0.049 A 
ATOM     51  H   UNL     1       8.009   2.949  -2.542  1.00  0.00     0.167 HD
ATOM     52  C   UNL     1       8.071   7.276  -3.056  1.00  0.00     0.034 A 
ATOM     53  C   UNL     1       9.582   0.711  -3.112  1.00  0.00     0.034 A 
ATOM     54  C   UNL     1       7.118   6.801  -4.015  1.00  0.00     0.049 A 
ATOM     55  C   UNL     1       9.430   1.676  -4.224  1.00  0.00     0.074 A 
ATOM     56  C   UNL     1       5.740   6.759  -4.071  1.00  0.00     0.029 A 
ATOM     57  N   UNL     1       7.559   5.984  -5.024  1.00  0.00    -0.354 N 
ATOM     58  N   UNL     1       8.427   1.736  -5.048  1.00  0.00    -0.248 NA
ATOM     59  C   UNL     1      10.282   2.853  -4.203  1.00  0.00     0.031 C 
ATOM     60  C   UNL     1       5.436   5.562  -4.774  1.00  0.00     0.029 A 
ATOM     61  C   UNL     1       6.643   4.971  -5.150  1.00  0.00     0.049 A 
ATOM     62  H   UNL     1       8.378   6.102  -5.558  1.00  0.00     0.167 HD
ATOM     63  C   UNL     1       8.233   3.090  -5.259  1.00  0.00     0.074 A 
ATOM     64  C   UNL     1       9.479   3.716  -4.825  1.00  0.00     0.031 C 
ATOM     65  C   UNL     1       6.989   3.607  -5.495  1.00  0.00     0.034 A 
BRANCH  52  66
ATOM     66  C   UNL     1       9.223   8.181  -3.417  1.00  0.00     0.023 A 
ATOM     67  C   UNL     1      10.431   8.196  -2.693  1.00  0.00     0.031 A 
ATOM     68  C   UNL     1       9.222   8.916  -4.618  1.00  0.00     0.131 A 
ATOM     69  C   UNL     1      11.537   8.941  -3.113  1.00  0.00     0.055 A 
ATOM     70  C   UNL     1      10.355   9.597  -5.083  1.00  0.00     0.041 A 
ATOM     71  F   UNL     1       8.136   8.950  -5.407  1.00  0.00    -0.206 F 
ATOM     72  C   UNL     1      11.520   9.621  -4.325  1.00  0.00     0.022 A 
BRANCH  69  73
ATOM     73  S   UNL     1      13.017   9.039  -2.069  1.00  0.00     0.124 S 
ATOM     74  O   UNL     1      14.021   8.400  -2.913  1.00  0.00    -0.237 OA
ATOM     75  O   UNL     1      13.160  10.481  -1.891  1.00  0.00    -0.237 OA
ATOM     76  O   UNL     1      12.634   8.305  -0.867  1.00  0.00    -0.744 OA
ENDBRANCH  69  73
ENDBRANCH  52  66
BRANCH  53  77
ATOM     77  C   UNL     1      10.756  -0.197  -3.082  1.00  0.00     0.023 A 
ATOM     78  C   UNL     1      11.575  -0.201  -1.941  1.00  0.00     0.031 A 
ATOM     79  C   UNL     1      11.254  -0.832  -4.233  1.00  0.00     0.131 A 
ATOM     80  C   UNL     1      12.841  -0.793  -1.965  1.00  0.00     0.055 A 
ATOM     81  C   UNL     1      12.520  -1.436  -4.255  1.00  0.00     0.041 A 
ATOM     82  F   UNL     1      10.550  -0.830  -5.375  1.00  0.00    -0.206 F 
ATOM     83  C   UNL     1      13.325  -1.411  -3.117  1.00  0.00     0.022 A 
BRANCH  80  84
ATOM     84  S   UNL     1      13.893  -0.701  -0.494  1.00  0.00     0.124 S 
ATOM     85  O   UNL     1      14.460  -2.045  -0.428  1.00  0.00    -0.237 OA
ATOM     86  O   UNL     1      14.822   0.361  -0.863  1.00  0.00    -0.237 OA
ATOM     87  O   UNL     1      12.949  -0.379   0.573  1.00  0.00    -0.744 OA
ENDBRANCH  80  84
ENDBRANCH  53  77
BRANCH  65  88
ATOM     88  C   UNL     1       5.847   2.682  -5.874  1.00  0.00     0.023 A 
ATOM     89  C   UNL     1       4.894   3.163  -6.798  1.00  0.00     0.031 A 
ATOM     90  C   UNL     1       5.574   1.437  -5.279  1.00  0.00     0.131 A 
ATOM     91  C   UNL     1       3.729   2.436  -7.070  1.00  0.00     0.055 A 
ATOM     92  C   UNL     1       4.500   0.646  -5.687  1.00  0.00     0.041 A 
ATOM     93  F   UNL     1       6.258   0.982  -4.219  1.00  0.00    -0.206 F 
ATOM     94  C   UNL     1       3.555   1.150  -6.568  1.00  0.00     0.022 A 
BRANCH  91  95
ATOM     95  S   UNL     1       2.353   3.194  -7.968  1.00  0.00     0.124 S 
ATOM     96  O   UNL     1       1.947   2.132  -8.886  1.00  0.00    -0.237 OA
ATOM     97  O   UNL     1       1.412   3.468  -6.883  1.00  0.00    -0.237 OA
ATOM     98  O   UNL     1       2.947   4.369  -8.597  1.00  0.00    -0.744 OA
ENDBRANCH  91  95
ENDBRANCH  65  88
ENDBRANCH  39  40
ENDBRANCH  32  34
ENDBRANCH  31  32
ENDBRANCH  30  31
ENDBRANCH  29  30
ENDBRANCH  28  29
ENDBRANCH  27  28
ENDBRANCH  26  27
ENDBRANCH  25  26
ENDBRANCH   1  25
TORSDOF 28
