REMARK SMILES C[C@@H](CCC(=O)OCCOCCOCCOCCOC(=O)c1ccc(-c2c3nc(c(-c4cc(S(=O)(=O)[O-])ccc4F)c4ccc([nH]4)c(-c4cc(S(=O)(=O)[O-])ccc4F)c4nc(c(-c5cc(S(=O)(=O)[O-])ccc5F)c5ccc2[nH]5)C=C4)C=C3)cc1)[C@@H]1CC[C@H]2[C@@H]3CC[C@H]4CC(=O)CC[C@@]4(C)[C@H]3CC(=O)[C@@]21C
REMARK SMILES IDX 13 1 12 2 11 3 10 4 9 5 8 6 7 7 5 8 6 9 4 10 3 11 2 12 1 13
REMARK SMILES IDX 85 14 86 15 104 16 87 17 88 18 102 19 105 20 89 21 101 22
REMARK SMILES IDX 103 23 90 24 100 25 91 26 98 27 92 28 97 29 99 30 93 31
REMARK SMILES IDX 96 32 94 33 95 34 14 35 15 36 16 37 17 38 18 39 19 40 20 41
REMARK SMILES IDX 21 42 22 43 23 44 84 45 24 46 83 47 25 48 26 49 27 50 77 51
REMARK SMILES IDX 28 52 82 53 76 54 78 55 29 56 81 57 75 58 74 59 30 61 62 62
REMARK SMILES IDX 42 63 61 64 43 65 46 66 60 67 79 68 44 69 45 70 59 72 80 73
REMARK SMILES IDX 47 74 31 75 32 76 40 77 33 78 39 79 41 80 38 81 34 82 35 83
REMARK SMILES IDX 36 84 37 85 63 86 64 87 72 88 65 89 71 90 73 91 70 92 66 93
REMARK SMILES IDX 67 94 68 95 69 96 48 97 49 98 57 99 50 100 56 101 58 102
REMARK SMILES IDX 55 103 51 104 52 105 53 106 54 107
REMARK H PARENT 78 60 46 71
REMARK Flexibility Score: inf
ROOT
ATOM      1  O   UNL     1      -2.377  -1.827   3.421  1.00  0.00    -0.377 OA
ENDROOT
BRANCH   1   2
ATOM      2  C   UNL     1      -1.728  -0.829   4.178  1.00  0.00     0.188 C 
BRANCH   2   3
ATOM      3  C   UNL     1      -2.432   0.344   4.860  1.00  0.00     0.188 C 
BRANCH   3   4
ATOM      4  O   UNL     1      -3.688   0.805   4.390  1.00  0.00    -0.376 OA
BRANCH   4   5
ATOM      5  C   UNL     1      -3.829   1.280   3.055  1.00  0.00     0.202 C 
BRANCH   5   6
ATOM      6  C   UNL     1      -2.875   2.368   2.580  1.00  0.00     0.261 C 
BRANCH   6   7
ATOM      7  O   UNL     1      -1.591   1.794   2.276  1.00  0.00    -0.463 OA
BRANCH   7   8
ATOM      8  C   UNL     1      -0.518   2.559   2.541  1.00  0.00     0.305 C 
ATOM      9  O   UNL     1      -0.570   3.668   3.064  1.00  0.00    -0.252 OA
BRANCH   8  10
ATOM     10  C   UNL     1       0.792   1.944   2.108  1.00  0.00     0.123 C 
BRANCH  10  11
ATOM     11  C   UNL     1       0.925   0.449   1.782  1.00  0.00     0.015 C 
BRANCH  11  12
ATOM     12  C   UNL     1       0.709  -0.135   0.355  1.00  0.00    -0.010 C 
ATOM     13  C   UNL     1       1.710   0.580  -0.571  1.00  0.00     0.008 C 
BRANCH  12  14
ATOM     14  C   UNL     1      -0.676  -0.204  -0.373  1.00  0.00     0.005 C 
ATOM     15  C   UNL     1      -1.946  -0.435   0.491  1.00  0.00     0.005 C 
ATOM     16  C   UNL     1      -0.833  -1.348  -1.467  1.00  0.00     0.032 C 
ATOM     17  C   UNL     1      -2.678  -1.687  -0.006  1.00  0.00     0.005 C 
ATOM     18  C   UNL     1      -1.540  -2.455  -0.641  1.00  0.00     0.006 C 
ATOM     19  C   UNL     1       0.337  -2.116  -2.096  1.00  0.00     0.139 C 
ATOM     20  C   UNL     1      -1.675  -0.739  -2.613  1.00  0.00     0.020 C 
ATOM     21  C   UNL     1      -1.883  -3.787  -1.355  1.00  0.00    -0.003 C 
ATOM     22  C   UNL     1      -0.061  -3.264  -3.021  1.00  0.00     0.080 C 
ATOM     23  O   UNL     1       1.517  -1.973  -1.785  1.00  0.00    -0.299 OA
ATOM     24  C   UNL     1      -2.321  -4.801  -0.290  1.00  0.00     0.004 C 
ATOM     25  C   UNL     1      -0.653  -4.359  -2.130  1.00  0.00     0.006 C 
ATOM     26  C   UNL     1      -2.414  -6.227  -0.796  1.00  0.00     0.005 C 
ATOM     27  C   UNL     1      -0.907  -5.781  -2.784  1.00  0.00    -0.025 C 
ATOM     28  C   UNL     1      -1.214  -6.727  -1.600  1.00  0.00     0.002 C 
ATOM     29  C   UNL     1      -2.066  -5.844  -3.825  1.00  0.00     0.015 C 
ATOM     30  C   UNL     1       0.380  -6.288  -3.488  1.00  0.00     0.012 C 
ATOM     31  C   UNL     1      -1.440  -8.163  -2.068  1.00  0.00     0.079 C 
ATOM     32  C   UNL     1      -2.949  -7.115  -3.884  1.00  0.00     0.076 C 
ATOM     33  C   UNL     1      -2.682  -8.233  -2.899  1.00  0.00     0.133 C 
ATOM     34  O   UNL     1      -3.446  -9.189  -2.767  1.00  0.00    -0.300 OA
ENDBRANCH  12  14
ENDBRANCH  11  12
ENDBRANCH  10  11
ENDBRANCH   8  10
ENDBRANCH   7   8
ENDBRANCH   6   7
ENDBRANCH   5   6
ENDBRANCH   4   5
ENDBRANCH   3   4
ENDBRANCH   2   3
ENDBRANCH   1   2
BRANCH   1  35
ATOM     35  C   UNL     1      -3.754  -2.068   3.592  1.00  0.00     0.188 C 
BRANCH  35  36
ATOM     36  C   UNL     1      -4.196  -2.473   4.991  1.00  0.00     0.188 C 
BRANCH  36  37
ATOM     37  O   UNL     1      -3.095  -2.759   5.841  1.00  0.00    -0.376 OA
BRANCH  37  38
ATOM     38  C   UNL     1      -2.716  -4.131   5.905  1.00  0.00     0.202 C 
BRANCH  38  39
ATOM     39  C   UNL     1      -2.255  -4.816   4.606  1.00  0.00     0.261 C 
BRANCH  39  40
ATOM     40  O   UNL     1      -3.203  -4.894   3.515  1.00  0.00    -0.460 OA
BRANCH  40  41
ATOM     41  C   UNL     1      -4.324  -5.637   3.642  1.00  0.00     0.338 C 
ATOM     42  O   UNL     1      -4.687  -6.229   4.651  1.00  0.00    -0.246 OA
BRANCH  41  43
ATOM     43  C   UNL     1      -4.982  -5.722   2.309  1.00  0.00     0.060 A 
ATOM     44  C   UNL     1      -5.740  -4.690   1.729  1.00  0.00     0.016 A 
ATOM     45  C   UNL     1      -4.762  -6.871   1.571  1.00  0.00     0.016 A 
ATOM     46  C   UNL     1      -6.211  -4.781   0.386  1.00  0.00     0.010 A 
ATOM     47  C   UNL     1      -5.197  -6.931   0.237  1.00  0.00     0.010 A 
ATOM     48  C   UNL     1      -5.912  -5.892  -0.415  1.00  0.00    -0.014 A 
BRANCH  48  49
ATOM     49  C   UNL     1      -6.272  -6.077  -1.897  1.00  0.00     0.031 A 
ATOM     50  C   UNL     1      -6.698  -7.471  -2.349  1.00  0.00     0.074 A 
ATOM     51  C   UNL     1      -6.009  -5.188  -2.891  1.00  0.00     0.049 A 
ATOM     52  N   UNL     1      -6.570  -8.058  -3.515  1.00  0.00    -0.248 NA
ATOM     53  C   UNL     1      -7.199  -8.347  -1.283  1.00  0.00     0.031 C 
ATOM     54  C   UNL     1      -5.512  -3.822  -2.744  1.00  0.00     0.029 A 
ATOM     55  N   UNL     1      -6.015  -5.373  -4.274  1.00  0.00    -0.354 N 
ATOM     56  C   UNL     1      -6.801  -9.413  -3.267  1.00  0.00     0.074 A 
ATOM     57  C   UNL     1      -6.980  -9.528  -1.833  1.00  0.00     0.031 C 
ATOM     58  C   UNL     1      -5.189  -3.328  -3.957  1.00  0.00     0.029 A 
ATOM     59  C   UNL     1      -5.414  -4.348  -4.984  1.00  0.00     0.049 A 
ATOM     60  H   UNL     1      -6.412  -6.163  -4.707  1.00  0.00     0.167 HD
ATOM     61  C   UNL     1      -6.892 -10.467  -4.124  1.00  0.00     0.034 A 
ATOM     62  C   UNL     1      -5.025  -4.244  -6.280  1.00  0.00     0.034 A 
ATOM     63  C   UNL     1      -6.820 -10.354  -5.558  1.00  0.00     0.049 A 
ATOM     64  C   UNL     1      -5.233  -5.380  -7.271  1.00  0.00     0.074 A 
ATOM     65  C   UNL     1      -7.124 -11.307  -6.516  1.00  0.00     0.029 A 
ATOM     66  N   UNL     1      -6.404  -9.225  -6.241  1.00  0.00    -0.354 N 
ATOM     67  N   UNL     1      -5.591  -6.621  -7.047  1.00  0.00    -0.248 NA
ATOM     68  C   UNL     1      -4.992  -5.089  -8.698  1.00  0.00     0.031 C 
ATOM     69  C   UNL     1      -6.833 -10.776  -7.777  1.00  0.00     0.029 A 
ATOM     70  C   UNL     1      -6.434  -9.461  -7.607  1.00  0.00     0.049 A 
ATOM     71  H   UNL     1      -6.127  -8.379  -5.820  1.00  0.00     0.167 HD
ATOM     72  C   UNL     1      -5.699  -7.223  -8.306  1.00  0.00     0.074 A 
ATOM     73  C   UNL     1      -5.322  -6.232  -9.284  1.00  0.00     0.031 C 
ATOM     74  C   UNL     1      -6.111  -8.479  -8.612  1.00  0.00     0.034 A 
BRANCH  61  75
ATOM     75  C   UNL     1      -7.106 -11.844  -3.521  1.00  0.00     0.023 A 
ATOM     76  C   UNL     1      -8.152 -12.089  -2.616  1.00  0.00     0.031 A 
ATOM     77  C   UNL     1      -6.218 -12.902  -3.784  1.00  0.00     0.131 A 
ATOM     78  C   UNL     1      -8.160 -13.265  -1.857  1.00  0.00     0.055 A 
ATOM     79  C   UNL     1      -6.330 -14.137  -3.137  1.00  0.00     0.041 A 
ATOM     80  F   UNL     1      -5.208 -12.756  -4.657  1.00  0.00    -0.206 F 
ATOM     81  C   UNL     1      -7.280 -14.309  -2.135  1.00  0.00     0.022 A 
BRANCH  78  82
ATOM     82  S   UNL     1      -9.168 -13.286  -0.349  1.00  0.00     0.124 S 
ATOM     83  O   UNL     1      -8.542 -12.224   0.437  1.00  0.00    -0.237 OA
ATOM     84  O   UNL     1     -10.505 -12.994  -0.854  1.00  0.00    -0.237 OA
ATOM     85  O   UNL     1      -8.977 -14.637   0.173  1.00  0.00    -0.744 OA
ENDBRANCH  78  82
ENDBRANCH  61  75
BRANCH  62  86
ATOM     86  C   UNL     1      -4.337  -3.012  -6.786  1.00  0.00     0.023 A 
ATOM     87  C   UNL     1      -4.999  -2.123  -7.650  1.00  0.00     0.031 A 
ATOM     88  C   UNL     1      -2.972  -2.789  -6.541  1.00  0.00     0.131 A 
ATOM     89  C   UNL     1      -4.278  -1.101  -8.291  1.00  0.00     0.055 A 
ATOM     90  C   UNL     1      -2.269  -1.743  -7.145  1.00  0.00     0.041 A 
ATOM     91  F   UNL     1      -2.287  -3.605  -5.729  1.00  0.00    -0.206 F 
ATOM     92  C   UNL     1      -2.920  -0.900  -8.039  1.00  0.00     0.022 A 
BRANCH  89  93
ATOM     93  S   UNL     1      -5.124  -0.091  -9.540  1.00  0.00     0.124 S 
ATOM     94  O   UNL     1      -5.409  -1.081 -10.572  1.00  0.00    -0.237 OA
ATOM     95  O   UNL     1      -6.274   0.411  -8.794  1.00  0.00    -0.237 OA
ATOM     96  O   UNL     1      -4.126   0.917  -9.892  1.00  0.00    -0.744 OA
ENDBRANCH  89  93
ENDBRANCH  62  86
BRANCH  74  97
ATOM     97  C   UNL     1      -6.360  -8.845 -10.060  1.00  0.00     0.023 A 
ATOM     98  C   UNL     1      -5.338  -9.026 -11.008  1.00  0.00     0.031 A 
ATOM     99  C   UNL     1      -7.687  -9.088 -10.472  1.00  0.00     0.131 A 
ATOM    100  C   UNL     1      -5.663  -9.429 -12.319  1.00  0.00     0.055 A 
ATOM    101  C   UNL     1      -7.998  -9.531 -11.758  1.00  0.00     0.041 A 
ATOM    102  F   UNL     1      -8.707  -8.923  -9.614  1.00  0.00    -0.206 F 
ATOM    103  C   UNL     1      -6.983  -9.701 -12.691  1.00  0.00     0.022 A 
BRANCH 100 104
ATOM    104  S   UNL     1      -4.345  -9.564 -13.563  1.00  0.00     0.124 S 
ATOM    105  O   UNL     1      -3.822  -8.202 -13.602  1.00  0.00    -0.237 OA
ATOM    106  O   UNL     1      -3.464 -10.569 -12.979  1.00  0.00    -0.237 OA
ATOM    107  O   UNL     1      -5.051  -9.990 -14.771  1.00  0.00    -0.744 OA
ENDBRANCH 100 104
ENDBRANCH  74  97
ENDBRANCH  48  49
ENDBRANCH  41  43
ENDBRANCH  40  41
ENDBRANCH  39  40
ENDBRANCH  38  39
ENDBRANCH  37  38
ENDBRANCH  36  37
ENDBRANCH  35  36
ENDBRANCH   1  35
TORSDOF 26
