REMARK SMILES O=C(OCCOCCOCCOCCOC(=O)[C@@H]1CN(C(=O)CCC(F)(F)F)C[C@H]1c1ccc2c(c1)OCO2)c1ccc(-c2c3nc(c(-c4cc(S(=O)(=O)[O-])ccc4F)c4ccc([nH]4)c(-c4cc(S(=O)(=O)[O-])ccc4F)c4nc(c(-c5cc(S(=O)(=O)[O-])ccc5F)c5ccc2[nH]5)C=C4)C=C3)cc1
REMARK SMILES IDX 10 1 9 2 8 3 7 4 6 5 5 6 4 7 3 8 2 9 1 10 40 11 41 12 102 13
REMARK SMILES IDX 42 14 101 15 43 16 44 17 45 18 95 19 46 20 100 21 94 22
REMARK SMILES IDX 96 23 47 24 99 25 93 26 92 27 48 29 80 30 60 31 79 32 61 33
REMARK SMILES IDX 64 34 78 35 97 36 62 37 63 38 77 40 98 41 65 42 49 43 50 44
REMARK SMILES IDX 58 45 51 46 57 47 59 48 56 49 52 50 53 51 54 52 55 53 81 54
REMARK SMILES IDX 82 55 90 56 83 57 89 58 91 59 88 60 84 61 85 62 86 63 87 64
REMARK SMILES IDX 66 65 67 66 75 67 68 68 74 69 76 70 73 71 69 72 70 73 71 74
REMARK SMILES IDX 72 75 11 76 12 77 13 78 14 79 15 80 16 81 17 82 18 83 19 84
REMARK SMILES IDX 30 85 20 86 29 87 31 88 32 89 36 90 33 91 35 92 34 93 37 94
REMARK SMILES IDX 39 95 38 96 21 97 22 98 23 99 24 100 25 101 26 102 27 103
REMARK SMILES IDX 28 104
REMARK H PARENT 96 28 64 39
REMARK Flexibility Score: inf
ROOT
ATOM      1  C   UNL     1       4.384   2.775  -0.898  1.00  0.00     0.188 C 
ENDROOT
BRANCH   1   2
ATOM      2  O   UNL     1       3.201   2.846  -1.685  1.00  0.00    -0.377 OA
BRANCH   2   3
ATOM      3  C   UNL     1       1.996   2.281  -1.191  1.00  0.00     0.188 C 
BRANCH   3   4
ATOM      4  C   UNL     1       1.966   0.785  -0.897  1.00  0.00     0.188 C 
BRANCH   4   5
ATOM      5  O   UNL     1       3.257   0.272  -0.664  1.00  0.00    -0.376 OA
BRANCH   5   6
ATOM      6  C   UNL     1       3.748  -0.698  -1.572  1.00  0.00     0.202 C 
BRANCH   6   7
ATOM      7  C   UNL     1       3.917  -2.020  -0.823  1.00  0.00     0.261 C 
BRANCH   7   8
ATOM      8  O   UNL     1       2.697  -2.382  -0.147  1.00  0.00    -0.460 OA
BRANCH   8   9
ATOM      9  C   UNL     1       2.175  -1.806   0.967  1.00  0.00     0.338 C 
ATOM     10  O   UNL     1       0.958  -1.883   1.144  1.00  0.00    -0.246 OA
BRANCH   9  11
ATOM     11  C   UNL     1       2.995  -1.166   2.053  1.00  0.00     0.060 A 
ATOM     12  C   UNL     1       4.194  -0.462   1.888  1.00  0.00     0.016 A 
ATOM     13  C   UNL     1       2.454  -1.233   3.351  1.00  0.00     0.016 A 
ATOM     14  C   UNL     1       4.856   0.119   2.965  1.00  0.00     0.010 A 
ATOM     15  C   UNL     1       3.116  -0.663   4.442  1.00  0.00     0.010 A 
ATOM     16  C   UNL     1       4.338  -0.011   4.250  1.00  0.00    -0.014 A 
BRANCH  16  17
ATOM     17  C   UNL     1       5.211   0.330   5.387  1.00  0.00     0.031 A 
ATOM     18  C   UNL     1       5.956  -0.798   6.037  1.00  0.00     0.074 A 
ATOM     19  C   UNL     1       5.414   1.612   5.737  1.00  0.00     0.049 A 
ATOM     20  N   UNL     1       6.714  -0.797   7.097  1.00  0.00    -0.248 NA
ATOM     21  C   UNL     1       5.830  -2.114   5.385  1.00  0.00     0.031 C 
ATOM     22  C   UNL     1       4.837   2.772   5.056  1.00  0.00     0.029 A 
ATOM     23  N   UNL     1       6.173   2.154   6.739  1.00  0.00    -0.354 N 
ATOM     24  C   UNL     1       7.133  -2.114   7.258  1.00  0.00     0.074 A 
ATOM     25  C   UNL     1       6.537  -2.887   6.192  1.00  0.00     0.031 C 
ATOM     26  C   UNL     1       5.262   3.892   5.667  1.00  0.00     0.029 A 
ATOM     27  C   UNL     1       6.082   3.524   6.817  1.00  0.00     0.049 A 
ATOM     28  H   UNL     1       6.730   1.614   7.346  1.00  0.00     0.167 HD
ATOM     29  C   UNL     1       7.935  -2.624   8.222  1.00  0.00     0.034 A 
ATOM     30  C   UNL     1       6.574   4.367   7.748  1.00  0.00     0.034 A 
ATOM     31  C   UNL     1       8.484  -1.812   9.277  1.00  0.00     0.049 A 
ATOM     32  C   UNL     1       7.372   3.763   8.880  1.00  0.00     0.074 A 
ATOM     33  C   UNL     1       9.241  -2.197  10.367  1.00  0.00     0.029 A 
ATOM     34  N   UNL     1       8.320  -0.432   9.370  1.00  0.00    -0.354 N 
ATOM     35  N   UNL     1       7.696   2.503   9.083  1.00  0.00    -0.248 NA
ATOM     36  C   UNL     1       7.865   4.684   9.909  1.00  0.00     0.031 C 
ATOM     37  C   UNL     1       9.479  -1.061  11.150  1.00  0.00     0.029 A 
ATOM     38  C   UNL     1       8.941   0.047  10.509  1.00  0.00     0.049 A 
ATOM     39  H   UNL     1       7.833   0.122   8.719  1.00  0.00     0.167 HD
ATOM     40  C   UNL     1       8.449   2.485  10.253  1.00  0.00     0.074 A 
ATOM     41  C   UNL     1       8.547   3.863  10.695  1.00  0.00     0.031 C 
ATOM     42  C   UNL     1       9.008   1.435  10.910  1.00  0.00     0.034 A 
BRANCH  29  43
ATOM     43  C   UNL     1       8.145  -4.119   8.216  1.00  0.00     0.023 A 
ATOM     44  C   UNL     1       8.796  -4.778   7.156  1.00  0.00     0.031 A 
ATOM     45  C   UNL     1       7.587  -4.910   9.236  1.00  0.00     0.131 A 
ATOM     46  C   UNL     1       8.792  -6.181   7.096  1.00  0.00     0.055 A 
ATOM     47  C   UNL     1       7.661  -6.304   9.213  1.00  0.00     0.041 A 
ATOM     48  F   UNL     1       6.923  -4.341  10.255  1.00  0.00    -0.206 F 
ATOM     49  C   UNL     1       8.250  -6.948   8.130  1.00  0.00     0.022 A 
BRANCH  46  50
ATOM     50  S   UNL     1       9.360  -6.986   5.571  1.00  0.00     0.124 S 
ATOM     51  O   UNL     1       8.412  -6.454   4.588  1.00  0.00    -0.237 OA
ATOM     52  O   UNL     1      10.727  -6.525   5.454  1.00  0.00    -0.237 OA
ATOM     53  O   UNL     1       9.199  -8.416   5.859  1.00  0.00    -0.744 OA
ENDBRANCH  46  50
ENDBRANCH  29  43
BRANCH  30  54
ATOM     54  C   UNL     1       6.265   5.828   7.701  1.00  0.00     0.023 A 
ATOM     55  C   UNL     1       7.280   6.794   7.615  1.00  0.00     0.031 A 
ATOM     56  C   UNL     1       4.936   6.285   7.794  1.00  0.00     0.131 A 
ATOM     57  C   UNL     1       6.956   8.162   7.662  1.00  0.00     0.055 A 
ATOM     58  C   UNL     1       4.614   7.644   7.783  1.00  0.00     0.041 A 
ATOM     59  F   UNL     1       3.921   5.412   7.892  1.00  0.00    -0.206 F 
ATOM     60  C   UNL     1       5.629   8.592   7.730  1.00  0.00     0.022 A 
BRANCH  57  61
ATOM     61  S   UNL     1       8.301   9.378   7.726  1.00  0.00     0.124 S 
ATOM     62  O   UNL     1       9.040   8.944   8.906  1.00  0.00    -0.237 OA
ATOM     63  O   UNL     1       8.961   9.169   6.442  1.00  0.00    -0.237 OA
ATOM     64  O   UNL     1       7.601  10.654   7.864  1.00  0.00    -0.744 OA
ENDBRANCH  57  61
ENDBRANCH  30  54
BRANCH  42  65
ATOM     65  C   UNL     1       9.808   1.760  12.144  1.00  0.00     0.023 A 
ATOM     66  C   UNL     1       9.197   2.253  13.309  1.00  0.00     0.031 A 
ATOM     67  C   UNL     1      11.201   1.570  12.150  1.00  0.00     0.131 A 
ATOM     68  C   UNL     1       9.987   2.595  14.415  1.00  0.00     0.055 A 
ATOM     69  C   UNL     1      11.973   1.849  13.276  1.00  0.00     0.041 A 
ATOM     70  F   UNL     1      11.831   1.100  11.061  1.00  0.00    -0.206 F 
ATOM     71  C   UNL     1      11.368   2.378  14.413  1.00  0.00     0.022 A 
BRANCH  68  72
ATOM     72  S   UNL     1       9.197   3.418  15.823  1.00  0.00     0.124 S 
ATOM     73  O   UNL     1       8.633   4.611  15.199  1.00  0.00    -0.237 OA
ATOM     74  O   UNL     1       8.235   2.417  16.271  1.00  0.00    -0.237 OA
ATOM     75  O   UNL     1      10.307   3.666  16.742  1.00  0.00    -0.744 OA
ENDBRANCH  68  72
ENDBRANCH  42  65
ENDBRANCH  16  17
ENDBRANCH   9  11
ENDBRANCH   8   9
ENDBRANCH   7   8
ENDBRANCH   6   7
ENDBRANCH   5   6
ENDBRANCH   4   5
ENDBRANCH   3   4
ENDBRANCH   2   3
ENDBRANCH   1   2
BRANCH   1  76
ATOM     76  C   UNL     1       4.714   3.794   0.195  1.00  0.00     0.188 C 
BRANCH  76  77
ATOM     77  O   UNL     1       3.650   4.446   0.842  1.00  0.00    -0.376 OA
BRANCH  77  78
ATOM     78  C   UNL     1       2.852   5.338   0.077  1.00  0.00     0.202 C 
BRANCH  78  79
ATOM     79  C   UNL     1       3.459   6.152  -1.077  1.00  0.00     0.261 C 
BRANCH  79  80
ATOM     80  O   UNL     1       3.895   5.375  -2.223  1.00  0.00    -0.463 OA
BRANCH  80  81
ATOM     81  C   UNL     1       5.201   5.479  -2.588  1.00  0.00     0.311 C 
ATOM     82  O   UNL     1       6.043   6.112  -1.960  1.00  0.00    -0.252 OA
BRANCH  81  83
ATOM     83  C   UNL     1       5.528   4.902  -3.953  1.00  0.00     0.128 C 
ATOM     84  C   UNL     1       4.775   5.796  -4.914  1.00  0.00     0.135 C 
ATOM     85  C   UNL     1       5.151   3.468  -4.400  1.00  0.00     0.055 C 
ATOM     86  N   UNL     1       4.737   5.078  -6.159  1.00  0.00    -0.341 N 
ATOM     87  C   UNL     1       4.884   3.652  -5.923  1.00  0.00     0.128 C 
BRANCH  85  88
ATOM     88  C   UNL     1       6.170   2.348  -4.122  1.00  0.00    -0.038 A 
ATOM     89  C   UNL     1       7.073   2.417  -3.031  1.00  0.00     0.008 A 
ATOM     90  C   UNL     1       6.177   1.167  -4.900  1.00  0.00     0.054 A 
ATOM     91  C   UNL     1       7.902   1.342  -2.680  1.00  0.00     0.051 A 
ATOM     92  C   UNL     1       7.060   0.150  -4.576  1.00  0.00     0.166 A 
ATOM     93  C   UNL     1       7.884   0.229  -3.482  1.00  0.00     0.165 A 
ATOM     94  O   UNL     1       7.223  -1.018  -5.257  1.00  0.00    -0.454 OA
ATOM     95  O   UNL     1       8.645  -0.885  -3.318  1.00  0.00    -0.454 OA
ATOM     96  C   UNL     1       8.315  -1.611  -4.517  1.00  0.00     0.468 C 
ENDBRANCH  85  88
BRANCH  86  97
ATOM     97  C   UNL     1       4.501   5.593  -7.409  1.00  0.00     0.222 C 
ATOM     98  O   UNL     1       4.289   4.876  -8.387  1.00  0.00    -0.275 OA
BRANCH  97  99
ATOM     99  C   UNL     1       4.548   7.102  -7.572  1.00  0.00     0.109 C 
BRANCH  99 100
ATOM    100  C   UNL     1       3.184   7.778  -7.607  1.00  0.00     0.125 C 
BRANCH 100 101
ATOM    101  C   UNL     1       2.396   7.686  -6.323  1.00  0.00     0.389 C 
ATOM    102  F   UNL     1       3.120   8.126  -5.271  1.00  0.00    -0.171 F 
ATOM    103  F   UNL     1       1.287   8.456  -6.395  1.00  0.00    -0.171 F 
ATOM    104  F   UNL     1       1.995   6.426  -6.065  1.00  0.00    -0.171 F 
ENDBRANCH 100 101
ENDBRANCH  99 100
ENDBRANCH  97  99
ENDBRANCH  86  97
ENDBRANCH  81  83
ENDBRANCH  80  81
ENDBRANCH  79  80
ENDBRANCH  78  79
ENDBRANCH  77  78
ENDBRANCH  76  77
ENDBRANCH   1  76
TORSDOF 28
