REMARK SMILES C[C@H]1CCc2sc3ncn4nc(/C=C\C(=O)OCCOCCOCCOCCOC(=O)c5ccc(-c6c7nc(c(-c8cc(S(=O)(=O)[O-])ccc8F)c8ccc([nH]8)c(-c8cc(S(=O)(=O)[O-])ccc8F)c8nc(c(-c9cc(S(=O)(=O)[O-])ccc9F)c9ccc6[nH]9)C=C8)C=C7)cc5)nc4c3c2C1
REMARK SMILES IDX 24 1 23 2 22 3 21 4 20 5 19 6 18 7 17 8 15 9 16 10 14 11
REMARK SMILES IDX 13 12 12 13 1 14 2 15 3 16 99 17 4 18 98 19 5 20 97 21 6 22
REMARK SMILES IDX 7 23 96 24 8 25 10 26 95 27 9 28 11 29 25 30 26 31 27 32
REMARK SMILES IDX 28 33 29 34 30 35 31 36 32 37 33 38 94 39 34 40 93 41 35 42
REMARK SMILES IDX 36 43 37 44 87 45 38 46 92 47 86 48 88 49 39 50 91 51 85 52
REMARK SMILES IDX 84 53 40 55 72 56 52 57 71 58 53 59 56 60 70 61 89 62 54 63
REMARK SMILES IDX 55 64 69 66 90 67 57 68 41 69 42 70 50 71 43 72 49 73 51 74
REMARK SMILES IDX 48 75 44 76 45 77 46 78 47 79 73 80 74 81 82 82 75 83 81 84
REMARK SMILES IDX 83 85 80 86 76 87 77 88 78 89 79 90 58 91 59 92 67 93 60 94
REMARK SMILES IDX 66 95 68 96 65 97 61 98 62 99 63 100 64 101
REMARK H PARENT 88 54 56 65
REMARK Flexibility Score: inf
ROOT
ATOM      1  C   UNL     1       4.005  -1.810   2.750  1.00  0.00     0.188 C 
ENDROOT
BRANCH   1   2
ATOM      2  O   UNL     1       5.330  -2.282   2.854  1.00  0.00    -0.377 OA
BRANCH   2   3
ATOM      3  C   UNL     1       6.243  -1.975   1.810  1.00  0.00     0.188 C 
BRANCH   3   4
ATOM      4  C   UNL     1       6.174  -0.648   1.012  1.00  0.00     0.188 C 
BRANCH   4   5
ATOM      5  O   UNL     1       4.900  -0.032   0.994  1.00  0.00    -0.376 OA
BRANCH   5   6
ATOM      6  C   UNL     1       4.354   0.310  -0.267  1.00  0.00     0.202 C 
BRANCH   6   7
ATOM      7  C   UNL     1       3.882  -0.892  -1.066  1.00  0.00     0.261 C 
BRANCH   7   8
ATOM      8  O   UNL     1       4.786  -1.992  -1.090  1.00  0.00    -0.460 OA
BRANCH   8   9
ATOM      9  C   UNL     1       5.770  -2.033  -1.990  1.00  0.00     0.330 C 
ATOM     10  O   UNL     1       6.062  -1.154  -2.785  1.00  0.00    -0.247 OA
BRANCH   9  11
ATOM     11  C   UNL     1       6.617  -3.222  -1.747  1.00  0.00     0.097 C 
ATOM     12  C   UNL     1       6.312  -4.427  -1.232  1.00  0.00     0.058 C 
BRANCH  12  13
ATOM     13  C   UNL     1       5.081  -5.017  -0.793  1.00  0.00     0.175 A 
ATOM     14  C   UNL     1      -0.726  -1.615  -1.535  1.00  0.00     0.008 C 
ATOM     15  C   UNL     1      -0.154  -1.666  -0.116  1.00  0.00    -0.009 C 
ATOM     16  C   UNL     1      -1.211  -2.037   0.944  1.00  0.00     0.009 C 
ATOM     17  C   UNL     1       1.062  -2.600  -0.033  1.00  0.00     0.041 C 
ATOM     18  C   UNL     1      -1.669  -3.512   0.885  1.00  0.00     0.047 C 
ATOM     19  C   UNL     1       0.743  -4.019   0.238  1.00  0.00    -0.020 A 
ATOM     20  C   UNL     1      -0.501  -4.429   0.668  1.00  0.00     0.011 A 
ATOM     21  C   UNL     1       1.635  -5.110   0.155  1.00  0.00     0.060 A 
ATOM     22  S   UNL     1      -0.581  -6.123   0.895  1.00  0.00    -0.120 S 
ATOM     23  C   UNL     1       1.069  -6.335   0.468  1.00  0.00     0.129 A 
ATOM     24  C   UNL     1       3.062  -5.180  -0.211  1.00  0.00     0.168 A 
ATOM     25  N   UNL     1       1.683  -7.567   0.453  1.00  0.00    -0.225 NA
ATOM     26  N   UNL     1       3.650  -6.404  -0.179  1.00  0.00    -0.201 N 
ATOM     27  N   UNL     1       3.928  -4.284  -0.611  1.00  0.00    -0.207 NA
ATOM     28  C   UNL     1       2.957  -7.573   0.139  1.00  0.00     0.227 A 
ATOM     29  N   UNL     1       4.946  -6.335  -0.545  1.00  0.00    -0.145 NA
ENDBRANCH  12  13
ENDBRANCH   9  11
ENDBRANCH   8   9
ENDBRANCH   7   8
ENDBRANCH   6   7
ENDBRANCH   5   6
ENDBRANCH   4   5
ENDBRANCH   3   4
ENDBRANCH   2   3
ENDBRANCH   1   2
BRANCH   1  30
ATOM     30  C   UNL     1       3.712  -0.513   3.536  1.00  0.00     0.188 C 
BRANCH  30  31
ATOM     31  O   UNL     1       4.680   0.493   3.813  1.00  0.00    -0.376 OA
BRANCH  31  32
ATOM     32  C   UNL     1       6.012   0.260   4.242  1.00  0.00     0.202 C 
BRANCH  32  33
ATOM     33  C   UNL     1       6.425  -0.700   5.353  1.00  0.00     0.261 C 
BRANCH  33  34
ATOM     34  O   UNL     1       5.653  -1.870   5.425  1.00  0.00    -0.460 OA
BRANCH  34  35
ATOM     35  C   UNL     1       4.531  -1.709   6.141  1.00  0.00     0.338 C 
ATOM     36  O   UNL     1       4.118  -0.666   6.642  1.00  0.00    -0.246 OA
BRANCH  35  37
ATOM     37  C   UNL     1       3.895  -3.014   6.302  1.00  0.00     0.060 A 
ATOM     38  C   UNL     1       2.788  -3.019   7.146  1.00  0.00     0.016 A 
ATOM     39  C   UNL     1       4.623  -4.177   5.996  1.00  0.00     0.016 A 
ATOM     40  C   UNL     1       2.657  -4.093   7.982  1.00  0.00     0.010 A 
ATOM     41  C   UNL     1       4.479  -5.257   6.826  1.00  0.00     0.010 A 
ATOM     42  C   UNL     1       3.600  -5.125   7.892  1.00  0.00    -0.014 A 
BRANCH  42  43
ATOM     43  C   UNL     1       3.646  -6.071   8.977  1.00  0.00     0.031 A 
ATOM     44  C   UNL     1       2.465  -6.946   9.000  1.00  0.00     0.074 A 
ATOM     45  C   UNL     1       4.654  -6.125   9.866  1.00  0.00     0.049 A 
ATOM     46  N   UNL     1       1.463  -6.861   9.806  1.00  0.00    -0.248 NA
ATOM     47  C   UNL     1       2.270  -7.864   7.872  1.00  0.00     0.031 C 
ATOM     48  C   UNL     1       5.947  -5.440   9.870  1.00  0.00     0.029 A 
ATOM     49  N   UNL     1       4.720  -6.898  10.979  1.00  0.00    -0.354 N 
ATOM     50  C   UNL     1       0.597  -7.869   9.422  1.00  0.00     0.074 A 
ATOM     51  C   UNL     1       1.043  -8.318   8.128  1.00  0.00     0.031 C 
ATOM     52  C   UNL     1       6.748  -6.001  10.811  1.00  0.00     0.029 A 
ATOM     53  C   UNL     1       5.975  -6.975  11.567  1.00  0.00     0.049 A 
ATOM     54  H   UNL     1       3.936  -7.369  11.342  1.00  0.00     0.167 HD
ATOM     55  C   UNL     1      -0.275  -8.412  10.310  1.00  0.00     0.034 A 
ATOM     56  C   UNL     1       6.331  -7.814  12.578  1.00  0.00     0.034 A 
ATOM     57  C   UNL     1      -0.471  -7.555  11.456  1.00  0.00     0.049 A 
ATOM     58  C   UNL     1       5.071  -8.133  13.304  1.00  0.00     0.074 A 
ATOM     59  C   UNL     1      -0.967  -6.276  11.628  1.00  0.00     0.029 A 
ATOM     60  N   UNL     1       0.256  -7.820  12.596  1.00  0.00    -0.354 N 
ATOM     61  N   UNL     1       4.384  -7.234  13.957  1.00  0.00    -0.248 NA
ATOM     62  C   UNL     1       4.314  -9.303  12.879  1.00  0.00     0.031 C 
ATOM     63  C   UNL     1      -0.110  -5.673  12.597  1.00  0.00     0.029 A 
ATOM     64  C   UNL     1       0.815  -6.633  13.012  1.00  0.00     0.049 A 
ATOM     65  H   UNL     1       0.357  -8.697  13.032  1.00  0.00     0.167 HD
ATOM     66  C   UNL     1       3.058  -7.504  13.655  1.00  0.00     0.074 A 
ATOM     67  C   UNL     1       3.072  -8.836  13.048  1.00  0.00     0.031 C 
ATOM     68  C   UNL     1       2.109  -6.521  13.661  1.00  0.00     0.034 A 
BRANCH  55  69
ATOM     69  C   UNL     1      -0.670  -9.860  10.284  1.00  0.00     0.023 A 
ATOM     70  C   UNL     1      -1.708 -10.278  11.130  1.00  0.00     0.031 A 
ATOM     71  C   UNL     1       0.092 -10.886   9.673  1.00  0.00     0.131 A 
ATOM     72  C   UNL     1      -1.918 -11.645  11.378  1.00  0.00     0.055 A 
ATOM     73  C   UNL     1      -0.162 -12.242   9.872  1.00  0.00     0.041 A 
ATOM     74  F   UNL     1       1.182 -10.634   8.936  1.00  0.00    -0.206 F 
ATOM     75  C   UNL     1      -1.157 -12.630  10.750  1.00  0.00     0.022 A 
BRANCH  72  76
ATOM     76  S   UNL     1      -3.116 -12.116  12.649  1.00  0.00     0.124 S 
ATOM     77  O   UNL     1      -2.624 -11.386  13.812  1.00  0.00    -0.237 OA
ATOM     78  O   UNL     1      -4.369 -11.640  12.072  1.00  0.00    -0.237 OA
ATOM     79  O   UNL     1      -2.978 -13.569  12.723  1.00  0.00    -0.744 OA
ENDBRANCH  72  76
ENDBRANCH  55  69
BRANCH  56  80
ATOM     80  C   UNL     1       7.543  -8.684  12.637  1.00  0.00     0.023 A 
ATOM     81  C   UNL     1       7.904  -9.390  13.808  1.00  0.00     0.031 A 
ATOM     82  C   UNL     1       8.216  -9.051  11.450  1.00  0.00     0.131 A 
ATOM     83  C   UNL     1       8.880 -10.414  13.757  1.00  0.00     0.055 A 
ATOM     84  C   UNL     1       9.176 -10.066  11.405  1.00  0.00     0.041 A 
ATOM     85  F   UNL     1       7.898  -8.498  10.269  1.00  0.00    -0.206 F 
ATOM     86  C   UNL     1       9.504 -10.761  12.557  1.00  0.00     0.022 A 
BRANCH  83  87
ATOM     87  S   UNL     1       9.277 -11.397  15.241  1.00  0.00     0.124 S 
ATOM     88  O   UNL     1      10.110 -10.476  16.005  1.00  0.00    -0.237 OA
ATOM     89  O   UNL     1       7.959 -11.689  15.793  1.00  0.00    -0.237 OA
ATOM     90  O   UNL     1       9.982 -12.560  14.700  1.00  0.00    -0.744 OA
ENDBRANCH  83  87
ENDBRANCH  56  80
BRANCH  68  91
ATOM     91  C   UNL     1       2.492  -5.161  14.216  1.00  0.00     0.023 A 
ATOM     92  C   UNL     1       3.487  -4.312  13.672  1.00  0.00     0.031 A 
ATOM     93  C   UNL     1       1.717  -4.657  15.274  1.00  0.00     0.131 A 
ATOM     94  C   UNL     1       3.678  -3.017  14.200  1.00  0.00     0.055 A 
ATOM     95  C   UNL     1       1.895  -3.370  15.780  1.00  0.00     0.041 A 
ATOM     96  F   UNL     1       0.739  -5.404  15.814  1.00  0.00    -0.206 F 
ATOM     97  C   UNL     1       2.879  -2.545  15.247  1.00  0.00     0.022 A 
BRANCH  94  98
ATOM     98  S   UNL     1       4.963  -1.911  13.524  1.00  0.00     0.124 S 
ATOM     99  O   UNL     1       6.185  -2.696  13.655  1.00  0.00    -0.237 OA
ATOM    100  O   UNL     1       4.495  -1.672  12.162  1.00  0.00    -0.237 OA
ATOM    101  O   UNL     1       4.900  -0.737  14.400  1.00  0.00    -0.744 OA
ENDBRANCH  94  98
ENDBRANCH  68  91
ENDBRANCH  42  43
ENDBRANCH  35  37
ENDBRANCH  34  35
ENDBRANCH  33  34
ENDBRANCH  32  33
ENDBRANCH  31  32
ENDBRANCH  30  31
ENDBRANCH   1  30
TORSDOF 24
