REMARK SMILES COc1cccc([C@H](CC(=O)OCCOCCOCCOCCOC(=O)c2ccc(-c3c4nc(c(-c5cc(S(=O)(=O)[O-])ccc5F)c5ccc([nH]5)c(-c5cc(S(=O)(=O)[O-])ccc5F)c5nc(c(-c6cc(S(=O)(=O)[O-])ccc6F)c6ccc3[nH]6)C=C5)C=C4)cc2)NS(=O)(=O)c2ccc3c(c2)C[C@@H](C)N3C(C)=O)c1
REMARK SMILES IDX 17 1 16 2 15 3 14 4 13 5 12 6 10 7 11 8 9 9 8 10 7 11 3 12
REMARK SMILES IDX 4 13 107 14 5 15 6 16 2 17 1 18 90 19 91 21 92 22 93 23
REMARK SMILES IDX 94 24 95 25 99 26 96 27 98 28 97 29 100 30 103 31 101 32
REMARK SMILES IDX 102 33 104 34 105 35 106 36 18 37 19 38 20 39 21 40 22 41
REMARK SMILES IDX 23 42 24 43 25 44 26 45 27 46 28 47 89 48 29 49 88 50 30 51
REMARK SMILES IDX 31 52 32 53 82 54 33 55 87 56 81 57 83 58 34 59 86 60 80 61
REMARK SMILES IDX 79 62 35 64 67 65 47 66 66 67 48 68 51 69 65 70 84 71 49 72
REMARK SMILES IDX 50 73 64 75 85 76 52 77 36 78 37 79 45 80 38 81 44 82 46 83
REMARK SMILES IDX 43 84 39 85 40 86 41 87 42 88 68 89 69 90 77 91 70 92 76 93
REMARK SMILES IDX 78 94 75 95 71 96 72 97 73 98 74 99 53 100 54 101 62 102
REMARK SMILES IDX 55 103 61 104 63 105 60 106 56 107 57 108 58 109 59 110
REMARK H PARENT 90 20 83 63 51 74
REMARK Flexibility Score: inf
ROOT
ATOM      1  C   UNL     1       2.364  -2.406  -4.792  1.00  0.00     0.188 C 
ENDROOT
BRANCH   1   2
ATOM      2  C   UNL     1       0.905  -1.995  -4.623  1.00  0.00     0.188 C 
BRANCH   2   3
ATOM      3  O   UNL     1       0.700  -0.604  -4.632  1.00  0.00    -0.376 OA
BRANCH   3   4
ATOM      4  C   UNL     1       0.890   0.151  -3.448  1.00  0.00     0.202 C 
BRANCH   4   5
ATOM      5  C   UNL     1       1.630  -0.287  -2.153  1.00  0.00     0.261 C 
BRANCH   5   6
ATOM      6  O   UNL     1       2.446  -1.480  -2.117  1.00  0.00    -0.463 OA
BRANCH   6   7
ATOM      7  C   UNL     1       1.911  -2.518  -1.452  1.00  0.00     0.307 C 
ATOM      8  O   UNL     1       0.783  -2.480  -0.952  1.00  0.00    -0.252 OA
BRANCH   7   9
ATOM      9  C   UNL     1       2.661  -3.834  -1.404  1.00  0.00     0.147 C 
BRANCH   9  10
ATOM     10  C   UNL     1       4.136  -4.229  -1.723  1.00  0.00     0.111 C 
BRANCH  10  11
ATOM     11  C   UNL     1       4.435  -5.555  -0.985  1.00  0.00    -0.026 A 
ATOM     12  C   UNL     1       3.711  -7.776  -0.219  1.00  0.00     0.119 A 
ATOM     13  C   UNL     1       5.039  -8.126  -0.003  1.00  0.00     0.046 A 
ATOM     14  C   UNL     1       3.424  -6.514  -0.738  1.00  0.00     0.051 A 
ATOM     15  C   UNL     1       6.055  -7.198  -0.223  1.00  0.00     0.004 A 
ATOM     16  C   UNL     1       5.748  -5.908  -0.659  1.00  0.00     0.005 A 
BRANCH  12  17
ATOM     17  O   UNL     1       2.791  -8.737   0.096  1.00  0.00    -0.497 OA
ATOM     18  C   UNL     1       1.423  -8.444  -0.170  1.00  0.00     0.278 C 
ENDBRANCH  12  17
ENDBRANCH  10  11
BRANCH  10  19
ATOM     19  N   UNL     1       4.313  -4.475  -3.195  1.00  0.00    -0.203 NA
ATOM     20  H   UNL     1       3.878  -3.682  -3.666  1.00  0.00     0.142 HD
BRANCH  19  21
ATOM     21  S   UNL     1       5.846  -4.679  -3.936  1.00  0.00     0.241 S 
ATOM     22  O   UNL     1       6.458  -5.889  -3.411  1.00  0.00    -0.207 OA
ATOM     23  O   UNL     1       5.630  -4.553  -5.349  1.00  0.00    -0.207 OA
BRANCH  21  24
ATOM     24  C   UNL     1       6.775  -3.287  -3.375  1.00  0.00     0.082 A 
ATOM     25  C   UNL     1       7.850  -3.425  -2.477  1.00  0.00     0.024 A 
ATOM     26  C   UNL     1       6.258  -2.042  -3.706  1.00  0.00     0.027 A 
ATOM     27  C   UNL     1       8.303  -2.312  -1.767  1.00  0.00     0.028 A 
ATOM     28  C   UNL     1       6.637  -0.976  -2.934  1.00  0.00    -0.021 A 
ATOM     29  C   UNL     1       7.616  -1.127  -1.951  1.00  0.00     0.047 A 
ATOM     30  C   UNL     1       6.116   0.428  -2.954  1.00  0.00     0.063 C 
ATOM     31  N   UNL     1       7.734   0.073  -1.229  1.00  0.00    -0.309 N 
ATOM     32  C   UNL     1       6.511   0.863  -1.534  1.00  0.00     0.092 C 
ATOM     33  C   UNL     1       5.375   0.492  -0.560  1.00  0.00     0.032 C 
BRANCH  31  34
ATOM     34  C   UNL     1       9.005   0.581  -1.023  1.00  0.00     0.224 C 
ATOM     35  C   UNL     1       9.454   1.545  -2.095  1.00  0.00     0.115 C 
ATOM     36  O   UNL     1       9.790   0.112  -0.201  1.00  0.00    -0.275 OA
ENDBRANCH  31  34
ENDBRANCH  21  24
ENDBRANCH  19  21
ENDBRANCH  10  19
ENDBRANCH   9  10
ENDBRANCH   7   9
ENDBRANCH   6   7
ENDBRANCH   5   6
ENDBRANCH   4   5
ENDBRANCH   3   4
ENDBRANCH   2   3
ENDBRANCH   1   2
BRANCH   1  37
ATOM     37  O   UNL     1       3.337  -1.412  -4.537  1.00  0.00    -0.377 OA
BRANCH  37  38
ATOM     38  C   UNL     1       3.513  -0.301  -5.406  1.00  0.00     0.188 C 
BRANCH  38  39
ATOM     39  C   UNL     1       2.881  -0.267  -6.799  1.00  0.00     0.188 C 
BRANCH  39  40
ATOM     40  O   UNL     1       2.592  -1.543  -7.322  1.00  0.00    -0.376 OA
BRANCH  40  41
ATOM     41  C   UNL     1       3.511  -2.203  -8.171  1.00  0.00     0.202 C 
BRANCH  41  42
ATOM     42  C   UNL     1       5.026  -2.281  -7.910  1.00  0.00     0.261 C 
BRANCH  42  43
ATOM     43  O   UNL     1       5.668  -1.204  -7.221  1.00  0.00    -0.460 OA
BRANCH  43  44
ATOM     44  C   UNL     1       6.016  -0.132  -7.964  1.00  0.00     0.338 C 
ATOM     45  O   UNL     1       5.747   0.056  -9.137  1.00  0.00    -0.246 OA
BRANCH  44  46
ATOM     46  C   UNL     1       6.665   0.866  -7.083  1.00  0.00     0.060 A 
ATOM     47  C   UNL     1       6.040   2.104  -6.893  1.00  0.00     0.016 A 
ATOM     48  C   UNL     1       7.907   0.612  -6.498  1.00  0.00     0.016 A 
ATOM     49  C   UNL     1       6.679   3.115  -6.165  1.00  0.00     0.010 A 
ATOM     50  C   UNL     1       8.546   1.629  -5.773  1.00  0.00     0.010 A 
ATOM     51  C   UNL     1       7.955   2.903  -5.630  1.00  0.00    -0.014 A 
BRANCH  51  52
ATOM     52  C   UNL     1       8.755   4.035  -5.074  1.00  0.00     0.031 A 
ATOM     53  C   UNL     1       9.950   4.521  -5.859  1.00  0.00     0.074 A 
ATOM     54  C   UNL     1       8.460   4.624  -3.897  1.00  0.00     0.049 A 
ATOM     55  N   UNL     1      10.856   5.407  -5.532  1.00  0.00    -0.248 NA
ATOM     56  C   UNL     1      10.138   3.933  -7.194  1.00  0.00     0.031 C 
ATOM     57  C   UNL     1       7.300   4.326  -3.057  1.00  0.00     0.029 A 
ATOM     58  N   UNL     1       9.160   5.558  -3.168  1.00  0.00    -0.354 N 
ATOM     59  C   UNL     1      11.693   5.515  -6.637  1.00  0.00     0.074 A 
ATOM     60  C   UNL     1      11.250   4.528  -7.598  1.00  0.00     0.031 C 
ATOM     61  C   UNL     1       7.429   4.972  -1.883  1.00  0.00     0.029 A 
ATOM     62  C   UNL     1       8.669   5.744  -1.894  1.00  0.00     0.049 A 
ATOM     63  H   UNL     1       9.937   6.047  -3.523  1.00  0.00     0.167 HD
ATOM     64  C   UNL     1      12.703   6.392  -6.862  1.00  0.00     0.034 A 
ATOM     65  C   UNL     1       9.176   6.429  -0.848  1.00  0.00     0.034 A 
ATOM     66  C   UNL     1      13.154   7.366  -5.902  1.00  0.00     0.049 A 
ATOM     67  C   UNL     1      10.424   7.261  -1.041  1.00  0.00     0.074 A 
ATOM     68  C   UNL     1      14.144   8.322  -6.045  1.00  0.00     0.029 A 
ATOM     69  N   UNL     1      12.658   7.499  -4.613  1.00  0.00    -0.354 N 
ATOM     70  N   UNL     1      11.163   7.401  -2.117  1.00  0.00    -0.248 NA
ATOM     71  C   UNL     1      10.873   8.068   0.102  1.00  0.00     0.031 C 
ATOM     72  C   UNL     1      14.296   8.984  -4.823  1.00  0.00     0.029 A 
ATOM     73  C   UNL     1      13.344   8.499  -3.942  1.00  0.00     0.049 A 
ATOM     74  H   UNL     1      11.927   6.962  -4.232  1.00  0.00     0.167 HD
ATOM     75  C   UNL     1      12.108   8.376  -1.801  1.00  0.00     0.074 A 
ATOM     76  C   UNL     1      11.857   8.773  -0.433  1.00  0.00     0.031 C 
ATOM     77  C   UNL     1      13.078   8.913  -2.585  1.00  0.00     0.034 A 
BRANCH  64  78
ATOM     78  C   UNL     1      13.376   6.338  -8.210  1.00  0.00     0.023 A 
ATOM     79  C   UNL     1      12.666   6.635  -9.387  1.00  0.00     0.031 A 
ATOM     80  C   UNL     1      14.731   5.988  -8.327  1.00  0.00     0.131 A 
ATOM     81  C   UNL     1      13.294   6.512 -10.634  1.00  0.00     0.055 A 
ATOM     82  C   UNL     1      15.373   5.944  -9.566  1.00  0.00     0.041 A 
ATOM     83  F   UNL     1      15.453   5.676  -7.239  1.00  0.00    -0.206 F 
ATOM     84  C   UNL     1      14.651   6.195 -10.731  1.00  0.00     0.022 A 
BRANCH  81  85
ATOM     85  S   UNL     1      12.279   6.652 -12.129  1.00  0.00     0.124 S 
ATOM     86  O   UNL     1      11.333   5.554 -11.945  1.00  0.00    -0.237 OA
ATOM     87  O   UNL     1      11.726   7.996 -12.013  1.00  0.00    -0.237 OA
ATOM     88  O   UNL     1      13.239   6.463 -13.214  1.00  0.00    -0.744 OA
ENDBRANCH  81  85
ENDBRANCH  64  78
BRANCH  65  89
ATOM     89  C   UNL     1       8.536   6.357   0.499  1.00  0.00     0.023 A 
ATOM     90  C   UNL     1       7.992   7.497   1.108  1.00  0.00     0.031 A 
ATOM     91  C   UNL     1       8.571   5.164   1.244  1.00  0.00     0.131 A 
ATOM     92  C   UNL     1       7.579   7.445   2.449  1.00  0.00     0.055 A 
ATOM     93  C   UNL     1       8.112   5.104   2.562  1.00  0.00     0.041 A 
ATOM     94  F   UNL     1       9.066   4.040   0.702  1.00  0.00    -0.206 F 
ATOM     95  C   UNL     1       7.631   6.256   3.179  1.00  0.00     0.022 A 
BRANCH  92  96
ATOM     96  S   UNL     1       7.085   8.992   3.259  1.00  0.00     0.124 S 
ATOM     97  O   UNL     1       8.265   9.823   3.051  1.00  0.00    -0.237 OA
ATOM     98  O   UNL     1       5.897   9.360   2.497  1.00  0.00    -0.237 OA
ATOM     99  O   UNL     1       6.838   8.587   4.641  1.00  0.00    -0.744 OA
ENDBRANCH  92  96
ENDBRANCH  65  89
BRANCH  77 100
ATOM    100  C   UNL     1      13.871  10.068  -2.022  1.00  0.00     0.023 A 
ATOM    101  C   UNL     1      14.732   9.922  -0.921  1.00  0.00     0.031 A 
ATOM    102  C   UNL     1      13.752  11.346  -2.600  1.00  0.00     0.131 A 
ATOM    103  C   UNL     1      15.392  11.045  -0.397  1.00  0.00     0.055 A 
ATOM    104  C   UNL     1      14.465  12.444  -2.119  1.00  0.00     0.041 A 
ATOM    105  F   UNL     1      12.940  11.548  -3.651  1.00  0.00    -0.206 F 
ATOM    106  C   UNL     1      15.280  12.300  -1.001  1.00  0.00     0.022 A 
BRANCH 103 107
ATOM    107  S   UNL     1      16.321  10.864   1.150  1.00  0.00     0.124 S 
ATOM    108  O   UNL     1      15.290  10.395   2.069  1.00  0.00    -0.237 OA
ATOM    109  O   UNL     1      17.344   9.889   0.787  1.00  0.00    -0.237 OA
ATOM    110  O   UNL     1      16.818  12.214   1.411  1.00  0.00    -0.744 OA
ENDBRANCH 103 107
ENDBRANCH  77 100
ENDBRANCH  51  52
ENDBRANCH  44  46
ENDBRANCH  43  44
ENDBRANCH  42  43
ENDBRANCH  41  42
ENDBRANCH  40  41
ENDBRANCH  39  40
ENDBRANCH  38  39
ENDBRANCH  37  38
ENDBRANCH   1  37
TORSDOF 30
