REMARK SMILES Cc1ccc(S(=O)(=O)n2cc(C(=O)C(=O)NCC(=O)NCC(=O)OCCOCCOCCOCCOC(=O)c3ccc(-c4c5nc(c(-c6cc(S(=O)(=O)[O-])ccc6F)c6ccc([nH]6)c(-c6cc(S(=O)(=O)[O-])ccc6F)c6nc(c(-c7cc(S(=O)(=O)[O-])ccc7F)c7ccc4[nH]7)C=C6)C=C5)cc3)c3ccccc32)cc1
REMARK SMILES IDX 28 1 27 2 26 3 25 4 24 5 22 6 23 7 21 8 20 9 18 10 19 11
REMARK SMILES IDX 17 13 16 14 14 15 15 16 12 18 13 19 11 20 9 21 10 22 107 23
REMARK SMILES IDX 102 24 106 25 103 26 105 27 104 28 6 29 7 30 8 31 5 32 1 33
REMARK SMILES IDX 2 34 3 35 109 36 4 37 108 38 29 39 30 40 31 41 32 42 33 43
REMARK SMILES IDX 34 44 35 45 36 46 37 47 38 48 39 49 40 50 101 51 41 52
REMARK SMILES IDX 100 53 42 54 43 55 44 56 94 57 45 58 99 59 93 60 95 61 46 62
REMARK SMILES IDX 98 63 92 64 91 65 47 67 79 68 59 69 78 70 60 71 63 72 77 73
REMARK SMILES IDX 96 74 61 75 62 76 76 78 97 79 64 80 48 81 49 82 57 83 50 84
REMARK SMILES IDX 56 85 58 86 55 87 51 88 52 89 53 90 54 91 80 92 81 93 89 94
REMARK SMILES IDX 82 95 88 96 90 97 87 98 83 99 84 100 85 101 86 102 65 103
REMARK SMILES IDX 66 104 74 105 67 106 73 107 75 108 72 109 68 110 69 111
REMARK SMILES IDX 70 112 71 113
REMARK H PARENT 20 12 16 17 95 66 63 77
REMARK Flexibility Score: inf
ROOT
ATOM      1  C   UNL     1     -11.838   4.960  -0.988  1.00  0.00     0.188 C 
ENDROOT
BRANCH   1   2
ATOM      2  O   UNL     1     -12.325   3.627  -0.976  1.00  0.00    -0.376 OA
BRANCH   2   3
ATOM      3  C   UNL     1     -11.586   2.676  -0.205  1.00  0.00     0.202 C 
BRANCH   3   4
ATOM      4  C   UNL     1     -10.095   2.594  -0.523  1.00  0.00     0.261 C 
BRANCH   4   5
ATOM      5  O   UNL     1      -9.433   3.611   0.247  1.00  0.00    -0.462 OA
BRANCH   5   6
ATOM      6  C   UNL     1      -8.454   4.302  -0.373  1.00  0.00     0.325 C 
ATOM      7  O   UNL     1      -7.898   3.979  -1.414  1.00  0.00    -0.250 OA
BRANCH   6   8
ATOM      8  C   UNL     1      -8.260   5.666   0.272  1.00  0.00     0.238 C 
BRANCH   8   9
ATOM      9  N   UNL     1      -8.964   5.938   1.513  1.00  0.00    -0.344 N 
ATOM     10  C   UNL     1      -8.534   6.802   2.477  1.00  0.00     0.239 C 
ATOM     11  O   UNL     1      -9.294   7.656   2.928  1.00  0.00    -0.273 OA
ATOM     12  H   UNL     1      -9.813   5.465   1.669  1.00  0.00     0.164 HD
BRANCH  10  13
ATOM     13  C   UNL     1      -7.063   6.762   2.867  1.00  0.00     0.216 C 
BRANCH  13  14
ATOM     14  N   UNL     1      -6.679   5.420   3.288  1.00  0.00    -0.340 N 
ATOM     15  C   UNL     1      -5.760   4.531   2.787  1.00  0.00     0.292 C 
ATOM     16  O   UNL     1      -5.564   3.482   3.391  1.00  0.00    -0.265 OA
ATOM     17  H   UNL     1      -7.169   5.091   4.076  1.00  0.00     0.164 HD
BRANCH  15  18
ATOM     18  C   UNL     1      -4.978   4.839   1.490  1.00  0.00     0.252 C 
ATOM     19  O   UNL     1      -4.765   6.016   1.205  1.00  0.00    -0.283 OA
BRANCH  18  20
ATOM     20  C   UNL     1      -4.515   3.762   0.607  1.00  0.00     0.054 A 
ATOM     21  N   UNL     1      -3.917   1.747  -0.158  1.00  0.00    -0.240 N 
ATOM     22  C   UNL     1      -4.255   2.455   0.967  1.00  0.00     0.117 A 
ATOM     23  C   UNL     1      -3.731   2.603  -1.225  1.00  0.00     0.065 A 
ATOM     24  C   UNL     1      -4.146   3.868  -0.780  1.00  0.00     0.012 A 
ATOM     25  C   UNL     1      -3.224   2.404  -2.521  1.00  0.00     0.028 A 
ATOM     26  C   UNL     1      -4.107   4.947  -1.691  1.00  0.00     0.011 A 
ATOM     27  C   UNL     1      -3.136   3.507  -3.374  1.00  0.00     0.002 A 
ATOM     28  C   UNL     1      -3.585   4.759  -2.973  1.00  0.00     0.001 A 
BRANCH  21  29
ATOM     29  S   UNL     1      -3.431   0.112  -0.113  1.00  0.00     0.268 S 
ATOM     30  O   UNL     1      -3.813  -0.467  -1.363  1.00  0.00    -0.201 OA
ATOM     31  O   UNL     1      -3.877  -0.402   1.181  1.00  0.00    -0.201 OA
BRANCH  29  32
ATOM     32  C   UNL     1      -1.661   0.119  -0.036  1.00  0.00     0.088 A 
ATOM     33  C   UNL     1       2.622  -0.089   0.020  1.00  0.00     0.044 C 
ATOM     34  C   UNL     1       1.126  -0.013   0.014  1.00  0.00    -0.051 A 
ATOM     35  C   UNL     1       0.367  -1.188  -0.061  1.00  0.00     0.005 A 
ATOM     36  C   UNL     1       0.476   1.224   0.087  1.00  0.00     0.005 A 
ATOM     37  C   UNL     1      -1.025  -1.125  -0.091  1.00  0.00     0.022 A 
ATOM     38  C   UNL     1      -0.915   1.293   0.072  1.00  0.00     0.022 A 
ENDBRANCH  29  32
ENDBRANCH  21  29
ENDBRANCH  18  20
ENDBRANCH  15  18
ENDBRANCH  13  14
ENDBRANCH  10  13
ENDBRANCH   8   9
ENDBRANCH   6   8
ENDBRANCH   5   6
ENDBRANCH   4   5
ENDBRANCH   3   4
ENDBRANCH   2   3
ENDBRANCH   1   2
BRANCH   1  39
ATOM     39  C   UNL     1     -12.307   5.916   0.111  1.00  0.00     0.188 C 
BRANCH  39  40
ATOM     40  O   UNL     1     -11.700   5.763   1.368  1.00  0.00    -0.377 OA
BRANCH  40  41
ATOM     41  C   UNL     1     -12.292   4.987   2.396  1.00  0.00     0.188 C 
BRANCH  41  42
ATOM     42  C   UNL     1     -13.702   4.377   2.383  1.00  0.00     0.188 C 
BRANCH  42  43
ATOM     43  O   UNL     1     -14.360   4.135   1.151  1.00  0.00    -0.376 OA
BRANCH  43  44
ATOM     44  C   UNL     1     -15.567   4.857   0.898  1.00  0.00     0.202 C 
BRANCH  44  45
ATOM     45  C   UNL     1     -16.649   4.878   1.992  1.00  0.00     0.261 C 
BRANCH  45  46
ATOM     46  O   UNL     1     -17.278   3.588   2.107  1.00  0.00    -0.460 OA
BRANCH  46  47
ATOM     47  C   UNL     1     -17.094   2.968   3.303  1.00  0.00     0.338 C 
ATOM     48  O   UNL     1     -17.610   3.306   4.354  1.00  0.00    -0.246 OA
BRANCH  47  49
ATOM     49  C   UNL     1     -16.112   1.861   3.153  1.00  0.00     0.060 A 
ATOM     50  C   UNL     1     -15.461   1.347   4.285  1.00  0.00     0.016 A 
ATOM     51  C   UNL     1     -15.662   1.526   1.879  1.00  0.00     0.016 A 
ATOM     52  C   UNL     1     -14.238   0.682   4.140  1.00  0.00     0.010 A 
ATOM     53  C   UNL     1     -14.416   0.950   1.747  1.00  0.00     0.010 A 
ATOM     54  C   UNL     1     -13.657   0.602   2.874  1.00  0.00    -0.014 A 
BRANCH  54  55
ATOM     55  C   UNL     1     -12.215   0.445   2.621  1.00  0.00     0.031 A 
ATOM     56  C   UNL     1     -11.760  -0.470   1.534  1.00  0.00     0.074 A 
ATOM     57  C   UNL     1     -11.361   1.368   3.136  1.00  0.00     0.049 A 
ATOM     58  N   UNL     1     -10.559  -0.514   1.084  1.00  0.00    -0.248 NA
ATOM     59  C   UNL     1     -12.633  -1.401   0.822  1.00  0.00     0.031 C 
ATOM     60  C   UNL     1     -10.029   1.725   2.650  1.00  0.00     0.029 A 
ATOM     61  N   UNL     1     -11.491   2.226   4.208  1.00  0.00    -0.354 N 
ATOM     62  C   UNL     1     -10.511  -1.270  -0.063  1.00  0.00     0.074 A 
ATOM     63  C   UNL     1     -11.836  -1.824  -0.170  1.00  0.00     0.031 C 
ATOM     64  C   UNL     1      -9.426   2.597   3.473  1.00  0.00     0.029 A 
ATOM     65  C   UNL     1     -10.234   2.646   4.662  1.00  0.00     0.049 A 
ATOM     66  H   UNL     1     -12.349   2.505   4.601  1.00  0.00     0.167 HD
ATOM     67  C   UNL     1      -9.351  -1.249  -0.788  1.00  0.00     0.034 A 
ATOM     68  C   UNL     1      -9.774   2.209   5.876  1.00  0.00     0.034 A 
ATOM     69  C   UNL     1      -8.255  -0.716   0.044  1.00  0.00     0.049 A 
ATOM     70  C   UNL     1      -8.767   1.054   5.692  1.00  0.00     0.074 A 
ATOM     71  C   UNL     1      -7.441   0.402   0.018  1.00  0.00     0.029 A 
ATOM     72  N   UNL     1      -8.072  -1.277   1.310  1.00  0.00    -0.354 N 
ATOM     73  N   UNL     1      -8.509   0.506   4.524  1.00  0.00    -0.248 NA
ATOM     74  C   UNL     1      -7.940   0.453   6.730  1.00  0.00     0.031 C 
ATOM     75  C   UNL     1      -6.981   0.612   1.358  1.00  0.00     0.029 A 
ATOM     76  C   UNL     1      -7.305  -0.484   2.135  1.00  0.00     0.049 A 
ATOM     77  H   UNL     1      -8.450  -2.145   1.582  1.00  0.00     0.167 HD
ATOM     78  C   UNL     1      -7.478  -0.384   4.587  1.00  0.00     0.074 A 
ATOM     79  C   UNL     1      -7.225  -0.452   6.026  1.00  0.00     0.031 C 
ATOM     80  C   UNL     1      -6.915  -0.959   3.465  1.00  0.00     0.034 A 
BRANCH  67  81
ATOM     81  C   UNL     1      -9.201  -1.599  -2.265  1.00  0.00     0.023 A 
ATOM     82  C   UNL     1      -7.938  -1.475  -2.899  1.00  0.00     0.031 A 
ATOM     83  C   UNL     1     -10.263  -1.941  -3.134  1.00  0.00     0.131 A 
ATOM     84  C   UNL     1      -7.781  -1.687  -4.291  1.00  0.00     0.055 A 
ATOM     85  C   UNL     1     -10.099  -2.192  -4.504  1.00  0.00     0.041 A 
ATOM     86  F   UNL     1     -11.534  -2.003  -2.726  1.00  0.00    -0.206 F 
ATOM     87  C   UNL     1      -8.856  -2.060  -5.092  1.00  0.00     0.022 A 
BRANCH  84  88
ATOM     88  S   UNL     1      -6.162  -1.433  -5.085  1.00  0.00     0.124 S 
ATOM     89  O   UNL     1      -5.900  -0.023  -4.820  1.00  0.00    -0.237 OA
ATOM     90  O   UNL     1      -5.321  -2.404  -4.396  1.00  0.00    -0.237 OA
ATOM     91  O   UNL     1      -6.421  -1.747  -6.492  1.00  0.00    -0.744 OA
ENDBRANCH  84  88
ENDBRANCH  67  81
BRANCH  68  92
ATOM     92  C   UNL     1     -10.822   2.520   6.914  1.00  0.00     0.023 A 
ATOM     93  C   UNL     1     -11.147   3.907   6.990  1.00  0.00     0.031 A 
ATOM     94  C   UNL     1     -11.854   1.610   7.183  1.00  0.00     0.131 A 
ATOM     95  C   UNL     1     -12.492   4.321   6.994  1.00  0.00     0.055 A 
ATOM     96  C   UNL     1     -13.192   2.040   7.271  1.00  0.00     0.041 A 
ATOM     97  F   UNL     1     -11.626   0.289   7.148  1.00  0.00    -0.206 F 
ATOM     98  C   UNL     1     -13.521   3.386   7.092  1.00  0.00     0.022 A 
BRANCH  95  99
ATOM     99  S   UNL     1     -12.910   6.033   6.507  1.00  0.00     0.124 S 
ATOM    100  O   UNL     1     -13.129   6.670   7.800  1.00  0.00    -0.237 OA
ATOM    101  O   UNL     1     -11.723   6.461   5.778  1.00  0.00    -0.237 OA
ATOM    102  O   UNL     1     -14.100   5.847   5.676  1.00  0.00    -0.744 OA
ENDBRANCH  95  99
ENDBRANCH  68  92
BRANCH  80 103
ATOM    103  C   UNL     1      -5.888  -2.073   3.514  1.00  0.00     0.023 A 
ATOM    104  C   UNL     1      -5.035  -2.227   4.602  1.00  0.00     0.031 A 
ATOM    105  C   UNL     1      -5.759  -3.054   2.496  1.00  0.00     0.131 A 
ATOM    106  C   UNL     1      -4.338  -3.426   4.795  1.00  0.00     0.055 A 
ATOM    107  C   UNL     1      -4.953  -4.185   2.624  1.00  0.00     0.041 A 
ATOM    108  F   UNL     1      -6.448  -3.011   1.348  1.00  0.00    -0.206 F 
ATOM    109  C   UNL     1      -4.283  -4.410   3.812  1.00  0.00     0.022 A 
BRANCH 106 110
ATOM    110  S   UNL     1      -3.689  -3.740   6.449  1.00  0.00     0.124 S 
ATOM    111  O   UNL     1      -2.828  -2.585   6.681  1.00  0.00    -0.237 OA
ATOM    112  O   UNL     1      -4.917  -3.779   7.242  1.00  0.00    -0.237 OA
ATOM    113  O   UNL     1      -2.999  -5.020   6.311  1.00  0.00    -0.744 OA
ENDBRANCH 106 110
ENDBRANCH  80 103
ENDBRANCH  54  55
ENDBRANCH  47  49
ENDBRANCH  46  47
ENDBRANCH  45  46
ENDBRANCH  44  45
ENDBRANCH  43  44
ENDBRANCH  42  43
ENDBRANCH  41  42
ENDBRANCH  40  41
ENDBRANCH  39  40
ENDBRANCH   1  39
TORSDOF 30
