REMARK SMILES O=C(C[C@]1(C(=O)NC2CCCCC2)CC(c2ccc([N+](=O)[O-])cc2)=NO1)OCCOCCOCCOCCOC(=O)c1ccc(-c2c3nc(c(-c4cc(S(=O)(=O)[O-])ccc4F)c4ccc([nH]4)c(-c4cc(S(=O)(=O)[O-])ccc4F)c4nc(c(-c5cc(S(=O)(=O)[O-])ccc5F)c5ccc2[nH]5)C=C4)C=C3)cc1
REMARK SMILES IDX 33 1 32 2 31 3 30 4 29 5 28 6 27 7 2 8 1 9 3 10 4 11 14 12
REMARK SMILES IDX 26 13 15 14 25 15 5 16 6 17 7 18 8 20 9 21 13 22 10 23 12 24
REMARK SMILES IDX 11 25 16 26 17 27 24 28 18 29 23 30 19 31 20 32 21 33 22 34
REMARK SMILES IDX 34 35 35 36 36 37 37 38 38 39 39 40 40 41 41 42 42 43 43 44
REMARK SMILES IDX 104 45 44 46 103 47 45 48 46 49 47 50 97 51 48 52 102 53
REMARK SMILES IDX 96 54 98 55 49 56 101 57 95 58 94 59 50 61 82 62 62 63 81 64
REMARK SMILES IDX 63 65 66 66 80 67 99 68 64 69 65 70 79 72 100 73 67 74 51 75
REMARK SMILES IDX 52 76 60 77 53 78 59 79 61 80 58 81 54 82 55 83 56 84 57 85
REMARK SMILES IDX 83 86 84 87 92 88 85 89 91 90 93 91 90 92 86 93 87 94 88 95
REMARK SMILES IDX 89 96 68 97 69 98 77 99 70 100 76 101 78 102 75 103 71 104
REMARK SMILES IDX 72 105 73 106 74 107
REMARK H PARENT 7 19 98 60 66 71
REMARK Flexibility Score: inf
ROOT
ATOM      1  O   UNL     1       8.222   3.620  -1.901  1.00  0.00    -0.377 OA
ENDROOT
BRANCH   1   2
ATOM      2  C   UNL     1       7.950   3.117  -0.605  1.00  0.00     0.188 C 
BRANCH   2   3
ATOM      3  C   UNL     1       6.963   1.958  -0.577  1.00  0.00     0.188 C 
BRANCH   3   4
ATOM      4  O   UNL     1       5.677   2.167  -1.137  1.00  0.00    -0.376 OA
BRANCH   4   5
ATOM      5  C   UNL     1       4.697   3.058  -0.650  1.00  0.00     0.202 C 
BRANCH   5   6
ATOM      6  C   UNL     1       4.964   3.978   0.519  1.00  0.00     0.261 C 
BRANCH   6   7
ATOM      7  O   UNL     1       5.633   3.450   1.686  1.00  0.00    -0.463 OA
BRANCH   7   8
ATOM      8  C   UNL     1       5.533   2.305   2.381  1.00  0.00     0.310 C 
ATOM      9  O   UNL     1       6.089   2.238   3.477  1.00  0.00    -0.252 OA
BRANCH   8  10
ATOM     10  C   UNL     1       4.810   1.106   1.829  1.00  0.00     0.185 C 
BRANCH  10  11
ATOM     11  C   UNL     1       3.288   1.092   1.938  1.00  0.00     0.231 C 
ATOM     12  C   UNL     1       2.674   2.373   2.483  1.00  0.00     0.123 C 
ATOM     13  O   UNL     1       2.976   0.097   2.940  1.00  0.00    -0.378 OA
ATOM     14  C   UNL     1       2.678   2.011   3.923  1.00  0.00     0.092 C 
ATOM     15  N   UNL     1       2.848   0.756   4.184  1.00  0.00    -0.089 NA
BRANCH  11  16
ATOM     16  C   UNL     1       2.639   0.608   0.604  1.00  0.00     0.268 C 
ATOM     17  O   UNL     1       3.292   0.194  -0.355  1.00  0.00    -0.270 OA
ATOM     18  N   UNL     1       1.280   0.651   0.437  1.00  0.00    -0.350 N 
ATOM     19  H   UNL     1       0.922   0.870  -0.454  1.00  0.00     0.163 HD
BRANCH  18  20
ATOM     20  C   UNL     1       0.353   0.392   1.506  1.00  0.00     0.082 C 
ATOM     21  C   UNL     1      -0.936   1.193   1.426  1.00  0.00     0.025 C 
ATOM     22  C   UNL     1       0.085  -1.103   1.626  1.00  0.00     0.025 C 
ATOM     23  C   UNL     1      -1.696   0.979   2.737  1.00  0.00     0.002 C 
ATOM     24  C   UNL     1      -0.647  -1.354   2.936  1.00  0.00     0.002 C 
ATOM     25  C   UNL     1      -1.919  -0.508   3.036  1.00  0.00     0.000 C 
ENDBRANCH  18  20
ENDBRANCH  11  16
BRANCH  14  26
ATOM     26  C   UNL     1       2.517   3.043   4.948  1.00  0.00    -0.000 A 
ATOM     27  C   UNL     1       3.264   2.944   6.124  1.00  0.00     0.017 A 
ATOM     28  C   UNL     1       1.625   4.101   4.744  1.00  0.00     0.017 A 
ATOM     29  C   UNL     1       3.094   3.896   7.128  1.00  0.00     0.086 A 
ATOM     30  C   UNL     1       1.442   5.048   5.750  1.00  0.00     0.086 A 
ATOM     31  C   UNL     1       2.166   4.932   6.946  1.00  0.00     0.269 A 
BRANCH  31  32
ATOM     32  N   UNL     1       1.916   5.881   8.037  1.00  0.00     0.062 N 
ATOM     33  O   UNL     1       2.593   5.763   9.068  1.00  0.00    -0.258 OA
ATOM     34  O   UNL     1       1.020   6.720   7.874  1.00  0.00    -0.258 OA
ENDBRANCH  31  32
ENDBRANCH  14  26
ENDBRANCH  10  11
ENDBRANCH   8  10
ENDBRANCH   7   8
ENDBRANCH   6   7
ENDBRANCH   5   6
ENDBRANCH   4   5
ENDBRANCH   3   4
ENDBRANCH   2   3
ENDBRANCH   1   2
BRANCH   1  35
ATOM     35  C   UNL     1       7.098   4.181  -2.555  1.00  0.00     0.188 C 
BRANCH  35  36
ATOM     36  C   UNL     1       6.460   3.315  -3.665  1.00  0.00     0.188 C 
BRANCH  36  37
ATOM     37  O   UNL     1       6.887   1.989  -3.928  1.00  0.00    -0.376 OA
BRANCH  37  38
ATOM     38  C   UNL     1       8.256   1.637  -3.871  1.00  0.00     0.202 C 
BRANCH  38  39
ATOM     39  C   UNL     1       9.344   2.457  -4.584  1.00  0.00     0.261 C 
BRANCH  39  40
ATOM     40  O   UNL     1       9.214   3.881  -4.528  1.00  0.00    -0.460 OA
BRANCH  40  41
ATOM     41  C   UNL     1       8.652   4.463  -5.614  1.00  0.00     0.338 C 
ATOM     42  O   UNL     1       8.297   3.905  -6.640  1.00  0.00    -0.246 OA
BRANCH  41  43
ATOM     43  C   UNL     1       8.303   5.861  -5.272  1.00  0.00     0.060 A 
ATOM     44  C   UNL     1       6.981   6.286  -5.488  1.00  0.00     0.016 A 
ATOM     45  C   UNL     1       9.231   6.722  -4.681  1.00  0.00     0.016 A 
ATOM     46  C   UNL     1       6.591   7.577  -5.140  1.00  0.00     0.010 A 
ATOM     47  C   UNL     1       8.853   8.033  -4.377  1.00  0.00     0.010 A 
ATOM     48  C   UNL     1       7.542   8.474  -4.642  1.00  0.00    -0.014 A 
BRANCH  48  49
ATOM     49  C   UNL     1       7.251   9.926  -4.701  1.00  0.00     0.031 A 
ATOM     50  C   UNL     1       7.664  10.652  -5.954  1.00  0.00     0.074 A 
ATOM     51  C   UNL     1       6.616  10.574  -3.710  1.00  0.00     0.049 A 
ATOM     52  N   UNL     1       7.586  11.923  -6.246  1.00  0.00    -0.248 NA
ATOM     53  C   UNL     1       8.250   9.822  -7.020  1.00  0.00     0.031 C 
ATOM     54  C   UNL     1       6.109   9.961  -2.484  1.00  0.00     0.029 A 
ATOM     55  N   UNL     1       6.294  11.902  -3.582  1.00  0.00    -0.354 N 
ATOM     56  C   UNL     1       8.118  12.045  -7.525  1.00  0.00     0.074 A 
ATOM     57  C   UNL     1       8.547  10.727  -7.936  1.00  0.00     0.031 C 
ATOM     58  C   UNL     1       5.555  10.919  -1.718  1.00  0.00     0.029 A 
ATOM     59  C   UNL     1       5.703  12.215  -2.380  1.00  0.00     0.049 A 
ATOM     60  H   UNL     1       6.470  12.569  -4.285  1.00  0.00     0.167 HD
ATOM     61  C   UNL     1       8.233  13.156  -8.291  1.00  0.00     0.034 A 
ATOM     62  C   UNL     1       5.355  13.414  -1.868  1.00  0.00     0.034 A 
ATOM     63  C   UNL     1       7.823  14.466  -7.855  1.00  0.00     0.049 A 
ATOM     64  C   UNL     1       5.594  14.659  -2.695  1.00  0.00     0.074 A 
ATOM     65  C   UNL     1       7.896  15.664  -8.542  1.00  0.00     0.029 A 
ATOM     66  N   UNL     1       7.279  14.753  -6.609  1.00  0.00    -0.354 N 
ATOM     67  N   UNL     1       6.100  14.767  -3.904  1.00  0.00    -0.248 NA
ATOM     68  C   UNL     1       5.210  15.942  -2.091  1.00  0.00     0.031 C 
ATOM     69  C   UNL     1       7.472  16.684  -7.684  1.00  0.00     0.029 A 
ATOM     70  C   UNL     1       7.044  16.113  -6.495  1.00  0.00     0.049 A 
ATOM     71  H   UNL     1       7.087  14.087  -5.910  1.00  0.00     0.167 HD
ATOM     72  C   UNL     1       6.056  16.125  -4.216  1.00  0.00     0.074 A 
ATOM     73  C   UNL     1       5.468  16.793  -3.074  1.00  0.00     0.031 C 
ATOM     74  C   UNL     1       6.458  16.764  -5.346  1.00  0.00     0.034 A 
BRANCH  61  75
ATOM     75  C   UNL     1       8.888  12.999  -9.641  1.00  0.00     0.023 A 
ATOM     76  C   UNL     1       8.322  12.203 -10.652  1.00  0.00     0.031 A 
ATOM     77  C   UNL     1      10.122  13.619  -9.904  1.00  0.00     0.131 A 
ATOM     78  C   UNL     1       9.023  11.990 -11.849  1.00  0.00     0.055 A 
ATOM     79  C   UNL     1      10.774  13.471 -11.129  1.00  0.00     0.041 A 
ATOM     80  F   UNL     1      10.726  14.365  -8.965  1.00  0.00    -0.206 F 
ATOM     81  C   UNL     1      10.232  12.640 -12.105  1.00  0.00     0.022 A 
BRANCH  78  82
ATOM     82  S   UNL     1       8.408  10.731 -13.001  1.00  0.00     0.124 S 
ATOM     83  O   UNL     1       8.413   9.535 -12.162  1.00  0.00    -0.237 OA
ATOM     84  O   UNL     1       7.095  11.251 -13.364  1.00  0.00    -0.237 OA
ATOM     85  O   UNL     1       9.400  10.735 -14.074  1.00  0.00    -0.744 OA
ENDBRANCH  78  82
ENDBRANCH  61  75
BRANCH  62  86
ATOM     86  C   UNL     1       4.791  13.519  -0.490  1.00  0.00     0.023 A 
ATOM     87  C   UNL     1       3.504  14.034  -0.267  1.00  0.00     0.031 A 
ATOM     88  C   UNL     1       5.561  13.169   0.634  1.00  0.00     0.131 A 
ATOM     89  C   UNL     1       3.045  14.229   1.046  1.00  0.00     0.055 A 
ATOM     90  C   UNL     1       5.079  13.313   1.936  1.00  0.00     0.041 A 
ATOM     91  F   UNL     1       6.801  12.677   0.481  1.00  0.00    -0.206 F 
ATOM     92  C   UNL     1       3.818  13.860   2.148  1.00  0.00     0.022 A 
BRANCH  89  93
ATOM     93  S   UNL     1       1.452  15.063   1.295  1.00  0.00     0.124 S 
ATOM     94  O   UNL     1       1.675  16.336   0.620  1.00  0.00    -0.237 OA
ATOM     95  O   UNL     1       0.526  14.142   0.642  1.00  0.00    -0.237 OA
ATOM     96  O   UNL     1       1.331  15.137   2.749  1.00  0.00    -0.744 OA
ENDBRANCH  89  93
ENDBRANCH  62  86
BRANCH  74  97
ATOM     97  C   UNL     1       6.216  18.253  -5.427  1.00  0.00     0.023 A 
ATOM     98  C   UNL     1       6.878  19.164  -4.586  1.00  0.00     0.031 A 
ATOM     99  C   UNL     1       5.310  18.766  -6.373  1.00  0.00     0.131 A 
ATOM    100  C   UNL     1       6.583  20.533  -4.670  1.00  0.00     0.055 A 
ATOM    101  C   UNL     1       5.071  20.135  -6.498  1.00  0.00     0.041 A 
ATOM    102  F   UNL     1       4.647  17.943  -7.202  1.00  0.00    -0.206 F 
ATOM    103  C   UNL     1       5.700  21.026  -5.635  1.00  0.00     0.022 A 
BRANCH 100 104
ATOM    104  S   UNL     1       7.296  21.656  -3.438  1.00  0.00     0.124 S 
ATOM    105  O   UNL     1       6.806  21.084  -2.188  1.00  0.00    -0.237 OA
ATOM    106  O   UNL     1       8.729  21.520  -3.683  1.00  0.00    -0.237 OA
ATOM    107  O   UNL     1       6.729  22.957  -3.789  1.00  0.00    -0.744 OA
ENDBRANCH 100 104
ENDBRANCH  74  97
ENDBRANCH  48  49
ENDBRANCH  41  43
ENDBRANCH  40  41
ENDBRANCH  39  40
ENDBRANCH  38  39
ENDBRANCH  37  38
ENDBRANCH  36  37
ENDBRANCH  35  36
ENDBRANCH   1  35
TORSDOF 28
