REMARK SMILES COc1cc2ccccc2cc1C(=O)Nc1cc(C(=O)OCCOCCOCCOCCOC(=O)c2ccc(-c3c4nc(c(-c5cc(S(=O)(=O)[O-])ccc5F)c5ccc([nH]5)c(-c5cc(S(=O)(=O)[O-])ccc5F)c5nc(c(-c6cc(S(=O)(=O)[O-])ccc6F)c6ccc3[nH]6)C=C5)C=C4)cc2)ccc1C
REMARK SMILES IDX 27 1 26 2 25 3 24 4 23 5 22 6 21 7 19 8 20 9 18 10 16 11
REMARK SMILES IDX 17 12 101 13 100 14 102 15 99 16 15 17 13 18 14 19 12 21
REMARK SMILES IDX 3 22 4 23 5 24 11 25 6 26 10 27 7 28 9 29 8 30 2 31 1 32
REMARK SMILES IDX 28 33 29 34 30 35 31 36 32 37 33 38 34 39 35 40 36 41 37 42
REMARK SMILES IDX 98 43 38 44 97 45 39 46 40 47 41 48 91 49 42 50 96 51 90 52
REMARK SMILES IDX 92 53 43 54 95 55 89 56 88 57 44 59 76 60 56 61 75 62 57 63
REMARK SMILES IDX 60 64 74 65 93 66 58 67 59 68 73 70 94 71 61 72 45 73 46 74
REMARK SMILES IDX 54 75 47 76 53 77 55 78 52 79 48 80 49 81 50 82 51 83 77 84
REMARK SMILES IDX 78 85 86 86 79 87 85 88 87 89 84 90 80 91 81 92 82 93 83 94
REMARK SMILES IDX 62 95 63 96 71 97 64 98 70 99 72 100 69 101 65 102 66 103
REMARK SMILES IDX 67 104 68 105
REMARK H PARENT 15 20 92 58 60 69
REMARK Flexibility Score: inf
ROOT
ATOM      1  O   UNL     1      -0.403  -3.147   3.636  1.00  0.00    -0.377 OA
ENDROOT
BRANCH   1   2
ATOM      2  C   UNL     1      -1.766  -3.117   4.085  1.00  0.00     0.188 C 
BRANCH   2   3
ATOM      3  C   UNL     1      -2.949  -4.290   4.082  1.00  0.00     0.188 C 
BRANCH   3   4
ATOM      4  O   UNL     1      -3.856  -5.120   2.913  1.00  0.00    -0.376 OA
BRANCH   4   5
ATOM      5  C   UNL     1      -3.589  -5.867   1.382  1.00  0.00     0.202 C 
BRANCH   5   6
ATOM      6  C   UNL     1      -2.711  -5.260  -0.179  1.00  0.00     0.261 C 
BRANCH   6   7
ATOM      7  O   UNL     1      -2.306  -3.555  -0.665  1.00  0.00    -0.460 OA
BRANCH   7   8
ATOM      8  C   UNL     1      -2.402  -2.088  -0.272  1.00  0.00     0.338 C 
ATOM      9  O   UNL     1      -3.397  -1.392  -0.518  1.00  0.00    -0.246 OA
BRANCH   8  10
ATOM     10  C   UNL     1      -1.333  -1.130   0.446  1.00  0.00     0.062 A 
ATOM     11  C   UNL     1       0.881   0.079   0.529  1.00  0.00     0.045 A 
ATOM     12  C   UNL     1       0.021  -0.942   0.093  1.00  0.00     0.042 A 
ATOM     13  C   UNL     1       0.390   1.028   1.420  1.00  0.00    -0.027 A 
ATOM     14  C   UNL     1      -0.968   0.922   1.786  1.00  0.00     0.006 A 
ATOM     15  C   UNL     1       1.164   2.264   1.796  1.00  0.00     0.046 C 
ATOM     16  C   UNL     1      -1.804  -0.126   1.308  1.00  0.00     0.016 A 
BRANCH  11  17
ATOM     17  N   UNL     1       2.189   0.188   0.001  1.00  0.00    -0.322 N 
ATOM     18  C   UNL     1       2.765  -0.214  -1.194  1.00  0.00     0.259 C 
ATOM     19  O   UNL     1       3.995  -0.118  -1.285  1.00  0.00    -0.269 OA
ATOM     20  H   UNL     1       2.820   0.643   0.606  1.00  0.00     0.170 HD
BRANCH  18  21
ATOM     21  C   UNL     1       2.020  -0.673  -2.412  1.00  0.00     0.082 A 
ATOM     22  C   UNL     1       0.733  -0.272  -2.792  1.00  0.00     0.132 A 
ATOM     23  C   UNL     1       0.079  -0.901  -3.854  1.00  0.00     0.056 A 
ATOM     24  C   UNL     1       0.724  -1.853  -4.646  1.00  0.00    -0.015 A 
ATOM     25  C   UNL     1       2.694  -1.591  -3.248  1.00  0.00     0.026 A 
ATOM     26  C   UNL     1       0.054  -2.476  -5.710  1.00  0.00     0.009 A 
ATOM     27  C   UNL     1       2.067  -2.177  -4.371  1.00  0.00    -0.017 A 
ATOM     28  C   UNL     1       0.715  -3.384  -6.532  1.00  0.00     0.001 A 
ATOM     29  C   UNL     1       2.723  -3.090  -5.218  1.00  0.00     0.009 A 
ATOM     30  C   UNL     1       2.052  -3.682  -6.294  1.00  0.00     0.001 A 
BRANCH  22  31
ATOM     31  O   UNL     1      -0.064   0.597  -2.104  1.00  0.00    -0.496 OA
ATOM     32  C   UNL     1       0.310   1.953  -2.246  1.00  0.00     0.278 C 
ENDBRANCH  22  31
ENDBRANCH  18  21
ENDBRANCH  11  17
ENDBRANCH   8  10
ENDBRANCH   7   8
ENDBRANCH   6   7
ENDBRANCH   5   6
ENDBRANCH   4   5
ENDBRANCH   3   4
ENDBRANCH   2   3
ENDBRANCH   1   2
BRANCH   1  33
ATOM     33  C   UNL     1       0.652  -3.970   4.131  1.00  0.00     0.188 C 
BRANCH  33  34
ATOM     34  C   UNL     1       0.760  -4.254   5.613  1.00  0.00     0.188 C 
BRANCH  34  35
ATOM     35  O   UNL     1      -0.493  -4.730   6.088  1.00  0.00    -0.376 OA
BRANCH  35  36
ATOM     36  C   UNL     1      -0.536  -4.947   7.487  1.00  0.00     0.202 C 
BRANCH  36  37
ATOM     37  C   UNL     1       0.191  -6.225   7.922  1.00  0.00     0.261 C 
BRANCH  37  38
ATOM     38  O   UNL     1      -0.467  -7.382   7.365  1.00  0.00    -0.460 OA
BRANCH  38  39
ATOM     39  C   UNL     1       0.225  -8.003   6.365  1.00  0.00     0.338 C 
ATOM     40  O   UNL     1       1.246  -8.651   6.532  1.00  0.00    -0.246 OA
BRANCH  39  41
ATOM     41  C   UNL     1      -0.424  -7.706   5.066  1.00  0.00     0.060 A 
ATOM     42  C   UNL     1       0.240  -7.662   3.861  1.00  0.00     0.016 A 
ATOM     43  C   UNL     1      -1.748  -7.388   5.003  1.00  0.00     0.016 A 
ATOM     44  C   UNL     1      -0.308  -6.928   2.760  1.00  0.00     0.010 A 
ATOM     45  C   UNL     1      -2.225  -6.702   3.867  1.00  0.00     0.010 A 
ATOM     46  C   UNL     1      -1.422  -6.072   2.850  1.00  0.00    -0.014 A 
BRANCH  46  47
ATOM     47  C   UNL     1      -1.648  -4.533   1.844  1.00  0.00     0.031 A 
ATOM     48  C   UNL     1      -3.333  -3.557   1.549  1.00  0.00     0.074 A 
ATOM     49  C   UNL     1      -0.449  -4.411   1.062  1.00  0.00     0.049 A 
ATOM     50  N   UNL     1      -4.067  -3.757   0.423  1.00  0.00    -0.248 NA
ATOM     51  C   UNL     1      -4.543  -2.906   2.349  1.00  0.00     0.031 C 
ATOM     52  C   UNL     1      -0.049  -3.623  -0.105  1.00  0.00     0.029 A 
ATOM     53  N   UNL     1       0.689  -5.262   1.011  1.00  0.00    -0.354 N 
ATOM     54  C   UNL     1      -5.308  -3.274   0.230  1.00  0.00     0.074 A 
ATOM     55  C   UNL     1      -5.653  -2.922   1.557  1.00  0.00     0.031 C 
ATOM     56  C   UNL     1       1.005  -4.020  -0.802  1.00  0.00     0.029 A 
ATOM     57  C   UNL     1       1.272  -5.274  -0.273  1.00  0.00     0.049 A 
ATOM     58  H   UNL     1       1.029  -5.779   1.777  1.00  0.00     0.167 HD
ATOM     59  C   UNL     1      -5.891  -3.203  -1.012  1.00  0.00     0.034 A 
ATOM     60  C   UNL     1       1.369  -6.333  -1.104  1.00  0.00     0.034 A 
ATOM     61  C   UNL     1      -4.965  -3.280  -2.170  1.00  0.00     0.049 A 
ATOM     62  C   UNL     1       0.396  -6.298  -2.311  1.00  0.00     0.074 A 
ATOM     63  C   UNL     1      -4.348  -2.267  -2.892  1.00  0.00     0.029 A 
ATOM     64  N   UNL     1      -4.366  -4.452  -2.642  1.00  0.00    -0.354 N 
ATOM     65  N   UNL     1      -0.725  -5.597  -2.419  1.00  0.00    -0.248 NA
ATOM     66  C   UNL     1       0.665  -7.060  -3.522  1.00  0.00     0.031 C 
ATOM     67  C   UNL     1      -3.241  -2.811  -3.595  1.00  0.00     0.029 A 
ATOM     68  C   UNL     1      -3.224  -4.185  -3.424  1.00  0.00     0.049 A 
ATOM     69  H   UNL     1      -4.703  -5.357  -2.450  1.00  0.00     0.167 HD
ATOM     70  C   UNL     1      -1.318  -5.803  -3.666  1.00  0.00     0.074 A 
ATOM     71  C   UNL     1      -0.399  -6.760  -4.288  1.00  0.00     0.031 C 
ATOM     72  C   UNL     1      -2.479  -5.222  -4.168  1.00  0.00     0.034 A 
BRANCH  59  73
ATOM     73  C   UNL     1      -7.283  -2.631  -1.104  1.00  0.00     0.023 A 
ATOM     74  C   UNL     1      -7.548  -1.449  -1.821  1.00  0.00     0.031 A 
ATOM     75  C   UNL     1      -8.363  -3.204  -0.406  1.00  0.00     0.131 A 
ATOM     76  C   UNL     1      -8.807  -0.824  -1.742  1.00  0.00     0.055 A 
ATOM     77  C   UNL     1      -9.613  -2.575  -0.315  1.00  0.00     0.041 A 
ATOM     78  F   UNL     1      -8.217  -4.374   0.238  1.00  0.00    -0.206 F 
ATOM     79  C   UNL     1      -9.832  -1.365  -0.964  1.00  0.00     0.022 A 
BRANCH  76  80
ATOM     80  S   UNL     1      -9.080   0.742  -2.624  1.00  0.00     0.124 S 
ATOM     81  O   UNL     1      -8.016   1.592  -2.099  1.00  0.00    -0.237 OA
ATOM     82  O   UNL     1      -8.955   0.340  -4.021  1.00  0.00    -0.237 OA
ATOM     83  O   UNL     1     -10.430   1.133  -2.216  1.00  0.00    -0.744 OA
ENDBRANCH  76  80
ENDBRANCH  59  73
BRANCH  60  84
ATOM     84  C   UNL     1       2.206  -7.359  -0.426  1.00  0.00     0.023 A 
ATOM     85  C   UNL     1       3.332  -6.836   0.289  1.00  0.00     0.031 A 
ATOM     86  C   UNL     1       1.716  -8.600  -0.042  1.00  0.00     0.131 A 
ATOM     87  C   UNL     1       3.682  -7.369   1.531  1.00  0.00     0.055 A 
ATOM     88  C   UNL     1       2.201  -9.225   1.119  1.00  0.00     0.041 A 
ATOM     89  F   UNL     1       0.663  -9.141  -0.671  1.00  0.00    -0.206 F 
ATOM     90  C   UNL     1       3.138  -8.581   1.941  1.00  0.00     0.022 A 
BRANCH  87  91
ATOM     91  S   UNL     1       4.443  -6.258   2.779  1.00  0.00     0.124 S 
ATOM     92  O   UNL     1       5.842  -6.663   2.743  1.00  0.00    -0.237 OA
ATOM     93  O   UNL     1       4.146  -4.924   2.265  1.00  0.00    -0.237 OA
ATOM     94  O   UNL     1       3.709  -6.591   3.999  1.00  0.00    -0.744 OA
ENDBRANCH  87  91
ENDBRANCH  60  84
BRANCH  72  95
ATOM     95  C   UNL     1      -3.033  -5.454  -5.590  1.00  0.00     0.023 A 
ATOM     96  C   UNL     1      -2.244  -5.780  -6.699  1.00  0.00     0.031 A 
ATOM     97  C   UNL     1      -4.406  -5.217  -5.886  1.00  0.00     0.131 A 
ATOM     98  C   UNL     1      -2.812  -5.957  -7.979  1.00  0.00     0.055 A 
ATOM     99  C   UNL     1      -4.948  -5.292  -7.173  1.00  0.00     0.041 A 
ATOM    100  F   UNL     1      -5.300  -4.921  -4.934  1.00  0.00    -0.206 F 
ATOM    101  C   UNL     1      -4.156  -5.696  -8.229  1.00  0.00     0.022 A 
BRANCH  98 102
ATOM    102  S   UNL     1      -1.771  -6.639  -9.294  1.00  0.00     0.124 S 
ATOM    103  O   UNL     1      -0.888  -5.517  -9.596  1.00  0.00    -0.237 OA
ATOM    104  O   UNL     1      -1.142  -7.777  -8.627  1.00  0.00    -0.237 OA
ATOM    105  O   UNL     1      -2.725  -6.992 -10.342  1.00  0.00    -0.744 OA
ENDBRANCH  98 102
ENDBRANCH  72  95
ENDBRANCH  46  47
ENDBRANCH  39  41
ENDBRANCH  38  39
ENDBRANCH  37  38
ENDBRANCH  36  37
ENDBRANCH  35  36
ENDBRANCH  34  35
ENDBRANCH  33  34
ENDBRANCH   1  33
TORSDOF 26
