REMARK SMILES CCCCCCCNC(=O)Oc1cccc(-c2ccc([C@@H](C)C(=O)OCCOCCOCCOCCOC(=O)c3ccc(-c4c5nc(c(-c6cc(S(=O)(=O)[O-])ccc6F)c6ccc([nH]6)c(-c6cc(S(=O)(=O)[O-])ccc6F)c6nc(c(-c7cc(S(=O)(=O)[O-])ccc7F)c7ccc4[nH]7)C=C6)C=C5)cc3)cc2F)c1
REMARK SMILES IDX 27 1 26 2 25 3 23 4 24 5 21 6 22 7 20 8 17 9 18 10 104 11
REMARK SMILES IDX 19 12 103 13 105 14 16 15 12 16 13 17 106 18 14 19 15 20
REMARK SMILES IDX 11 21 9 22 8 23 10 25 7 26 6 27 5 28 4 29 3 30 2 31 1 32
REMARK SMILES IDX 28 33 29 34 30 35 31 36 32 37 33 38 34 39 35 40 36 41 37 42
REMARK SMILES IDX 38 43 39 44 40 45 41 46 102 47 42 48 101 49 43 50 44 51
REMARK SMILES IDX 45 52 95 53 46 54 100 55 94 56 96 57 47 58 99 59 93 60 92 61
REMARK SMILES IDX 48 63 80 64 60 65 79 66 61 67 64 68 78 69 97 70 62 71 63 72
REMARK SMILES IDX 77 74 98 75 65 76 49 77 50 78 58 79 51 80 57 81 59 82 56 83
REMARK SMILES IDX 52 84 53 85 54 86 55 87 81 88 82 89 90 90 83 91 89 92 91 93
REMARK SMILES IDX 88 94 84 95 85 96 86 97 87 98 66 99 67 100 75 101 68 102
REMARK SMILES IDX 74 103 76 104 73 105 69 106 70 107 71 108 72 109
REMARK H PARENT 8 24 96 62 64 73
REMARK Flexibility Score: inf
ROOT
ATOM      1  C   UNL     1      -9.718   5.570 -10.941  1.00  0.00     0.202 C 
ENDROOT
BRANCH   1   2
ATOM      2  C   UNL     1     -10.314   6.983 -10.785  1.00  0.00     0.261 C 
BRANCH   2   3
ATOM      3  O   UNL     1     -10.111   7.642  -9.517  1.00  0.00    -0.463 OA
BRANCH   3   4
ATOM      4  C   UNL     1     -11.180   7.702  -8.692  1.00  0.00     0.313 C 
ATOM      5  O   UNL     1     -12.287   7.249  -8.982  1.00  0.00    -0.252 OA
BRANCH   4   6
ATOM      6  C   UNL     1     -10.958   8.409  -7.356  1.00  0.00     0.126 C 
ATOM      7  C   UNL     1     -11.681   9.750  -7.392  1.00  0.00     0.025 C 
BRANCH   6   8
ATOM      8  C   UNL     1      -9.563   8.548  -6.744  1.00  0.00    -0.031 A 
ATOM      9  C   UNL     1      -6.982   8.729  -5.485  1.00  0.00     0.018 A 
ATOM     10  C   UNL     1      -7.233   9.295  -6.749  1.00  0.00     0.012 A 
ATOM     11  C   UNL     1      -8.050   8.065  -4.874  1.00  0.00     0.131 A 
ATOM     12  C   UNL     1      -8.499   9.210  -7.369  1.00  0.00     0.005 A 
ATOM     13  C   UNL     1      -9.314   7.986  -5.475  1.00  0.00     0.044 A 
ATOM     14  F   UNL     1      -7.894   7.496  -3.668  1.00  0.00    -0.206 F 
BRANCH   9  15
ATOM     15  C   UNL     1      -5.675   8.886  -4.811  1.00  0.00    -0.012 A 
ATOM     16  C   UNL     1      -3.705   7.991  -3.691  1.00  0.00     0.133 A 
ATOM     17  C   UNL     1      -3.223   9.275  -3.447  1.00  0.00     0.047 A 
ATOM     18  C   UNL     1      -4.923   7.786  -4.353  1.00  0.00     0.056 A 
ATOM     19  C   UNL     1      -3.953  10.371  -3.893  1.00  0.00     0.004 A 
ATOM     20  C   UNL     1      -5.163  10.177  -4.567  1.00  0.00     0.009 A 
BRANCH  16  21
ATOM     21  O   UNL     1      -2.969   6.933  -3.127  1.00  0.00    -0.410 OA
BRANCH  21  22
ATOM     22  C   UNL     1      -2.469   5.966  -3.985  1.00  0.00     0.412 C 
ATOM     23  N   UNL     1      -1.656   5.055  -3.364  1.00  0.00    -0.321 N 
ATOM     24  H   UNL     1      -1.318   4.318  -3.923  1.00  0.00     0.167 HD
ATOM     25  O   UNL     1      -2.690   5.887  -5.187  1.00  0.00    -0.224 OA
BRANCH  23  26
ATOM     26  C   UNL     1      -1.236   5.053  -1.976  1.00  0.00     0.119 C 
BRANCH  26  27
ATOM     27  C   UNL     1      -1.665   3.780  -1.243  1.00  0.00     0.021 C 
BRANCH  27  28
ATOM     28  C   UNL     1      -1.053   2.482  -1.789  1.00  0.00     0.002 C 
BRANCH  28  29
ATOM     29  C   UNL     1       0.475   2.393  -1.714  1.00  0.00     0.000 C 
BRANCH  29  30
ATOM     30  C   UNL     1       1.066   2.427  -0.300  1.00  0.00    -0.000 C 
BRANCH  30  31
ATOM     31  C   UNL     1       0.616   1.294   0.627  1.00  0.00    -0.003 C 
ATOM     32  C   UNL     1       1.003  -0.089   0.125  1.00  0.00     0.004 C 
ENDBRANCH  30  31
ENDBRANCH  29  30
ENDBRANCH  28  29
ENDBRANCH  27  28
ENDBRANCH  26  27
ENDBRANCH  23  26
ENDBRANCH  21  22
ENDBRANCH  16  21
ENDBRANCH   9  15
ENDBRANCH   6   8
ENDBRANCH   4   6
ENDBRANCH   3   4
ENDBRANCH   2   3
ENDBRANCH   1   2
BRANCH   1  33
ATOM     33  O   UNL     1      -9.984   4.561  -9.977  1.00  0.00    -0.376 OA
BRANCH  33  34
ATOM     34  C   UNL     1      -9.711   4.779  -8.599  1.00  0.00     0.188 C 
BRANCH  34  35
ATOM     35  C   UNL     1      -8.519   5.630  -8.140  1.00  0.00     0.188 C 
BRANCH  35  36
ATOM     36  O   UNL     1      -7.832   6.306  -9.169  1.00  0.00    -0.377 OA
BRANCH  36  37
ATOM     37  C   UNL     1      -6.582   5.760  -9.560  1.00  0.00     0.188 C 
BRANCH  37  38
ATOM     38  C   UNL     1      -6.499   4.225  -9.673  1.00  0.00     0.188 C 
BRANCH  38  39
ATOM     39  O   UNL     1      -6.903   3.537  -8.493  1.00  0.00    -0.376 OA
BRANCH  39  40
ATOM     40  C   UNL     1      -5.898   3.133  -7.571  1.00  0.00     0.202 C 
BRANCH  40  41
ATOM     41  C   UNL     1      -5.109   4.224  -6.829  1.00  0.00     0.261 C 
BRANCH  41  42
ATOM     42  O   UNL     1      -4.399   5.169  -7.636  1.00  0.00    -0.460 OA
BRANCH  42  43
ATOM     43  C   UNL     1      -3.473   4.707  -8.507  1.00  0.00     0.338 C 
ATOM     44  O   UNL     1      -3.153   3.554  -8.688  1.00  0.00    -0.246 OA
BRANCH  43  45
ATOM     45  C   UNL     1      -3.088   5.850  -9.371  1.00  0.00     0.060 A 
ATOM     46  C   UNL     1      -3.309   5.769 -10.753  1.00  0.00     0.016 A 
ATOM     47  C   UNL     1      -2.525   6.999  -8.813  1.00  0.00     0.016 A 
ATOM     48  C   UNL     1      -2.927   6.822 -11.589  1.00  0.00     0.010 A 
ATOM     49  C   UNL     1      -2.117   8.039  -9.652  1.00  0.00     0.010 A 
ATOM     50  C   UNL     1      -2.282   7.941 -11.047  1.00  0.00    -0.014 A 
BRANCH  50  51
ATOM     51  C   UNL     1      -1.546   8.883 -11.929  1.00  0.00     0.031 A 
ATOM     52  C   UNL     1      -0.067   8.661 -12.099  1.00  0.00     0.074 A 
ATOM     53  C   UNL     1      -2.152   9.911 -12.549  1.00  0.00     0.049 A 
ATOM     54  N   UNL     1       0.832   9.418 -12.671  1.00  0.00    -0.248 NA
ATOM     55  C   UNL     1       0.467   7.413 -11.530  1.00  0.00     0.031 C 
ATOM     56  C   UNL     1      -3.586  10.187 -12.528  1.00  0.00     0.029 A 
ATOM     57  N   UNL     1      -1.623  10.930 -13.306  1.00  0.00    -0.354 N 
ATOM     58  C   UNL     1       2.041   8.748 -12.515  1.00  0.00     0.074 A 
ATOM     59  C   UNL     1       1.762   7.540 -11.769  1.00  0.00     0.031 C 
ATOM     60  C   UNL     1      -3.821  11.316 -13.221  1.00  0.00     0.029 A 
ATOM     61  C   UNL     1      -2.550  11.872 -13.688  1.00  0.00     0.049 A 
ATOM     62  H   UNL     1      -0.671  10.980 -13.552  1.00  0.00     0.167 HD
ATOM     63  C   UNL     1       3.272   9.109 -12.954  1.00  0.00     0.034 A 
ATOM     64  C   UNL     1      -2.383  13.063 -14.302  1.00  0.00     0.034 A 
ATOM     65  C   UNL     1       3.534  10.326 -13.679  1.00  0.00     0.049 A 
ATOM     66  C   UNL     1      -0.985  13.505 -14.682  1.00  0.00     0.074 A 
ATOM     67  C   UNL     1       4.740  10.796 -14.167  1.00  0.00     0.029 A 
ATOM     68  N   UNL     1       2.575  11.276 -14.008  1.00  0.00    -0.354 N 
ATOM     69  N   UNL     1       0.157  12.879 -14.510  1.00  0.00    -0.248 NA
ATOM     70  C   UNL     1      -0.854  14.814 -15.338  1.00  0.00     0.031 C 
ATOM     71  C   UNL     1       4.526  12.063 -14.715  1.00  0.00     0.029 A 
ATOM     72  C   UNL     1       3.170  12.343 -14.663  1.00  0.00     0.049 A 
ATOM     73  H   UNL     1       1.614  11.202 -13.806  1.00  0.00     0.167 HD
ATOM     74  C   UNL     1       1.132  13.696 -15.082  1.00  0.00     0.074 A 
ATOM     75  C   UNL     1       0.445  14.860 -15.599  1.00  0.00     0.031 C 
ATOM     76  C   UNL     1       2.471  13.495 -15.183  1.00  0.00     0.034 A 
BRANCH  63  77
ATOM     77  C   UNL     1       4.427   8.205 -12.596  1.00  0.00     0.023 A 
ATOM     78  C   UNL     1       4.503   6.879 -13.055  1.00  0.00     0.031 A 
ATOM     79  C   UNL     1       5.450   8.667 -11.748  1.00  0.00     0.131 A 
ATOM     80  C   UNL     1       5.533   6.040 -12.604  1.00  0.00     0.055 A 
ATOM     81  C   UNL     1       6.521   7.854 -11.374  1.00  0.00     0.041 A 
ATOM     82  F   UNL     1       5.417   9.915 -11.253  1.00  0.00    -0.206 F 
ATOM     83  C   UNL     1       6.558   6.526 -11.789  1.00  0.00     0.022 A 
BRANCH  80  84
ATOM     84  S   UNL     1       5.427   4.266 -12.966  1.00  0.00     0.124 S 
ATOM     85  O   UNL     1       4.144   3.917 -12.362  1.00  0.00    -0.237 OA
ATOM     86  O   UNL     1       5.476   4.238 -14.423  1.00  0.00    -0.237 OA
ATOM     87  O   UNL     1       6.597   3.708 -12.291  1.00  0.00    -0.744 OA
ENDBRANCH  80  84
ENDBRANCH  63  77
BRANCH  64  88
ATOM     88  C   UNL     1      -3.551  13.959 -14.556  1.00  0.00     0.023 A 
ATOM     89  C   UNL     1      -3.910  14.331 -15.861  1.00  0.00     0.031 A 
ATOM     90  C   UNL     1      -4.282  14.516 -13.491  1.00  0.00     0.131 A 
ATOM     91  C   UNL     1      -4.935  15.269 -16.067  1.00  0.00     0.055 A 
ATOM     92  C   UNL     1      -5.341  15.401 -13.703  1.00  0.00     0.041 A 
ATOM     93  F   UNL     1      -3.977  14.205 -12.221  1.00  0.00    -0.206 F 
ATOM     94  C   UNL     1      -5.664  15.794 -14.998  1.00  0.00     0.022 A 
BRANCH  91  95
ATOM     95  S   UNL     1      -5.232  15.877 -17.750  1.00  0.00     0.124 S 
ATOM     96  O   UNL     1      -3.931  16.436 -18.096  1.00  0.00    -0.237 OA
ATOM     97  O   UNL     1      -5.613  14.655 -18.450  1.00  0.00    -0.237 OA
ATOM     98  O   UNL     1      -6.306  16.853 -17.575  1.00  0.00    -0.744 OA
ENDBRANCH  91  95
ENDBRANCH  64  88
BRANCH  76  99
ATOM     99  C   UNL     1       3.278  14.513 -15.956  1.00  0.00     0.023 A 
ATOM    100  C   UNL     1       3.469  15.828 -15.500  1.00  0.00     0.031 A 
ATOM    101  C   UNL     1       3.897  14.136 -17.164  1.00  0.00     0.131 A 
ATOM    102  C   UNL     1       4.225  16.730 -16.267  1.00  0.00     0.055 A 
ATOM    103  C   UNL     1       4.698  15.018 -17.889  1.00  0.00     0.041 A 
ATOM    104  F   UNL     1       3.746  12.893 -17.649  1.00  0.00    -0.206 F 
ATOM    105  C   UNL     1       4.858  16.326 -17.446  1.00  0.00     0.022 A 
BRANCH 102 106
ATOM    106  S   UNL     1       4.313  18.465 -15.745  1.00  0.00     0.124 S 
ATOM    107  O   UNL     1       2.907  18.853 -15.742  1.00  0.00    -0.237 OA
ATOM    108  O   UNL     1       4.950  18.366 -14.435  1.00  0.00    -0.237 OA
ATOM    109  O   UNL     1       5.128  19.095 -16.782  1.00  0.00    -0.744 OA
ENDBRANCH 102 106
ENDBRANCH  76  99
ENDBRANCH  50  51
ENDBRANCH  43  45
ENDBRANCH  42  43
ENDBRANCH  41  42
ENDBRANCH  40  41
ENDBRANCH  39  40
ENDBRANCH  38  39
ENDBRANCH  37  38
ENDBRANCH  36  37
ENDBRANCH  35  36
ENDBRANCH  34  35
ENDBRANCH  33  34
ENDBRANCH   1  33
TORSDOF 33
