REMARK SMILES COc1ccc(C(=O)N[C@@H](C(=O)OCCOCCOCCOCCOC(=O)c2ccc(-c3c4nc(c(-c5cc(S(=O)(=O)[O-])ccc5F)c5ccc([nH]5)c(-c5cc(S(=O)(=O)[O-])ccc5F)c5nc(c(-c6cc(S(=O)(=O)[O-])ccc6F)c6ccc3[nH]6)C=C5)C=C4)cc2)C(C)C)cc1O
REMARK SMILES IDX 19 1 18 2 17 3 16 4 15 5 14 6 13 7 11 8 12 9 10 10 9 11 7 12
REMARK SMILES IDX 8 13 6 15 3 16 4 17 95 18 5 19 94 20 2 21 1 22 96 23 91 25
REMARK SMILES IDX 92 26 93 27 20 28 21 29 22 30 23 31 24 32 25 33 26 34 27 35
REMARK SMILES IDX 28 36 29 37 90 38 30 39 89 40 31 41 32 42 33 43 83 44 34 45
REMARK SMILES IDX 88 46 82 47 84 48 35 49 87 50 81 51 80 52 36 54 68 55 48 56
REMARK SMILES IDX 67 57 49 58 52 59 66 60 85 61 50 62 51 63 65 65 86 66 53 67
REMARK SMILES IDX 37 68 38 69 46 70 39 71 45 72 47 73 44 74 40 75 41 76 42 77
REMARK SMILES IDX 43 78 69 79 70 80 78 81 71 82 77 83 79 84 76 85 72 86 73 87
REMARK SMILES IDX 74 88 75 89 54 90 55 91 63 92 56 93 62 94 64 95 61 96 57 97
REMARK SMILES IDX 58 98 59 99 60 100
REMARK H PARENT 9 14 96 24 84 53 52 64
REMARK Flexibility Score: inf
ROOT
ATOM      1  O   UNL     1      -2.515  -8.131  -2.496  1.00  0.00    -0.377 OA
ENDROOT
BRANCH   1   2
ATOM      2  C   UNL     1      -1.238  -8.717  -2.597  1.00  0.00     0.188 C 
BRANCH   2   3
ATOM      3  C   UNL     1      -0.689  -9.299  -1.284  1.00  0.00     0.188 C 
BRANCH   3   4
ATOM      4  O   UNL     1      -1.523  -9.477  -0.152  1.00  0.00    -0.376 OA
BRANCH   4   5
ATOM      5  C   UNL     1      -2.444  -8.470   0.247  1.00  0.00     0.202 C 
BRANCH   5   6
ATOM      6  C   UNL     1      -2.100  -6.966   0.234  1.00  0.00     0.261 C 
BRANCH   6   7
ATOM      7  O   UNL     1      -1.244  -6.510  -0.826  1.00  0.00    -0.462 OA
BRANCH   7   8
ATOM      8  C   UNL     1       0.024  -6.171  -0.492  1.00  0.00     0.328 C 
ATOM      9  O   UNL     1       0.458  -6.193   0.655  1.00  0.00    -0.250 OA
BRANCH   8  10
ATOM     10  C   UNL     1       0.903  -5.792  -1.727  1.00  0.00     0.195 C 
BRANCH  10  11
ATOM     11  N   UNL     1       0.161  -5.590  -3.001  1.00  0.00    -0.338 N 
ATOM     12  C   UNL     1      -0.446  -4.503  -3.579  1.00  0.00     0.252 C 
ATOM     13  O   UNL     1      -0.918  -4.625  -4.707  1.00  0.00    -0.269 OA
ATOM     14  H   UNL     1       0.090  -6.409  -3.544  1.00  0.00     0.164 HD
BRANCH  12  15
ATOM     15  C   UNL     1      -0.400  -3.171  -2.940  1.00  0.00     0.043 A 
ATOM     16  C   UNL     1       0.327  -0.721  -1.793  1.00  0.00     0.160 A 
ATOM     17  C   UNL     1       0.086  -0.816  -3.169  1.00  0.00     0.051 A 
ATOM     18  C   UNL     1       0.114  -1.852  -1.007  1.00  0.00     0.158 A 
ATOM     19  C   UNL     1      -0.245  -2.044  -3.750  1.00  0.00     0.018 A 
ATOM     20  C   UNL     1      -0.365  -3.027  -1.561  1.00  0.00     0.064 A 
BRANCH  16  21
ATOM     21  O   UNL     1       0.779   0.501  -1.383  1.00  0.00    -0.493 OA
ATOM     22  C   UNL     1       0.813   0.756   0.015  1.00  0.00     0.278 C 
ENDBRANCH  16  21
BRANCH  18  23
ATOM     23  O   UNL     1       0.478  -1.954   0.305  1.00  0.00    -0.504 OA
ATOM     24  H   UNL     1       0.813  -1.205   0.758  1.00  0.00     0.293 HD
ENDBRANCH  18  23
ENDBRANCH  12  15
ENDBRANCH  10  11
BRANCH  10  25
ATOM     25  C   UNL     1       2.050  -6.825  -1.941  1.00  0.00     0.017 C 
ATOM     26  C   UNL     1       3.058  -6.297  -2.968  1.00  0.00     0.010 C 
ATOM     27  C   UNL     1       2.797  -7.177  -0.647  1.00  0.00     0.010 C 
ENDBRANCH  10  25
ENDBRANCH   8  10
ENDBRANCH   7   8
ENDBRANCH   6   7
ENDBRANCH   5   6
ENDBRANCH   4   5
ENDBRANCH   3   4
ENDBRANCH   2   3
ENDBRANCH   1   2
BRANCH   1  28
ATOM     28  C   UNL     1      -3.618  -8.937  -2.885  1.00  0.00     0.188 C 
BRANCH  28  29
ATOM     29  C   UNL     1      -3.534 -10.450  -2.599  1.00  0.00     0.188 C 
BRANCH  29  30
ATOM     30  O   UNL     1      -2.337 -11.070  -3.059  1.00  0.00    -0.376 OA
BRANCH  30  31
ATOM     31  C   UNL     1      -2.332 -11.693  -4.336  1.00  0.00     0.202 C 
BRANCH  31  32
ATOM     32  C   UNL     1      -2.552 -10.814  -5.581  1.00  0.00     0.261 C 
BRANCH  32  33
ATOM     33  O   UNL     1      -3.788 -10.088  -5.654  1.00  0.00    -0.460 OA
BRANCH  33  34
ATOM     34  C   UNL     1      -4.940 -10.788  -5.542  1.00  0.00     0.338 C 
ATOM     35  O   UNL     1      -5.053 -11.992  -5.464  1.00  0.00    -0.246 OA
BRANCH  34  36
ATOM     36  C   UNL     1      -6.035  -9.816  -5.309  1.00  0.00     0.060 A 
ATOM     37  C   UNL     1      -6.803  -9.935  -4.143  1.00  0.00     0.016 A 
ATOM     38  C   UNL     1      -6.301  -8.799  -6.228  1.00  0.00     0.016 A 
ATOM     39  C   UNL     1      -7.868  -9.063  -3.913  1.00  0.00     0.010 A 
ATOM     40  C   UNL     1      -7.387  -7.944  -6.010  1.00  0.00     0.010 A 
ATOM     41  C   UNL     1      -8.198  -8.096  -4.870  1.00  0.00    -0.014 A 
BRANCH  41  42
ATOM     42  C   UNL     1      -9.507  -7.400  -4.786  1.00  0.00     0.031 A 
ATOM     43  C   UNL     1     -10.644  -7.933  -5.620  1.00  0.00     0.074 A 
ATOM     44  C   UNL     1      -9.695  -6.343  -3.973  1.00  0.00     0.049 A 
ATOM     45  N   UNL     1     -11.856  -7.466  -5.768  1.00  0.00    -0.248 NA
ATOM     46  C   UNL     1     -10.373  -9.157  -6.393  1.00  0.00     0.031 C 
ATOM     47  C   UNL     1      -8.687  -5.775  -3.079  1.00  0.00     0.029 A 
ATOM     48  N   UNL     1     -10.800  -5.551  -3.778  1.00  0.00    -0.354 N 
ATOM     49  C   UNL     1     -12.484  -8.324  -6.665  1.00  0.00     0.074 A 
ATOM     50  C   UNL     1     -11.516  -9.331  -7.039  1.00  0.00     0.031 C 
ATOM     51  C   UNL     1      -9.216  -4.713  -2.446  1.00  0.00     0.029 A 
ATOM     52  C   UNL     1     -10.582  -4.495  -2.922  1.00  0.00     0.049 A 
ATOM     53  H   UNL     1     -11.668  -5.722  -4.211  1.00  0.00     0.167 HD
ATOM     54  C   UNL     1     -13.753  -8.271  -7.134  1.00  0.00     0.034 A 
ATOM     55  C   UNL     1     -11.379  -3.455  -2.595  1.00  0.00     0.034 A 
ATOM     56  C   UNL     1     -14.708  -7.264  -6.747  1.00  0.00     0.049 A 
ATOM     57  C   UNL     1     -12.767  -3.381  -3.198  1.00  0.00     0.074 A 
ATOM     58  C   UNL     1     -16.032  -7.147  -7.131  1.00  0.00     0.029 A 
ATOM     59  N   UNL     1     -14.441  -6.193  -5.906  1.00  0.00    -0.354 N 
ATOM     60  N   UNL     1     -13.360  -4.217  -4.020  1.00  0.00    -0.248 NA
ATOM     61  C   UNL     1     -13.597  -2.227  -2.822  1.00  0.00     0.031 C 
ATOM     62  C   UNL     1     -16.537  -5.957  -6.601  1.00  0.00     0.029 A 
ATOM     63  C   UNL     1     -15.562  -5.386  -5.799  1.00  0.00     0.049 A 
ATOM     64  H   UNL     1     -13.583  -6.032  -5.452  1.00  0.00     0.167 HD
ATOM     65  C   UNL     1     -14.643  -3.709  -4.221  1.00  0.00     0.074 A 
ATOM     66  C   UNL     1     -14.743  -2.508  -3.422  1.00  0.00     0.031 C 
ATOM     67  C   UNL     1     -15.651  -4.192  -4.993  1.00  0.00     0.034 A 
BRANCH  54  68
ATOM     68  C   UNL     1     -14.169  -9.286  -8.169  1.00  0.00     0.023 A 
ATOM     69  C   UNL     1     -14.287 -10.655  -7.877  1.00  0.00     0.031 A 
ATOM     70  C   UNL     1     -14.485  -8.859  -9.472  1.00  0.00     0.131 A 
ATOM     71  C   UNL     1     -14.678 -11.552  -8.883  1.00  0.00     0.055 A 
ATOM     72  C   UNL     1     -14.941  -9.745 -10.448  1.00  0.00     0.041 A 
ATOM     73  F   UNL     1     -14.362  -7.567  -9.815  1.00  0.00    -0.206 F 
ATOM     74  C   UNL     1     -15.034 -11.102 -10.158  1.00  0.00     0.022 A 
BRANCH  71  75
ATOM     75  S   UNL     1     -14.626 -13.331  -8.536  1.00  0.00     0.124 S 
ATOM     76  O   UNL     1     -13.213 -13.529  -8.222  1.00  0.00    -0.237 OA
ATOM     77  O   UNL     1     -15.553 -13.463  -7.418  1.00  0.00    -0.237 OA
ATOM     78  O   UNL     1     -15.069 -13.939  -9.790  1.00  0.00    -0.744 OA
ENDBRANCH  71  75
ENDBRANCH  54  68
BRANCH  55  79
ATOM     79  C   UNL     1     -10.886  -2.353  -1.712  1.00  0.00     0.023 A 
ATOM     80  C   UNL     1     -11.554  -2.017  -0.522  1.00  0.00     0.031 A 
ATOM     81  C   UNL     1      -9.807  -1.541  -2.106  1.00  0.00     0.131 A 
ATOM     82  C   UNL     1     -11.191  -0.858   0.183  1.00  0.00     0.055 A 
ATOM     83  C   UNL     1      -9.400  -0.433  -1.359  1.00  0.00     0.041 A 
ATOM     84  F   UNL     1      -9.137  -1.803  -3.240  1.00  0.00    -0.206 F 
ATOM     85  C   UNL     1     -10.108  -0.073  -0.218  1.00  0.00     0.022 A 
BRANCH  82  86
ATOM     86  S   UNL     1     -12.254  -0.303   1.546  1.00  0.00     0.124 S 
ATOM     87  O   UNL     1     -13.553  -0.217   0.890  1.00  0.00    -0.237 OA
ATOM     88  O   UNL     1     -12.093  -1.384   2.513  1.00  0.00    -0.237 OA
ATOM     89  O   UNL     1     -11.665   0.976   1.938  1.00  0.00    -0.744 OA
ENDBRANCH  82  86
ENDBRANCH  55  79
BRANCH  67  90
ATOM     90  C   UNL     1     -16.972  -3.459  -4.954  1.00  0.00     0.023 A 
ATOM     91  C   UNL     1     -17.111  -2.144  -5.432  1.00  0.00     0.031 A 
ATOM     92  C   UNL     1     -18.112  -4.093  -4.428  1.00  0.00     0.131 A 
ATOM     93  C   UNL     1     -18.346  -1.487  -5.318  1.00  0.00     0.055 A 
ATOM     94  C   UNL     1     -19.355  -3.460  -4.384  1.00  0.00     0.041 A 
ATOM     95  F   UNL     1     -18.039  -5.348  -3.953  1.00  0.00    -0.206 F 
ATOM     96  C   UNL     1     -19.474  -2.144  -4.818  1.00  0.00     0.022 A 
BRANCH  93  97
ATOM     97  S   UNL     1     -18.439   0.275  -5.739  1.00  0.00     0.124 S 
ATOM     98  O   UNL     1     -17.442   0.853  -4.843  1.00  0.00    -0.237 OA
ATOM     99  O   UNL     1     -18.098   0.277  -7.157  1.00  0.00    -0.237 OA
ATOM    100  O   UNL     1     -19.825   0.628  -5.435  1.00  0.00    -0.744 OA
ENDBRANCH  93  97
ENDBRANCH  67  90
ENDBRANCH  41  42
ENDBRANCH  34  36
ENDBRANCH  33  34
ENDBRANCH  32  33
ENDBRANCH  31  32
ENDBRANCH  30  31
ENDBRANCH  29  30
ENDBRANCH  28  29
ENDBRANCH   1  28
TORSDOF 28
