REMARK SMILES Cc1c(C(=O)Nc2ccc(C(=O)Nc3ccccc3C(=O)OCCOCCOCCOCCOC(=O)c3ccc(-c4c5nc(c(-c6cc(S(=O)(=O)[O-])ccc6F)c6ccc([nH]6)c(-c6cc(S(=O)(=O)[O-])ccc6F)c6nc(c(-c7cc(S(=O)(=O)[O-])ccc7F)c7ccc4[nH]7)C=C6)C=C5)cc3)cc2)cccc1[N+](=O)[O-]
REMARK SMILES IDX 27 1 26 2 25 3 24 4 23 5 22 6 20 7 21 8 19 9 14 10 15 11
REMARK SMILES IDX 16 12 18 13 17 14 13 15 11 16 12 17 10 19 7 20 8 21 101 22
REMARK SMILES IDX 9 23 100 24 6 25 4 26 5 27 3 29 1 30 2 31 105 32 102 33
REMARK SMILES IDX 104 34 103 35 106 36 107 37 108 38 28 39 29 40 30 41 31 42
REMARK SMILES IDX 32 43 33 44 34 45 35 46 36 47 37 48 38 49 99 50 39 51 98 52
REMARK SMILES IDX 40 53 41 54 42 55 92 56 43 57 97 58 91 59 93 60 44 61 96 62
REMARK SMILES IDX 90 63 89 64 45 66 77 67 57 68 76 69 58 70 61 71 75 72 94 73
REMARK SMILES IDX 59 74 60 75 74 77 95 78 62 79 46 80 47 81 55 82 48 83 54 84
REMARK SMILES IDX 56 85 53 86 49 87 50 88 51 89 52 90 78 91 79 92 87 93 80 94
REMARK SMILES IDX 86 95 88 96 85 97 81 98 82 99 83 100 84 101 63 102 64 103
REMARK SMILES IDX 72 104 65 105 71 106 73 107 70 108 66 109 67 110 68 111
REMARK SMILES IDX 69 112
REMARK H PARENT 13 18 6 28 93 65 61 76
REMARK Flexibility Score: inf
ROOT
ATOM      1  C   UNL     1       5.337   0.038  -0.529  1.00  0.00     0.188 C 
ENDROOT
BRANCH   1   2
ATOM      2  C   UNL     1       5.408   1.447   0.069  1.00  0.00     0.188 C 
BRANCH   2   3
ATOM      3  O   UNL     1       6.623   2.019   0.491  1.00  0.00    -0.376 OA
BRANCH   3   4
ATOM      4  C   UNL     1       7.096   1.563   1.728  1.00  0.00     0.202 C 
BRANCH   4   5
ATOM      5  C   UNL     1       6.452   2.002   3.056  1.00  0.00     0.261 C 
BRANCH   5   6
ATOM      6  O   UNL     1       5.109   2.451   3.052  1.00  0.00    -0.460 OA
BRANCH   6   7
ATOM      7  C   UNL     1       5.080   3.789   2.943  1.00  0.00     0.340 C 
ATOM      8  O   UNL     1       5.996   4.557   2.635  1.00  0.00    -0.246 OA
BRANCH   7   9
ATOM      9  C   UNL     1       3.717   4.258   3.028  1.00  0.00     0.083 A 
ATOM     10  C   UNL     1       3.196   4.849   1.875  1.00  0.00     0.056 A 
ATOM     11  C   UNL     1       1.893   5.327   1.860  1.00  0.00     0.027 A 
ATOM     12  C   UNL     1       1.072   5.092   2.959  1.00  0.00     0.002 A 
ATOM     13  C   UNL     1       2.886   3.961   4.111  1.00  0.00     0.018 A 
ATOM     14  C   UNL     1       1.551   4.367   4.059  1.00  0.00     0.001 A 
BRANCH  10  15
ATOM     15  N   UNL     1       3.879   4.720   0.663  1.00  0.00    -0.321 N 
ATOM     16  C   UNL     1       3.474   3.920  -0.386  1.00  0.00     0.255 C 
ATOM     17  O   UNL     1       3.973   4.117  -1.498  1.00  0.00    -0.269 OA
ATOM     18  H   UNL     1       4.709   5.237   0.549  1.00  0.00     0.170 HD
BRANCH  16  19
ATOM     19  C   UNL     1       2.620   2.667  -0.183  1.00  0.00     0.040 A 
ATOM     20  C   UNL     1       1.392   0.103  -0.019  1.00  0.00     0.041 A 
ATOM     21  C   UNL     1       1.449   0.893   1.105  1.00  0.00     0.027 A 
ATOM     22  C   UNL     1       2.038   0.531  -1.174  1.00  0.00     0.027 A 
ATOM     23  C   UNL     1       2.044   2.164   1.003  1.00  0.00     0.016 A 
ATOM     24  C   UNL     1       2.622   1.793  -1.268  1.00  0.00     0.016 A 
BRANCH  20  25
ATOM     25  N   UNL     1       0.681  -1.112  -0.048  1.00  0.00    -0.322 N 
ATOM     26  C   UNL     1      -0.202  -1.364  -1.094  1.00  0.00     0.256 C 
ATOM     27  O   UNL     1      -0.217  -2.357  -1.805  1.00  0.00    -0.269 OA
ATOM     28  H   UNL     1       0.807  -1.778   0.666  1.00  0.00     0.170 HD
BRANCH  26  29
ATOM     29  C   UNL     1      -1.306  -0.355  -1.145  1.00  0.00     0.049 A 
ATOM     30  C   UNL     1      -0.256   1.248  -2.793  1.00  0.00     0.053 C 
ATOM     31  C   UNL     1      -1.051   0.979  -1.542  1.00  0.00     0.039 A 
ATOM     32  C   UNL     1      -1.641   1.980  -0.750  1.00  0.00     0.273 A 
ATOM     33  C   UNL     1      -2.357  -0.680  -0.280  1.00  0.00     0.014 A 
ATOM     34  C   UNL     1      -2.680   1.655   0.145  1.00  0.00     0.086 A 
ATOM     35  C   UNL     1      -3.089   0.334   0.315  1.00  0.00     0.008 A 
BRANCH  32  36
ATOM     36  N   UNL     1      -1.105   3.359  -0.678  1.00  0.00     0.063 N 
ATOM     37  O   UNL     1      -1.444   4.051   0.296  1.00  0.00    -0.258 OA
ATOM     38  O   UNL     1      -0.356   3.764  -1.574  1.00  0.00    -0.258 OA
ENDBRANCH  32  36
ENDBRANCH  26  29
ENDBRANCH  20  25
ENDBRANCH  16  19
ENDBRANCH  10  15
ENDBRANCH   7   9
ENDBRANCH   6   7
ENDBRANCH   5   6
ENDBRANCH   4   5
ENDBRANCH   3   4
ENDBRANCH   2   3
ENDBRANCH   1   2
BRANCH   1  39
ATOM     39  O   UNL     1       5.096  -1.009   0.394  1.00  0.00    -0.377 OA
BRANCH  39  40
ATOM     40  C   UNL     1       3.947  -1.860   0.324  1.00  0.00     0.188 C 
BRANCH  40  41
ATOM     41  C   UNL     1       3.516  -2.411  -1.036  1.00  0.00     0.188 C 
BRANCH  41  42
ATOM     42  O   UNL     1       4.379  -1.926  -2.051  1.00  0.00    -0.376 OA
BRANCH  42  43
ATOM     43  C   UNL     1       3.949  -2.083  -3.385  1.00  0.00     0.202 C 
BRANCH  43  44
ATOM     44  C   UNL     1       3.861  -3.556  -3.761  1.00  0.00     0.261 C 
BRANCH  44  45
ATOM     45  O   UNL     1       5.128  -4.172  -3.421  1.00  0.00    -0.460 OA
BRANCH  45  46
ATOM     46  C   UNL     1       5.084  -5.052  -2.379  1.00  0.00     0.338 C 
ATOM     47  O   UNL     1       4.295  -5.980  -2.299  1.00  0.00    -0.246 OA
BRANCH  46  48
ATOM     48  C   UNL     1       5.986  -4.624  -1.252  1.00  0.00     0.060 A 
ATOM     49  C   UNL     1       5.857  -5.211   0.022  1.00  0.00     0.016 A 
ATOM     50  C   UNL     1       6.742  -3.466  -1.365  1.00  0.00     0.016 A 
ATOM     51  C   UNL     1       6.370  -4.576   1.184  1.00  0.00     0.010 A 
ATOM     52  C   UNL     1       7.186  -2.822  -0.209  1.00  0.00     0.010 A 
ATOM     53  C   UNL     1       6.991  -3.325   1.096  1.00  0.00    -0.014 A 
BRANCH  53  54
ATOM     54  C   UNL     1       7.238  -2.366   2.245  1.00  0.00     0.031 A 
ATOM     55  C   UNL     1       8.485  -1.429   2.210  1.00  0.00     0.074 A 
ATOM     56  C   UNL     1       6.148  -2.030   2.998  1.00  0.00     0.049 A 
ATOM     57  N   UNL     1       8.832  -0.477   3.040  1.00  0.00    -0.248 NA
ATOM     58  C   UNL     1       9.512  -1.584   1.165  1.00  0.00     0.031 C 
ATOM     59  C   UNL     1       5.505  -0.724   3.019  1.00  0.00     0.029 A 
ATOM     60  N   UNL     1       5.156  -2.782   3.624  1.00  0.00    -0.354 N 
ATOM     61  C   UNL     1       9.886   0.278   2.456  1.00  0.00     0.074 A 
ATOM     62  C   UNL     1      10.310  -0.528   1.343  1.00  0.00     0.031 C 
ATOM     63  C   UNL     1       4.473  -0.635   3.850  1.00  0.00     0.029 A 
ATOM     64  C   UNL     1       4.361  -1.919   4.423  1.00  0.00     0.049 A 
ATOM     65  H   UNL     1       5.028  -3.753   3.529  1.00  0.00     0.167 HD
ATOM     66  C   UNL     1      10.202   1.574   2.834  1.00  0.00     0.034 A 
ATOM     67  C   UNL     1       4.143  -2.076   5.742  1.00  0.00     0.034 A 
ATOM     68  C   UNL     1       9.494   2.010   4.062  1.00  0.00     0.049 A 
ATOM     69  C   UNL     1       5.063  -1.201   6.601  1.00  0.00     0.074 A 
ATOM     70  C   UNL     1       8.931   3.208   4.493  1.00  0.00     0.029 A 
ATOM     71  N   UNL     1       9.149   1.082   5.039  1.00  0.00    -0.354 N 
ATOM     72  N   UNL     1       5.935  -0.308   6.149  1.00  0.00    -0.248 NA
ATOM     73  C   UNL     1       5.074  -1.273   8.060  1.00  0.00     0.031 C 
ATOM     74  C   UNL     1       8.106   2.940   5.624  1.00  0.00     0.029 A 
ATOM     75  C   UNL     1       8.234   1.598   5.932  1.00  0.00     0.049 A 
ATOM     76  H   UNL     1       9.513   0.169   5.088  1.00  0.00     0.167 HD
ATOM     77  C   UNL     1       6.724   0.136   7.202  1.00  0.00     0.074 A 
ATOM     78  C   UNL     1       6.069  -0.429   8.372  1.00  0.00     0.031 C 
ATOM     79  C   UNL     1       7.900   0.851   7.119  1.00  0.00     0.034 A 
BRANCH  66  80
ATOM     80  C   UNL     1      10.958   2.664   1.964  1.00  0.00     0.023 A 
ATOM     81  C   UNL     1      11.182   3.962   2.512  1.00  0.00     0.031 A 
ATOM     82  C   UNL     1      11.314   2.583   0.597  1.00  0.00     0.131 A 
ATOM     83  C   UNL     1      11.591   5.079   1.740  1.00  0.00     0.055 A 
ATOM     84  C   UNL     1      11.835   3.670  -0.147  1.00  0.00     0.041 A 
ATOM     85  F   UNL     1      11.151   1.471  -0.126  1.00  0.00    -0.206 F 
ATOM     86  C   UNL     1      11.951   4.932   0.411  1.00  0.00     0.022 A 
BRANCH  83  87
ATOM     87  S   UNL     1      11.611   6.749   2.476  1.00  0.00     0.124 S 
ATOM     88  O   UNL     1      10.204   7.131   2.417  1.00  0.00    -0.237 OA
ATOM     89  O   UNL     1      12.157   6.512   3.807  1.00  0.00    -0.237 OA
ATOM     90  O   UNL     1      12.490   7.502   1.581  1.00  0.00    -0.744 OA
ENDBRANCH  83  87
ENDBRANCH  66  80
BRANCH  67  91
ATOM     91  C   UNL     1       3.282  -3.308   5.872  1.00  0.00     0.023 A 
ATOM     92  C   UNL     1       1.963  -3.095   5.354  1.00  0.00     0.031 A 
ATOM     93  C   UNL     1       3.895  -4.532   5.529  1.00  0.00     0.131 A 
ATOM     94  C   UNL     1       1.486  -3.874   4.275  1.00  0.00     0.055 A 
ATOM     95  C   UNL     1       3.404  -5.315   4.465  1.00  0.00     0.041 A 
ATOM     96  F   UNL     1       5.131  -4.807   5.975  1.00  0.00    -0.206 F 
ATOM     97  C   UNL     1       2.232  -4.953   3.795  1.00  0.00     0.022 A 
BRANCH  94  98
ATOM     98  S   UNL     1       0.055  -3.291   3.292  1.00  0.00     0.124 S 
ATOM     99  O   UNL     1      -1.071  -3.895   3.993  1.00  0.00    -0.237 OA
ATOM    100  O   UNL     1       0.148  -1.835   3.365  1.00  0.00    -0.237 OA
ATOM    101  O   UNL     1       0.319  -3.808   1.951  1.00  0.00    -0.744 OA
ENDBRANCH  94  98
ENDBRANCH  67  91
BRANCH  79 102
ATOM    102  C   UNL     1       8.968   0.917   8.206  1.00  0.00     0.023 A 
ATOM    103  C   UNL     1       9.040  -0.051   9.203  1.00  0.00     0.031 A 
ATOM    104  C   UNL     1      10.054   1.840   8.175  1.00  0.00     0.131 A 
ATOM    105  C   UNL     1      10.043  -0.011  10.179  1.00  0.00     0.055 A 
ATOM    106  C   UNL     1      11.123   1.798   9.073  1.00  0.00     0.041 A 
ATOM    107  F   UNL     1      10.150   2.818   7.266  1.00  0.00    -0.206 F 
ATOM    108  C   UNL     1      11.109   0.880  10.106  1.00  0.00     0.022 A 
BRANCH 105 109
ATOM    109  S   UNL     1       9.816  -1.076  11.614  1.00  0.00     0.124 S 
ATOM    110  O   UNL     1       8.531  -0.602  12.126  1.00  0.00    -0.237 OA
ATOM    111  O   UNL     1       9.806  -2.407  11.018  1.00  0.00    -0.237 OA
ATOM    112  O   UNL     1      10.971  -0.771  12.454  1.00  0.00    -0.744 OA
ENDBRANCH 105 109
ENDBRANCH  79 102
ENDBRANCH  53  54
ENDBRANCH  46  48
ENDBRANCH  45  46
ENDBRANCH  44  45
ENDBRANCH  43  44
ENDBRANCH  42  43
ENDBRANCH  41  42
ENDBRANCH  40  41
ENDBRANCH  39  40
ENDBRANCH   1  39
TORSDOF 28
