REMARK SMILES C[C@](NC(=O)/C=C/c1ccco1)(C(=O)OCCOCCOCCOCCOC(=O)c1ccc(-c2c3nc(c(-c4cc(S(=O)(=O)[O-])ccc4F)c4ccc([nH]4)c(-c4cc(S(=O)(=O)[O-])ccc4F)c4nc(c(-c5cc(S(=O)(=O)[O-])ccc5F)c5ccc2[nH]5)C=C4)C=C3)cc1)C(F)(F)F
REMARK SMILES IDX 21 1 20 2 19 3 18 4 17 5 16 6 15 7 13 8 14 9 2 10 1 11 93 12
REMARK SMILES IDX 94 13 95 14 96 15 3 16 4 17 5 19 6 20 7 21 8 22 9 23 12 24
REMARK SMILES IDX 10 25 11 26 22 27 23 28 24 29 25 30 26 31 27 32 28 33 29 34
REMARK SMILES IDX 30 35 31 36 92 37 32 38 91 39 33 40 34 41 35 42 85 43 36 44
REMARK SMILES IDX 90 45 84 46 86 47 37 48 89 49 83 50 82 51 38 53 70 54 50 55
REMARK SMILES IDX 69 56 51 57 54 58 68 59 87 60 52 61 53 62 67 64 88 65 55 66
REMARK SMILES IDX 39 67 40 68 48 69 41 70 47 71 49 72 46 73 42 74 43 75 44 76
REMARK SMILES IDX 45 77 71 78 72 79 80 80 73 81 79 82 81 83 78 84 74 85 75 86
REMARK SMILES IDX 76 87 77 88 56 89 57 90 65 91 58 92 64 93 66 94 63 95 59 96
REMARK SMILES IDX 60 97 61 98 62 99
REMARK H PARENT 3 18 86 52 54 63
REMARK Flexibility Score: inf
ROOT
ATOM      1  O   UNL     1      -2.166   0.083   0.855  1.00  0.00    -0.377 OA
ENDROOT
BRANCH   1   2
ATOM      2  C   UNL     1      -1.418   1.163   0.333  1.00  0.00     0.188 C 
BRANCH   2   3
ATOM      3  C   UNL     1      -2.015   1.807  -0.939  1.00  0.00     0.188 C 
BRANCH   3   4
ATOM      4  O   UNL     1      -3.274   1.384  -1.444  1.00  0.00    -0.376 OA
BRANCH   4   5
ATOM      5  C   UNL     1      -3.596   0.001  -1.448  1.00  0.00     0.202 C 
BRANCH   5   6
ATOM      6  C   UNL     1      -2.578  -1.044  -1.950  1.00  0.00     0.261 C 
BRANCH   6   7
ATOM      7  O   UNL     1      -1.193  -0.827  -1.591  1.00  0.00    -0.461 OA
BRANCH   7   8
ATOM      8  C   UNL     1      -0.309  -0.574  -2.592  1.00  0.00     0.341 C 
ATOM      9  O   UNL     1      -0.633  -0.528  -3.774  1.00  0.00    -0.249 OA
BRANCH   8  10
ATOM     10  C   UNL     1       1.141  -0.327  -2.104  1.00  0.00     0.231 C 
ATOM     11  C   UNL     1       2.088  -1.149  -2.987  1.00  0.00     0.058 C 
BRANCH  10  12
ATOM     12  C   UNL     1       1.406   1.161  -2.450  1.00  0.00     0.422 C 
ATOM     13  F   UNL     1       0.792   1.996  -1.578  1.00  0.00    -0.168 F 
ATOM     14  F   UNL     1       2.733   1.442  -2.333  1.00  0.00    -0.168 F 
ATOM     15  F   UNL     1       1.045   1.526  -3.695  1.00  0.00    -0.168 F 
ENDBRANCH  10  12
BRANCH  10  16
ATOM     16  N   UNL     1       1.428  -0.527  -0.631  1.00  0.00    -0.329 N 
ATOM     17  C   UNL     1       1.603  -1.595   0.184  1.00  0.00     0.245 C 
ATOM     18  H   UNL     1       1.508   0.328  -0.148  1.00  0.00     0.165 HD
ATOM     19  O   UNL     1       1.889  -1.421   1.364  1.00  0.00    -0.270 OA
BRANCH  17  20
ATOM     20  C   UNL     1       1.609  -2.937  -0.395  1.00  0.00     0.075 C 
ATOM     21  C   UNL     1       0.493  -3.494  -0.875  1.00  0.00     0.053 C 
BRANCH  21  22
ATOM     22  C   UNL     1       0.618  -4.649  -1.681  1.00  0.00     0.126 A 
ATOM     23  C   UNL     1       0.264  -5.965  -1.432  1.00  0.00     0.050 A 
ATOM     24  O   UNL     1       1.155  -4.591  -2.947  1.00  0.00    -0.465 OA
ATOM     25  C   UNL     1       0.594  -6.721  -2.584  1.00  0.00     0.042 A 
ATOM     26  C   UNL     1       1.126  -5.832  -3.482  1.00  0.00     0.195 A 
ENDBRANCH  21  22
ENDBRANCH  17  20
ENDBRANCH  10  16
ENDBRANCH   8  10
ENDBRANCH   7   8
ENDBRANCH   6   7
ENDBRANCH   5   6
ENDBRANCH   4   5
ENDBRANCH   3   4
ENDBRANCH   2   3
ENDBRANCH   1   2
BRANCH   1  27
ATOM     27  C   UNL     1      -3.019   0.409   1.947  1.00  0.00     0.188 C 
BRANCH  27  28
ATOM     28  C   UNL     1      -3.825   1.719   1.827  1.00  0.00     0.188 C 
BRANCH  28  29
ATOM     29  O   UNL     1      -3.024   2.861   1.535  1.00  0.00    -0.376 OA
BRANCH  29  30
ATOM     30  C   UNL     1      -2.606   3.713   2.591  1.00  0.00     0.202 C 
BRANCH  30  31
ATOM     31  C   UNL     1      -1.631   3.154   3.644  1.00  0.00     0.261 C 
BRANCH  31  32
ATOM     32  O   UNL     1      -2.041   1.969   4.338  1.00  0.00    -0.460 OA
BRANCH  32  33
ATOM     33  C   UNL     1      -3.212   2.020   5.002  1.00  0.00     0.338 C 
ATOM     34  O   UNL     1      -3.930   3.001   5.132  1.00  0.00    -0.246 OA
BRANCH  33  35
ATOM     35  C   UNL     1      -3.608   0.641   5.357  1.00  0.00     0.060 A 
ATOM     36  C   UNL     1      -4.874   0.191   4.962  1.00  0.00     0.016 A 
ATOM     37  C   UNL     1      -2.756  -0.192   6.088  1.00  0.00     0.016 A 
ATOM     38  C   UNL     1      -5.327  -1.060   5.367  1.00  0.00     0.010 A 
ATOM     39  C   UNL     1      -3.221  -1.440   6.516  1.00  0.00     0.010 A 
ATOM     40  C   UNL     1      -4.532  -1.848   6.209  1.00  0.00    -0.014 A 
BRANCH  40  41
ATOM     41  C   UNL     1      -5.193  -2.921   6.992  1.00  0.00     0.031 A 
ATOM     42  C   UNL     1      -5.634  -2.590   8.396  1.00  0.00     0.074 A 
ATOM     43  C   UNL     1      -5.480  -4.118   6.452  1.00  0.00     0.049 A 
ATOM     44  N   UNL     1      -6.258  -3.332   9.273  1.00  0.00    -0.248 NA
ATOM     45  C   UNL     1      -5.325  -1.231   8.871  1.00  0.00     0.031 C 
ATOM     46  C   UNL     1      -5.163  -4.526   5.085  1.00  0.00     0.029 A 
ATOM     47  N   UNL     1      -6.118  -5.207   6.990  1.00  0.00    -0.354 N 
ATOM     48  C   UNL     1      -6.406  -2.535  10.404  1.00  0.00     0.074 A 
ATOM     49  C   UNL     1      -5.767  -1.270  10.117  1.00  0.00     0.031 C 
ATOM     50  C   UNL     1      -5.616  -5.778   4.890  1.00  0.00     0.029 A 
ATOM     51  C   UNL     1      -6.221  -6.271   6.126  1.00  0.00     0.049 A 
ATOM     52  H   UNL     1      -6.469  -5.224   7.910  1.00  0.00     0.167 HD
ATOM     53  C   UNL     1      -7.027  -2.826  11.573  1.00  0.00     0.034 A 
ATOM     54  C   UNL     1      -6.733  -7.504   6.321  1.00  0.00     0.034 A 
ATOM     55  C   UNL     1      -7.653  -4.096  11.845  1.00  0.00     0.049 A 
ATOM     56  C   UNL     1      -7.342  -7.838   7.665  1.00  0.00     0.074 A 
ATOM     57  C   UNL     1      -8.319  -4.501  12.988  1.00  0.00     0.029 A 
ATOM     58  N   UNL     1      -7.680  -5.174  10.968  1.00  0.00    -0.354 N 
ATOM     59  N   UNL     1      -7.479  -7.077   8.728  1.00  0.00    -0.248 NA
ATOM     60  C   UNL     1      -7.881  -9.194   7.825  1.00  0.00     0.031 C 
ATOM     61  C   UNL     1      -8.667  -5.847  12.838  1.00  0.00     0.029 A 
ATOM     62  C   UNL     1      -8.317  -6.254  11.560  1.00  0.00     0.049 A 
ATOM     63  H   UNL     1      -7.301  -5.171  10.059  1.00  0.00     0.167 HD
ATOM     64  C   UNL     1      -8.167  -7.849   9.663  1.00  0.00     0.074 A 
ATOM     65  C   UNL     1      -8.420  -9.128   9.033  1.00  0.00     0.031 C 
ATOM     66  C   UNL     1      -8.564  -7.527  10.922  1.00  0.00     0.034 A 
BRANCH  53  67
ATOM     67  C   UNL     1      -6.991  -1.776  12.659  1.00  0.00     0.023 A 
ATOM     68  C   UNL     1      -7.581  -0.509  12.498  1.00  0.00     0.031 A 
ATOM     69  C   UNL     1      -6.310  -2.033  13.863  1.00  0.00     0.131 A 
ATOM     70  C   UNL     1      -7.410   0.474  13.485  1.00  0.00     0.055 A 
ATOM     71  C   UNL     1      -6.223  -1.081  14.880  1.00  0.00     0.041 A 
ATOM     72  F   UNL     1      -5.700  -3.212  14.065  1.00  0.00    -0.206 F 
ATOM     73  C   UNL     1      -6.761   0.187  14.688  1.00  0.00     0.022 A 
BRANCH  70  74
ATOM     74  S   UNL     1      -7.902   2.179  13.106  1.00  0.00     0.124 S 
ATOM     75  O   UNL     1      -7.108   2.456  11.911  1.00  0.00    -0.237 OA
ATOM     76  O   UNL     1      -9.340   2.056  12.904  1.00  0.00    -0.237 OA
ATOM     77  O   UNL     1      -7.500   2.924  14.298  1.00  0.00    -0.744 OA
ENDBRANCH  70  74
ENDBRANCH  53  67
BRANCH  54  78
ATOM     78  C   UNL     1      -6.681  -8.530   5.238  1.00  0.00     0.023 A 
ATOM     79  C   UNL     1      -7.856  -9.082   4.702  1.00  0.00     0.031 A 
ATOM     80  C   UNL     1      -5.450  -9.026   4.772  1.00  0.00     0.131 A 
ATOM     81  C   UNL     1      -7.776 -10.134   3.775  1.00  0.00     0.055 A 
ATOM     82  C   UNL     1      -5.375 -10.029   3.805  1.00  0.00     0.041 A 
ATOM     83  F   UNL     1      -4.295  -8.538   5.253  1.00  0.00    -0.206 F 
ATOM     84  C   UNL     1      -6.544 -10.600   3.312  1.00  0.00     0.022 A 
BRANCH  81  85
ATOM     85  S   UNL     1      -9.308 -10.955   3.257  1.00  0.00     0.124 S 
ATOM     86  O   UNL     1      -9.839 -11.421   4.533  1.00  0.00    -0.237 OA
ATOM     87  O   UNL     1     -10.036  -9.864   2.619  1.00  0.00    -0.237 OA
ATOM     88  O   UNL     1      -8.842 -12.004   2.353  1.00  0.00    -0.744 OA
ENDBRANCH  81  85
ENDBRANCH  54  78
BRANCH  66  89
ATOM     89  C   UNL     1      -9.386  -8.551  11.673  1.00  0.00     0.023 A 
ATOM     90  C   UNL     1      -8.878  -9.815  12.021  1.00  0.00     0.031 A 
ATOM     91  C   UNL     1     -10.719  -8.261  12.023  1.00  0.00     0.131 A 
ATOM     92  C   UNL     1      -9.717 -10.766  12.622  1.00  0.00     0.055 A 
ATOM     93  C   UNL     1     -11.524  -9.182  12.694  1.00  0.00     0.041 A 
ATOM     94  F   UNL     1     -11.264  -7.073  11.715  1.00  0.00    -0.206 F 
ATOM     95  C   UNL     1     -11.030 -10.450  12.980  1.00  0.00     0.022 A 
BRANCH  92  96
ATOM     96  S   UNL     1      -9.114 -12.467  12.804  1.00  0.00     0.124 S 
ATOM     97  O   UNL     1      -8.732 -12.801  11.435  1.00  0.00    -0.237 OA
ATOM     98  O   UNL     1      -8.016 -12.309  13.751  1.00  0.00    -0.237 OA
ATOM     99  O   UNL     1     -10.276 -13.190  13.317  1.00  0.00    -0.744 OA
ENDBRANCH  92  96
ENDBRANCH  66  89
ENDBRANCH  40  41
ENDBRANCH  33  35
ENDBRANCH  32  33
ENDBRANCH  31  32
ENDBRANCH  30  31
ENDBRANCH  29  30
ENDBRANCH  28  29
ENDBRANCH  27  28
ENDBRANCH   1  27
TORSDOF 27
