REMARK SMILES O=C(OCCOCCOCCOCCOC(=O)[C@@H]1C[N@H+](Cc2ccco2)CC12CCOCC2)c1ccc(-c2c3nc(c(-c4cc(S(=O)(=O)[O-])ccc4F)c4ccc([nH]4)c(-c4cc(S(=O)(=O)[O-])ccc4F)c4nc(c(-c5cc(S(=O)(=O)[O-])ccc5F)c5ccc2[nH]5)C=C4)C=C3)cc1
REMARK SMILES IDX 8 1 7 2 6 3 5 4 4 5 3 6 2 7 1 8 34 9 35 10 96 11 36 12 95 13
REMARK SMILES IDX 37 14 38 15 39 16 89 17 40 18 94 19 88 20 90 21 41 22 93 23
REMARK SMILES IDX 87 24 86 25 42 27 74 28 54 29 73 30 55 31 58 32 72 33 91 34
REMARK SMILES IDX 56 35 57 36 71 38 92 39 59 40 43 41 44 42 52 43 45 44 51 45
REMARK SMILES IDX 53 46 50 47 46 48 47 49 48 50 49 51 75 52 76 53 84 54 77 55
REMARK SMILES IDX 83 56 85 57 82 58 78 59 79 60 80 61 81 62 60 63 61 64 69 65
REMARK SMILES IDX 62 66 68 67 70 68 67 69 63 70 64 71 65 72 66 73 9 74 10 75
REMARK SMILES IDX 11 76 12 77 13 78 14 79 15 80 16 81 17 82 18 83 19 84 28 85
REMARK SMILES IDX 20 86 27 87 29 88 33 89 30 91 32 92 31 93 21 94 22 95 23 96
REMARK SMILES IDX 26 97 24 98 25 99
REMARK H PARENT 90 26 58 37 20 90
REMARK Flexibility Score: inf
ROOT
ATOM      1  C   UNL     1       1.571   2.892   3.858  1.00  0.00     0.188 C 
ENDROOT
BRANCH   1   2
ATOM      2  C   UNL     1       1.599   2.460   2.398  1.00  0.00     0.188 C 
BRANCH   2   3
ATOM      3  O   UNL     1       0.853   1.248   2.325  1.00  0.00    -0.376 OA
BRANCH   3   4
ATOM      4  C   UNL     1       1.135   0.420   1.209  1.00  0.00     0.202 C 
BRANCH   4   5
ATOM      5  C   UNL     1       0.050   0.538   0.144  1.00  0.00     0.261 C 
BRANCH   5   6
ATOM      6  O   UNL     1      -0.345   1.904  -0.056  1.00  0.00    -0.460 OA
BRANCH   6   7
ATOM      7  C   UNL     1      -1.317   2.610   0.577  1.00  0.00     0.338 C 
ATOM      8  O   UNL     1      -1.509   3.764   0.188  1.00  0.00    -0.246 OA
BRANCH   7   9
ATOM      9  C   UNL     1      -2.168   2.118   1.721  1.00  0.00     0.060 A 
ATOM     10  C   UNL     1      -1.958   0.968   2.488  1.00  0.00     0.016 A 
ATOM     11  C   UNL     1      -3.259   2.936   2.084  1.00  0.00     0.016 A 
ATOM     12  C   UNL     1      -2.773   0.643   3.571  1.00  0.00     0.010 A 
ATOM     13  C   UNL     1      -4.106   2.603   3.149  1.00  0.00     0.010 A 
ATOM     14  C   UNL     1      -3.868   1.440   3.886  1.00  0.00    -0.014 A 
BRANCH  14  15
ATOM     15  C   UNL     1      -4.858   0.904   4.839  1.00  0.00     0.031 A 
ATOM     16  C   UNL     1      -5.969   0.066   4.274  1.00  0.00     0.074 A 
ATOM     17  C   UNL     1      -4.687   1.052   6.164  1.00  0.00     0.049 A 
ATOM     18  N   UNL     1      -6.964  -0.517   4.882  1.00  0.00    -0.248 NA
ATOM     19  C   UNL     1      -5.929  -0.170   2.819  1.00  0.00     0.031 C 
ATOM     20  C   UNL     1      -3.550   1.722   6.796  1.00  0.00     0.029 A 
ATOM     21  N   UNL     1      -5.455   0.631   7.218  1.00  0.00    -0.354 N 
ATOM     22  C   UNL     1      -7.670  -1.185   3.888  1.00  0.00     0.074 A 
ATOM     23  C   UNL     1      -6.990  -0.938   2.637  1.00  0.00     0.031 C 
ATOM     24  C   UNL     1      -3.705   1.678   8.132  1.00  0.00     0.029 A 
ATOM     25  C   UNL     1      -4.973   1.024   8.446  1.00  0.00     0.049 A 
ATOM     26  H   UNL     1      -6.276   0.098   7.107  1.00  0.00     0.167 HD
ATOM     27  C   UNL     1      -8.797  -1.923   4.013  1.00  0.00     0.034 A 
ATOM     28  C   UNL     1      -5.525   0.897   9.670  1.00  0.00     0.034 A 
ATOM     29  C   UNL     1      -9.478  -2.099   5.268  1.00  0.00     0.049 A 
ATOM     30  C   UNL     1      -6.863   0.194   9.762  1.00  0.00     0.074 A 
ATOM     31  C   UNL     1     -10.680  -2.731   5.524  1.00  0.00     0.029 A 
ATOM     32  N   UNL     1      -9.013  -1.612   6.485  1.00  0.00    -0.354 N 
ATOM     33  N   UNL     1      -7.557  -0.390   8.809  1.00  0.00    -0.248 NA
ATOM     34  C   UNL     1      -7.497   0.141  11.085  1.00  0.00     0.031 C 
ATOM     35  C   UNL     1     -10.971  -2.570   6.884  1.00  0.00     0.029 A 
ATOM     36  C   UNL     1      -9.920  -1.897   7.489  1.00  0.00     0.049 A 
ATOM     37  H   UNL     1      -8.162  -1.133   6.613  1.00  0.00     0.167 HD
ATOM     38  C   UNL     1      -8.703  -0.888   9.421  1.00  0.00     0.074 A 
ATOM     39  C   UNL     1      -8.589  -0.565  10.830  1.00  0.00     0.031 C 
ATOM     40  C   UNL     1      -9.762  -1.544   8.880  1.00  0.00     0.034 A 
BRANCH  27  41
ATOM     41  C   UNL     1      -9.397  -2.467   2.742  1.00  0.00     0.023 A 
ATOM     42  C   UNL     1      -8.768  -3.477   1.993  1.00  0.00     0.031 A 
ATOM     43  C   UNL     1     -10.572  -1.893   2.225  1.00  0.00     0.131 A 
ATOM     44  C   UNL     1      -9.283  -3.837   0.737  1.00  0.00     0.055 A 
ATOM     45  C   UNL     1     -11.115  -2.302   1.007  1.00  0.00     0.041 A 
ATOM     46  F   UNL     1     -11.192  -0.900   2.882  1.00  0.00    -0.206 F 
ATOM     47  C   UNL     1     -10.464  -3.270   0.249  1.00  0.00     0.022 A 
BRANCH  44  48
ATOM     48  S   UNL     1      -8.324  -4.965  -0.313  1.00  0.00     0.124 S 
ATOM     49  O   UNL     1      -7.113  -4.186  -0.555  1.00  0.00    -0.237 OA
ATOM     50  O   UNL     1      -8.168  -6.138   0.540  1.00  0.00    -0.237 OA
ATOM     51  O   UNL     1      -9.179  -5.156  -1.483  1.00  0.00    -0.744 OA
ENDBRANCH  44  48
ENDBRANCH  27  41
BRANCH  28  52
ATOM     52  C   UNL     1      -4.894   1.515  10.878  1.00  0.00     0.023 A 
ATOM     53  C   UNL     1      -4.567   0.754  12.013  1.00  0.00     0.031 A 
ATOM     54  C   UNL     1      -4.693   2.907  10.950  1.00  0.00     0.131 A 
ATOM     55  C   UNL     1      -4.112   1.392  13.182  1.00  0.00     0.055 A 
ATOM     56  C   UNL     1      -4.182   3.529  12.091  1.00  0.00     0.041 A 
ATOM     57  F   UNL     1      -5.001   3.695   9.907  1.00  0.00    -0.206 F 
ATOM     58  C   UNL     1      -3.905   2.772  13.223  1.00  0.00     0.022 A 
BRANCH  55  59
ATOM     59  S   UNL     1      -3.912   0.409  14.696  1.00  0.00     0.124 S 
ATOM     60  O   UNL     1      -5.211  -0.244  14.803  1.00  0.00    -0.237 OA
ATOM     61  O   UNL     1      -2.785  -0.452  14.349  1.00  0.00    -0.237 OA
ATOM     62  O   UNL     1      -3.634   1.414  15.720  1.00  0.00    -0.744 OA
ENDBRANCH  55  59
ENDBRANCH  28  52
BRANCH  40  63
ATOM     63  C   UNL     1     -10.853  -1.961   9.831  1.00  0.00     0.023 A 
ATOM     64  C   UNL     1     -11.691  -1.012  10.440  1.00  0.00     0.031 A 
ATOM     65  C   UNL     1     -11.056  -3.320  10.124  1.00  0.00     0.131 A 
ATOM     66  C   UNL     1     -12.665  -1.433  11.355  1.00  0.00     0.055 A 
ATOM     67  C   UNL     1     -12.064  -3.736  10.992  1.00  0.00     0.041 A 
ATOM     68  F   UNL     1     -10.282  -4.263   9.563  1.00  0.00    -0.206 F 
ATOM     69  C   UNL     1     -12.868  -2.790  11.623  1.00  0.00     0.022 A 
BRANCH  66  70
ATOM     70  S   UNL     1     -13.617  -0.175  12.248  1.00  0.00     0.124 S 
ATOM     71  O   UNL     1     -12.569   0.548  12.962  1.00  0.00    -0.237 OA
ATOM     72  O   UNL     1     -14.268   0.553  11.164  1.00  0.00    -0.237 OA
ATOM     73  O   UNL     1     -14.515  -0.961  13.093  1.00  0.00    -0.744 OA
ENDBRANCH  66  70
ENDBRANCH  40  63
ENDBRANCH  14  15
ENDBRANCH   7   9
ENDBRANCH   6   7
ENDBRANCH   5   6
ENDBRANCH   4   5
ENDBRANCH   3   4
ENDBRANCH   2   3
ENDBRANCH   1   2
BRANCH   1  74
ATOM     74  O   UNL     1       2.446   2.110   4.664  1.00  0.00    -0.377 OA
BRANCH  74  75
ATOM     75  C   UNL     1       2.271   0.698   4.674  1.00  0.00     0.188 C 
BRANCH  75  76
ATOM     76  C   UNL     1       1.195   0.155   5.605  1.00  0.00     0.188 C 
BRANCH  76  77
ATOM     77  O   UNL     1       0.485   1.089   6.398  1.00  0.00    -0.376 OA
BRANCH  77  78
ATOM     78  C   UNL     1       1.221   1.992   7.225  1.00  0.00     0.202 C 
BRANCH  78  79
ATOM     79  C   UNL     1       2.483   1.471   7.926  1.00  0.00     0.261 C 
BRANCH  79  80
ATOM     80  O   UNL     1       3.673   1.511   7.082  1.00  0.00    -0.463 OA
BRANCH  80  81
ATOM     81  C   UNL     1       4.451   0.410   7.120  1.00  0.00     0.315 C 
ATOM     82  O   UNL     1       4.186  -0.571   7.818  1.00  0.00    -0.252 OA
BRANCH  81  83
ATOM     83  C   UNL     1       5.750   0.402   6.314  1.00  0.00     0.166 C 
ATOM     84  C   UNL     1       6.860   0.512   7.361  1.00  0.00     0.278 C 
ATOM     85  C   UNL     1       6.259   1.229   5.086  1.00  0.00     0.043 C 
ATOM     86  N   UNL     1       7.696   1.646   7.005  1.00  0.00    -0.327 N 
ATOM     87  C   UNL     1       7.622   1.800   5.562  1.00  0.00     0.270 C 
ATOM     88  C   UNL     1       6.505   0.269   3.873  1.00  0.00     0.042 C 
ATOM     89  C   UNL     1       5.354   2.316   4.503  1.00  0.00     0.042 C 
ATOM     90  H   UNL     1       8.662   1.445   7.264  1.00  0.00     0.348 HD
ATOM     91  C   UNL     1       7.032   1.002   2.636  1.00  0.00     0.161 C 
ATOM     92  C   UNL     1       5.960   3.021   3.290  1.00  0.00     0.161 C 
ATOM     93  O   UNL     1       6.179   2.073   2.242  1.00  0.00    -0.381 OA
BRANCH  86  94
ATOM     94  C   UNL     1       7.531   2.861   7.811  1.00  0.00     0.338 C 
BRANCH  94  95
ATOM     95  C   UNL     1       6.384   3.767   7.516  1.00  0.00     0.157 A 
ATOM     96  C   UNL     1       5.156   3.977   8.112  1.00  0.00     0.052 A 
ATOM     97  O   UNL     1       6.557   4.671   6.502  1.00  0.00    -0.463 OA
ATOM     98  C   UNL     1       4.522   5.016   7.386  1.00  0.00     0.042 A 
ATOM     99  C   UNL     1       5.420   5.412   6.425  1.00  0.00     0.195 A 
ENDBRANCH  94  95
ENDBRANCH  86  94
ENDBRANCH  81  83
ENDBRANCH  80  81
ENDBRANCH  79  80
ENDBRANCH  78  79
ENDBRANCH  77  78
ENDBRANCH  76  77
ENDBRANCH  75  76
ENDBRANCH  74  75
ENDBRANCH   1  74
TORSDOF 25
