REMARK SMILES Cc1ccc(C(=O)N2C[C@@H](C(=O)OCCOCCOCCOCCOC(=O)c3ccc(-c4c5nc(c(-c6cc(S(=O)(=O)[O-])ccc6F)c6ccc([nH]6)c(-c6cc(S(=O)(=O)[O-])ccc6F)c6nc(c(-c7cc(S(=O)(=O)[O-])ccc7F)c7ccc4[nH]7)C=C6)C=C5)cc3)C[C@H](C(=O)N3CCOCC3)C2)cc1F
REMARK SMILES IDX 20 1 19 2 18 3 17 4 16 5 15 6 14 7 13 8 11 9 12 10 10 11
REMARK SMILES IDX 8 12 9 13 101 14 92 15 91 16 6 17 7 18 5 19 1 20 2 21 3 22
REMARK SMILES IDX 103 23 4 24 102 25 104 26 93 27 94 28 95 29 96 30 100 31
REMARK SMILES IDX 97 32 99 33 98 34 21 35 22 36 23 37 24 38 25 39 26 40 27 41
REMARK SMILES IDX 28 42 29 43 90 44 30 45 89 46 31 47 32 48 33 49 83 50 34 51
REMARK SMILES IDX 88 52 82 53 84 54 35 55 87 56 81 57 80 58 36 60 68 61 48 62
REMARK SMILES IDX 67 63 49 64 52 65 66 66 85 67 50 68 51 69 65 71 86 72 53 73
REMARK SMILES IDX 37 74 38 75 46 76 39 77 45 78 47 79 44 80 40 81 41 82 42 83
REMARK SMILES IDX 43 84 69 85 70 86 78 87 71 88 77 89 79 90 76 91 72 92 73 93
REMARK SMILES IDX 74 94 75 95 54 96 55 97 63 98 56 99 62 100 64 101 61 102
REMARK SMILES IDX 57 103 58 104 59 105 60 106
REMARK H PARENT 84 59 52 70
REMARK Flexibility Score: inf
ROOT
ATOM      1  C   UNL     1     -11.067  -1.395   1.345  1.00  0.00     0.188 C 
ENDROOT
BRANCH   1   2
ATOM      2  O   UNL     1      -9.778  -1.732   0.846  1.00  0.00    -0.377 OA
BRANCH   2   3
ATOM      3  C   UNL     1      -9.397  -3.086   0.775  1.00  0.00     0.188 C 
BRANCH   3   4
ATOM      4  C   UNL     1      -9.166  -3.866   2.066  1.00  0.00     0.188 C 
BRANCH   4   5
ATOM      5  O   UNL     1      -9.989  -3.567   3.163  1.00  0.00    -0.376 OA
BRANCH   5   6
ATOM      6  C   UNL     1      -9.725  -2.478   4.031  1.00  0.00     0.202 C 
BRANCH   6   7
ATOM      7  C   UNL     1      -8.555  -1.471   3.942  1.00  0.00     0.261 C 
BRANCH   7   8
ATOM      8  O   UNL     1      -7.942  -1.193   2.672  1.00  0.00    -0.463 OA
BRANCH   8   9
ATOM      9  C   UNL     1      -6.746  -1.790   2.497  1.00  0.00     0.310 C 
ATOM     10  O   UNL     1      -6.242  -2.564   3.310  1.00  0.00    -0.252 OA
BRANCH   9  11
ATOM     11  C   UNL     1      -6.005  -1.455   1.228  1.00  0.00     0.119 C 
ATOM     12  N   UNL     1      -3.862  -0.628   0.509  1.00  0.00    -0.337 N 
ATOM     13  C   UNL     1      -4.848  -0.554   1.574  1.00  0.00     0.135 C 
ATOM     14  C   UNL     1      -4.299  -0.302  -0.854  1.00  0.00     0.133 C 
ATOM     15  C   UNL     1      -5.649  -0.950  -1.238  1.00  0.00     0.099 C 
ATOM     16  C   UNL     1      -6.654  -0.959  -0.064  1.00  0.00     0.032 C 
BRANCH  12  17
ATOM     17  C   UNL     1      -2.609  -1.117   0.824  1.00  0.00     0.254 C 
ATOM     18  O   UNL     1      -2.418  -2.023   1.631  1.00  0.00    -0.269 OA
BRANCH  17  19
ATOM     19  C   UNL     1      -1.442  -0.371   0.308  1.00  0.00     0.042 A 
ATOM     20  C   UNL     1       2.132   1.910  -0.313  1.00  0.00     0.047 C 
ATOM     21  C   UNL     1       0.870   1.119  -0.172  1.00  0.00    -0.015 A 
ATOM     22  C   UNL     1      -0.365   1.766  -0.064  1.00  0.00     0.007 A 
ATOM     23  C   UNL     1       0.921  -0.276  -0.072  1.00  0.00     0.126 A 
ATOM     24  C   UNL     1      -1.516   1.023   0.183  1.00  0.00     0.014 A 
ATOM     25  C   UNL     1      -0.221  -1.028   0.171  1.00  0.00     0.053 A 
ATOM     26  F   UNL     1       2.102  -0.904  -0.163  1.00  0.00    -0.207 F 
ENDBRANCH  17  19
ENDBRANCH  12  17
BRANCH  15  27
ATOM     27  C   UNL     1      -5.392  -2.244  -2.053  1.00  0.00     0.227 C 
ATOM     28  O   UNL     1      -5.380  -2.175  -3.288  1.00  0.00    -0.275 OA
ATOM     29  N   UNL     1      -4.891  -3.365  -1.425  1.00  0.00    -0.338 N 
ATOM     30  C   UNL     1      -5.678  -4.263  -0.576  1.00  0.00     0.148 C 
ATOM     31  C   UNL     1      -3.767  -4.069  -2.039  1.00  0.00     0.148 C 
ATOM     32  C   UNL     1      -4.774  -4.896   0.494  1.00  0.00     0.181 C 
ATOM     33  C   UNL     1      -2.904  -4.707  -0.944  1.00  0.00     0.181 C 
ATOM     34  O   UNL     1      -3.683  -5.602  -0.129  1.00  0.00    -0.378 OA
ENDBRANCH  15  27
ENDBRANCH   9  11
ENDBRANCH   8   9
ENDBRANCH   7   8
ENDBRANCH   6   7
ENDBRANCH   5   6
ENDBRANCH   4   5
ENDBRANCH   3   4
ENDBRANCH   2   3
ENDBRANCH   1   2
BRANCH   1  35
ATOM     35  C   UNL     1     -12.264  -2.365   1.246  1.00  0.00     0.188 C 
BRANCH  35  36
ATOM     36  O   UNL     1     -12.050  -3.547   0.478  1.00  0.00    -0.376 OA
BRANCH  36  37
ATOM     37  C   UNL     1     -12.623  -3.559  -0.826  1.00  0.00     0.202 C 
BRANCH  37  38
ATOM     38  C   UNL     1     -11.839  -2.792  -1.904  1.00  0.00     0.261 C 
BRANCH  38  39
ATOM     39  O   UNL     1     -11.534  -1.445  -1.549  1.00  0.00    -0.460 OA
BRANCH  39  40
ATOM     40  C   UNL     1     -12.636  -0.682  -1.472  1.00  0.00     0.338 C 
ATOM     41  O   UNL     1     -13.780  -1.024  -1.753  1.00  0.00    -0.246 OA
BRANCH  40  42
ATOM     42  C   UNL     1     -12.280   0.689  -1.071  1.00  0.00     0.060 A 
ATOM     43  C   UNL     1     -13.195   1.232  -0.155  1.00  0.00     0.016 A 
ATOM     44  C   UNL     1     -11.810   1.407  -2.166  1.00  0.00     0.016 A 
ATOM     45  C   UNL     1     -14.027   2.228  -0.606  1.00  0.00     0.010 A 
ATOM     46  C   UNL     1     -12.636   2.401  -2.620  1.00  0.00     0.010 A 
ATOM     47  C   UNL     1     -13.809   2.680  -1.900  1.00  0.00    -0.014 A 
BRANCH  47  48
ATOM     48  C   UNL     1     -14.863   3.305  -2.659  1.00  0.00     0.031 A 
ATOM     49  C   UNL     1     -15.164   4.716  -2.431  1.00  0.00     0.074 A 
ATOM     50  C   UNL     1     -15.520   2.567  -3.579  1.00  0.00     0.049 A 
ATOM     51  N   UNL     1     -16.313   5.248  -2.656  1.00  0.00    -0.248 NA
ATOM     52  C   UNL     1     -14.188   5.623  -1.839  1.00  0.00     0.031 C 
ATOM     53  C   UNL     1     -16.279   3.085  -4.706  1.00  0.00     0.029 A 
ATOM     54  N   UNL     1     -15.756   1.185  -3.598  1.00  0.00    -0.354 N 
ATOM     55  C   UNL     1     -16.139   6.607  -2.541  1.00  0.00     0.074 A 
ATOM     56  C   UNL     1     -14.850   6.780  -1.905  1.00  0.00     0.031 C 
ATOM     57  C   UNL     1     -17.067   2.109  -5.179  1.00  0.00     0.029 A 
ATOM     58  C   UNL     1     -16.982   0.992  -4.249  1.00  0.00     0.049 A 
ATOM     59  H   UNL     1     -15.172   0.485  -3.225  1.00  0.00     0.167 HD
ATOM     60  C   UNL     1     -17.001   7.444  -3.183  1.00  0.00     0.034 A 
ATOM     61  C   UNL     1     -18.057   0.328  -3.739  1.00  0.00     0.034 A 
ATOM     62  C   UNL     1     -18.031   6.690  -3.898  1.00  0.00     0.049 A 
ATOM     63  C   UNL     1     -19.311   1.173  -3.726  1.00  0.00     0.074 A 
ATOM     64  C   UNL     1     -18.091   6.236  -5.206  1.00  0.00     0.029 A 
ATOM     65  N   UNL     1     -19.020   6.005  -3.201  1.00  0.00    -0.354 N 
ATOM     66  N   UNL     1     -19.303   2.473  -3.808  1.00  0.00    -0.248 NA
ATOM     67  C   UNL     1     -20.658   0.637  -3.563  1.00  0.00     0.031 C 
ATOM     68  C   UNL     1     -19.113   5.265  -5.295  1.00  0.00     0.029 A 
ATOM     69  C   UNL     1     -19.689   5.129  -4.044  1.00  0.00     0.049 A 
ATOM     70  H   UNL     1     -19.218   6.125  -2.244  1.00  0.00     0.167 HD
ATOM     71  C   UNL     1     -20.574   2.960  -3.641  1.00  0.00     0.074 A 
ATOM     72  C   UNL     1     -21.390   1.765  -3.539  1.00  0.00     0.031 C 
ATOM     73  C   UNL     1     -20.802   4.307  -3.566  1.00  0.00     0.034 A 
BRANCH  60  74
ATOM     74  C   UNL     1     -16.636   8.884  -3.466  1.00  0.00     0.023 A 
ATOM     75  C   UNL     1     -15.814   9.659  -2.621  1.00  0.00     0.031 A 
ATOM     76  C   UNL     1     -17.028   9.505  -4.670  1.00  0.00     0.131 A 
ATOM     77  C   UNL     1     -15.284  10.891  -3.046  1.00  0.00     0.055 A 
ATOM     78  C   UNL     1     -16.561  10.765  -5.060  1.00  0.00     0.041 A 
ATOM     79  F   UNL     1     -17.838   8.899  -5.549  1.00  0.00    -0.206 F 
ATOM     80  C   UNL     1     -15.655  11.449  -4.265  1.00  0.00     0.022 A 
BRANCH  77  81
ATOM     81  S   UNL     1     -13.984  11.729  -2.091  1.00  0.00     0.124 S 
ATOM     82  O   UNL     1     -12.962  11.982  -3.107  1.00  0.00    -0.237 OA
ATOM     83  O   UNL     1     -14.673  12.915  -1.594  1.00  0.00    -0.237 OA
ATOM     84  O   UNL     1     -13.605  10.745  -1.081  1.00  0.00    -0.744 OA
ENDBRANCH  77  81
ENDBRANCH  60  74
BRANCH  61  85
ATOM     85  C   UNL     1     -17.764  -0.705  -2.717  1.00  0.00     0.023 A 
ATOM     86  C   UNL     1     -17.791  -0.391  -1.349  1.00  0.00     0.031 A 
ATOM     87  C   UNL     1     -17.167  -1.915  -3.118  1.00  0.00     0.131 A 
ATOM     88  C   UNL     1     -17.143  -1.239  -0.438  1.00  0.00     0.055 A 
ATOM     89  C   UNL     1     -16.554  -2.770  -2.202  1.00  0.00     0.041 A 
ATOM     90  F   UNL     1     -17.117  -2.249  -4.419  1.00  0.00    -0.206 F 
ATOM     91  C   UNL     1     -16.529  -2.423  -0.855  1.00  0.00     0.022 A 
BRANCH  88  92
ATOM     92  S   UNL     1     -17.022  -0.791   1.315  1.00  0.00     0.124 S 
ATOM     93  O   UNL     1     -17.178  -2.084   1.983  1.00  0.00    -0.237 OA
ATOM     94  O   UNL     1     -15.679  -0.219   1.395  1.00  0.00    -0.237 OA
ATOM     95  O   UNL     1     -18.124   0.138   1.503  1.00  0.00    -0.744 OA
ENDBRANCH  88  92
ENDBRANCH  61  85
BRANCH  73  96
ATOM     96  C   UNL     1     -22.073   5.014  -3.128  1.00  0.00     0.023 A 
ATOM     97  C   UNL     1     -22.136   6.425  -3.278  1.00  0.00     0.031 A 
ATOM     98  C   UNL     1     -23.163   4.434  -2.461  1.00  0.00     0.131 A 
ATOM     99  C   UNL     1     -23.194   7.183  -2.758  1.00  0.00     0.055 A 
ATOM    100  C   UNL     1     -24.262   5.183  -2.014  1.00  0.00     0.041 A 
ATOM    101  F   UNL     1     -23.201   3.133  -2.151  1.00  0.00    -0.206 F 
ATOM    102  C   UNL     1     -24.274   6.564  -2.144  1.00  0.00     0.022 A 
BRANCH  99 103
ATOM    103  S   UNL     1     -23.102   8.996  -2.729  1.00  0.00     0.124 S 
ATOM    104  O   UNL     1     -23.990   9.355  -3.832  1.00  0.00    -0.237 OA
ATOM    105  O   UNL     1     -23.607   9.310  -1.394  1.00  0.00    -0.237 OA
ATOM    106  O   UNL     1     -21.686   9.273  -2.934  1.00  0.00    -0.744 OA
ENDBRANCH  99 103
ENDBRANCH  73  96
ENDBRANCH  47  48
ENDBRANCH  40  42
ENDBRANCH  39  40
ENDBRANCH  38  39
ENDBRANCH  37  38
ENDBRANCH  36  37
ENDBRANCH  35  36
ENDBRANCH   1  35
TORSDOF 26
