REMARK SMILES C=CC[C@@]1(C(=O)OCCOCCOCCOCCOC(=O)c2ccc(-c3c4nc(c(-c5cc(S(=O)(=O)[O-])ccc5F)c5ccc([nH]5)c(-c5cc(S(=O)(=O)[O-])ccc5F)c5nc(c(-c6cc(S(=O)(=O)[O-])ccc6F)c6ccc3[nH]6)C=C5)C=C4)cc2)CCCN(c2nccc(N3CCC(O)CC3)n2)C1
REMARK SMILES IDX 13 1 12 2 11 3 10 4 9 5 8 6 7 7 5 8 6 9 4 10 85 11 102 12
REMARK SMILES IDX 86 13 88 14 87 15 3 16 2 17 1 18 89 19 90 20 101 21 91 22
REMARK SMILES IDX 93 23 92 24 94 25 95 26 100 27 96 28 99 29 97 30 98 31 14 33
REMARK SMILES IDX 15 34 16 35 17 36 18 37 19 38 20 39 21 40 22 41 23 42 84 43
REMARK SMILES IDX 24 44 83 45 25 46 26 47 27 48 77 49 28 50 82 51 76 52 78 53
REMARK SMILES IDX 29 54 81 55 75 56 74 57 30 59 62 60 42 61 61 62 43 63 46 64
REMARK SMILES IDX 60 65 79 66 44 67 45 68 59 70 80 71 47 72 31 73 32 74 40 75
REMARK SMILES IDX 33 76 39 77 41 78 38 79 34 80 35 81 36 82 37 83 63 84 64 85
REMARK SMILES IDX 72 86 65 87 71 88 73 89 70 90 66 91 67 92 68 93 69 94 48 95
REMARK SMILES IDX 49 96 57 97 50 98 56 99 58 100 55 101 51 102 52 103 53 104
REMARK SMILES IDX 54 105
REMARK H PARENT 98 32 78 58 46 69
REMARK Flexibility Score: inf
ROOT
ATOM      1  O   UNL     1      -2.294   2.077   1.740  1.00  0.00    -0.377 OA
ENDROOT
BRANCH   1   2
ATOM      2  C   UNL     1      -2.069   1.014   2.655  1.00  0.00     0.188 C 
BRANCH   2   3
ATOM      3  C   UNL     1      -0.649   0.520   3.033  1.00  0.00     0.188 C 
BRANCH   3   4
ATOM      4  O   UNL     1       0.427   1.355   2.649  1.00  0.00    -0.376 OA
BRANCH   4   5
ATOM      5  C   UNL     1       1.470   0.812   1.861  1.00  0.00     0.202 C 
BRANCH   5   6
ATOM      6  C   UNL     1       1.060   0.333   0.473  1.00  0.00     0.261 C 
BRANCH   6   7
ATOM      7  O   UNL     1      -0.112  -0.489   0.511  1.00  0.00    -0.463 OA
BRANCH   7   8
ATOM      8  C   UNL     1      -0.017  -1.829   0.322  1.00  0.00     0.314 C 
ATOM      9  O   UNL     1       1.038  -2.450   0.304  1.00  0.00    -0.252 OA
BRANCH   8  10
ATOM     10  C   UNL     1      -1.422  -2.463   0.317  1.00  0.00     0.089 C 
ATOM     11  C   UNL     1      -1.438  -3.781  -0.493  1.00  0.00     0.023 C 
ATOM     12  C   UNL     1      -2.460  -1.466  -0.297  1.00  0.00     0.138 C 
ATOM     13  C   UNL     1      -1.388  -3.579  -2.004  1.00  0.00     0.023 C 
ATOM     14  N   UNL     1      -2.475  -1.415  -1.764  1.00  0.00    -0.340 N 
ATOM     15  C   UNL     1      -2.527  -2.677  -2.473  1.00  0.00     0.120 C 
BRANCH  10  16
ATOM     16  C   UNL     1      -1.750  -2.742   1.833  1.00  0.00     0.047 C 
BRANCH  16  17
ATOM     17  C   UNL     1      -1.804  -4.169   2.324  1.00  0.00    -0.034 C 
ATOM     18  C   UNL     1      -0.731  -4.832   2.776  1.00  0.00     0.004 C 
ENDBRANCH  16  17
ENDBRANCH  10  16
BRANCH  14  19
ATOM     19  C   UNL     1      -1.739  -0.441  -2.422  1.00  0.00     0.227 A 
ATOM     20  N   UNL     1      -0.424  -0.379  -2.179  1.00  0.00    -0.221 NA
ATOM     21  N   UNL     1      -2.348   0.312  -3.357  1.00  0.00    -0.196 NA
ATOM     22  C   UNL     1       0.283   0.544  -2.844  1.00  0.00     0.119 A 
ATOM     23  C   UNL     1      -1.608   1.212  -4.040  1.00  0.00     0.134 A 
ATOM     24  C   UNL     1      -0.266   1.381  -3.769  1.00  0.00     0.067 A 
BRANCH  23  25
ATOM     25  N   UNL     1      -2.181   1.988  -5.040  1.00  0.00    -0.356 N 
ATOM     26  C   UNL     1      -3.609   2.284  -5.008  1.00  0.00     0.121 C 
ATOM     27  C   UNL     1      -1.532   2.035  -6.351  1.00  0.00     0.121 C 
ATOM     28  C   UNL     1      -4.365   1.357  -5.952  1.00  0.00     0.053 C 
ATOM     29  C   UNL     1      -2.246   1.083  -7.306  1.00  0.00     0.053 C 
ATOM     30  C   UNL     1      -3.744   1.374  -7.347  1.00  0.00     0.118 C 
BRANCH  30  31
ATOM     31  O   UNL     1      -4.397   0.413  -8.177  1.00  0.00    -0.393 OA
ATOM     32  H   UNL     1      -4.272  -0.474  -7.804  1.00  0.00     0.210 HD
ENDBRANCH  30  31
ENDBRANCH  23  25
ENDBRANCH  14  19
ENDBRANCH   8  10
ENDBRANCH   7   8
ENDBRANCH   6   7
ENDBRANCH   5   6
ENDBRANCH   4   5
ENDBRANCH   3   4
ENDBRANCH   2   3
ENDBRANCH   1   2
BRANCH   1  33
ATOM     33  C   UNL     1      -1.325   3.109   1.609  1.00  0.00     0.188 C 
BRANCH  33  34
ATOM     34  C   UNL     1      -0.714   3.738   2.883  1.00  0.00     0.188 C 
BRANCH  34  35
ATOM     35  O   UNL     1      -1.029   3.054   4.084  1.00  0.00    -0.376 OA
BRANCH  35  36
ATOM     36  C   UNL     1      -2.012   3.587   4.948  1.00  0.00     0.202 C 
BRANCH  36  37
ATOM     37  C   UNL     1      -3.381   4.016   4.395  1.00  0.00     0.261 C 
BRANCH  37  38
ATOM     38  O   UNL     1      -3.388   4.793   3.193  1.00  0.00    -0.460 OA
BRANCH  38  39
ATOM     39  C   UNL     1      -2.887   6.045   3.266  1.00  0.00     0.338 C 
ATOM     40  O   UNL     1      -2.417   6.589   4.254  1.00  0.00    -0.246 OA
BRANCH  39  41
ATOM     41  C   UNL     1      -2.820   6.569   1.887  1.00  0.00     0.060 A 
ATOM     42  C   UNL     1      -1.573   6.867   1.320  1.00  0.00     0.016 A 
ATOM     43  C   UNL     1      -3.994   6.754   1.155  1.00  0.00     0.016 A 
ATOM     44  C   UNL     1      -1.499   7.380   0.026  1.00  0.00     0.010 A 
ATOM     45  C   UNL     1      -3.921   7.297  -0.129  1.00  0.00     0.010 A 
ATOM     46  C   UNL     1      -2.676   7.643  -0.685  1.00  0.00    -0.014 A 
BRANCH  46  47
ATOM     47  C   UNL     1      -2.620   8.493  -1.898  1.00  0.00     0.031 A 
ATOM     48  C   UNL     1      -2.915   9.961  -1.740  1.00  0.00     0.074 A 
ATOM     49  C   UNL     1      -2.293   7.985  -3.099  1.00  0.00     0.049 A 
ATOM     50  N   UNL     1      -3.009  10.896  -2.648  1.00  0.00    -0.248 NA
ATOM     51  C   UNL     1      -3.143  10.432  -0.363  1.00  0.00     0.031 C 
ATOM     52  C   UNL     1      -1.936   6.592  -3.365  1.00  0.00     0.029 A 
ATOM     53  N   UNL     1      -2.216   8.592  -4.327  1.00  0.00    -0.354 N 
ATOM     54  C   UNL     1      -3.317  12.064  -1.956  1.00  0.00     0.074 A 
ATOM     55  C   UNL     1      -3.429  11.709  -0.558  1.00  0.00     0.031 C 
ATOM     56  C   UNL     1      -1.688   6.449  -4.681  1.00  0.00     0.029 A 
ATOM     57  C   UNL     1      -1.906   7.729  -5.352  1.00  0.00     0.049 A 
ATOM     58  H   UNL     1      -2.368   9.555  -4.462  1.00  0.00     0.167 HD
ATOM     59  C   UNL     1      -3.484  13.317  -2.443  1.00  0.00     0.034 A 
ATOM     60  C   UNL     1      -1.842   7.950  -6.681  1.00  0.00     0.034 A 
ATOM     61  C   UNL     1      -3.384  13.648  -3.843  1.00  0.00     0.049 A 
ATOM     62  C   UNL     1      -2.142   9.334  -7.211  1.00  0.00     0.074 A 
ATOM     63  C   UNL     1      -3.527  14.884  -4.449  1.00  0.00     0.029 A 
ATOM     64  N   UNL     1      -3.129  12.736  -4.859  1.00  0.00    -0.354 N 
ATOM     65  N   UNL     1      -2.443  10.430  -6.552  1.00  0.00    -0.248 NA
ATOM     66  C   UNL     1      -2.097   9.504  -8.669  1.00  0.00     0.031 C 
ATOM     67  C   UNL     1      -3.444  14.704  -5.833  1.00  0.00     0.029 A 
ATOM     68  C   UNL     1      -3.151  13.374  -6.088  1.00  0.00     0.049 A 
ATOM     69  H   UNL     1      -2.957  11.775  -4.725  1.00  0.00     0.167 HD
ATOM     70  C   UNL     1      -2.590  11.425  -7.517  1.00  0.00     0.074 A 
ATOM     71  C   UNL     1      -2.331  10.801  -8.798  1.00  0.00     0.031 C 
ATOM     72  C   UNL     1      -2.903  12.737  -7.360  1.00  0.00     0.034 A 
BRANCH  59  73
ATOM     73  C   UNL     1      -3.853  14.402  -1.460  1.00  0.00     0.023 A 
ATOM     74  C   UNL     1      -2.992  14.785  -0.417  1.00  0.00     0.031 A 
ATOM     75  C   UNL     1      -5.101  15.046  -1.552  1.00  0.00     0.131 A 
ATOM     76  C   UNL     1      -3.417  15.729   0.531  1.00  0.00     0.055 A 
ATOM     77  C   UNL     1      -5.482  16.046  -0.657  1.00  0.00     0.041 A 
ATOM     78  F   UNL     1      -5.977  14.704  -2.510  1.00  0.00    -0.206 F 
ATOM     79  C   UNL     1      -4.644  16.382   0.402  1.00  0.00     0.022 A 
BRANCH  76  80
ATOM     80  S   UNL     1      -2.407  15.980   2.016  1.00  0.00     0.124 S 
ATOM     81  O   UNL     1      -2.367  14.632   2.578  1.00  0.00    -0.237 OA
ATOM     82  O   UNL     1      -1.153  16.480   1.464  1.00  0.00    -0.237 OA
ATOM     83  O   UNL     1      -3.177  16.949   2.794  1.00  0.00    -0.744 OA
ENDBRANCH  76  80
ENDBRANCH  59  73
BRANCH  60  84
ATOM     84  C   UNL     1      -1.554   6.840  -7.633  1.00  0.00     0.023 A 
ATOM     85  C   UNL     1      -0.406   6.857  -8.441  1.00  0.00     0.031 A 
ATOM     86  C   UNL     1      -2.488   5.810  -7.833  1.00  0.00     0.131 A 
ATOM     87  C   UNL     1      -0.246   5.891  -9.448  1.00  0.00     0.055 A 
ATOM     88  C   UNL     1      -2.305   4.834  -8.813  1.00  0.00     0.041 A 
ATOM     89  F   UNL     1      -3.600   5.742  -7.084  1.00  0.00    -0.206 F 
ATOM     90  C   UNL     1      -1.180   4.870  -9.629  1.00  0.00     0.022 A 
BRANCH  87  91
ATOM     91  S   UNL     1       1.148   6.049 -10.597  1.00  0.00     0.124 S 
ATOM     92  O   UNL     1       0.848   7.318 -11.249  1.00  0.00    -0.237 OA
ATOM     93  O   UNL     1       2.291   6.045  -9.689  1.00  0.00    -0.237 OA
ATOM     94  O   UNL     1       1.026   4.863 -11.441  1.00  0.00    -0.744 OA
ENDBRANCH  87  91
ENDBRANCH  60  84
BRANCH  72  95
ATOM     95  C   UNL     1      -2.927  13.595  -8.604  1.00  0.00     0.023 A 
ATOM     96  C   UNL     1      -3.869  13.396  -9.628  1.00  0.00     0.031 A 
ATOM     97  C   UNL     1      -1.982  14.624  -8.767  1.00  0.00     0.131 A 
ATOM     98  C   UNL     1      -3.806  14.172 -10.796  1.00  0.00     0.055 A 
ATOM     99  C   UNL     1      -1.970  15.441  -9.898  1.00  0.00     0.041 A 
ATOM    100  F   UNL     1      -1.055  14.857  -7.824  1.00  0.00    -0.206 F 
ATOM    101  C   UNL     1      -2.877  15.207 -10.928  1.00  0.00     0.022 A 
BRANCH  98 102
ATOM    102  S   UNL     1      -4.886  13.741 -12.187  1.00  0.00     0.124 S 
ATOM    103  O   UNL     1      -4.506  12.357 -12.448  1.00  0.00    -0.237 OA
ATOM    104  O   UNL     1      -6.217  13.941 -11.624  1.00  0.00    -0.237 OA
ATOM    105  O   UNL     1      -4.504  14.695 -13.227  1.00  0.00    -0.744 OA
ENDBRANCH  98 102
ENDBRANCH  72  95
ENDBRANCH  46  47
ENDBRANCH  39  41
ENDBRANCH  38  39
ENDBRANCH  37  38
ENDBRANCH  36  37
ENDBRANCH  35  36
ENDBRANCH  34  35
ENDBRANCH  33  34
ENDBRANCH   1  33
TORSDOF 28
