REMARK SMILES CCCCCCNC(=O)Nc1cccc(-c2ccc([C@@H](C)C(=O)OCCOCCOCCOCCOC(=O)c3ccc(-c4c5nc(c(-c6cc(S(=O)(=O)[O-])ccc6F)c6ccc([nH]6)c(-c6cc(S(=O)(=O)[O-])ccc6F)c6nc(c(-c7cc(S(=O)(=O)[O-])ccc7F)c7ccc4[nH]7)C=C6)C=C5)cc3)cc2F)c1
REMARK SMILES IDX 28 1 27 2 26 3 25 4 24 5 22 6 23 7 20 8 21 9 19 10 16 11
REMARK SMILES IDX 17 12 103 13 18 14 102 15 104 16 15 17 11 18 12 19 105 20
REMARK SMILES IDX 13 21 14 22 10 23 7 24 8 25 9 27 6 29 5 30 4 31 3 32 2 33
REMARK SMILES IDX 1 34 29 35 30 36 31 37 32 38 33 39 34 40 35 41 36 42 37 43
REMARK SMILES IDX 38 44 39 45 40 46 101 47 41 48 100 49 42 50 43 51 44 52
REMARK SMILES IDX 94 53 45 54 99 55 93 56 95 57 46 58 98 59 92 60 91 61 47 63
REMARK SMILES IDX 79 64 59 65 78 66 60 67 63 68 77 69 96 70 61 71 62 72 76 74
REMARK SMILES IDX 97 75 64 76 48 77 49 78 57 79 50 80 56 81 58 82 55 83 51 84
REMARK SMILES IDX 52 85 53 86 54 87 80 88 81 89 89 90 82 91 88 92 90 93 87 94
REMARK SMILES IDX 83 95 84 96 85 97 86 98 65 99 66 100 74 101 67 102 73 103
REMARK SMILES IDX 75 104 72 105 68 106 69 107 70 108 71 109
REMARK H PARENT 7 26 10 28 95 62 63 73
REMARK Flexibility Score: inf
ROOT
ATOM      1  C   UNL     1       0.539  -1.183   6.216  1.00  0.00     0.188 C 
ENDROOT
BRANCH   1   2
ATOM      2  O   UNL     1       1.352  -2.344   6.151  1.00  0.00    -0.376 OA
BRANCH   2   3
ATOM      3  C   UNL     1       1.112  -3.446   5.299  1.00  0.00     0.202 C 
BRANCH   3   4
ATOM      4  C   UNL     1      -0.257  -4.121   5.162  1.00  0.00     0.261 C 
BRANCH   4   5
ATOM      5  O   UNL     1      -1.394  -3.253   5.088  1.00  0.00    -0.463 OA
BRANCH   5   6
ATOM      6  C   UNL     1      -2.076  -3.106   6.250  1.00  0.00     0.313 C 
ATOM      7  O   UNL     1      -1.742  -3.631   7.310  1.00  0.00    -0.252 OA
BRANCH   6   8
ATOM      8  C   UNL     1      -3.356  -2.299   6.140  1.00  0.00     0.126 C 
ATOM      9  C   UNL     1      -4.518  -3.277   5.979  1.00  0.00     0.025 C 
BRANCH   8  10
ATOM     10  C   UNL     1      -3.459  -1.143   5.149  1.00  0.00    -0.031 A 
ATOM     11  C   UNL     1      -4.103   1.050   3.402  1.00  0.00     0.018 A 
ATOM     12  C   UNL     1      -3.825  -0.238   2.905  1.00  0.00     0.012 A 
ATOM     13  C   UNL     1      -3.957   1.226   4.783  1.00  0.00     0.131 A 
ATOM     14  C   UNL     1      -3.515  -1.317   3.759  1.00  0.00     0.005 A 
ATOM     15  C   UNL     1      -3.646   0.161   5.639  1.00  0.00     0.044 A 
ATOM     16  F   UNL     1      -4.191   2.423   5.344  1.00  0.00    -0.206 F 
BRANCH  11  17
ATOM     17  C   UNL     1      -4.636   2.128   2.532  1.00  0.00    -0.013 A 
ATOM     18  C   UNL     1      -4.742   4.462   1.789  1.00  0.00     0.043 A 
ATOM     19  C   UNL     1      -5.844   4.181   0.985  1.00  0.00     0.026 A 
ATOM     20  C   UNL     1      -4.165   3.454   2.584  1.00  0.00     0.035 A 
ATOM     21  C   UNL     1      -6.284   2.867   0.871  1.00  0.00     0.003 A 
ATOM     22  C   UNL     1      -5.683   1.856   1.629  1.00  0.00     0.009 A 
BRANCH  18  23
ATOM     23  N   UNL     1      -4.180   5.745   1.702  1.00  0.00    -0.308 N 
ATOM     24  N   UNL     1      -2.105   5.269   0.686  1.00  0.00    -0.338 N 
ATOM     25  C   UNL     1      -2.884   6.083   1.451  1.00  0.00     0.319 C 
ATOM     26  H   UNL     1      -1.144   5.479   0.661  1.00  0.00     0.165 HD
ATOM     27  O   UNL     1      -2.453   7.185   1.792  1.00  0.00    -0.249 OA
ATOM     28  H   UNL     1      -4.801   6.496   1.839  1.00  0.00     0.171 HD
BRANCH  24  29
ATOM     29  C   UNL     1      -2.537   4.128  -0.096  1.00  0.00     0.117 C 
BRANCH  29  30
ATOM     30  C   UNL     1      -1.603   3.674  -1.200  1.00  0.00     0.021 C 
BRANCH  30  31
ATOM     31  C   UNL     1      -0.192   3.311  -0.765  1.00  0.00     0.002 C 
BRANCH  31  32
ATOM     32  C   UNL     1      -0.042   2.585   0.572  1.00  0.00    -0.000 C 
BRANCH  32  33
ATOM     33  C   UNL     1      -0.809   1.282   0.800  1.00  0.00    -0.003 C 
ATOM     34  C   UNL     1      -0.661   0.215  -0.266  1.00  0.00     0.004 C 
ENDBRANCH  32  33
ENDBRANCH  31  32
ENDBRANCH  30  31
ENDBRANCH  29  30
ENDBRANCH  24  29
ENDBRANCH  18  23
ENDBRANCH  11  17
ENDBRANCH   8  10
ENDBRANCH   6   8
ENDBRANCH   5   6
ENDBRANCH   4   5
ENDBRANCH   3   4
ENDBRANCH   2   3
ENDBRANCH   1   2
BRANCH   1  35
ATOM     35  C   UNL     1      -0.115  -0.577   4.970  1.00  0.00     0.188 C 
BRANCH  35  36
ATOM     36  O   UNL     1       0.754   0.122   4.102  1.00  0.00    -0.377 OA
BRANCH  36  37
ATOM     37  C   UNL     1       1.540  -0.719   3.280  1.00  0.00     0.188 C 
BRANCH  37  38
ATOM     38  C   UNL     1       3.006  -0.753   3.718  1.00  0.00     0.188 C 
BRANCH  38  39
ATOM     39  O   UNL     1       3.542   0.282   4.530  1.00  0.00    -0.376 OA
BRANCH  39  40
ATOM     40  C   UNL     1       3.066   1.614   4.463  1.00  0.00     0.202 C 
BRANCH  40  41
ATOM     41  C   UNL     1       2.675   2.273   3.135  1.00  0.00     0.261 C 
BRANCH  41  42
ATOM     42  O   UNL     1       2.763   1.466   1.964  1.00  0.00    -0.460 OA
BRANCH  42  43
ATOM     43  C   UNL     1       3.925   1.371   1.291  1.00  0.00     0.338 C 
ATOM     44  O   UNL     1       5.009   1.819   1.603  1.00  0.00    -0.246 OA
BRANCH  43  45
ATOM     45  C   UNL     1       3.573   0.628   0.059  1.00  0.00     0.060 A 
ATOM     46  C   UNL     1       3.841  -0.735  -0.088  1.00  0.00     0.016 A 
ATOM     47  C   UNL     1       2.834   1.296  -0.914  1.00  0.00     0.016 A 
ATOM     48  C   UNL     1       3.386  -1.419  -1.231  1.00  0.00     0.010 A 
ATOM     49  C   UNL     1       2.304   0.591  -1.995  1.00  0.00     0.010 A 
ATOM     50  C   UNL     1       2.619  -0.763  -2.209  1.00  0.00    -0.014 A 
BRANCH  50  51
ATOM     51  C   UNL     1       2.270  -1.398  -3.523  1.00  0.00     0.031 A 
ATOM     52  C   UNL     1       2.708  -0.705  -4.802  1.00  0.00     0.074 A 
ATOM     53  C   UNL     1       1.536  -2.528  -3.622  1.00  0.00     0.049 A 
ATOM     54  N   UNL     1       2.427  -0.993  -6.048  1.00  0.00    -0.248 NA
ATOM     55  C   UNL     1       3.502   0.524  -4.648  1.00  0.00     0.031 C 
ATOM     56  C   UNL     1       0.951  -3.274  -2.506  1.00  0.00     0.029 A 
ATOM     57  N   UNL     1       1.145  -3.245  -4.732  1.00  0.00    -0.354 N 
ATOM     58  C   UNL     1       2.949   0.056  -6.803  1.00  0.00     0.074 A 
ATOM     59  C   UNL     1       3.456   1.031  -5.867  1.00  0.00     0.031 C 
ATOM     60  C   UNL     1       0.306  -4.354  -2.987  1.00  0.00     0.029 A 
ATOM     61  C   UNL     1       0.408  -4.374  -4.445  1.00  0.00     0.049 A 
ATOM     62  H   UNL     1       1.372  -2.974  -5.651  1.00  0.00     0.167 HD
ATOM     63  C   UNL     1       3.068   0.177  -8.148  1.00  0.00     0.034 A 
ATOM     64  C   UNL     1      -0.114  -5.317  -5.261  1.00  0.00     0.034 A 
ATOM     65  C   UNL     1       2.686  -0.849  -9.079  1.00  0.00     0.049 A 
ATOM     66  C   UNL     1       0.108  -5.218  -6.757  1.00  0.00     0.074 A 
ATOM     67  C   UNL     1       2.897  -0.892 -10.445  1.00  0.00     0.029 A 
ATOM     68  N   UNL     1       2.034  -2.023  -8.736  1.00  0.00    -0.354 N 
ATOM     69  N   UNL     1       0.709  -4.273  -7.444  1.00  0.00    -0.248 NA
ATOM     70  C   UNL     1      -0.395  -6.326  -7.585  1.00  0.00     0.031 C 
ATOM     71  C   UNL     1       2.330  -2.071 -10.938  1.00  0.00     0.029 A 
ATOM     72  C   UNL     1       1.823  -2.791  -9.868  1.00  0.00     0.049 A 
ATOM     73  H   UNL     1       1.762  -2.274  -7.824  1.00  0.00     0.167 HD
ATOM     74  C   UNL     1       0.697  -4.702  -8.771  1.00  0.00     0.074 A 
ATOM     75  C   UNL     1       0.037  -5.987  -8.791  1.00  0.00     0.031 C 
ATOM     76  C   UNL     1       1.195  -4.089  -9.875  1.00  0.00     0.034 A 
BRANCH  63  77
ATOM     77  C   UNL     1       3.665   1.457  -8.684  1.00  0.00     0.023 A 
ATOM     78  C   UNL     1       4.971   1.855  -8.351  1.00  0.00     0.031 A 
ATOM     79  C   UNL     1       2.906   2.310  -9.502  1.00  0.00     0.131 A 
ATOM     80  C   UNL     1       5.436   3.120  -8.734  1.00  0.00     0.055 A 
ATOM     81  C   UNL     1       3.414   3.524  -9.969  1.00  0.00     0.041 A 
ATOM     82  F   UNL     1       1.649   1.989  -9.846  1.00  0.00    -0.206 F 
ATOM     83  C   UNL     1       4.679   3.947  -9.566  1.00  0.00     0.022 A 
BRANCH  80  84
ATOM     84  S   UNL     1       6.968   3.733  -7.984  1.00  0.00     0.124 S 
ATOM     85  O   UNL     1       6.605   3.765  -6.568  1.00  0.00    -0.237 OA
ATOM     86  O   UNL     1       7.939   2.716  -8.369  1.00  0.00    -0.237 OA
ATOM     87  O   UNL     1       7.153   5.043  -8.604  1.00  0.00    -0.744 OA
ENDBRANCH  80  84
ENDBRANCH  63  77
BRANCH  64  88
ATOM     88  C   UNL     1      -0.895  -6.467  -4.711  1.00  0.00     0.023 A 
ATOM     89  C   UNL     1      -0.428  -7.786  -4.839  1.00  0.00     0.031 A 
ATOM     90  C   UNL     1      -2.167  -6.274  -4.144  1.00  0.00     0.131 A 
ATOM     91  C   UNL     1      -1.254  -8.864  -4.479  1.00  0.00     0.055 A 
ATOM     92  C   UNL     1      -2.963  -7.348  -3.736  1.00  0.00     0.041 A 
ATOM     93  F   UNL     1      -2.661  -5.036  -3.990  1.00  0.00    -0.206 F 
ATOM     94  C   UNL     1      -2.515  -8.653  -3.920  1.00  0.00     0.022 A 
BRANCH  91  95
ATOM     95  S   UNL     1      -0.700 -10.550  -4.862  1.00  0.00     0.124 S 
ATOM     96  O   UNL     1      -0.491 -10.472  -6.303  1.00  0.00    -0.237 OA
ATOM     97  O   UNL     1       0.502 -10.664  -4.043  1.00  0.00    -0.237 OA
ATOM     98  O   UNL     1      -1.824 -11.381  -4.436  1.00  0.00    -0.744 OA
ENDBRANCH  91  95
ENDBRANCH  64  88
BRANCH  76  99
ATOM     99  C   UNL     1       1.130  -4.829 -11.187  1.00  0.00     0.023 A 
ATOM    100  C   UNL     1      -0.085  -5.070 -11.850  1.00  0.00     0.031 A 
ATOM    101  C   UNL     1       2.319  -5.263 -11.803  1.00  0.00     0.131 A 
ATOM    102  C   UNL     1      -0.087  -5.758 -13.073  1.00  0.00     0.055 A 
ATOM    103  C   UNL     1       2.315  -5.901 -13.044  1.00  0.00     0.041 A 
ATOM    104  F   UNL     1       3.508  -5.056 -11.214  1.00  0.00    -0.206 F 
ATOM    105  C   UNL     1       1.106  -6.159 -13.682  1.00  0.00     0.022 A 
BRANCH 102 106
ATOM    106  S   UNL     1      -1.678  -6.176 -13.837  1.00  0.00     0.124 S 
ATOM    107  O   UNL     1      -2.307  -6.993 -12.805  1.00  0.00    -0.237 OA
ATOM    108  O   UNL     1      -2.272  -4.862 -14.060  1.00  0.00    -0.237 OA
ATOM    109  O   UNL     1      -1.298  -6.896 -15.052  1.00  0.00    -0.744 OA
ENDBRANCH 102 106
ENDBRANCH  76  99
ENDBRANCH  50  51
ENDBRANCH  43  45
ENDBRANCH  42  43
ENDBRANCH  41  42
ENDBRANCH  40  41
ENDBRANCH  39  40
ENDBRANCH  38  39
ENDBRANCH  37  38
ENDBRANCH  36  37
ENDBRANCH  35  36
ENDBRANCH   1  35
TORSDOF 31
