REMARK SMILES Cc1ccccc1[C@@H](C)NS(=O)(=O)CC(=O)OCCOCCOCCOCCOC(=O)c1ccc(-c2c3nc(c(-c4cc(S(=O)(=O)[O-])ccc4F)c4ccc([nH]4)c(-c4cc(S(=O)(=O)[O-])ccc4F)c4nc(c(-c5cc(S(=O)(=O)[O-])ccc5F)c5ccc2[nH]5)C=C4)C=C3)cc1
REMARK SMILES IDX 22 1 21 2 20 3 19 4 18 5 17 6 15 7 16 8 14 9 11 10 12 11
REMARK SMILES IDX 13 12 10 13 8 15 9 16 7 17 1 18 2 19 3 20 4 21 6 22 5 23
REMARK SMILES IDX 23 24 24 25 25 26 26 27 27 28 28 29 29 30 30 31 31 32 32 33
REMARK SMILES IDX 33 34 94 35 34 36 93 37 35 38 36 39 37 40 87 41 38 42 92 43
REMARK SMILES IDX 86 44 88 45 39 46 91 47 85 48 84 49 40 51 72 52 52 53 71 54
REMARK SMILES IDX 53 55 56 56 70 57 89 58 54 59 55 60 69 62 90 63 57 64 41 65
REMARK SMILES IDX 42 66 50 67 43 68 49 69 51 70 48 71 44 72 45 73 46 74 47 75
REMARK SMILES IDX 73 76 74 77 82 78 75 79 81 80 83 81 80 82 76 83 77 84 78 85
REMARK SMILES IDX 79 86 58 87 59 88 67 89 60 90 66 91 68 92 65 93 61 94 62 95
REMARK SMILES IDX 63 96 64 97
REMARK H PARENT 10 14 88 50 56 61
REMARK Flexibility Score: inf
ROOT
ATOM      1  C   UNL     1       1.442   2.653   1.958  1.00  0.00     0.188 C 
ENDROOT
BRANCH   1   2
ATOM      2  C   UNL     1       2.142   1.325   1.626  1.00  0.00     0.188 C 
BRANCH   2   3
ATOM      3  O   UNL     1       3.515   1.041   1.819  1.00  0.00    -0.376 OA
BRANCH   3   4
ATOM      4  C   UNL     1       4.270   2.051   2.428  1.00  0.00     0.202 C 
BRANCH   4   5
ATOM      5  C   UNL     1       5.042   2.960   1.493  1.00  0.00     0.261 C 
BRANCH   5   6
ATOM      6  O   UNL     1       4.250   4.055   1.008  1.00  0.00    -0.462 OA
BRANCH   6   7
ATOM      7  C   UNL     1       3.900   3.986  -0.291  1.00  0.00     0.322 C 
ATOM      8  O   UNL     1       4.135   3.036  -1.030  1.00  0.00    -0.251 OA
BRANCH   7   9
ATOM      9  C   UNL     1       3.299   5.244  -0.781  1.00  0.00     0.276 C 
BRANCH   9  10
ATOM     10  S   UNL     1       1.558   5.410  -0.518  1.00  0.00     0.223 S 
ATOM     11  O   UNL     1       1.027   6.160  -1.654  1.00  0.00    -0.212 OA
ATOM     12  O   UNL     1       1.352   5.927   0.803  1.00  0.00    -0.212 OA
BRANCH  10  13
ATOM     13  N   UNL     1       0.812   3.926  -0.553  1.00  0.00    -0.207 NA
ATOM     14  H   UNL     1       1.091   3.471   0.317  1.00  0.00     0.141 HD
BRANCH  13  15
ATOM     15  C   UNL     1       0.952   2.887  -1.585  1.00  0.00     0.096 C 
ATOM     16  C   UNL     1       0.525   3.399  -2.948  1.00  0.00     0.031 C 
BRANCH  15  17
ATOM     17  C   UNL     1       0.212   1.571  -1.262  1.00  0.00    -0.027 A 
ATOM     18  C   UNL     1       2.295   0.013  -1.540  1.00  0.00     0.044 C 
ATOM     19  C   UNL     1       0.829   0.286  -1.282  1.00  0.00    -0.046 A 
ATOM     20  C   UNL     1       0.067  -0.860  -0.969  1.00  0.00     0.004 A 
ATOM     21  C   UNL     1      -1.291  -0.771  -0.688  1.00  0.00     0.000 A 
ATOM     22  C   UNL     1      -1.163   1.629  -0.947  1.00  0.00     0.005 A 
ATOM     23  C   UNL     1      -1.906   0.473  -0.680  1.00  0.00     0.000 A 
ENDBRANCH  15  17
ENDBRANCH  13  15
ENDBRANCH  10  13
ENDBRANCH   9  10
ENDBRANCH   7   9
ENDBRANCH   6   7
ENDBRANCH   5   6
ENDBRANCH   4   5
ENDBRANCH   3   4
ENDBRANCH   2   3
ENDBRANCH   1   2
BRANCH   1  24
ATOM     24  O   UNL     1       1.286   3.166   3.259  1.00  0.00    -0.377 OA
BRANCH  24  25
ATOM     25  C   UNL     1       0.475   2.440   4.155  1.00  0.00     0.188 C 
BRANCH  25  26
ATOM     26  C   UNL     1      -0.764   1.757   3.667  1.00  0.00     0.188 C 
BRANCH  26  27
ATOM     27  O   UNL     1      -0.322   0.509   3.140  1.00  0.00    -0.376 OA
BRANCH  27  28
ATOM     28  C   UNL     1      -1.356  -0.400   2.834  1.00  0.00     0.202 C 
BRANCH  28  29
ATOM     29  C   UNL     1      -2.121  -0.852   4.079  1.00  0.00     0.261 C 
BRANCH  29  30
ATOM     30  O   UNL     1      -1.173  -1.413   5.012  1.00  0.00    -0.460 OA
BRANCH  30  31
ATOM     31  C   UNL     1      -1.052  -0.751   6.197  1.00  0.00     0.338 C 
ATOM     32  O   UNL     1      -1.987  -0.431   6.913  1.00  0.00    -0.246 OA
BRANCH  31  33
ATOM     33  C   UNL     1       0.370  -0.337   6.421  1.00  0.00     0.060 A 
ATOM     34  C   UNL     1       0.672   0.638   7.389  1.00  0.00     0.016 A 
ATOM     35  C   UNL     1       1.359  -0.713   5.514  1.00  0.00     0.016 A 
ATOM     36  C   UNL     1       1.894   1.345   7.342  1.00  0.00     0.010 A 
ATOM     37  C   UNL     1       2.540   0.025   5.442  1.00  0.00     0.010 A 
ATOM     38  C   UNL     1       2.802   1.111   6.307  1.00  0.00    -0.014 A 
BRANCH  38  39
ATOM     39  C   UNL     1       3.895   2.047   5.901  1.00  0.00     0.031 A 
ATOM     40  C   UNL     1       5.247   1.484   5.572  1.00  0.00     0.074 A 
ATOM     41  C   UNL     1       3.602   3.314   5.476  1.00  0.00     0.049 A 
ATOM     42  N   UNL     1       6.248   2.170   5.136  1.00  0.00    -0.248 NA
ATOM     43  C   UNL     1       5.572   0.062   5.621  1.00  0.00     0.031 C 
ATOM     44  C   UNL     1       4.393   4.196   4.597  1.00  0.00     0.029 A 
ATOM     45  N   UNL     1       2.448   4.089   5.656  1.00  0.00    -0.354 N 
ATOM     46  C   UNL     1       7.150   1.325   4.513  1.00  0.00     0.074 A 
ATOM     47  C   UNL     1       6.718   0.015   4.931  1.00  0.00     0.031 C 
ATOM     48  C   UNL     1       3.823   5.405   4.471  1.00  0.00     0.029 A 
ATOM     49  C   UNL     1       2.796   5.450   5.479  1.00  0.00     0.049 A 
ATOM     50  H   UNL     1       1.550   3.746   5.868  1.00  0.00     0.167 HD
ATOM     51  C   UNL     1       8.050   1.866   3.625  1.00  0.00     0.034 A 
ATOM     52  C   UNL     1       2.776   6.296   6.544  1.00  0.00     0.034 A 
ATOM     53  C   UNL     1       8.032   3.353   3.691  1.00  0.00     0.049 A 
ATOM     54  C   UNL     1       4.229   6.608   6.907  1.00  0.00     0.074 A 
ATOM     55  C   UNL     1       7.940   4.406   2.791  1.00  0.00     0.029 A 
ATOM     56  N   UNL     1       7.960   3.958   4.951  1.00  0.00    -0.354 N 
ATOM     57  N   UNL     1       5.236   5.849   6.532  1.00  0.00    -0.248 NA
ATOM     58  C   UNL     1       4.703   7.856   7.495  1.00  0.00     0.031 C 
ATOM     59  C   UNL     1       7.598   5.589   3.522  1.00  0.00     0.029 A 
ATOM     60  C   UNL     1       7.603   5.286   4.876  1.00  0.00     0.049 A 
ATOM     61  H   UNL     1       8.144   3.487   5.795  1.00  0.00     0.167 HD
ATOM     62  C   UNL     1       6.413   6.527   6.626  1.00  0.00     0.074 A 
ATOM     63  C   UNL     1       6.037   7.752   7.319  1.00  0.00     0.031 C 
ATOM     64  C   UNL     1       7.599   6.097   6.087  1.00  0.00     0.034 A 
BRANCH  51  65
ATOM     65  C   UNL     1       8.870   1.099   2.567  1.00  0.00     0.023 A 
ATOM     66  C   UNL     1       9.653   1.816   1.627  1.00  0.00     0.031 A 
ATOM     67  C   UNL     1       8.904  -0.302   2.376  1.00  0.00     0.131 A 
ATOM     68  C   UNL     1      10.369   1.177   0.584  1.00  0.00     0.055 A 
ATOM     69  C   UNL     1       9.643  -0.941   1.364  1.00  0.00     0.041 A 
ATOM     70  F   UNL     1       8.223  -1.153   3.143  1.00  0.00    -0.206 F 
ATOM     71  C   UNL     1      10.378  -0.204   0.456  1.00  0.00     0.022 A 
BRANCH  68  72
ATOM     72  S   UNL     1      11.292   2.178  -0.620  1.00  0.00     0.124 S 
ATOM     73  O   UNL     1      10.217   2.843  -1.349  1.00  0.00    -0.237 OA
ATOM     74  O   UNL     1      12.111   3.027   0.238  1.00  0.00    -0.237 OA
ATOM     75  O   UNL     1      12.038   1.183  -1.391  1.00  0.00    -0.744 OA
ENDBRANCH  68  72
ENDBRANCH  51  65
BRANCH  52  76
ATOM     76  C   UNL     1       1.505   6.047   7.314  1.00  0.00     0.023 A 
ATOM     77  C   UNL     1       0.304   6.246   6.558  1.00  0.00     0.031 A 
ATOM     78  C   UNL     1       1.442   5.116   8.360  1.00  0.00     0.131 A 
ATOM     79  C   UNL     1      -0.791   5.368   6.693  1.00  0.00     0.055 A 
ATOM     80  C   UNL     1       0.309   4.297   8.541  1.00  0.00     0.041 A 
ATOM     81  F   UNL     1       2.525   4.851   9.105  1.00  0.00    -0.206 F 
ATOM     82  C   UNL     1      -0.780   4.374   7.668  1.00  0.00     0.022 A 
BRANCH  79  83
ATOM     83  S   UNL     1      -2.074   5.319   5.387  1.00  0.00     0.124 S 
ATOM     84  O   UNL     1      -2.972   6.393   5.798  1.00  0.00    -0.237 OA
ATOM     85  O   UNL     1      -1.316   5.554   4.164  1.00  0.00    -0.237 OA
ATOM     86  O   UNL     1      -2.624   3.967   5.493  1.00  0.00    -0.744 OA
ENDBRANCH  79  83
ENDBRANCH  52  76
BRANCH  64  87
ATOM     87  C   UNL     1       8.942   6.408   6.696  1.00  0.00     0.023 A 
ATOM     88  C   UNL     1       9.042   6.982   7.961  1.00  0.00     0.031 A 
ATOM     89  C   UNL     1      10.161   5.968   6.116  1.00  0.00     0.131 A 
ATOM     90  C   UNL     1      10.287   7.192   8.559  1.00  0.00     0.055 A 
ATOM     91  C   UNL     1      11.390   6.072   6.766  1.00  0.00     0.041 A 
ATOM     92  F   UNL     1      10.217   5.389   4.907  1.00  0.00    -0.206 F 
ATOM     93  C   UNL     1      11.463   6.709   7.992  1.00  0.00     0.022 A 
BRANCH  90  94
ATOM     94  S   UNL     1      10.311   8.214  10.043  1.00  0.00     0.124 S 
ATOM     95  O   UNL     1       9.754   9.469   9.541  1.00  0.00    -0.237 OA
ATOM     96  O   UNL     1       9.455   7.464  10.956  1.00  0.00    -0.237 OA
ATOM     97  O   UNL     1      11.725   8.260  10.403  1.00  0.00    -0.744 OA
ENDBRANCH  90  94
ENDBRANCH  64  87
ENDBRANCH  38  39
ENDBRANCH  31  33
ENDBRANCH  30  31
ENDBRANCH  29  30
ENDBRANCH  28  29
ENDBRANCH  27  28
ENDBRANCH  26  27
ENDBRANCH  25  26
ENDBRANCH  24  25
ENDBRANCH   1  24
TORSDOF 27
