REMARK SMILES Nc1ccc(-c2cc(Cl)cc3c2O[C@H](C(F)(F)F)C(C(=O)OCCOCCOCCOCCOC(=O)c2ccc(-c4c5nc(c(-c6cc(S(=O)(=O)[O-])ccc6F)c6ccc([nH]6)c(-c6cc(S(=O)(=O)[O-])ccc6F)c6nc(c(-c7cc(S(=O)(=O)[O-])ccc7F)c7ccc4[nH]7)C=C6)C=C5)cc2)=C3)cc1
REMARK SMILES IDX 29 1 28 2 27 3 26 4 25 5 24 6 23 7 22 8 20 9 21 10 19 11
REMARK SMILES IDX 6 12 7 13 12 14 8 15 11 16 13 17 9 18 10 19 100 20 14 21
REMARK SMILES IDX 5 22 2 23 3 24 102 25 4 26 101 27 1 28 15 31 16 32 17 33
REMARK SMILES IDX 18 34 30 35 31 36 32 37 33 38 34 39 35 40 36 41 37 42 38 43
REMARK SMILES IDX 99 44 39 45 98 46 40 47 41 48 42 49 92 50 43 51 97 52 91 53
REMARK SMILES IDX 93 54 44 55 96 56 90 57 89 58 45 60 77 61 57 62 76 63 58 64
REMARK SMILES IDX 61 65 75 66 94 67 59 68 60 69 74 71 95 72 62 73 46 74 47 75
REMARK SMILES IDX 55 76 48 77 54 78 56 79 53 80 49 81 50 82 51 83 52 84 78 85
REMARK SMILES IDX 79 86 87 87 80 88 86 89 88 90 85 91 81 92 82 93 83 94 84 95
REMARK SMILES IDX 63 96 64 97 72 98 65 99 71 100 73 101 70 102 66 103 67 104
REMARK SMILES IDX 68 105 69 106
REMARK H PARENT 1 29 1 30 93 59 61 70
REMARK Flexibility Score: inf
ROOT
ATOM      1  C   UNL     1      -6.011  -1.058   7.739  1.00  0.00     0.188 C 
ENDROOT
BRANCH   1   2
ATOM      2  O   UNL     1      -5.779  -1.552   6.420  1.00  0.00    -0.377 OA
BRANCH   2   3
ATOM      3  C   UNL     1      -6.408  -0.839   5.365  1.00  0.00     0.188 C 
BRANCH   3   4
ATOM      4  C   UNL     1      -7.775  -1.445   5.000  1.00  0.00     0.188 C 
BRANCH   4   5
ATOM      5  O   UNL     1      -8.267  -2.344   5.980  1.00  0.00    -0.376 OA
BRANCH   5   6
ATOM      6  C   UNL     1      -7.935  -3.725   5.927  1.00  0.00     0.202 C 
BRANCH   6   7
ATOM      7  C   UNL     1      -6.539  -4.261   5.548  1.00  0.00     0.261 C 
BRANCH   7   8
ATOM      8  O   UNL     1      -5.824  -3.565   4.523  1.00  0.00    -0.460 OA
BRANCH   8   9
ATOM      9  C   UNL     1      -6.219  -3.711   3.248  1.00  0.00     0.338 C 
ATOM     10  O   UNL     1      -7.129  -4.404   2.832  1.00  0.00    -0.246 OA
BRANCH   9  11
ATOM     11  C   UNL     1      -5.460  -2.726   2.441  1.00  0.00     0.087 C 
ATOM     12  C   UNL     1      -3.318  -0.036   0.036  1.00  0.00     0.026 A 
ATOM     13  C   UNL     1      -4.034   0.724  -0.909  1.00  0.00     0.033 A 
ATOM     14  C   UNL     1      -4.052  -0.875   0.906  1.00  0.00     0.135 A 
ATOM     15  C   UNL     1      -5.423   0.641  -0.988  1.00  0.00     0.042 A 
ATOM     16  C   UNL     1      -5.441  -1.003   0.777  1.00  0.00     0.019 A 
ATOM     17  O   UNL     1      -3.346  -1.537   1.873  1.00  0.00    -0.475 OA
ATOM     18  Cl  UNL     1      -6.269   1.578  -2.158  1.00  0.00    -0.084 Cl
ATOM     19  C   UNL     1      -6.128  -0.223  -0.156  1.00  0.00     0.032 A 
ATOM     20  C   UNL     1      -6.158  -1.992   1.566  1.00  0.00     0.027 C 
ATOM     21  C   UNL     1      -3.989  -2.532   2.709  1.00  0.00     0.316 C 
BRANCH  12  22
ATOM     22  C   UNL     1      -1.839   0.003   0.036  1.00  0.00    -0.014 A 
ATOM     23  C   UNL     1       1.003   0.038   0.007  1.00  0.00     0.031 A 
ATOM     24  C   UNL     1       0.306  -1.167  -0.046  1.00  0.00     0.026 A 
ATOM     25  C   UNL     1       0.273   1.227   0.015  1.00  0.00     0.026 A 
ATOM     26  C   UNL     1      -1.091  -1.185  -0.025  1.00  0.00     0.011 A 
ATOM     27  C   UNL     1      -1.128   1.213   0.047  1.00  0.00     0.011 A 
BRANCH  23  28
ATOM     28  N   UNL     1       2.386   0.054  -0.101  1.00  0.00    -0.399 N 
ATOM     29  H   UNL     1       2.889  -0.793  -0.106  1.00  0.00     0.156 HD
ATOM     30  H   UNL     1       2.864   0.911  -0.173  1.00  0.00     0.156 HD
ENDBRANCH  23  28
ENDBRANCH  12  22
BRANCH  21  31
ATOM     31  C   UNL     1      -3.191  -3.837   2.581  1.00  0.00     0.430 C 
ATOM     32  F   UNL     1      -1.869  -3.628   2.782  1.00  0.00    -0.167 F 
ATOM     33  F   UNL     1      -3.585  -4.768   3.477  1.00  0.00    -0.167 F 
ATOM     34  F   UNL     1      -3.329  -4.378   1.346  1.00  0.00    -0.167 F 
ENDBRANCH  21  31
ENDBRANCH   9  11
ENDBRANCH   8   9
ENDBRANCH   7   8
ENDBRANCH   6   7
ENDBRANCH   5   6
ENDBRANCH   4   5
ENDBRANCH   3   4
ENDBRANCH   2   3
ENDBRANCH   1   2
BRANCH   1  35
ATOM     35  C   UNL     1      -7.420  -0.559   8.125  1.00  0.00     0.188 C 
BRANCH  35  36
ATOM     36  O   UNL     1      -7.899   0.489   7.277  1.00  0.00    -0.376 OA
BRANCH  36  37
ATOM     37  C   UNL     1      -7.927   1.796   7.838  1.00  0.00     0.202 C 
BRANCH  37  38
ATOM     38  C   UNL     1      -6.561   2.495   7.867  1.00  0.00     0.261 C 
BRANCH  38  39
ATOM     39  O   UNL     1      -5.567   1.865   8.689  1.00  0.00    -0.460 OA
BRANCH  39  40
ATOM     40  C   UNL     1      -5.854   1.689   9.999  1.00  0.00     0.338 C 
ATOM     41  O   UNL     1      -6.844   2.084  10.588  1.00  0.00    -0.246 OA
BRANCH  40  42
ATOM     42  C   UNL     1      -4.857   0.744  10.550  1.00  0.00     0.060 A 
ATOM     43  C   UNL     1      -3.494   0.927  10.305  1.00  0.00     0.016 A 
ATOM     44  C   UNL     1      -5.302  -0.354  11.296  1.00  0.00     0.016 A 
ATOM     45  C   UNL     1      -2.570   0.032  10.846  1.00  0.00     0.010 A 
ATOM     46  C   UNL     1      -4.376  -1.252  11.834  1.00  0.00     0.010 A 
ATOM     47  C   UNL     1      -3.002  -1.047  11.639  1.00  0.00    -0.014 A 
BRANCH  47  48
ATOM     48  C   UNL     1      -2.009  -1.790  12.454  1.00  0.00     0.031 A 
ATOM     49  C   UNL     1      -1.508  -3.149  12.081  1.00  0.00     0.074 A 
ATOM     50  C   UNL     1      -1.565  -1.187  13.574  1.00  0.00     0.049 A 
ATOM     51  N   UNL     1      -0.548  -3.842  12.638  1.00  0.00    -0.248 NA
ATOM     52  C   UNL     1      -2.166  -3.823  10.954  1.00  0.00     0.031 C 
ATOM     53  C   UNL     1      -2.033   0.115  14.053  1.00  0.00     0.029 A 
ATOM     54  N   UNL     1      -0.632  -1.571  14.502  1.00  0.00    -0.354 N 
ATOM     55  C   UNL     1      -0.465  -5.028  11.920  1.00  0.00     0.074 A 
ATOM     56  C   UNL     1      -1.510  -4.979  10.916  1.00  0.00     0.031 C 
ATOM     57  C   UNL     1      -1.364   0.436  15.168  1.00  0.00     0.029 A 
ATOM     58  C   UNL     1      -0.439  -0.644  15.500  1.00  0.00     0.049 A 
ATOM     59  H   UNL     1      -0.146  -2.426  14.458  1.00  0.00     0.167 HD
ATOM     60  C   UNL     1       0.416  -6.046  12.080  1.00  0.00     0.034 A 
ATOM     61  C   UNL     1       0.396  -0.650  16.558  1.00  0.00     0.034 A 
ATOM     62  C   UNL     1       1.438  -6.074  13.102  1.00  0.00     0.049 A 
ATOM     63  C   UNL     1       1.358  -1.796  16.716  1.00  0.00     0.074 A 
ATOM     64  C   UNL     1       2.424  -7.027  13.296  1.00  0.00     0.029 A 
ATOM     65  N   UNL     1       1.600  -5.129  14.106  1.00  0.00    -0.354 N 
ATOM     66  N   UNL     1       1.522  -2.845  15.944  1.00  0.00    -0.248 NA
ATOM     67  C   UNL     1       2.264  -1.755  17.872  1.00  0.00     0.031 C 
ATOM     68  C   UNL     1       3.128  -6.702  14.457  1.00  0.00     0.029 A 
ATOM     69  C   UNL     1       2.641  -5.501  14.946  1.00  0.00     0.049 A 
ATOM     70  H   UNL     1       1.057  -4.315  14.208  1.00  0.00     0.167 HD
ATOM     71  C   UNL     1       2.561  -3.578  16.509  1.00  0.00     0.074 A 
ATOM     72  C   UNL     1       3.009  -2.834  17.669  1.00  0.00     0.031 C 
ATOM     73  C   UNL     1       3.089  -4.762  16.105  1.00  0.00     0.034 A 
BRANCH  60  74
ATOM     74  C   UNL     1       0.367  -7.215  11.124  1.00  0.00     0.023 A 
ATOM     75  C   UNL     1       0.133  -8.518  11.607  1.00  0.00     0.031 A 
ATOM     76  C   UNL     1       0.723  -7.063   9.772  1.00  0.00     0.131 A 
ATOM     77  C   UNL     1       0.301  -9.618  10.755  1.00  0.00     0.055 A 
ATOM     78  C   UNL     1       0.849  -8.160   8.918  1.00  0.00     0.041 A 
ATOM     79  F   UNL     1       0.968  -5.844   9.265  1.00  0.00    -0.206 F 
ATOM     80  C   UNL     1       0.653  -9.445   9.412  1.00  0.00     0.022 A 
BRANCH  77  81
ATOM     81  S   UNL     1       0.151 -11.318  11.372  1.00  0.00     0.124 S 
ATOM     82  O   UNL     1      -0.918 -11.848  10.528  1.00  0.00    -0.237 OA
ATOM     83  O   UNL     1       1.481 -11.858  11.105  1.00  0.00    -0.237 OA
ATOM     84  O   UNL     1      -0.194 -11.152  12.779  1.00  0.00    -0.744 OA
ENDBRANCH  77  81
ENDBRANCH  60  74
BRANCH  61  85
ATOM     85  C   UNL     1       0.396   0.523  17.479  1.00  0.00     0.023 A 
ATOM     86  C   UNL     1      -0.759   0.871  18.203  1.00  0.00     0.031 A 
ATOM     87  C   UNL     1       1.503   1.385  17.542  1.00  0.00     0.131 A 
ATOM     88  C   UNL     1      -0.805   2.087  18.896  1.00  0.00     0.055 A 
ATOM     89  C   UNL     1       1.479   2.559  18.296  1.00  0.00     0.041 A 
ATOM     90  F   UNL     1       2.619   1.104  16.851  1.00  0.00    -0.206 F 
ATOM     91  C   UNL     1       0.313   2.925  18.962  1.00  0.00     0.022 A 
BRANCH  88  92
ATOM     92  S   UNL     1      -2.361   2.693  19.607  1.00  0.00     0.124 S 
ATOM     93  O   UNL     1      -2.026   2.805  21.023  1.00  0.00    -0.237 OA
ATOM     94  O   UNL     1      -2.539   3.958  18.898  1.00  0.00    -0.237 OA
ATOM     95  O   UNL     1      -3.324   1.651  19.266  1.00  0.00    -0.744 OA
ENDBRANCH  88  92
ENDBRANCH  61  85
BRANCH  73  96
ATOM     96  C   UNL     1       4.212  -5.365  16.918  1.00  0.00     0.023 A 
ATOM     97  C   UNL     1       5.472  -5.589  16.329  1.00  0.00     0.031 A 
ATOM     98  C   UNL     1       3.997  -5.843  18.222  1.00  0.00     0.131 A 
ATOM     99  C   UNL     1       6.452  -6.306  17.028  1.00  0.00     0.055 A 
ATOM    100  C   UNL     1       4.994  -6.511  18.935  1.00  0.00     0.041 A 
ATOM    101  F   UNL     1       2.811  -5.665  18.826  1.00  0.00    -0.206 F 
ATOM    102  C   UNL     1       6.224  -6.759  18.331  1.00  0.00     0.022 A 
BRANCH  99 103
ATOM    103  S   UNL     1       8.024  -6.758  16.242  1.00  0.00     0.124 S 
ATOM    104  O   UNL     1       8.995  -6.083  17.100  1.00  0.00    -0.237 OA
ATOM    105  O   UNL     1       8.011  -8.215  16.344  1.00  0.00    -0.237 OA
ATOM    106  O   UNL     1       7.910  -6.222  14.890  1.00  0.00    -0.744 OA
ENDBRANCH  99 103
ENDBRANCH  73  96
ENDBRANCH  47  48
ENDBRANCH  40  42
ENDBRANCH  39  40
ENDBRANCH  38  39
ENDBRANCH  37  38
ENDBRANCH  36  37
ENDBRANCH  35  36
ENDBRANCH   1  35
TORSDOF 26
