REMARK SMILES Cc1ccc(-c2cc3cccnc3n2CCC(=O)OCCOCCOCCOCCOC(=O)c2ccc(-c3c4nc(c(-c5cc(S(=O)(=O)[O-])ccc5F)c5ccc([nH]5)c(-c5cc(S(=O)(=O)[O-])ccc5F)c5nc(c(-c6cc(S(=O)(=O)[O-])ccc6F)c6ccc3[nH]6)C=C5)C=C4)cc2)cn1
REMARK SMILES IDX 25 1 24 2 23 3 22 4 21 5 20 6 19 7 17 8 18 9 16 10 15 11
REMARK SMILES IDX 14 12 6 13 7 14 8 15 13 16 9 17 12 18 10 19 11 20 5 21 1 22
REMARK SMILES IDX 2 23 3 24 98 25 4 26 97 27 26 28 27 29 28 30 29 31 30 32
REMARK SMILES IDX 31 33 32 34 33 35 34 36 35 37 96 38 36 39 95 40 37 41 38 42
REMARK SMILES IDX 39 43 89 44 40 45 94 46 88 47 90 48 41 49 93 50 87 51 86 52
REMARK SMILES IDX 42 54 74 55 54 56 73 57 55 58 58 59 72 60 91 61 56 62 57 63
REMARK SMILES IDX 71 65 92 66 59 67 43 68 44 69 52 70 45 71 51 72 53 73 50 74
REMARK SMILES IDX 46 75 47 76 48 77 49 78 75 79 76 80 84 81 77 82 83 83 85 84
REMARK SMILES IDX 82 85 78 86 79 87 80 88 81 89 60 90 61 91 69 92 62 93 68 94
REMARK SMILES IDX 70 95 67 96 63 97 64 98 65 99 66 100
REMARK H PARENT 90 53 58 64
REMARK Flexibility Score: inf
ROOT
ATOM      1  O   UNL     1      -0.622   2.090   1.843  1.00  0.00    -0.377 OA
ENDROOT
BRANCH   1   2
ATOM      2  C   UNL     1      -1.078   0.788   2.169  1.00  0.00     0.188 C 
BRANCH   2   3
ATOM      3  C   UNL     1      -0.226  -0.374   1.659  1.00  0.00     0.188 C 
BRANCH   3   4
ATOM      4  O   UNL     1      -0.203  -0.366   0.106  1.00  0.00    -0.376 OA
BRANCH   4   5
ATOM      5  C   UNL     1      -0.530  -1.366  -1.590  1.00  0.00     0.202 C 
BRANCH   5   6
ATOM      6  C   UNL     1      -1.779  -2.504  -2.060  1.00  0.00     0.261 C 
BRANCH   6   7
ATOM      7  O   UNL     1      -3.049  -2.635  -1.353  1.00  0.00    -0.463 OA
BRANCH   7   8
ATOM      8  C   UNL     1      -3.247  -3.691  -0.526  1.00  0.00     0.307 C 
ATOM      9  O   UNL     1      -2.677  -4.771  -0.658  1.00  0.00    -0.252 OA
BRANCH   8  10
ATOM     10  C   UNL     1      -4.149  -3.405   0.685  1.00  0.00     0.144 C 
BRANCH  10  11
ATOM     11  C   UNL     1      -4.239  -2.009   1.323  1.00  0.00     0.136 C 
BRANCH  11  12
ATOM     12  N   UNL     1      -4.477  -0.911   0.420  1.00  0.00    -0.325 N 
ATOM     13  C   UNL     1      -3.508  -0.257  -0.307  1.00  0.00     0.052 A 
ATOM     14  C   UNL     1      -4.179   0.623  -1.146  1.00  0.00     0.039 A 
ATOM     15  C   UNL     1      -5.550   0.596  -0.831  1.00  0.00     0.020 A 
ATOM     16  C   UNL     1      -5.707  -0.335   0.189  1.00  0.00     0.140 A 
ATOM     17  C   UNL     1      -6.680   1.276  -1.302  1.00  0.00     0.013 A 
ATOM     18  N   UNL     1      -6.860  -0.636   0.824  1.00  0.00    -0.238 NA
ATOM     19  C   UNL     1      -7.887   1.022  -0.661  1.00  0.00     0.021 A 
ATOM     20  C   UNL     1      -7.910   0.101   0.379  1.00  0.00     0.113 A 
BRANCH  13  21
ATOM     21  C   UNL     1      -2.063  -0.523  -0.321  1.00  0.00     0.017 A 
ATOM     22  C   UNL     1       2.936  -0.549  -0.516  1.00  0.00     0.066 C 
ATOM     23  C   UNL     1       1.470  -0.772  -0.725  1.00  0.00     0.037 A 
ATOM     24  C   UNL     1       0.629  -2.133   0.086  1.00  0.00     0.024 A 
ATOM     25  N   UNL     1       0.623   0.607  -1.362  1.00  0.00    -0.261 NA
ATOM     26  C   UNL     1      -1.174  -2.015   0.296  1.00  0.00     0.014 A 
ATOM     27  C   UNL     1      -1.101   0.743  -1.130  1.00  0.00     0.121 A 
ENDBRANCH  13  21
ENDBRANCH  11  12
ENDBRANCH  10  11
ENDBRANCH   8  10
ENDBRANCH   7   8
ENDBRANCH   6   7
ENDBRANCH   5   6
ENDBRANCH   4   5
ENDBRANCH   3   4
ENDBRANCH   2   3
ENDBRANCH   1   2
BRANCH   1  28
ATOM     28  C   UNL     1       0.686   2.261   1.326  1.00  0.00     0.188 C 
BRANCH  28  29
ATOM     29  C   UNL     1       1.730   2.904   2.242  1.00  0.00     0.188 C 
BRANCH  29  30
ATOM     30  O   UNL     1       1.895   2.494   3.593  1.00  0.00    -0.376 OA
BRANCH  30  31
ATOM     31  C   UNL     1       0.793   2.322   4.474  1.00  0.00     0.202 C 
BRANCH  31  32
ATOM     32  C   UNL     1      -0.212   3.447   4.765  1.00  0.00     0.261 C 
BRANCH  32  33
ATOM     33  O   UNL     1      -0.954   3.838   3.621  1.00  0.00    -0.460 OA
BRANCH  33  34
ATOM     34  C   UNL     1      -0.390   4.858   2.942  1.00  0.00     0.338 C 
ATOM     35  O   UNL     1       0.545   5.543   3.329  1.00  0.00    -0.246 OA
BRANCH  34  36
ATOM     36  C   UNL     1      -1.058   5.016   1.605  1.00  0.00     0.060 A 
ATOM     37  C   UNL     1      -0.376   5.974   0.853  1.00  0.00     0.016 A 
ATOM     38  C   UNL     1      -2.440   5.100   1.765  1.00  0.00     0.016 A 
ATOM     39  C   UNL     1      -0.864   7.252   0.954  1.00  0.00     0.010 A 
ATOM     40  C   UNL     1      -2.940   6.369   1.901  1.00  0.00     0.010 A 
ATOM     41  C   UNL     1      -2.081   7.430   1.622  1.00  0.00    -0.014 A 
BRANCH  41  42
ATOM     42  C   UNL     1      -2.464   8.781   1.940  1.00  0.00     0.031 A 
ATOM     43  C   UNL     1      -3.020   9.460   0.760  1.00  0.00     0.074 A 
ATOM     44  C   UNL     1      -2.358   9.308   3.171  1.00  0.00     0.049 A 
ATOM     45  N   UNL     1      -2.415  10.296  -0.015  1.00  0.00    -0.248 NA
ATOM     46  C   UNL     1      -4.284   8.930   0.227  1.00  0.00     0.031 C 
ATOM     47  C   UNL     1      -2.098   8.634   4.446  1.00  0.00     0.029 A 
ATOM     48  N   UNL     1      -2.561  10.595   3.545  1.00  0.00    -0.354 N 
ATOM     49  C   UNL     1      -3.336  10.575  -1.013  1.00  0.00     0.074 A 
ATOM     50  C   UNL     1      -4.316   9.520  -0.965  1.00  0.00     0.031 C 
ATOM     51  C   UNL     1      -2.406   9.478   5.461  1.00  0.00     0.029 A 
ATOM     52  C   UNL     1      -2.741  10.780   4.907  1.00  0.00     0.049 A 
ATOM     53  H   UNL     1      -2.579  11.339   2.901  1.00  0.00     0.167 HD
ATOM     54  C   UNL     1      -3.402  11.806  -1.589  1.00  0.00     0.034 A 
ATOM     55  C   UNL     1      -3.238  11.904   5.485  1.00  0.00     0.034 A 
ATOM     56  C   UNL     1      -2.224  12.580  -1.305  1.00  0.00     0.049 A 
ATOM     57  C   UNL     1      -3.126  13.006   4.492  1.00  0.00     0.074 A 
ATOM     58  C   UNL     1      -0.880  12.439  -1.587  1.00  0.00     0.029 A 
ATOM     59  N   UNL     1      -2.309  13.484  -0.272  1.00  0.00    -0.354 N 
ATOM     60  N   UNL     1      -1.994  13.524   4.103  1.00  0.00    -0.248 NA
ATOM     61  C   UNL     1      -4.249  13.211   3.587  1.00  0.00     0.031 C 
ATOM     62  C   UNL     1      -0.203  12.930  -0.436  1.00  0.00     0.029 A 
ATOM     63  C   UNL     1      -1.159  13.399   0.468  1.00  0.00     0.049 A 
ATOM     64  H   UNL     1      -3.065  14.089  -0.095  1.00  0.00     0.167 HD
ATOM     65  C   UNL     1      -2.150  13.719   2.737  1.00  0.00     0.074 A 
ATOM     66  C   UNL     1      -3.585  13.595   2.493  1.00  0.00     0.031 C 
ATOM     67  C   UNL     1      -1.081  13.665   1.891  1.00  0.00     0.034 A 
BRANCH  54  68
ATOM     68  C   UNL     1      -4.701  12.418  -2.041  1.00  0.00     0.023 A 
ATOM     69  C   UNL     1      -5.958  11.916  -1.649  1.00  0.00     0.031 A 
ATOM     70  C   UNL     1      -4.715  13.660  -2.696  1.00  0.00     0.131 A 
ATOM     71  C   UNL     1      -7.148  12.588  -1.931  1.00  0.00     0.055 A 
ATOM     72  C   UNL     1      -5.899  14.375  -2.913  1.00  0.00     0.041 A 
ATOM     73  F   UNL     1      -3.572  14.244  -3.090  1.00  0.00    -0.206 F 
ATOM     74  C   UNL     1      -7.126  13.837  -2.535  1.00  0.00     0.022 A 
BRANCH  71  75
ATOM     75  S   UNL     1      -8.739  11.839  -1.485  1.00  0.00     0.124 S 
ATOM     76  O   UNL     1      -9.314  12.854  -0.609  1.00  0.00    -0.237 OA
ATOM     77  O   UNL     1      -9.372  11.693  -2.793  1.00  0.00    -0.237 OA
ATOM     78  O   UNL     1      -8.360  10.584  -0.841  1.00  0.00    -0.744 OA
ENDBRANCH  71  75
ENDBRANCH  54  68
BRANCH  55  79
ATOM     79  C   UNL     1      -4.238  11.959   6.581  1.00  0.00     0.023 A 
ATOM     80  C   UNL     1      -5.112  10.877   6.794  1.00  0.00     0.031 A 
ATOM     81  C   UNL     1      -4.561  13.179   7.202  1.00  0.00     0.131 A 
ATOM     82  C   UNL     1      -6.287  11.044   7.541  1.00  0.00     0.055 A 
ATOM     83  C   UNL     1      -5.727  13.341   7.960  1.00  0.00     0.041 A 
ATOM     84  F   UNL     1      -3.787  14.261   7.020  1.00  0.00    -0.206 F 
ATOM     85  C   UNL     1      -6.606  12.274   8.119  1.00  0.00     0.022 A 
BRANCH  82  86
ATOM     86  S   UNL     1      -7.458   9.670   7.713  1.00  0.00     0.124 S 
ATOM     87  O   UNL     1      -7.856   9.770   9.116  1.00  0.00    -0.237 OA
ATOM     88  O   UNL     1      -8.485  10.029   6.742  1.00  0.00    -0.237 OA
ATOM     89  O   UNL     1      -6.654   8.495   7.386  1.00  0.00    -0.744 OA
ENDBRANCH  82  86
ENDBRANCH  55  79
BRANCH  67  90
ATOM     90  C   UNL     1       0.307  13.647   2.484  1.00  0.00     0.023 A 
ATOM     91  C   UNL     1       1.211  14.607   2.003  1.00  0.00     0.031 A 
ATOM     92  C   UNL     1       0.818  12.609   3.285  1.00  0.00     0.131 A 
ATOM     93  C   UNL     1       2.577  14.490   2.276  1.00  0.00     0.055 A 
ATOM     94  C   UNL     1       2.177  12.530   3.610  1.00  0.00     0.041 A 
ATOM     95  F   UNL     1       0.039  11.601   3.701  1.00  0.00    -0.206 F 
ATOM     96  C   UNL     1       3.067  13.463   3.088  1.00  0.00     0.022 A 
BRANCH  93  97
ATOM     97  S   UNL     1       3.760  15.590   1.460  1.00  0.00     0.124 S 
ATOM     98  O   UNL     1       4.425  16.226   2.593  1.00  0.00    -0.237 OA
ATOM     99  O   UNL     1       4.580  14.650   0.698  1.00  0.00    -0.237 OA
ATOM    100  O   UNL     1       2.924  16.475   0.653  1.00  0.00    -0.744 OA
ENDBRANCH  93  97
ENDBRANCH  67  90
ENDBRANCH  41  42
ENDBRANCH  34  36
ENDBRANCH  33  34
ENDBRANCH  32  33
ENDBRANCH  31  32
ENDBRANCH  30  31
ENDBRANCH  29  30
ENDBRANCH  28  29
ENDBRANCH   1  28
TORSDOF 26
