REMARK SMILES O=C(OCCOCCOCCOCCOC(=O)[C@@H]([NH2+]CC1CC1)c1cccc(C2CC2)c1)c1ccc(-c2c3nc(c(-c4cc(S(=O)(=O)[O-])ccc4F)c4ccc([nH]4)c(-c4cc(S(=O)(=O)[O-])ccc4F)c4nc(c(-c5cc(S(=O)(=O)[O-])ccc5F)c5ccc2[nH]5)C=C4)C=C3)cc1
REMARK SMILES IDX 9 1 8 2 7 3 6 4 5 5 4 6 3 7 2 8 1 9 33 10 34 11 95 12 35 13
REMARK SMILES IDX 94 14 36 15 37 16 38 17 88 18 39 19 93 20 87 21 89 22 40 23
REMARK SMILES IDX 92 24 86 25 85 26 41 28 73 29 53 30 72 31 54 32 57 33 71 34
REMARK SMILES IDX 90 35 55 36 56 37 70 39 91 40 58 41 42 42 43 43 51 44 44 45
REMARK SMILES IDX 50 46 52 47 49 48 45 49 46 50 47 51 48 52 74 53 75 54 83 55
REMARK SMILES IDX 76 56 82 57 84 58 81 59 77 60 78 61 79 62 80 63 59 64 60 65
REMARK SMILES IDX 68 66 61 67 67 68 69 69 66 70 62 71 63 72 64 73 65 74 10 75
REMARK SMILES IDX 11 76 12 77 13 78 14 79 15 80 16 81 17 82 18 83 19 84 20 87
REMARK SMILES IDX 21 88 22 89 23 90 24 91 25 92 32 93 26 94 28 95 27 96 29 97
REMARK SMILES IDX 30 98 31 99
REMARK H PARENT 89 27 57 38 19 85 19 86
REMARK Flexibility Score: inf
ROOT
ATOM      1  O   UNL     1       3.597   0.864  -3.580  1.00  0.00    -0.377 OA
ENDROOT
BRANCH   1   2
ATOM      2  C   UNL     1       2.484   0.837  -2.696  1.00  0.00     0.188 C 
BRANCH   2   3
ATOM      3  C   UNL     1       2.677  -0.035  -1.469  1.00  0.00     0.188 C 
BRANCH   3   4
ATOM      4  O   UNL     1       3.961   0.187  -0.927  1.00  0.00    -0.376 OA
BRANCH   4   5
ATOM      5  C   UNL     1       4.701  -0.832  -0.294  1.00  0.00     0.202 C 
BRANCH   5   6
ATOM      6  C   UNL     1       3.934  -1.946   0.386  1.00  0.00     0.261 C 
BRANCH   6   7
ATOM      7  O   UNL     1       2.570  -1.688   0.804  1.00  0.00    -0.460 OA
BRANCH   7   8
ATOM      8  C   UNL     1       1.944  -0.754   1.553  1.00  0.00     0.338 C 
ATOM      9  O   UNL     1       0.721  -0.790   1.654  1.00  0.00    -0.246 OA
BRANCH   8  10
ATOM     10  C   UNL     1       2.667   0.281   2.320  1.00  0.00     0.060 A 
ATOM     11  C   UNL     1       3.595   1.145   1.761  1.00  0.00     0.016 A 
ATOM     12  C   UNL     1       2.295   0.498   3.647  1.00  0.00     0.016 A 
ATOM     13  C   UNL     1       4.397   1.943   2.543  1.00  0.00     0.010 A 
ATOM     14  C   UNL     1       2.973   1.449   4.417  1.00  0.00     0.010 A 
ATOM     15  C   UNL     1       4.098   2.097   3.886  1.00  0.00    -0.014 A 
BRANCH  15  16
ATOM     16  C   UNL     1       5.100   2.771   4.731  1.00  0.00     0.031 A 
ATOM     17  C   UNL     1       5.795   1.931   5.763  1.00  0.00     0.074 A 
ATOM     18  C   UNL     1       5.498   4.026   4.449  1.00  0.00     0.049 A 
ATOM     19  N   UNL     1       6.617   2.287   6.709  1.00  0.00    -0.248 NA
ATOM     20  C   UNL     1       5.517   0.484   5.724  1.00  0.00     0.031 C 
ATOM     21  C   UNL     1       5.005   4.842   3.332  1.00  0.00     0.029 A 
ATOM     22  N   UNL     1       6.446   4.817   5.035  1.00  0.00    -0.354 N 
ATOM     23  C   UNL     1       6.893   1.122   7.419  1.00  0.00     0.074 A 
ATOM     24  C   UNL     1       6.146   0.053   6.803  1.00  0.00     0.031 C 
ATOM     25  C   UNL     1       5.699   5.989   3.282  1.00  0.00     0.029 A 
ATOM     26  C   UNL     1       6.585   6.048   4.434  1.00  0.00     0.049 A 
ATOM     27  H   UNL     1       6.979   4.534   5.813  1.00  0.00     0.167 HD
ATOM     28  C   UNL     1       7.695   0.980   8.499  1.00  0.00     0.034 A 
ATOM     29  C   UNL     1       7.308   7.116   4.818  1.00  0.00     0.034 A 
ATOM     30  C   UNL     1       8.435   2.087   9.048  1.00  0.00     0.049 A 
ATOM     31  C   UNL     1       8.103   6.970   6.091  1.00  0.00     0.074 A 
ATOM     32  C   UNL     1       9.223   2.132  10.181  1.00  0.00     0.029 A 
ATOM     33  N   UNL     1       8.475   3.359   8.480  1.00  0.00    -0.354 N 
ATOM     34  N   UNL     1       8.255   5.907   6.852  1.00  0.00    -0.248 NA
ATOM     35  C   UNL     1       8.808   8.162   6.567  1.00  0.00     0.031 C 
ATOM     36  C   UNL     1       9.676   3.447  10.337  1.00  0.00     0.029 A 
ATOM     37  C   UNL     1       9.252   4.202   9.252  1.00  0.00     0.049 A 
ATOM     38  H   UNL     1       8.016   3.619   7.649  1.00  0.00     0.167 HD
ATOM     39  C   UNL     1       9.099   6.296   7.886  1.00  0.00     0.074 A 
ATOM     40  C   UNL     1       9.436   7.686   7.632  1.00  0.00     0.031 C 
ATOM     41  C   UNL     1       9.556   5.583   8.949  1.00  0.00     0.034 A 
BRANCH  28  42
ATOM     42  C   UNL     1       7.680  -0.362   9.191  1.00  0.00     0.023 A 
ATOM     43  C   UNL     1       8.103  -1.545   8.559  1.00  0.00     0.031 A 
ATOM     44  C   UNL     1       7.103  -0.473  10.469  1.00  0.00     0.131 A 
ATOM     45  C   UNL     1       7.851  -2.789   9.161  1.00  0.00     0.055 A 
ATOM     46  C   UNL     1       6.941  -1.707  11.103  1.00  0.00     0.041 A 
ATOM     47  F   UNL     1       6.643   0.614  11.109  1.00  0.00    -0.206 F 
ATOM     48  C   UNL     1       7.297  -2.877  10.440  1.00  0.00     0.022 A 
BRANCH  45  49
ATOM     49  S   UNL     1       8.077  -4.298   8.174  1.00  0.00     0.124 S 
ATOM     50  O   UNL     1       7.148  -4.069   7.070  1.00  0.00    -0.237 OA
ATOM     51  O   UNL     1       9.497  -4.241   7.832  1.00  0.00    -0.237 OA
ATOM     52  O   UNL     1       7.699  -5.369   9.089  1.00  0.00    -0.744 OA
ENDBRANCH  45  49
ENDBRANCH  28  42
BRANCH  29  53
ATOM     53  C   UNL     1       7.245   8.407   4.069  1.00  0.00     0.023 A 
ATOM     54  C   UNL     1       8.403   9.010   3.554  1.00  0.00     0.031 A 
ATOM     55  C   UNL     1       6.026   9.093   3.901  1.00  0.00     0.131 A 
ATOM     56  C   UNL     1       8.327  10.273   2.942  1.00  0.00     0.055 A 
ATOM     57  C   UNL     1       5.945  10.318   3.235  1.00  0.00     0.041 A 
ATOM     58  F   UNL     1       4.882   8.578   4.380  1.00  0.00    -0.206 F 
ATOM     59  C   UNL     1       7.104  10.923   2.764  1.00  0.00     0.022 A 
BRANCH  56  60
ATOM     60  S   UNL     1       9.866  11.111   2.473  1.00  0.00     0.124 S 
ATOM     61  O   UNL     1      10.586  11.139   3.745  1.00  0.00    -0.237 OA
ATOM     62  O   UNL     1      10.401  10.211   1.456  1.00  0.00    -0.237 OA
ATOM     63  O   UNL     1       9.415  12.407   1.983  1.00  0.00    -0.744 OA
ENDBRANCH  56  60
ENDBRANCH  29  53
BRANCH  41  64
ATOM     64  C   UNL     1      10.519   6.293   9.862  1.00  0.00     0.023 A 
ATOM     65  C   UNL     1      10.125   7.393  10.639  1.00  0.00     0.031 A 
ATOM     66  C   UNL     1      11.855   5.864   9.937  1.00  0.00     0.131 A 
ATOM     67  C   UNL     1      11.079   8.076  11.404  1.00  0.00     0.055 A 
ATOM     68  C   UNL     1      12.781   6.499  10.762  1.00  0.00     0.041 A 
ATOM     69  F   UNL     1      12.280   4.818   9.210  1.00  0.00    -0.206 F 
ATOM     70  C   UNL     1      12.398   7.623  11.488  1.00  0.00     0.022 A 
BRANCH  67  71
ATOM     71  S   UNL     1      10.599   9.639  12.185  1.00  0.00     0.124 S 
ATOM     72  O   UNL     1      10.143  10.421  11.040  1.00  0.00    -0.237 OA
ATOM     73  O   UNL     1       9.563   9.215  13.121  1.00  0.00    -0.237 OA
ATOM     74  O   UNL     1      11.838  10.107  12.802  1.00  0.00    -0.744 OA
ENDBRANCH  67  71
ENDBRANCH  41  64
ENDBRANCH  15  16
ENDBRANCH   8  10
ENDBRANCH   7   8
ENDBRANCH   6   7
ENDBRANCH   5   6
ENDBRANCH   4   5
ENDBRANCH   3   4
ENDBRANCH   2   3
ENDBRANCH   1   2
BRANCH   1  75
ATOM     75  C   UNL     1       4.896   1.236  -3.079  1.00  0.00     0.188 C 
BRANCH  75  76
ATOM     76  C   UNL     1       5.086   2.562  -2.322  1.00  0.00     0.188 C 
BRANCH  76  77
ATOM     77  O   UNL     1       3.905   3.025  -1.705  1.00  0.00    -0.376 OA
BRANCH  77  78
ATOM     78  C   UNL     1       3.319   4.200  -2.241  1.00  0.00     0.202 C 
BRANCH  78  79
ATOM     79  C   UNL     1       3.064   4.373  -3.760  1.00  0.00     0.261 C 
BRANCH  79  80
ATOM     80  O   UNL     1       3.411   3.299  -4.655  1.00  0.00    -0.459 OA
BRANCH  80  81
ATOM     81  C   UNL     1       4.561   3.455  -5.378  1.00  0.00     0.369 C 
ATOM     82  O   UNL     1       5.310   4.423  -5.249  1.00  0.00    -0.245 OA
BRANCH  81  83
ATOM     83  C   UNL     1       4.822   2.341  -6.444  1.00  0.00     0.324 C 
BRANCH  83  84
ATOM     84  N   UNL     1       4.468   1.011  -5.964  1.00  0.00    -0.330 N 
ATOM     85  H   UNL     1       3.453   0.954  -6.040  1.00  0.00     0.347 HD
ATOM     86  H   UNL     1       4.934   1.009  -5.057  1.00  0.00     0.347 HD
BRANCH  84  87
ATOM     87  C   UNL     1       4.967  -0.216  -6.522  1.00  0.00     0.264 C 
BRANCH  87  88
ATOM     88  C   UNL     1       6.445  -0.344  -6.349  1.00  0.00     0.044 C 
ATOM     89  C   UNL     1       7.207  -1.382  -7.136  1.00  0.00     0.010 C 
ATOM     90  C   UNL     1       7.380   0.078  -7.450  1.00  0.00     0.010 C 
ENDBRANCH  87  88
ENDBRANCH  84  87
ENDBRANCH  83  84
BRANCH  83  91
ATOM     91  C   UNL     1       4.177   2.725  -7.756  1.00  0.00     0.021 A 
ATOM     92  C   UNL     1       4.532   3.926  -8.376  1.00  0.00     0.010 A 
ATOM     93  C   UNL     1       3.262   1.884  -8.402  1.00  0.00     0.014 A 
ATOM     94  C   UNL     1       3.990   4.258  -9.611  1.00  0.00     0.001 A 
ATOM     95  C   UNL     1       2.783   2.130  -9.693  1.00  0.00    -0.044 A 
ATOM     96  C   UNL     1       3.143   3.359 -10.267  1.00  0.00     0.004 A 
BRANCH  95  97
ATOM     97  C   UNL     1       1.972   1.099 -10.454  1.00  0.00     0.019 C 
ATOM     98  C   UNL     1       2.157  -0.381 -10.172  1.00  0.00     0.009 C 
ATOM     99  C   UNL     1       0.880   0.305  -9.780  1.00  0.00     0.009 C 
ENDBRANCH  95  97
ENDBRANCH  83  91
ENDBRANCH  81  83
ENDBRANCH  80  81
ENDBRANCH  79  80
ENDBRANCH  78  79
ENDBRANCH  77  78
ENDBRANCH  76  77
ENDBRANCH  75  76
ENDBRANCH   1  75
TORSDOF 28
