REMARK SMILES CCCc1cc(OC(F)(F)F)cc2c1O[C@@H](C(F)(F)F)C(C(=O)OCCOCCOCCOCCOC(=O)c1ccc(-c3c4nc(c(-c5cc(S(=O)(=O)[O-])ccc5F)c5ccc([nH]5)c(-c5cc(S(=O)(=O)[O-])ccc5F)c5nc(c(-c6cc(S(=O)(=O)[O-])ccc6F)c6ccc3[nH]6)C=C5)C=C4)cc1)=C2
REMARK SMILES IDX 31 1 30 2 29 3 28 4 27 5 26 6 25 7 24 8 22 9 23 10 21 11
REMARK SMILES IDX 4 12 5 13 14 14 6 15 13 16 15 17 12 18 102 19 16 20 3 21
REMARK SMILES IDX 2 22 1 23 7 24 8 25 9 26 10 27 11 28 17 29 18 30 19 31 20 32
REMARK SMILES IDX 32 33 33 34 34 35 35 36 36 37 37 38 38 39 39 40 40 41 101 42
REMARK SMILES IDX 41 43 100 44 42 45 43 46 44 47 94 48 45 49 99 50 93 51 95 52
REMARK SMILES IDX 46 53 98 54 92 55 91 56 47 58 79 59 59 60 78 61 60 62 63 63
REMARK SMILES IDX 77 64 96 65 61 66 62 67 76 69 97 70 64 71 48 72 49 73 57 74
REMARK SMILES IDX 50 75 56 76 58 77 55 78 51 79 52 80 53 81 54 82 80 83 81 84
REMARK SMILES IDX 89 85 82 86 88 87 90 88 87 89 83 90 84 91 85 92 86 93 65 94
REMARK SMILES IDX 66 95 74 96 67 97 73 98 75 99 72 100 68 101 69 102 70 103
REMARK SMILES IDX 71 104
REMARK H PARENT 95 57 63 68
REMARK Flexibility Score: inf
ROOT
ATOM      1  C   UNL     1      -1.781 -10.348   3.628  1.00  0.00     0.188 C 
ENDROOT
BRANCH   1   2
ATOM      2  O   UNL     1      -1.121  -9.124   3.308  1.00  0.00    -0.377 OA
BRANCH   2   3
ATOM      3  C   UNL     1      -0.912  -8.801   1.948  1.00  0.00     0.188 C 
BRANCH   3   4
ATOM      4  C   UNL     1       0.148  -9.663   1.242  1.00  0.00     0.188 C 
BRANCH   4   5
ATOM      5  O   UNL     1       0.664 -10.719   2.048  1.00  0.00    -0.376 OA
BRANCH   5   6
ATOM      6  C   UNL     1       1.974 -10.532   2.570  1.00  0.00     0.202 C 
BRANCH   6   7
ATOM      7  C   UNL     1       2.081  -9.503   3.703  1.00  0.00     0.261 C 
BRANCH   7   8
ATOM      8  O   UNL     1       1.724  -8.165   3.318  1.00  0.00    -0.460 OA
BRANCH   8   9
ATOM      9  C   UNL     1       2.497  -7.545   2.402  1.00  0.00     0.338 C 
ATOM     10  O   UNL     1       3.515  -7.979   1.895  1.00  0.00    -0.246 OA
BRANCH   9  11
ATOM     11  C   UNL     1       1.836  -6.296   1.984  1.00  0.00     0.087 C 
ATOM     12  C   UNL     1       0.464  -2.564   0.690  1.00  0.00    -0.002 A 
ATOM     13  C   UNL     1      -0.326  -1.800   1.564  1.00  0.00     0.054 A 
ATOM     14  C   UNL     1       0.935  -3.805   1.147  1.00  0.00     0.131 A 
ATOM     15  C   UNL     1      -0.568  -2.221   2.877  1.00  0.00     0.130 A 
ATOM     16  C   UNL     1       0.688  -4.246   2.456  1.00  0.00     0.021 A 
ATOM     17  O   UNL     1       1.701  -4.549   0.281  1.00  0.00    -0.475 OA
ATOM     18  C   UNL     1      -0.076  -3.454   3.313  1.00  0.00     0.058 A 
ATOM     19  C   UNL     1       1.318  -5.479   2.918  1.00  0.00     0.027 C 
ATOM     20  C   UNL     1       1.657  -5.982   0.519  1.00  0.00     0.316 C 
BRANCH  12  21
ATOM     21  C   UNL     1       0.809  -2.123  -0.719  1.00  0.00     0.039 C 
BRANCH  21  22
ATOM     22  C   UNL     1       0.496  -0.681  -1.137  1.00  0.00     0.001 C 
ATOM     23  C   UNL     1       1.372   0.355  -0.445  1.00  0.00     0.004 C 
ENDBRANCH  21  22
ENDBRANCH  12  21
BRANCH  15  24
ATOM     24  O   UNL     1      -1.271  -1.515   3.813  1.00  0.00    -0.406 OA
BRANCH  24  25
ATOM     25  C   UNL     1      -1.277  -0.103   3.667  1.00  0.00     0.573 C 
ATOM     26  F   UNL     1      -0.038   0.379   3.425  1.00  0.00    -0.132 F 
ATOM     27  F   UNL     1      -2.104   0.273   2.666  1.00  0.00    -0.132 F 
ATOM     28  F   UNL     1      -1.726   0.456   4.812  1.00  0.00    -0.132 F 
ENDBRANCH  24  25
ENDBRANCH  15  24
BRANCH  20  29
ATOM     29  C   UNL     1       2.578  -6.658  -0.510  1.00  0.00     0.430 C 
ATOM     30  F   UNL     1       2.413  -8.000  -0.534  1.00  0.00    -0.167 F 
ATOM     31  F   UNL     1       2.260  -6.230  -1.764  1.00  0.00    -0.167 F 
ATOM     32  F   UNL     1       3.883  -6.382  -0.321  1.00  0.00    -0.167 F 
ENDBRANCH  20  29
ENDBRANCH   9  11
ENDBRANCH   8   9
ENDBRANCH   7   8
ENDBRANCH   6   7
ENDBRANCH   5   6
ENDBRANCH   4   5
ENDBRANCH   3   4
ENDBRANCH   2   3
ENDBRANCH   1   2
BRANCH   1  33
ATOM     33  C   UNL     1      -2.130 -11.406   2.557  1.00  0.00     0.188 C 
BRANCH  33  34
ATOM     34  O   UNL     1      -2.582 -10.871   1.314  1.00  0.00    -0.376 OA
BRANCH  34  35
ATOM     35  C   UNL     1      -3.962 -11.044   1.020  1.00  0.00     0.202 C 
BRANCH  35  36
ATOM     36  C   UNL     1      -4.858 -10.018   1.723  1.00  0.00     0.261 C 
BRANCH  36  37
ATOM     37  O   UNL     1      -4.877 -10.125   3.154  1.00  0.00    -0.460 OA
BRANCH  37  38
ATOM     38  C   UNL     1      -5.317 -11.298   3.664  1.00  0.00     0.338 C 
ATOM     39  O   UNL     1      -5.759 -12.247   3.042  1.00  0.00    -0.246 OA
BRANCH  38  40
ATOM     40  C   UNL     1      -4.992 -11.316   5.103  1.00  0.00     0.060 A 
ATOM     41  C   UNL     1      -4.249 -12.388   5.611  1.00  0.00     0.016 A 
ATOM     42  C   UNL     1      -5.417 -10.280   5.939  1.00  0.00     0.016 A 
ATOM     43  C   UNL     1      -3.970 -12.451   6.976  1.00  0.00     0.010 A 
ATOM     44  C   UNL     1      -5.151 -10.353   7.307  1.00  0.00     0.010 A 
ATOM     45  C   UNL     1      -4.461 -11.458   7.835  1.00  0.00    -0.014 A 
BRANCH  45  46
ATOM     46  C   UNL     1      -4.457 -11.690   9.298  1.00  0.00     0.031 A 
ATOM     47  C   UNL     1      -5.686 -12.299   9.916  1.00  0.00     0.074 A 
ATOM     48  C   UNL     1      -3.390 -11.382  10.056  1.00  0.00     0.049 A 
ATOM     49  N   UNL     1      -5.940 -12.575  11.168  1.00  0.00    -0.248 NA
ATOM     50  C   UNL     1      -6.779 -12.634   8.990  1.00  0.00     0.031 C 
ATOM     51  C   UNL     1      -2.136 -10.817   9.561  1.00  0.00     0.029 A 
ATOM     52  N   UNL     1      -3.199 -11.497  11.409  1.00  0.00    -0.354 N 
ATOM     53  C   UNL     1      -7.218 -13.123  11.180  1.00  0.00     0.074 A 
ATOM     54  C   UNL     1      -7.703 -13.097   9.817  1.00  0.00     0.031 C 
ATOM     55  C   UNL     1      -1.307 -10.624  10.603  1.00  0.00     0.029 A 
ATOM     56  C   UNL     1      -1.981 -11.024  11.837  1.00  0.00     0.049 A 
ATOM     57  H   UNL     1      -3.871 -11.882  12.017  1.00  0.00     0.167 HD
ATOM     58  C   UNL     1      -7.920 -13.614  12.230  1.00  0.00     0.034 A 
ATOM     59  C   UNL     1      -1.482 -10.911  13.085  1.00  0.00     0.034 A 
ATOM     60  C   UNL     1      -7.437 -13.606  13.588  1.00  0.00     0.049 A 
ATOM     61  C   UNL     1      -2.317 -11.386  14.252  1.00  0.00     0.074 A 
ATOM     62  C   UNL     1      -8.061 -14.075  14.730  1.00  0.00     0.029 A 
ATOM     63  N   UNL     1      -6.213 -13.086  13.990  1.00  0.00    -0.354 N 
ATOM     64  N   UNL     1      -3.517 -11.921  14.251  1.00  0.00    -0.248 NA
ATOM     65  C   UNL     1      -1.722 -11.252  15.588  1.00  0.00     0.031 C 
ATOM     66  C   UNL     1      -7.246 -13.778  15.828  1.00  0.00     0.029 A 
ATOM     67  C   UNL     1      -6.077 -13.194  15.366  1.00  0.00     0.049 A 
ATOM     68  H   UNL     1      -5.539 -12.697  13.386  1.00  0.00     0.167 HD
ATOM     69  C   UNL     1      -3.804 -12.215  15.582  1.00  0.00     0.074 A 
ATOM     70  C   UNL     1      -2.647 -11.812  16.354  1.00  0.00     0.031 C 
ATOM     71  C   UNL     1      -4.919 -12.774  16.121  1.00  0.00     0.034 A 
BRANCH  58  72
ATOM     72  C   UNL     1      -9.303 -14.144  11.942  1.00  0.00     0.023 A 
ATOM     73  C   UNL     1      -9.506 -15.268  11.120  1.00  0.00     0.031 A 
ATOM     74  C   UNL     1     -10.436 -13.487  12.452  1.00  0.00     0.131 A 
ATOM     75  C   UNL     1     -10.809 -15.654  10.773  1.00  0.00     0.055 A 
ATOM     76  C   UNL     1     -11.731 -13.925  12.167  1.00  0.00     0.041 A 
ATOM     77  F   UNL     1     -10.304 -12.394  13.220  1.00  0.00    -0.206 F 
ATOM     78  C   UNL     1     -11.924 -15.005  11.310  1.00  0.00     0.022 A 
BRANCH  75  79
ATOM     79  S   UNL     1     -11.027 -16.921   9.493  1.00  0.00     0.124 S 
ATOM     80  O   UNL     1     -10.341 -16.312   8.355  1.00  0.00    -0.237 OA
ATOM     81  O   UNL     1     -10.374 -18.083  10.085  1.00  0.00    -0.237 OA
ATOM     82  O   UNL     1     -12.478 -17.023   9.354  1.00  0.00    -0.744 OA
ENDBRANCH  75  79
ENDBRANCH  58  72
BRANCH  59  83
ATOM     83  C   UNL     1      -0.145 -10.293  13.315  1.00  0.00     0.023 A 
ATOM     84  C   UNL     1       0.914 -11.033  13.864  1.00  0.00     0.031 A 
ATOM     85  C   UNL     1       0.072  -8.930  13.048  1.00  0.00     0.131 A 
ATOM     86  C   UNL     1       2.126 -10.395  14.175  1.00  0.00     0.055 A 
ATOM     87  C   UNL     1       1.296  -8.311  13.312  1.00  0.00     0.041 A 
ATOM     88  F   UNL     1      -0.907  -8.176  12.524  1.00  0.00    -0.206 F 
ATOM     89  C   UNL     1       2.327  -9.042  13.892  1.00  0.00     0.022 A 
BRANCH  86  90
ATOM     90  S   UNL     1       3.412 -11.343  15.036  1.00  0.00     0.124 S 
ATOM     91  O   UNL     1       2.716 -11.753  16.250  1.00  0.00    -0.237 OA
ATOM     92  O   UNL     1       3.703 -12.400  14.074  1.00  0.00    -0.237 OA
ATOM     93  O   UNL     1       4.482 -10.367  15.228  1.00  0.00    -0.744 OA
ENDBRANCH  86  90
ENDBRANCH  59  83
BRANCH  71  94
ATOM     94  C   UNL     1      -4.913 -13.022  17.610  1.00  0.00     0.023 A 
ATOM     95  C   UNL     1      -4.899 -11.966  18.538  1.00  0.00     0.031 A 
ATOM     96  C   UNL     1      -4.906 -14.338  18.107  1.00  0.00     0.131 A 
ATOM     97  C   UNL     1      -4.819 -12.243  19.912  1.00  0.00     0.055 A 
ATOM     98  C   UNL     1      -4.888 -14.608  19.475  1.00  0.00     0.041 A 
ATOM     99  F   UNL     1      -4.918 -15.385  17.266  1.00  0.00    -0.206 F 
ATOM    100  C   UNL     1      -4.829 -13.558  20.386  1.00  0.00     0.022 A 
BRANCH  97 101
ATOM    101  S   UNL     1      -4.600 -10.863  21.069  1.00  0.00     0.124 S 
ATOM    102  O   UNL     1      -3.381 -10.236  20.567  1.00  0.00    -0.237 OA
ATOM    103  O   UNL     1      -5.831 -10.103  20.883  1.00  0.00    -0.237 OA
ATOM    104  O   UNL     1      -4.469 -11.521  22.367  1.00  0.00    -0.744 OA
ENDBRANCH  97 101
ENDBRANCH  71  94
ENDBRANCH  45  46
ENDBRANCH  38  40
ENDBRANCH  37  38
ENDBRANCH  36  37
ENDBRANCH  35  36
ENDBRANCH  34  35
ENDBRANCH  33  34
ENDBRANCH   1  33
TORSDOF 28
