REMARK SMILES Cc1[nH]c2c(C(=O)N3CC[C@H](O)C[C@@H]3C(=O)OCCOCCOCCOCCOC(=O)c3ccc(-c4c5nc(c(-c6cc(S(=O)(=O)[O-])ccc6F)c6ccc([nH]6)c(-c6cc(S(=O)(=O)[O-])ccc6F)c6nc(c(-c7cc(S(=O)(=O)[O-])ccc7F)c7ccc4[nH]7)C=C6)C=C5)cc3)cccc2c1C
REMARK SMILES IDX 24 1 23 2 22 3 21 4 20 5 19 6 18 7 17 8 15 9 16 10 14 11
REMARK SMILES IDX 8 12 9 13 10 14 13 15 11 16 6 17 7 18 5 19 1 20 2 21 3 22
REMARK SMILES IDX 99 23 4 24 98 26 100 27 97 28 95 29 96 30 12 31 25 33 26 34
REMARK SMILES IDX 27 35 28 36 29 37 30 38 31 39 32 40 33 41 94 42 34 43 93 44
REMARK SMILES IDX 35 45 36 46 37 47 87 48 38 49 92 50 86 51 88 52 39 53 91 54
REMARK SMILES IDX 85 55 84 56 40 58 72 59 52 60 71 61 53 62 56 63 70 64 89 65
REMARK SMILES IDX 54 66 55 67 69 69 90 70 57 71 41 72 42 73 50 74 43 75 49 76
REMARK SMILES IDX 51 77 48 78 44 79 45 80 46 81 47 82 73 83 74 84 82 85 75 86
REMARK SMILES IDX 81 87 83 88 80 89 76 90 77 91 78 92 79 93 58 94 59 95 67 96
REMARK SMILES IDX 60 97 66 98 68 99 65 100 61 101 62 102 63 103 64 104
REMARK H PARENT 3 25 12 32 88 57 56 68
REMARK Flexibility Score: inf
ROOT
ATOM      1  C   UNL     1      -3.651  -6.812   1.138  1.00  0.00     0.188 C 
ENDROOT
BRANCH   1   2
ATOM      2  O   UNL     1      -2.308  -6.531   1.556  1.00  0.00    -0.377 OA
BRANCH   2   3
ATOM      3  C   UNL     1      -1.980  -6.671   2.938  1.00  0.00     0.188 C 
BRANCH   3   4
ATOM      4  C   UNL     1      -2.285  -5.489   3.860  1.00  0.00     0.188 C 
BRANCH   4   5
ATOM      5  O   UNL     1      -3.589  -4.965   3.746  1.00  0.00    -0.376 OA
BRANCH   5   6
ATOM      6  C   UNL     1      -3.838  -3.939   2.793  1.00  0.00     0.202 C 
BRANCH   6   7
ATOM      7  C   UNL     1      -2.719  -3.196   2.037  1.00  0.00     0.261 C 
BRANCH   7   8
ATOM      8  O   UNL     1      -1.758  -3.982   1.290  1.00  0.00    -0.462 OA
BRANCH   8   9
ATOM      9  C   UNL     1      -0.456  -3.845   1.673  1.00  0.00     0.329 C 
ATOM     10  O   UNL     1      -0.113  -3.159   2.636  1.00  0.00    -0.250 OA
BRANCH   9  11
ATOM     11  C   UNL     1       0.595  -4.417   0.701  1.00  0.00     0.198 C 
ATOM     12  N   UNL     1       0.873  -3.406  -0.318  1.00  0.00    -0.325 N 
ATOM     13  C   UNL     1       0.228  -3.526  -1.626  1.00  0.00     0.123 C 
ATOM     14  C   UNL     1       0.428  -4.928  -2.191  1.00  0.00     0.053 C 
ATOM     15  C   UNL     1       0.529  -5.839   0.158  1.00  0.00     0.069 C 
ATOM     16  C   UNL     1      -0.125  -5.962  -1.213  1.00  0.00     0.118 C 
BRANCH  12  17
ATOM     17  C   UNL     1       1.921  -2.536  -0.072  1.00  0.00     0.256 C 
ATOM     18  O   UNL     1       3.002  -2.943   0.353  1.00  0.00    -0.269 OA
BRANCH  17  19
ATOM     19  C   UNL     1       1.681  -1.074  -0.182  1.00  0.00     0.064 A 
ATOM     20  C   UNL     1      -3.263  -0.372  -0.277  1.00  0.00     0.064 C 
ATOM     21  C   UNL     1      -1.820  -0.033  -0.167  1.00  0.00     0.016 A 
ATOM     22  N   UNL     1      -0.859  -1.004  -0.088  1.00  0.00    -0.358 N 
ATOM     23  C   UNL     1      -1.173   1.186  -0.107  1.00  0.00    -0.023 A 
ATOM     24  C   UNL     1       0.406  -0.471  -0.150  1.00  0.00     0.059 A 
ATOM     25  H   UNL     1      -1.051  -1.965   0.003  1.00  0.00     0.166 HD
ATOM     26  C   UNL     1       0.235   0.916  -0.119  1.00  0.00     0.003 A 
ATOM     27  C   UNL     1      -1.812   2.527  -0.069  1.00  0.00     0.047 C 
ATOM     28  C   UNL     1       1.381   1.738  -0.103  1.00  0.00     0.010 A 
ATOM     29  C   UNL     1       2.798  -0.222  -0.166  1.00  0.00     0.016 A 
ATOM     30  C   UNL     1       2.654   1.161  -0.127  1.00  0.00     0.002 A 
ENDBRANCH  17  19
ENDBRANCH  12  17
BRANCH  16  31
ATOM     31  O   UNL     1      -1.530  -5.789  -1.115  1.00  0.00    -0.393 OA
ATOM     32  H   UNL     1      -1.724  -4.899  -0.782  1.00  0.00     0.210 HD
ENDBRANCH  16  31
ENDBRANCH   9  11
ENDBRANCH   8   9
ENDBRANCH   7   8
ENDBRANCH   6   7
ENDBRANCH   5   6
ENDBRANCH   4   5
ENDBRANCH   3   4
ENDBRANCH   2   3
ENDBRANCH   1   2
BRANCH   1  33
ATOM     33  C   UNL     1      -4.489  -7.755   1.998  1.00  0.00     0.188 C 
BRANCH  33  34
ATOM     34  O   UNL     1      -3.923  -9.029   2.313  1.00  0.00    -0.376 OA
BRANCH  34  35
ATOM     35  C   UNL     1      -2.958  -9.597   1.431  1.00  0.00     0.202 C 
BRANCH  35  36
ATOM     36  C   UNL     1      -3.534 -10.400   0.269  1.00  0.00     0.261 C 
BRANCH  36  37
ATOM     37  O   UNL     1      -4.154  -9.557  -0.712  1.00  0.00    -0.460 OA
BRANCH  37  38
ATOM     38  C   UNL     1      -5.500  -9.455  -0.599  1.00  0.00     0.338 C 
ATOM     39  O   UNL     1      -6.209  -9.986   0.234  1.00  0.00    -0.246 OA
BRANCH  38  40
ATOM     40  C   UNL     1      -6.002  -8.479  -1.582  1.00  0.00     0.060 A 
ATOM     41  C   UNL     1      -6.947  -7.538  -1.153  1.00  0.00     0.016 A 
ATOM     42  C   UNL     1      -5.627  -8.554  -2.925  1.00  0.00     0.016 A 
ATOM     43  C   UNL     1      -7.572  -6.712  -2.083  1.00  0.00     0.010 A 
ATOM     44  C   UNL     1      -6.257  -7.729  -3.856  1.00  0.00     0.010 A 
ATOM     45  C   UNL     1      -7.265  -6.839  -3.443  1.00  0.00    -0.014 A 
BRANCH  45  46
ATOM     46  C   UNL     1      -8.124  -6.185  -4.455  1.00  0.00     0.031 A 
ATOM     47  C   UNL     1      -9.167  -7.015  -5.153  1.00  0.00     0.074 A 
ATOM     48  C   UNL     1      -7.986  -4.877  -4.730  1.00  0.00     0.049 A 
ATOM     49  N   UNL     1      -9.976  -6.688  -6.126  1.00  0.00    -0.248 NA
ATOM     50  C   UNL     1      -9.308  -8.405  -4.692  1.00  0.00     0.031 C 
ATOM     51  C   UNL     1      -7.045  -3.973  -4.071  1.00  0.00     0.029 A 
ATOM     52  N   UNL     1      -8.634  -4.085  -5.643  1.00  0.00    -0.354 N 
ATOM     53  C   UNL     1     -10.719  -7.832  -6.399  1.00  0.00     0.074 A 
ATOM     54  C   UNL     1     -10.233  -8.871  -5.517  1.00  0.00     0.031 C 
ATOM     55  C   UNL     1      -7.172  -2.748  -4.608  1.00  0.00     0.029 A 
ATOM     56  C   UNL     1      -8.165  -2.794  -5.679  1.00  0.00     0.049 A 
ATOM     57  H   UNL     1      -9.364  -4.411  -6.217  1.00  0.00     0.167 HD
ATOM     58  C   UNL     1     -11.721  -7.995  -7.298  1.00  0.00     0.034 A 
ATOM     59  C   UNL     1      -8.484  -1.778  -6.506  1.00  0.00     0.034 A 
ATOM     60  C   UNL     1     -12.175  -6.946  -8.178  1.00  0.00     0.049 A 
ATOM     61  C   UNL     1      -9.530  -2.011  -7.571  1.00  0.00     0.074 A 
ATOM     62  C   UNL     1     -13.179  -6.991  -9.129  1.00  0.00     0.029 A 
ATOM     63  N   UNL     1     -11.643  -5.662  -8.223  1.00  0.00    -0.354 N 
ATOM     64  N   UNL     1     -10.223  -3.098  -7.827  1.00  0.00    -0.248 NA
ATOM     65  C   UNL     1      -9.839  -0.880  -8.453  1.00  0.00     0.031 C 
ATOM     66  C   UNL     1     -13.201  -5.764  -9.800  1.00  0.00     0.029 A 
ATOM     67  C   UNL     1     -12.274  -4.919  -9.209  1.00  0.00     0.049 A 
ATOM     68  H   UNL     1     -10.924  -5.329  -7.640  1.00  0.00     0.167 HD
ATOM     69  C   UNL     1     -11.077  -2.766  -8.877  1.00  0.00     0.074 A 
ATOM     70  C   UNL     1     -10.818  -1.377  -9.195  1.00  0.00     0.031 C 
ATOM     71  C   UNL     1     -11.996  -3.535  -9.517  1.00  0.00     0.034 A 
BRANCH  58  72
ATOM     72  C   UNL     1     -12.344  -9.366  -7.406  1.00  0.00     0.023 A 
ATOM     73  C   UNL     1     -13.034  -9.954  -6.330  1.00  0.00     0.031 A 
ATOM     74  C   UNL     1     -12.220 -10.112  -8.591  1.00  0.00     0.131 A 
ATOM     75  C   UNL     1     -13.508 -11.271  -6.437  1.00  0.00     0.055 A 
ATOM     76  C   UNL     1     -12.767 -11.390  -8.720  1.00  0.00     0.041 A 
ATOM     77  F   UNL     1     -11.549  -9.616  -9.643  1.00  0.00    -0.206 F 
ATOM     78  C   UNL     1     -13.403 -11.983  -7.634  1.00  0.00     0.022 A 
BRANCH  75  79
ATOM     79  S   UNL     1     -14.129 -12.093  -4.944  1.00  0.00     0.124 S 
ATOM     80  O   UNL     1     -12.969 -12.015  -4.061  1.00  0.00    -0.237 OA
ATOM     81  O   UNL     1     -15.269 -11.261  -4.577  1.00  0.00    -0.237 OA
ATOM     82  O   UNL     1     -14.462 -13.439  -5.407  1.00  0.00    -0.744 OA
ENDBRANCH  75  79
ENDBRANCH  58  72
BRANCH  59  83
ATOM     83  C   UNL     1      -7.789  -0.464  -6.393  1.00  0.00     0.023 A 
ATOM     84  C   UNL     1      -8.500   0.705  -6.081  1.00  0.00     0.031 A 
ATOM     85  C   UNL     1      -6.410  -0.348  -6.644  1.00  0.00     0.131 A 
ATOM     86  C   UNL     1      -7.841   1.944  -6.075  1.00  0.00     0.055 A 
ATOM     87  C   UNL     1      -5.747   0.879  -6.579  1.00  0.00     0.041 A 
ATOM     88  F   UNL     1      -5.681  -1.434  -6.948  1.00  0.00    -0.206 F 
ATOM     89  C   UNL     1      -6.467   2.037  -6.307  1.00  0.00     0.022 A 
BRANCH  86  90
ATOM     90  S   UNL     1      -8.828   3.449  -5.849  1.00  0.00     0.124 S 
ATOM     91  O   UNL     1      -9.772   3.353  -6.956  1.00  0.00    -0.237 OA
ATOM     92  O   UNL     1      -9.381   3.249  -4.514  1.00  0.00    -0.237 OA
ATOM     93  O   UNL     1      -7.842   4.522  -5.959  1.00  0.00    -0.744 OA
ENDBRANCH  86  90
ENDBRANCH  59  83
BRANCH  71  94
ATOM     94  C   UNL     1     -12.824  -2.868 -10.589  1.00  0.00     0.023 A 
ATOM     95  C   UNL     1     -12.254  -2.397 -11.784  1.00  0.00     0.031 A 
ATOM     96  C   UNL     1     -14.209  -2.698 -10.406  1.00  0.00     0.131 A 
ATOM     97  C   UNL     1     -13.053  -1.726 -12.723  1.00  0.00     0.055 A 
ATOM     98  C   UNL     1     -15.011  -2.093 -11.374  1.00  0.00     0.041 A 
ATOM     99  F   UNL     1     -14.808  -3.126  -9.283  1.00  0.00    -0.206 F 
ATOM    100  C   UNL     1     -14.431  -1.589 -12.535  1.00  0.00     0.022 A 
BRANCH  97 101
ATOM    101  S   UNL     1     -12.249  -0.942 -14.147  1.00  0.00     0.124 S 
ATOM    102  O   UNL     1     -11.312  -0.029 -13.501  1.00  0.00    -0.237 OA
ATOM    103  O   UNL     1     -11.654  -2.082 -14.837  1.00  0.00    -0.237 OA
ATOM    104  O   UNL     1     -13.355  -0.299 -14.854  1.00  0.00    -0.744 OA
ENDBRANCH  97 101
ENDBRANCH  71  94
ENDBRANCH  45  46
ENDBRANCH  38  40
ENDBRANCH  37  38
ENDBRANCH  36  37
ENDBRANCH  35  36
ENDBRANCH  34  35
ENDBRANCH  33  34
ENDBRANCH   1  33
TORSDOF 26
