REMARK SMILES Cc1ccc(-c2noc(CCC(=O)OCCOCCOCCOCCOC(=O)c3ccc(-c4c5nc(c(-c6cc(S(=O)(=O)[O-])ccc6F)c6ccc([nH]6)c(-c6cc(S(=O)(=O)[O-])ccc6F)c6nc(c(-c7cc(S(=O)(=O)[O-])ccc7F)c7ccc4[nH]7)C=C6)C=C5)cc3)n2)cc1C
REMARK SMILES IDX 20 1 19 2 18 3 17 4 16 5 15 6 14 7 12 8 13 9 11 10 10 11
REMARK SMILES IDX 9 12 6 13 7 14 92 15 8 16 5 17 1 18 2 19 3 20 94 21 4 22
REMARK SMILES IDX 93 23 95 24 21 25 22 26 23 27 24 28 25 29 26 30 27 31 28 32
REMARK SMILES IDX 29 33 30 34 91 35 31 36 90 37 32 38 33 39 34 40 84 41 35 42
REMARK SMILES IDX 89 43 83 44 85 45 36 46 88 47 82 48 81 49 37 51 69 52 49 53
REMARK SMILES IDX 68 54 50 55 53 56 67 57 86 58 51 59 52 60 66 62 87 63 54 64
REMARK SMILES IDX 38 65 39 66 47 67 40 68 46 69 48 70 45 71 41 72 42 73 43 74
REMARK SMILES IDX 44 75 70 76 71 77 79 78 72 79 78 80 80 81 77 82 73 83 74 84
REMARK SMILES IDX 75 85 76 86 55 87 56 88 64 89 57 90 63 91 65 92 62 93 58 94
REMARK SMILES IDX 59 95 60 96 61 97
REMARK H PARENT 85 50 53 61
REMARK Flexibility Score: inf
ROOT
ATOM      1  O   UNL     1      -6.881  -3.098   1.043  1.00  0.00    -0.377 OA
ENDROOT
BRANCH   1   2
ATOM      2  C   UNL     1      -7.967  -3.606   0.290  1.00  0.00     0.188 C 
BRANCH   2   3
ATOM      3  C   UNL     1      -8.235  -5.118   0.238  1.00  0.00     0.188 C 
BRANCH   3   4
ATOM      4  O   UNL     1      -7.818  -5.857   1.360  1.00  0.00    -0.376 OA
BRANCH   4   5
ATOM      5  C   UNL     1      -6.559  -6.505   1.382  1.00  0.00     0.202 C 
BRANCH   5   6
ATOM      6  C   UNL     1      -5.388  -6.189   0.433  1.00  0.00     0.261 C 
BRANCH   6   7
ATOM      7  O   UNL     1      -5.538  -5.073  -0.453  1.00  0.00    -0.463 OA
BRANCH   7   8
ATOM      8  C   UNL     1      -5.517  -5.331  -1.774  1.00  0.00     0.306 C 
ATOM      9  O   UNL     1      -5.545  -6.461  -2.255  1.00  0.00    -0.252 OA
BRANCH   8  10
ATOM     10  C   UNL     1      -5.511  -4.112  -2.672  1.00  0.00     0.132 C 
BRANCH  10  11
ATOM     11  C   UNL     1      -5.471  -2.676  -2.167  1.00  0.00     0.112 C 
BRANCH  11  12
ATOM     12  C   UNL     1      -4.374  -2.286  -1.260  1.00  0.00     0.227 A 
ATOM     13  C   UNL     1      -2.796  -1.379  -0.236  1.00  0.00     0.202 A 
ATOM     14  N   UNL     1      -3.192  -2.345   0.603  1.00  0.00    -0.057 NA
ATOM     15  N   UNL     1      -3.517  -1.303  -1.405  1.00  0.00    -0.191 NA
ATOM     16  O   UNL     1      -4.265  -2.920  -0.063  1.00  0.00    -0.339 OA
BRANCH  13  17
ATOM     17  C   UNL     1      -1.597  -0.602  -0.049  1.00  0.00     0.023 A 
ATOM     18  C   UNL     1       2.070   1.650   0.063  1.00  0.00     0.044 C 
ATOM     19  C   UNL     1       0.805   0.838   0.055  1.00  0.00    -0.048 A 
ATOM     20  C   UNL     1      -0.432   1.506   0.007  1.00  0.00     0.004 A 
ATOM     21  C   UNL     1       0.834  -0.569   0.079  1.00  0.00    -0.047 A 
ATOM     22  C   UNL     1      -1.629   0.791  -0.057  1.00  0.00     0.012 A 
ATOM     23  C   UNL     1      -0.376  -1.273   0.044  1.00  0.00     0.015 A 
ATOM     24  C   UNL     1       2.095  -1.385   0.112  1.00  0.00     0.044 C 
ENDBRANCH  13  17
ENDBRANCH  11  12
ENDBRANCH  10  11
ENDBRANCH   8  10
ENDBRANCH   7   8
ENDBRANCH   6   7
ENDBRANCH   5   6
ENDBRANCH   4   5
ENDBRANCH   3   4
ENDBRANCH   2   3
ENDBRANCH   1   2
BRANCH   1  25
ATOM     25  C   UNL     1      -6.781  -3.372   2.440  1.00  0.00     0.188 C 
BRANCH  25  26
ATOM     26  C   UNL     1      -8.035  -3.734   3.266  1.00  0.00     0.188 C 
BRANCH  26  27
ATOM     27  O   UNL     1      -9.269  -3.455   2.626  1.00  0.00    -0.376 OA
BRANCH  27  28
ATOM     28  C   UNL     1      -9.921  -2.240   2.963  1.00  0.00     0.202 C 
BRANCH  28  29
ATOM     29  C   UNL     1      -9.158  -0.927   2.723  1.00  0.00     0.261 C 
BRANCH  29  30
ATOM     30  O   UNL     1      -7.921  -0.767   3.436  1.00  0.00    -0.460 OA
BRANCH  30  31
ATOM     31  C   UNL     1      -7.970  -0.821   4.788  1.00  0.00     0.338 C 
ATOM     32  O   UNL     1      -8.956  -0.959   5.479  1.00  0.00    -0.246 OA
BRANCH  31  33
ATOM     33  C   UNL     1      -6.576  -0.865   5.279  1.00  0.00     0.060 A 
ATOM     34  C   UNL     1      -6.136  -1.994   5.983  1.00  0.00     0.016 A 
ATOM     35  C   UNL     1      -5.714   0.209   5.050  1.00  0.00     0.016 A 
ATOM     36  C   UNL     1      -4.839  -2.033   6.495  1.00  0.00     0.010 A 
ATOM     37  C   UNL     1      -4.422   0.175   5.579  1.00  0.00     0.010 A 
ATOM     38  C   UNL     1      -3.990  -0.930   6.335  1.00  0.00    -0.014 A 
BRANCH  38  39
ATOM     39  C   UNL     1      -2.740  -0.841   7.131  1.00  0.00     0.031 A 
ATOM     40  C   UNL     1      -2.758  -0.024   8.395  1.00  0.00     0.074 A 
ATOM     41  C   UNL     1      -1.623  -1.492   6.763  1.00  0.00     0.049 A 
ATOM     42  N   UNL     1      -1.790   0.243   9.232  1.00  0.00    -0.248 NA
ATOM     43  C   UNL     1      -4.051   0.579   8.752  1.00  0.00     0.031 C 
ATOM     44  C   UNL     1      -1.498  -2.360   5.595  1.00  0.00     0.029 A 
ATOM     45  N   UNL     1      -0.379  -1.521   7.342  1.00  0.00    -0.354 N 
ATOM     46  C   UNL     1      -2.356   1.048  10.217  1.00  0.00     0.074 A 
ATOM     47  C   UNL     1      -3.735   1.267   9.836  1.00  0.00     0.031 C 
ATOM     48  C   UNL     1      -0.244  -2.843   5.546  1.00  0.00     0.029 A 
ATOM     49  C   UNL     1       0.533  -2.282   6.651  1.00  0.00     0.049 A 
ATOM     50  H   UNL     1      -0.161  -1.041   8.173  1.00  0.00     0.167 HD
ATOM     51  C   UNL     1      -1.782   1.545  11.342  1.00  0.00     0.034 A 
ATOM     52  C   UNL     1       1.848  -2.484   6.876  1.00  0.00     0.034 A 
ATOM     53  C   UNL     1      -0.397   1.341  11.689  1.00  0.00     0.049 A 
ATOM     54  C   UNL     1       2.502  -1.814   8.062  1.00  0.00     0.074 A 
ATOM     55  C   UNL     1       0.294   1.802  12.796  1.00  0.00     0.029 A 
ATOM     56  N   UNL     1       0.519   0.629  10.922  1.00  0.00    -0.354 N 
ATOM     57  N   UNL     1       1.964  -1.050   8.986  1.00  0.00    -0.248 NA
ATOM     58  C   UNL     1       3.943  -2.039   8.236  1.00  0.00     0.031 C 
ATOM     59  C   UNL     1       1.639   1.446  12.654  1.00  0.00     0.029 A 
ATOM     60  C   UNL     1       1.775   0.675  11.510  1.00  0.00     0.049 A 
ATOM     61  H   UNL     1       0.307   0.160  10.083  1.00  0.00     0.167 HD
ATOM     62  C   UNL     1       2.994  -0.736   9.870  1.00  0.00     0.074 A 
ATOM     63  C   UNL     1       4.181  -1.401   9.372  1.00  0.00     0.031 C 
ATOM     64  C   UNL     1       2.959   0.022  10.998  1.00  0.00     0.034 A 
BRANCH  51  65
ATOM     65  C   UNL     1      -2.651   2.409  12.228  1.00  0.00     0.023 A 
ATOM     66  C   UNL     1      -3.828   1.914  12.818  1.00  0.00     0.031 A 
ATOM     67  C   UNL     1      -2.343   3.767  12.424  1.00  0.00     0.131 A 
ATOM     68  C   UNL     1      -4.704   2.789  13.478  1.00  0.00     0.055 A 
ATOM     69  C   UNL     1      -3.168   4.611  13.171  1.00  0.00     0.041 A 
ATOM     70  F   UNL     1      -1.248   4.309  11.868  1.00  0.00    -0.206 F 
ATOM     71  C   UNL     1      -4.369   4.128  13.683  1.00  0.00     0.022 A 
BRANCH  68  72
ATOM     72  S   UNL     1      -6.373   2.198  13.880  1.00  0.00     0.124 S 
ATOM     73  O   UNL     1      -6.856   1.768  12.569  1.00  0.00    -0.237 OA
ATOM     74  O   UNL     1      -6.108   1.138  14.844  1.00  0.00    -0.237 OA
ATOM     75  O   UNL     1      -7.035   3.384  14.419  1.00  0.00    -0.744 OA
ENDBRANCH  68  72
ENDBRANCH  51  65
BRANCH  52  76
ATOM     76  C   UNL     1       2.647  -3.341   5.953  1.00  0.00     0.023 A 
ATOM     77  C   UNL     1       3.244  -4.528   6.407  1.00  0.00     0.031 A 
ATOM     78  C   UNL     1       2.861  -2.967   4.614  1.00  0.00     0.131 A 
ATOM     79  C   UNL     1       4.053  -5.281   5.542  1.00  0.00     0.055 A 
ATOM     80  C   UNL     1       3.622  -3.748   3.742  1.00  0.00     0.041 A 
ATOM     81  F   UNL     1       2.323  -1.836   4.129  1.00  0.00    -0.206 F 
ATOM     82  C   UNL     1       4.232  -4.908   4.208  1.00  0.00     0.022 A 
BRANCH  79  83
ATOM     83  S   UNL     1       4.935  -6.720   6.207  1.00  0.00     0.124 S 
ATOM     84  O   UNL     1       5.763  -6.108   7.240  1.00  0.00    -0.237 OA
ATOM     85  O   UNL     1       3.837  -7.559   6.676  1.00  0.00    -0.237 OA
ATOM     86  O   UNL     1       5.661  -7.238   5.050  1.00  0.00    -0.744 OA
ENDBRANCH  79  83
ENDBRANCH  52  76
BRANCH  64  87
ATOM     87  C   UNL     1       4.237   0.131  11.800  1.00  0.00     0.023 A 
ATOM     88  C   UNL     1       5.388   0.759  11.292  1.00  0.00     0.031 A 
ATOM     89  C   UNL     1       4.303  -0.411  13.097  1.00  0.00     0.131 A 
ATOM     90  C   UNL     1       6.570   0.776  12.050  1.00  0.00     0.055 A 
ATOM     91  C   UNL     1       5.460  -0.329  13.874  1.00  0.00     0.041 A 
ATOM     92  F   UNL     1       3.239  -1.029  13.636  1.00  0.00    -0.206 F 
ATOM     93  C   UNL     1       6.607   0.255  13.345  1.00  0.00     0.022 A 
BRANCH  90  94
ATOM     94  S   UNL     1       8.093   1.390  11.278  1.00  0.00     0.124 S 
ATOM     95  O   UNL     1       8.213   0.521  10.112  1.00  0.00    -0.237 OA
ATOM     96  O   UNL     1       7.763   2.785  11.003  1.00  0.00    -0.237 OA
ATOM     97  O   UNL     1       9.107   1.187  12.311  1.00  0.00    -0.744 OA
ENDBRANCH  90  94
ENDBRANCH  64  87
ENDBRANCH  38  39
ENDBRANCH  31  33
ENDBRANCH  30  31
ENDBRANCH  29  30
ENDBRANCH  28  29
ENDBRANCH  27  28
ENDBRANCH  26  27
ENDBRANCH  25  26
ENDBRANCH   1  25
TORSDOF 26
