REMARK SMILES O=C(OCCOCCOCCOCCOC(=O)[C@@H]1CN(c2nc(-c3ccccc3)no2)CC[NH2+]1)c1ccc(-c2c3nc(c(-c4cc(S(=O)(=O)[O-])ccc4F)c4ccc([nH]4)c(-c4cc(S(=O)(=O)[O-])ccc4F)c4nc(c(-c5cc(S(=O)(=O)[O-])ccc5F)c5ccc2[nH]5)C=C4)C=C3)cc1
REMARK SMILES IDX 8 1 7 2 6 3 5 4 4 5 3 6 2 7 1 8 35 9 36 10 97 11 37 12 96 13
REMARK SMILES IDX 38 14 39 15 40 16 90 17 41 18 95 19 89 20 91 21 42 22 94 23
REMARK SMILES IDX 88 24 87 25 43 27 75 28 55 29 74 30 56 31 59 32 73 33 92 34
REMARK SMILES IDX 57 35 58 36 72 38 93 39 60 40 44 41 45 42 53 43 46 44 52 45
REMARK SMILES IDX 54 46 51 47 47 48 48 49 49 50 50 51 76 52 77 53 85 54 78 55
REMARK SMILES IDX 84 56 86 57 83 58 79 59 80 60 81 61 82 62 61 63 62 64 70 65
REMARK SMILES IDX 63 66 69 67 71 68 68 69 64 70 65 71 66 72 67 73 9 74 10 75
REMARK SMILES IDX 11 76 12 77 13 78 14 79 15 80 16 81 17 82 18 83 19 84 34 85
REMARK SMILES IDX 20 86 33 87 32 90 21 91 22 92 31 93 23 94 30 95 24 96 25 97
REMARK SMILES IDX 29 98 26 99 28 100 27 101
REMARK H PARENT 91 26 59 37 34 88 34 89
REMARK Flexibility Score: inf
ROOT
ATOM      1  C   UNL     1       2.087   0.264   2.531  1.00  0.00     0.188 C 
ENDROOT
BRANCH   1   2
ATOM      2  C   UNL     1       2.404   0.972   1.220  1.00  0.00     0.188 C 
BRANCH   2   3
ATOM      3  O   UNL     1       3.643   0.464   0.737  1.00  0.00    -0.376 OA
BRANCH   3   4
ATOM      4  C   UNL     1       4.422   1.355  -0.050  1.00  0.00     0.202 C 
BRANCH   4   5
ATOM      5  C   UNL     1       4.064   1.324  -1.535  1.00  0.00     0.261 C 
BRANCH   5   6
ATOM      6  O   UNL     1       2.670   1.053  -1.750  1.00  0.00    -0.460 OA
BRANCH   6   7
ATOM      7  C   UNL     1       2.109  -0.152  -2.035  1.00  0.00     0.338 C 
ATOM      8  O   UNL     1       0.910  -0.193  -2.307  1.00  0.00    -0.246 OA
BRANCH   7   9
ATOM      9  C   UNL     1       2.877  -1.434  -2.063  1.00  0.00     0.060 A 
ATOM     10  C   UNL     1       3.937  -1.742  -1.211  1.00  0.00     0.016 A 
ATOM     11  C   UNL     1       2.439  -2.433  -2.946  1.00  0.00     0.016 A 
ATOM     12  C   UNL     1       4.597  -2.959  -1.268  1.00  0.00     0.010 A 
ATOM     13  C   UNL     1       3.075  -3.680  -2.990  1.00  0.00     0.010 A 
ATOM     14  C   UNL     1       4.173  -3.934  -2.160  1.00  0.00    -0.014 A 
BRANCH  14  15
ATOM     15  C   UNL     1       5.017  -5.135  -2.301  1.00  0.00     0.031 A 
ATOM     16  C   UNL     1       5.896  -5.224  -3.511  1.00  0.00     0.074 A 
ATOM     17  C   UNL     1       5.106  -6.020  -1.291  1.00  0.00     0.049 A 
ATOM     18  N   UNL     1       6.653  -6.204  -3.916  1.00  0.00    -0.248 NA
ATOM     19  C   UNL     1       5.935  -4.032  -4.377  1.00  0.00     0.031 C 
ATOM     20  C   UNL     1       4.413  -5.904  -0.004  1.00  0.00     0.029 A 
ATOM     21  N   UNL     1       5.839  -7.170  -1.168  1.00  0.00    -0.354 N 
ATOM     22  C   UNL     1       7.223  -5.768  -5.106  1.00  0.00     0.074 A 
ATOM     23  C   UNL     1       6.734  -4.431  -5.353  1.00  0.00     0.031 C 
ATOM     24  C   UNL     1       4.768  -6.934   0.781  1.00  0.00     0.029 A 
ATOM     25  C   UNL     1       5.636  -7.828   0.025  1.00  0.00     0.049 A 
ATOM     26  H   UNL     1       6.452  -7.496  -1.866  1.00  0.00     0.167 HD
ATOM     27  C   UNL     1       8.063  -6.446  -5.922  1.00  0.00     0.034 A 
ATOM     28  C   UNL     1       6.064  -9.043   0.422  1.00  0.00     0.034 A 
ATOM     29  C   UNL     1       8.517  -7.780  -5.628  1.00  0.00     0.049 A 
ATOM     30  C   UNL     1       6.907  -9.828  -0.556  1.00  0.00     0.074 A 
ATOM     31  C   UNL     1       9.288  -8.628  -6.399  1.00  0.00     0.029 A 
ATOM     32  N   UNL     1       8.230  -8.460  -4.448  1.00  0.00    -0.354 N 
ATOM     33  N   UNL     1       7.355  -9.460  -1.738  1.00  0.00    -0.248 NA
ATOM     34  C   UNL     1       7.286 -11.189  -0.165  1.00  0.00     0.031 C 
ATOM     35  C   UNL     1       9.418  -9.840  -5.710  1.00  0.00     0.029 A 
ATOM     36  C   UNL     1       8.786  -9.726  -4.479  1.00  0.00     0.049 A 
ATOM     37  H   UNL     1       7.706  -8.094  -3.699  1.00  0.00     0.167 HD
ATOM     38  C   UNL     1       8.075 -10.544  -2.227  1.00  0.00     0.074 A 
ATOM     39  C   UNL     1       8.030 -11.563  -1.195  1.00  0.00     0.031 C 
ATOM     40  C   UNL     1       8.707 -10.702  -3.419  1.00  0.00     0.034 A 
BRANCH  27  41
ATOM     41  C   UNL     1       8.415  -5.793  -7.233  1.00  0.00     0.023 A 
ATOM     42  C   UNL     1       9.196  -4.625  -7.305  1.00  0.00     0.031 A 
ATOM     43  C   UNL     1       7.872  -6.298  -8.428  1.00  0.00     0.131 A 
ATOM     44  C   UNL     1       9.352  -3.965  -8.536  1.00  0.00     0.055 A 
ATOM     45  C   UNL     1       8.090  -5.677  -9.658  1.00  0.00     0.041 A 
ATOM     46  F   UNL     1       7.088  -7.388  -8.413  1.00  0.00    -0.206 F 
ATOM     47  C   UNL     1       8.823  -4.495  -9.715  1.00  0.00     0.022 A 
BRANCH  44  48
ATOM     48  S   UNL     1      10.143  -2.332  -8.554  1.00  0.00     0.124 S 
ATOM     49  O   UNL     1       9.203  -1.542  -7.756  1.00  0.00    -0.237 OA
ATOM     50  O   UNL     1      11.434  -2.593  -7.944  1.00  0.00    -0.237 OA
ATOM     51  O   UNL     1      10.180  -1.985  -9.977  1.00  0.00    -0.744 OA
ENDBRANCH  44  48
ENDBRANCH  27  41
BRANCH  28  52
ATOM     52  C   UNL     1       5.626  -9.637   1.724  1.00  0.00     0.023 A 
ATOM     53  C   UNL     1       6.554 -10.079   2.681  1.00  0.00     0.031 A 
ATOM     54  C   UNL     1       4.260  -9.847   2.000  1.00  0.00     0.131 A 
ATOM     55  C   UNL     1       6.112 -10.750   3.835  1.00  0.00     0.055 A 
ATOM     56  C   UNL     1       3.822 -10.454   3.179  1.00  0.00     0.041 A 
ATOM     57  F   UNL     1       3.320  -9.464   1.121  1.00  0.00    -0.206 F 
ATOM     58  C   UNL     1       4.752 -10.926   4.097  1.00  0.00     0.022 A 
BRANCH  55  59
ATOM     59  S   UNL     1       7.344 -11.506   4.933  1.00  0.00     0.124 S 
ATOM     60  O   UNL     1       8.119 -12.315   3.999  1.00  0.00    -0.237 OA
ATOM     61  O   UNL     1       8.018 -10.334   5.480  1.00  0.00    -0.237 OA
ATOM     62  O   UNL     1       6.532 -12.259   5.887  1.00  0.00    -0.744 OA
ENDBRANCH  55  59
ENDBRANCH  28  52
BRANCH  40  63
ATOM     63  C   UNL     1       9.416 -12.012  -3.629  1.00  0.00     0.023 A 
ATOM     64  C   UNL     1       8.701 -13.210  -3.792  1.00  0.00     0.031 A 
ATOM     65  C   UNL     1      10.819 -12.057  -3.663  1.00  0.00     0.131 A 
ATOM     66  C   UNL     1       9.396 -14.418  -3.927  1.00  0.00     0.055 A 
ATOM     67  C   UNL     1      11.505 -13.255  -3.857  1.00  0.00     0.041 A 
ATOM     68  F   UNL     1      11.543 -10.936  -3.513  1.00  0.00    -0.206 F 
ATOM     69  C   UNL     1      10.793 -14.446  -3.978  1.00  0.00     0.022 A 
BRANCH  66  70
ATOM     70  S   UNL     1       8.450 -15.963  -3.954  1.00  0.00     0.124 S 
ATOM     71  O   UNL     1       7.777 -15.928  -2.659  1.00  0.00    -0.237 OA
ATOM     72  O   UNL     1       7.594 -15.785  -5.122  1.00  0.00    -0.237 OA
ATOM     73  O   UNL     1       9.479 -16.992  -4.092  1.00  0.00    -0.744 OA
ENDBRANCH  66  70
ENDBRANCH  40  63
ENDBRANCH  14  15
ENDBRANCH   7   9
ENDBRANCH   6   7
ENDBRANCH   5   6
ENDBRANCH   4   5
ENDBRANCH   3   4
ENDBRANCH   2   3
ENDBRANCH   1   2
BRANCH   1  74
ATOM     74  O   UNL     1       2.970   0.632   3.592  1.00  0.00    -0.377 OA
BRANCH  74  75
ATOM     75  C   UNL     1       4.364   0.390   3.399  1.00  0.00     0.188 C 
BRANCH  75  76
ATOM     76  C   UNL     1       4.860  -1.063   3.444  1.00  0.00     0.188 C 
BRANCH  76  77
ATOM     77  O   UNL     1       3.819  -1.989   3.247  1.00  0.00    -0.376 OA
BRANCH  77  78
ATOM     78  C   UNL     1       3.313  -2.697   4.367  1.00  0.00     0.202 C 
BRANCH  78  79
ATOM     79  C   UNL     1       3.260  -2.119   5.802  1.00  0.00     0.261 C 
BRANCH  79  80
ATOM     80  O   UNL     1       3.669  -0.754   5.973  1.00  0.00    -0.459 OA
BRANCH  80  81
ATOM     81  C   UNL     1       4.534  -0.470   6.990  1.00  0.00     0.366 C 
ATOM     82  O   UNL     1       5.018  -1.315   7.735  1.00  0.00    -0.245 OA
BRANCH  81  83
ATOM     83  C   UNL     1       4.909   1.029   7.053  1.00  0.00     0.313 C 
ATOM     84  C   UNL     1       3.759   1.921   6.535  1.00  0.00     0.199 C 
ATOM     85  N   UNL     1       6.256   1.249   6.432  1.00  0.00    -0.332 N 
ATOM     86  N   UNL     1       4.183   3.303   6.299  1.00  0.00    -0.312 N 
ATOM     87  C   UNL     1       6.544   2.687   6.269  1.00  0.00     0.283 C 
ATOM     88  H   UNL     1       6.276   0.800   5.516  1.00  0.00     0.347 HD
ATOM     89  H   UNL     1       6.963   0.847   7.047  1.00  0.00     0.347 HD
ATOM     90  C   UNL     1       5.427   3.510   5.583  1.00  0.00     0.183 C 
BRANCH  86  91
ATOM     91  C   UNL     1       3.567   4.273   6.989  1.00  0.00     0.324 A 
ATOM     92  N   UNL     1       2.884   4.122   8.089  1.00  0.00    -0.171 NA
ATOM     93  O   UNL     1       3.553   5.560   6.522  1.00  0.00    -0.315 OA
ATOM     94  C   UNL     1       2.396   5.372   8.320  1.00  0.00     0.204 A 
ATOM     95  N   UNL     1       2.737   6.293   7.408  1.00  0.00    -0.055 NA
BRANCH  94  96
ATOM     96  C   UNL     1       1.604   5.588   9.506  1.00  0.00     0.023 A 
ATOM     97  C   UNL     1       0.232   5.832   9.419  1.00  0.00     0.012 A 
ATOM     98  C   UNL     1       2.200   5.364  10.754  1.00  0.00     0.012 A 
ATOM     99  C   UNL     1      -0.541   5.838  10.582  1.00  0.00     0.001 A 
ATOM    100  C   UNL     1       1.429   5.381  11.912  1.00  0.00     0.001 A 
ATOM    101  C   UNL     1       0.057   5.611  11.824  1.00  0.00     0.000 A 
ENDBRANCH  94  96
ENDBRANCH  86  91
ENDBRANCH  81  83
ENDBRANCH  80  81
ENDBRANCH  79  80
ENDBRANCH  78  79
ENDBRANCH  77  78
ENDBRANCH  76  77
ENDBRANCH  75  76
ENDBRANCH  74  75
ENDBRANCH   1  74
TORSDOF 25
