REMARK SMILES Cc1ccc(-c2cc(C(=O)OCCOCCOCCOCCOC(=O)c3ccc(-c4c5nc(c(-c6cc(S(=O)(=O)[O-])ccc6F)c6ccc([nH]6)c(-c6cc(S(=O)(=O)[O-])ccc6F)c6nc(c(-c7cc(S(=O)(=O)[O-])ccc7F)c7ccc4[nH]7)C=C6)C=C5)cc3)c3c(-c4cccc([N+](=O)[O-])c4)[nH]nc3n2)cc1
REMARK SMILES IDX 18 1 17 2 16 3 15 4 14 5 13 6 12 7 11 8 9 9 10 10 8 11 6 12
REMARK SMILES IDX 7 13 103 14 102 15 89 16 101 17 90 18 100 19 5 21 1 22 2 23
REMARK SMILES IDX 3 24 105 25 4 26 104 27 91 28 92 29 99 30 93 31 95 32 94 33
REMARK SMILES IDX 96 34 97 35 98 36 19 37 20 38 21 39 22 40 23 41 24 42 25 43
REMARK SMILES IDX 26 44 27 45 88 46 28 47 87 48 29 49 30 50 31 51 81 52 32 53
REMARK SMILES IDX 86 54 80 55 82 56 33 57 85 58 79 59 78 60 34 62 66 63 46 64
REMARK SMILES IDX 65 65 47 66 50 67 64 68 83 69 48 70 49 71 63 73 84 74 51 75
REMARK SMILES IDX 35 76 36 77 44 78 37 79 43 80 45 81 42 82 38 83 39 84 40 85
REMARK SMILES IDX 41 86 67 87 68 88 76 89 69 90 75 91 77 92 74 93 70 94 71 95
REMARK SMILES IDX 72 96 73 97 52 98 53 99 61 100 54 101 60 102 62 103 59 104
REMARK SMILES IDX 55 105 56 106 57 107 58 108
REMARK H PARENT 100 20 82 61 50 72
REMARK Flexibility Score: inf
ROOT
ATOM      1  C   UNL     1      -4.743  -1.694  -4.554  1.00  0.00     0.188 C 
ENDROOT
BRANCH   1   2
ATOM      2  O   UNL     1      -5.521  -1.167  -3.498  1.00  0.00    -0.377 OA
BRANCH   2   3
ATOM      3  C   UNL     1      -6.936  -1.169  -3.374  1.00  0.00     0.188 C 
BRANCH   3   4
ATOM      4  C   UNL     1      -8.200  -0.437  -4.211  1.00  0.00     0.188 C 
BRANCH   4   5
ATOM      5  O   UNL     1      -8.541   1.123  -5.122  1.00  0.00    -0.376 OA
BRANCH   5   6
ATOM      6  C   UNL     1      -7.891   2.763  -5.091  1.00  0.00     0.202 C 
BRANCH   6   7
ATOM      7  C   UNL     1      -6.879   3.532  -3.723  1.00  0.00     0.261 C 
BRANCH   7   8
ATOM      8  O   UNL     1      -6.590   2.757  -2.090  1.00  0.00    -0.460 OA
BRANCH   8   9
ATOM      9  C   UNL     1      -6.995   1.730  -1.072  1.00  0.00     0.339 C 
ATOM     10  O   UNL     1      -8.173   1.508  -0.801  1.00  0.00    -0.246 OA
BRANCH   9  11
ATOM     11  C   UNL     1      -6.108   0.729  -0.197  1.00  0.00     0.075 A 
ATOM     12  C   UNL     1      -3.938  -0.307   0.764  1.00  0.00     0.074 A 
ATOM     13  C   UNL     1      -4.717   0.398  -0.198  1.00  0.00     0.045 A 
ATOM     14  N   UNL     1      -4.481  -0.972   1.793  1.00  0.00    -0.226 NA
ATOM     15  C   UNL     1      -5.837  -0.973   1.725  1.00  0.00     0.182 A 
ATOM     16  C   UNL     1      -6.626  -0.192   0.764  1.00  0.00     0.061 A 
ATOM     17  N   UNL     1      -6.601  -1.735   2.506  1.00  0.00    -0.154 NA
ATOM     18  C   UNL     1      -7.909  -0.718   0.927  1.00  0.00     0.076 A 
ATOM     19  N   UNL     1      -7.830  -1.515   2.040  1.00  0.00    -0.275 N 
ATOM     20  H   UNL     1      -8.629  -1.901   2.466  1.00  0.00     0.190 HD
BRANCH  12  21
ATOM     21  C   UNL     1      -2.451  -0.311   0.638  1.00  0.00     0.000 A 
ATOM     22  C   UNL     1       1.872  -0.180   0.021  1.00  0.00     0.044 C 
ATOM     23  C   UNL     1       0.384  -0.219   0.236  1.00  0.00    -0.051 A 
ATOM     24  C   UNL     1      -0.327  -1.417   0.102  1.00  0.00     0.004 A 
ATOM     25  C   UNL     1      -0.324   0.932   0.588  1.00  0.00     0.004 A 
ATOM     26  C   UNL     1      -1.722  -1.462   0.300  1.00  0.00     0.010 A 
ATOM     27  C   UNL     1      -1.716   0.885   0.779  1.00  0.00     0.010 A 
ENDBRANCH  12  21
BRANCH  18  28
ATOM     28  C   UNL     1      -9.191  -0.648   0.228  1.00  0.00     0.007 A 
ATOM     29  C   UNL     1     -10.167   0.246   0.681  1.00  0.00     0.011 A 
ATOM     30  C   UNL     1      -9.462  -1.442  -0.897  1.00  0.00     0.096 A 
ATOM     31  C   UNL     1     -11.359   0.414  -0.023  1.00  0.00     0.008 A 
ATOM     32  C   UNL     1     -10.665  -1.256  -1.604  1.00  0.00     0.270 A 
ATOM     33  C   UNL     1     -11.607  -0.316  -1.181  1.00  0.00     0.085 A 
BRANCH  32  34
ATOM     34  N   UNL     1     -10.895  -1.976  -2.865  1.00  0.00     0.062 N 
ATOM     35  O   UNL     1     -11.732  -1.516  -3.658  1.00  0.00    -0.258 OA
ATOM     36  O   UNL     1     -10.219  -2.992  -3.081  1.00  0.00    -0.258 OA
ENDBRANCH  32  34
ENDBRANCH  18  28
ENDBRANCH   9  11
ENDBRANCH   8   9
ENDBRANCH   7   8
ENDBRANCH   6   7
ENDBRANCH   5   6
ENDBRANCH   4   5
ENDBRANCH   3   4
ENDBRANCH   2   3
ENDBRANCH   1   2
BRANCH   1  37
ATOM     37  C   UNL     1      -5.231  -2.830  -5.403  1.00  0.00     0.188 C 
BRANCH  37  38
ATOM     38  O   UNL     1      -6.640  -2.941  -5.360  1.00  0.00    -0.376 OA
BRANCH  38  39
ATOM     39  C   UNL     1      -7.101  -4.198  -5.813  1.00  0.00     0.202 C 
BRANCH  39  40
ATOM     40  C   UNL     1      -6.701  -4.481  -7.272  1.00  0.00     0.261 C 
BRANCH  40  41
ATOM     41  O   UNL     1      -7.128  -3.404  -8.140  1.00  0.00    -0.460 OA
BRANCH  41  42
ATOM     42  C   UNL     1      -6.139  -2.611  -8.718  1.00  0.00     0.338 C 
ATOM     43  O   UNL     1      -5.210  -3.011  -9.332  1.00  0.00    -0.246 OA
BRANCH  42  44
ATOM     44  C   UNL     1      -6.378  -1.189  -8.262  1.00  0.00     0.060 A 
ATOM     45  C   UNL     1      -5.384  -0.249  -7.938  1.00  0.00     0.016 A 
ATOM     46  C   UNL     1      -7.602  -0.942  -7.771  1.00  0.00     0.016 A 
ATOM     47  C   UNL     1      -5.490   0.638  -6.779  1.00  0.00     0.010 A 
ATOM     48  C   UNL     1      -7.614  -0.174  -6.624  1.00  0.00     0.010 A 
ATOM     49  C   UNL     1      -6.534   0.537  -5.866  1.00  0.00    -0.014 A 
BRANCH  49  50
ATOM     50  C   UNL     1      -6.572   1.220  -4.111  1.00  0.00     0.031 A 
ATOM     51  C   UNL     1      -8.319   1.719  -3.212  1.00  0.00     0.074 A 
ATOM     52  C   UNL     1      -5.203   1.464  -3.666  1.00  0.00     0.049 A 
ATOM     53  N   UNL     1      -8.647   2.931  -2.679  1.00  0.00    -0.248 NA
ATOM     54  C   UNL     1      -9.925   1.326  -3.477  1.00  0.00     0.031 C 
ATOM     55  C   UNL     1      -4.557   1.981  -2.403  1.00  0.00     0.029 A 
ATOM     56  N   UNL     1      -3.986   1.416  -4.396  1.00  0.00    -0.354 N 
ATOM     57  C   UNL     1      -9.922   3.190  -2.272  1.00  0.00     0.074 A 
ATOM     58  C   UNL     1     -10.705   2.299  -3.022  1.00  0.00     0.031 C 
ATOM     59  C   UNL     1      -3.245   2.168  -2.396  1.00  0.00     0.029 A 
ATOM     60  C   UNL     1      -2.985   2.208  -3.756  1.00  0.00     0.049 A 
ATOM     61  H   UNL     1      -3.850   0.908  -5.229  1.00  0.00     0.167 HD
ATOM     62  C   UNL     1     -10.177   4.063  -1.256  1.00  0.00     0.034 A 
ATOM     63  C   UNL     1      -2.486   3.362  -4.245  1.00  0.00     0.034 A 
ATOM     64  C   UNL     1      -8.919   4.570  -0.661  1.00  0.00     0.049 A 
ATOM     65  C   UNL     1      -3.148   4.603  -3.487  1.00  0.00     0.074 A 
ATOM     66  C   UNL     1      -8.212   4.210   0.477  1.00  0.00     0.029 A 
ATOM     67  N   UNL     1      -8.023   5.339  -1.414  1.00  0.00    -0.354 N 
ATOM     68  N   UNL     1      -4.373   4.674  -2.964  1.00  0.00    -0.248 NA
ATOM     69  C   UNL     1      -2.329   5.704  -2.979  1.00  0.00     0.031 C 
ATOM     70  C   UNL     1      -6.848   4.623   0.310  1.00  0.00     0.029 A 
ATOM     71  C   UNL     1      -6.715   5.303  -0.902  1.00  0.00     0.049 A 
ATOM     72  H   UNL     1      -8.281   5.849  -2.215  1.00  0.00     0.167 HD
ATOM     73  C   UNL     1      -4.530   5.778  -2.122  1.00  0.00     0.074 A 
ATOM     74  C   UNL     1      -3.182   6.352  -2.160  1.00  0.00     0.031 C 
ATOM     75  C   UNL     1      -5.652   6.207  -1.400  1.00  0.00     0.034 A 
BRANCH  62  76
ATOM     76  C   UNL     1     -11.551   4.039  -0.585  1.00  0.00     0.023 A 
ATOM     77  C   UNL     1     -11.648   4.191   0.808  1.00  0.00     0.031 A 
ATOM     78  C   UNL     1     -12.775   3.737  -1.234  1.00  0.00     0.131 A 
ATOM     79  C   UNL     1     -12.841   3.884   1.499  1.00  0.00     0.055 A 
ATOM     80  C   UNL     1     -13.944   3.370  -0.547  1.00  0.00     0.041 A 
ATOM     81  F   UNL     1     -12.902   3.811  -2.567  1.00  0.00    -0.206 F 
ATOM     82  C   UNL     1     -13.976   3.424   0.834  1.00  0.00     0.022 A 
BRANCH  79  83
ATOM     83  S   UNL     1     -12.872   4.036   3.304  1.00  0.00     0.124 S 
ATOM     84  O   UNL     1     -11.907   3.018   3.705  1.00  0.00    -0.237 OA
ATOM     85  O   UNL     1     -12.475   5.425   3.506  1.00  0.00    -0.237 OA
ATOM     86  O   UNL     1     -14.262   3.737   3.646  1.00  0.00    -0.744 OA
ENDBRANCH  79  83
ENDBRANCH  62  76
BRANCH  63  87
ATOM     87  C   UNL     1      -1.956   2.947  -5.586  1.00  0.00     0.023 A 
ATOM     88  C   UNL     1      -1.161   1.731  -5.563  1.00  0.00     0.031 A 
ATOM     89  C   UNL     1      -2.640   3.228  -6.763  1.00  0.00     0.131 A 
ATOM     90  C   UNL     1      -1.340   0.736  -6.539  1.00  0.00     0.055 A 
ATOM     91  C   UNL     1      -2.671   2.289  -7.814  1.00  0.00     0.041 A 
ATOM     92  F   UNL     1      -3.451   4.292  -6.836  1.00  0.00    -0.206 F 
ATOM     93  C   UNL     1      -2.083   1.021  -7.677  1.00  0.00     0.022 A 
BRANCH  90  94
ATOM     94  S   UNL     1      -1.005  -1.027  -6.117  1.00  0.00     0.124 S 
ATOM     95  O   UNL     1       0.352  -1.212  -6.615  1.00  0.00    -0.237 OA
ATOM     96  O   UNL     1      -1.165  -1.055  -4.666  1.00  0.00    -0.237 OA
ATOM     97  O   UNL     1      -2.052  -1.752  -6.835  1.00  0.00    -0.744 OA
ENDBRANCH  90  94
ENDBRANCH  63  87
BRANCH  75  98
ATOM     98  C   UNL     1      -5.880   7.675  -0.977  1.00  0.00     0.023 A 
ATOM     99  C   UNL     1      -5.070   8.717  -1.425  1.00  0.00     0.031 A 
ATOM    100  C   UNL     1      -7.023   8.098  -0.229  1.00  0.00     0.131 A 
ATOM    101  C   UNL     1      -5.336  10.053  -1.081  1.00  0.00     0.055 A 
ATOM    102  C   UNL     1      -7.356   9.436  -0.003  1.00  0.00     0.041 A 
ATOM    103  F   UNL     1      -7.898   7.245   0.318  1.00  0.00    -0.206 F 
ATOM    104  C   UNL     1      -6.497  10.430  -0.418  1.00  0.00     0.022 A 
BRANCH 101 105
ATOM    105  S   UNL     1      -4.050  11.265  -1.443  1.00  0.00     0.124 S 
ATOM    106  O   UNL     1      -2.949  10.775  -0.616  1.00  0.00    -0.237 OA
ATOM    107  O   UNL     1      -3.875  11.112  -2.883  1.00  0.00    -0.237 OA
ATOM    108  O   UNL     1      -4.639  12.530  -1.013  1.00  0.00    -0.744 OA
ENDBRANCH 101 105
ENDBRANCH  75  98
ENDBRANCH  49  50
ENDBRANCH  42  44
ENDBRANCH  41  42
ENDBRANCH  40  41
ENDBRANCH  39  40
ENDBRANCH  38  39
ENDBRANCH  37  38
ENDBRANCH   1  37
TORSDOF 26
