REMARK SMILES CCC(CC)COc1cc2c(cc1Cl)C=C(C(=O)OCCOCCOCCOCCOC(=O)c1ccc(-c3c4nc(c(-c5cc(S(=O)(=O)[O-])ccc5F)c5ccc([nH]5)c(-c5cc(S(=O)(=O)[O-])ccc5F)c5nc(c(-c6cc(S(=O)(=O)[O-])ccc6F)c6ccc3[nH]6)C=C5)C=C4)cc1)[C@@H](C(F)(F)F)O2
REMARK SMILES IDX 24 1 23 2 22 3 21 4 20 5 19 6 17 7 18 8 16 9 8 10 9 11 13 12
REMARK SMILES IDX 10 13 12 14 14 15 11 16 102 17 15 18 97 19 7 20 6 21 3 22
REMARK SMILES IDX 2 23 1 24 4 25 5 26 98 27 99 28 100 29 101 30 25 31 26 32
REMARK SMILES IDX 27 33 28 34 29 35 30 36 31 37 32 38 33 39 34 40 35 41 96 42
REMARK SMILES IDX 36 43 95 44 37 45 38 46 39 47 89 48 40 49 94 50 88 51 90 52
REMARK SMILES IDX 41 53 93 54 87 55 86 56 42 58 74 59 54 60 73 61 55 62 58 63
REMARK SMILES IDX 72 64 91 65 56 66 57 67 71 69 92 70 59 71 43 72 44 73 52 74
REMARK SMILES IDX 45 75 51 76 53 77 50 78 46 79 47 80 48 81 49 82 75 83 76 84
REMARK SMILES IDX 84 85 77 86 83 87 85 88 82 89 78 90 79 91 80 92 81 93 60 94
REMARK SMILES IDX 61 95 69 96 62 97 68 98 70 99 67 100 63 101 64 102 65 103
REMARK SMILES IDX 66 104
REMARK H PARENT 90 57 58 68
REMARK Flexibility Score: inf
ROOT
ATOM      1  C   UNL     1      -2.427  -7.782   1.060  1.00  0.00     0.188 C 
ENDROOT
BRANCH   1   2
ATOM      2  C   UNL     1      -1.598  -7.909  -0.231  1.00  0.00     0.188 C 
BRANCH   2   3
ATOM      3  O   UNL     1      -1.464  -9.192  -0.808  1.00  0.00    -0.376 OA
BRANCH   3   4
ATOM      4  C   UNL     1      -0.746 -10.260  -0.206  1.00  0.00     0.202 C 
BRANCH   4   5
ATOM      5  C   UNL     1       0.039 -10.246   1.124  1.00  0.00     0.261 C 
BRANCH   5   6
ATOM      6  O   UNL     1       0.051  -9.043   1.885  1.00  0.00    -0.460 OA
BRANCH   6   7
ATOM      7  C   UNL     1       1.036  -8.185   1.581  1.00  0.00     0.338 C 
ATOM      8  O   UNL     1       1.939  -8.365   0.780  1.00  0.00    -0.246 OA
BRANCH   7   9
ATOM      9  C   UNL     1       0.767  -6.891   2.232  1.00  0.00     0.087 C 
ATOM     10  C   UNL     1       1.232  -2.082   3.402  1.00  0.00     0.141 A 
ATOM     11  C   UNL     1       0.494  -3.119   3.995  1.00  0.00     0.095 A 
ATOM     12  C   UNL     1       1.985  -2.342   2.250  1.00  0.00     0.083 A 
ATOM     13  C   UNL     1       0.470  -4.381   3.388  1.00  0.00     0.131 A 
ATOM     14  C   UNL     1       1.809  -3.531   1.560  1.00  0.00     0.036 A 
ATOM     15  Cl  UNL     1       3.222  -1.290   1.669  1.00  0.00    -0.080 Cl
ATOM     16  C   UNL     1       1.061  -4.551   2.136  1.00  0.00     0.019 A 
ATOM     17  O   UNL     1      -0.121  -5.426   4.052  1.00  0.00    -0.475 OA
ATOM     18  C   UNL     1       1.043  -5.830   1.472  1.00  0.00     0.027 C 
ATOM     19  C   UNL     1       0.285  -6.787   3.656  1.00  0.00     0.316 C 
BRANCH  10  20
ATOM     20  O   UNL     1       1.314  -0.861   4.020  1.00  0.00    -0.492 OA
BRANCH  20  21
ATOM     21  C   UNL     1       0.280   0.073   3.625  1.00  0.00     0.233 C 
BRANCH  21  22
ATOM     22  C   UNL     1       0.588   0.797   2.287  1.00  0.00     0.026 C 
BRANCH  22  23
ATOM     23  C   UNL     1      -0.080   0.073   1.094  1.00  0.00     0.003 C 
ATOM     24  C   UNL     1       0.519   0.456  -0.253  1.00  0.00     0.004 C 
ENDBRANCH  22  23
BRANCH  22  25
ATOM     25  C   UNL     1       0.249   2.304   2.316  1.00  0.00     0.003 C 
ATOM     26  C   UNL     1      -1.230   2.649   2.362  1.00  0.00     0.004 C 
ENDBRANCH  22  25
ENDBRANCH  21  22
ENDBRANCH  20  21
ENDBRANCH  10  20
BRANCH  19  27
ATOM     27  C   UNL     1       1.333  -7.353   4.623  1.00  0.00     0.430 C 
ATOM     28  F   UNL     1       0.949  -7.225   5.913  1.00  0.00    -0.167 F 
ATOM     29  F   UNL     1       1.545  -8.672   4.400  1.00  0.00    -0.167 F 
ATOM     30  F   UNL     1       2.527  -6.729   4.490  1.00  0.00    -0.167 F 
ENDBRANCH  19  27
ENDBRANCH   7   9
ENDBRANCH   6   7
ENDBRANCH   5   6
ENDBRANCH   4   5
ENDBRANCH   3   4
ENDBRANCH   2   3
ENDBRANCH   1   2
BRANCH   1  31
ATOM     31  O   UNL     1      -2.591  -9.017   1.732  1.00  0.00    -0.377 OA
BRANCH  31  32
ATOM     32  C   UNL     1      -3.754  -9.776   1.413  1.00  0.00     0.188 C 
BRANCH  32  33
ATOM     33  C   UNL     1      -4.311  -9.761  -0.028  1.00  0.00     0.188 C 
BRANCH  33  34
ATOM     34  O   UNL     1      -4.445  -8.454  -0.581  1.00  0.00    -0.376 OA
BRANCH  34  35
ATOM     35  C   UNL     1      -5.750  -7.909  -0.697  1.00  0.00     0.202 C 
BRANCH  35  36
ATOM     36  C   UNL     1      -6.400  -7.456   0.617  1.00  0.00     0.261 C 
BRANCH  36  37
ATOM     37  O   UNL     1      -6.551  -8.468   1.620  1.00  0.00    -0.460 OA
BRANCH  37  38
ATOM     38  C   UNL     1      -7.293  -9.556   1.312  1.00  0.00     0.338 C 
ATOM     39  O   UNL     1      -7.888  -9.762   0.270  1.00  0.00    -0.246 OA
BRANCH  38  40
ATOM     40  C   UNL     1      -7.084 -10.546   2.392  1.00  0.00     0.060 A 
ATOM     41  C   UNL     1      -7.206 -10.160   3.729  1.00  0.00     0.016 A 
ATOM     42  C   UNL     1      -6.723 -11.859   2.063  1.00  0.00     0.016 A 
ATOM     43  C   UNL     1      -7.002 -11.101   4.738  1.00  0.00     0.010 A 
ATOM     44  C   UNL     1      -6.523 -12.802   3.076  1.00  0.00     0.010 A 
ATOM     45  C   UNL     1      -6.691 -12.436   4.419  1.00  0.00    -0.014 A 
BRANCH  45  46
ATOM     46  C   UNL     1      -6.779 -13.466   5.486  1.00  0.00     0.031 A 
ATOM     47  C   UNL     1      -5.571 -14.091   6.110  1.00  0.00     0.074 A 
ATOM     48  C   UNL     1      -8.013 -13.818   5.897  1.00  0.00     0.049 A 
ATOM     49  N   UNL     1      -5.510 -14.876   7.154  1.00  0.00    -0.248 NA
ATOM     50  C   UNL     1      -4.270 -13.815   5.486  1.00  0.00     0.031 C 
ATOM     51  C   UNL     1      -9.254 -13.309   5.311  1.00  0.00     0.029 A 
ATOM     52  N   UNL     1      -8.433 -14.655   6.898  1.00  0.00    -0.354 N 
ATOM     53  C   UNL     1      -4.165 -15.173   7.334  1.00  0.00     0.074 A 
ATOM     54  C   UNL     1      -3.450 -14.526   6.253  1.00  0.00     0.031 C 
ATOM     55  C   UNL     1     -10.295 -13.808   5.990  1.00  0.00     0.029 A 
ATOM     56  C   UNL     1      -9.801 -14.697   7.039  1.00  0.00     0.049 A 
ATOM     57  H   UNL     1      -7.816 -15.177   7.461  1.00  0.00     0.167 HD
ATOM     58  C   UNL     1      -3.591 -15.902   8.323  1.00  0.00     0.034 A 
ATOM     59  C   UNL     1     -10.578 -15.358   7.921  1.00  0.00     0.034 A 
ATOM     60  C   UNL     1      -4.335 -16.553   9.377  1.00  0.00     0.049 A 
ATOM     61  C   UNL     1      -9.915 -16.159   9.011  1.00  0.00     0.074 A 
ATOM     62  C   UNL     1      -3.840 -17.269  10.454  1.00  0.00     0.029 A 
ATOM     63  N   UNL     1      -5.720 -16.581   9.489  1.00  0.00    -0.354 N 
ATOM     64  N   UNL     1      -8.634 -16.326   9.245  1.00  0.00    -0.248 NA
ATOM     65  C   UNL     1     -10.792 -16.839   9.971  1.00  0.00     0.031 C 
ATOM     66  C   UNL     1      -4.918 -17.797  11.164  1.00  0.00     0.029 A 
ATOM     67  C   UNL     1      -6.092 -17.331  10.595  1.00  0.00     0.049 A 
ATOM     68  H   UNL     1      -6.345 -16.134   8.873  1.00  0.00     0.167 HD
ATOM     69  C   UNL     1      -8.553 -17.102  10.397  1.00  0.00     0.074 A 
ATOM     70  C   UNL     1      -9.914 -17.351  10.824  1.00  0.00     0.031 C 
ATOM     71  C   UNL     1      -7.449 -17.565  11.036  1.00  0.00     0.034 A 
BRANCH  58  72
ATOM     72  C   UNL     1      -2.086 -16.029   8.361  1.00  0.00     0.023 A 
ATOM     73  C   UNL     1      -1.479 -17.299   8.309  1.00  0.00     0.031 A 
ATOM     74  C   UNL     1      -1.267 -14.916   8.626  1.00  0.00     0.131 A 
ATOM     75  C   UNL     1      -0.108 -17.430   8.567  1.00  0.00     0.055 A 
ATOM     76  C   UNL     1       0.107 -15.046   8.835  1.00  0.00     0.041 A 
ATOM     77  F   UNL     1      -1.795 -13.683   8.697  1.00  0.00    -0.206 F 
ATOM     78  C   UNL     1       0.689 -16.310   8.822  1.00  0.00     0.022 A 
BRANCH  75  79
ATOM     79  S   UNL     1       0.679 -19.062   8.668  1.00  0.00     0.124 S 
ATOM     80  O   UNL     1       1.701 -18.967   7.628  1.00  0.00    -0.237 OA
ATOM     81  O   UNL     1       1.183 -19.074  10.039  1.00  0.00    -0.237 OA
ATOM     82  O   UNL     1      -0.408 -19.994   8.387  1.00  0.00    -0.744 OA
ENDBRANCH  75  79
ENDBRANCH  58  72
BRANCH  59  83
ATOM     83  C   UNL     1     -12.058 -15.195   7.840  1.00  0.00     0.023 A 
ATOM     84  C   UNL     1     -12.761 -15.579   6.684  1.00  0.00     0.031 A 
ATOM     85  C   UNL     1     -12.770 -14.538   8.857  1.00  0.00     0.131 A 
ATOM     86  C   UNL     1     -14.111 -15.235   6.541  1.00  0.00     0.055 A 
ATOM     87  C   UNL     1     -14.135 -14.268   8.745  1.00  0.00     0.041 A 
ATOM     88  F   UNL     1     -12.140 -14.132   9.971  1.00  0.00    -0.206 F 
ATOM     89  C   UNL     1     -14.808 -14.600   7.573  1.00  0.00     0.022 A 
BRANCH  86  90
ATOM     90  S   UNL     1     -14.963 -15.461   4.955  1.00  0.00     0.124 S 
ATOM     91  O   UNL     1     -16.060 -16.351   5.323  1.00  0.00    -0.237 OA
ATOM     92  O   UNL     1     -15.345 -14.090   4.625  1.00  0.00    -0.237 OA
ATOM     93  O   UNL     1     -13.939 -16.044   4.094  1.00  0.00    -0.744 OA
ENDBRANCH  86  90
ENDBRANCH  59  83
BRANCH  71  94
ATOM     94  C   UNL     1      -7.626 -18.386  12.295  1.00  0.00     0.023 A 
ATOM     95  C   UNL     1      -7.057 -17.941  13.506  1.00  0.00     0.031 A 
ATOM     96  C   UNL     1      -8.208 -19.665  12.270  1.00  0.00     0.131 A 
ATOM     97  C   UNL     1      -7.038 -18.786  14.623  1.00  0.00     0.055 A 
ATOM     98  C   UNL     1      -8.239 -20.480  13.403  1.00  0.00     0.041 A 
ATOM     99  F   UNL     1      -8.752 -20.145  11.139  1.00  0.00    -0.206 F 
ATOM    100  C   UNL     1      -7.637 -20.049  14.581  1.00  0.00     0.022 A 
BRANCH  97 101
ATOM    101  S   UNL     1      -6.147 -18.322  16.133  1.00  0.00     0.124 S 
ATOM    102  O   UNL     1      -7.219 -18.312  17.125  1.00  0.00    -0.237 OA
ATOM    103  O   UNL     1      -5.184 -19.412  16.268  1.00  0.00    -0.237 OA
ATOM    104  O   UNL     1      -5.577 -17.016  15.820  1.00  0.00    -0.744 OA
ENDBRANCH  97 101
ENDBRANCH  71  94
ENDBRANCH  45  46
ENDBRANCH  38  40
ENDBRANCH  37  38
ENDBRANCH  36  37
ENDBRANCH  35  36
ENDBRANCH  34  35
ENDBRANCH  33  34
ENDBRANCH  32  33
ENDBRANCH  31  32
ENDBRANCH   1  31
TORSDOF 29
