REMARK SMILES O=C(Cc1ccc(S(=O)(=O)N[C@H]2CC[C@@H](O)CC2)cc1)OCCOCCOCCOCCOC(=O)c1ccc(-c2c3nc(c(-c4cc(S(=O)(=O)[O-])ccc4F)c4ccc([nH]4)c(-c4cc(S(=O)(=O)[O-])ccc4F)c4nc(c(-c5cc(S(=O)(=O)[O-])ccc5F)c5ccc2[nH]5)C=C4)C=C3)cc1
REMARK SMILES IDX 26 1 25 2 24 3 23 4 22 5 21 6 2 7 1 8 3 9 4 10 5 11 20 12
REMARK SMILES IDX 6 13 19 14 7 15 8 16 9 17 10 18 11 19 12 21 13 22 18 23
REMARK SMILES IDX 14 24 17 25 15 26 16 27 27 29 28 30 29 31 30 32 31 33 32 34
REMARK SMILES IDX 33 35 34 36 35 37 36 38 37 39 98 40 38 41 97 42 39 43 40 44
REMARK SMILES IDX 41 45 91 46 42 47 96 48 90 49 92 50 43 51 95 52 89 53 88 54
REMARK SMILES IDX 44 56 76 57 56 58 75 59 57 60 60 61 74 62 93 63 58 64 59 65
REMARK SMILES IDX 73 67 94 68 61 69 45 70 46 71 54 72 47 73 53 74 55 75 52 76
REMARK SMILES IDX 48 77 49 78 50 79 51 80 77 81 78 82 86 83 79 84 85 85 87 86
REMARK SMILES IDX 84 87 80 88 81 89 82 90 83 91 62 92 63 93 71 94 64 95 70 96
REMARK SMILES IDX 72 97 69 98 65 99 66 100 67 101 68 102
REMARK H PARENT 11 20 16 28 92 55 60 66
REMARK Flexibility Score: inf
ROOT
ATOM      1  C   UNL     1       2.217  -1.586   1.852  1.00  0.00     0.188 C 
ENDROOT
BRANCH   1   2
ATOM      2  C   UNL     1       2.704  -1.881   0.430  1.00  0.00     0.188 C 
BRANCH   2   3
ATOM      3  O   UNL     1       4.002  -1.552  -0.045  1.00  0.00    -0.376 OA
BRANCH   3   4
ATOM      4  C   UNL     1       4.692  -0.332   0.098  1.00  0.00     0.202 C 
BRANCH   4   5
ATOM      5  C   UNL     1       3.977   1.009   0.169  1.00  0.00     0.261 C 
BRANCH   5   6
ATOM      6  O   UNL     1       2.555   1.017  -0.006  1.00  0.00    -0.463 OA
BRANCH   6   7
ATOM      7  C   UNL     1       1.861   0.735  -1.127  1.00  0.00     0.310 C 
ATOM      8  O   UNL     1       0.650   0.957  -1.145  1.00  0.00    -0.252 OA
BRANCH   7   9
ATOM      9  C   UNL     1       2.535   0.072  -2.314  1.00  0.00     0.158 C 
BRANCH   9  10
ATOM     10  C   UNL     1       3.553   0.926  -2.999  1.00  0.00    -0.037 A 
ATOM     11  C   UNL     1       4.864   0.471  -3.216  1.00  0.00     0.006 A 
ATOM     12  C   UNL     1       3.185   2.215  -3.382  1.00  0.00     0.006 A 
ATOM     13  C   UNL     1       5.845   1.360  -3.644  1.00  0.00     0.022 A 
ATOM     14  C   UNL     1       4.141   3.074  -3.884  1.00  0.00     0.022 A 
ATOM     15  C   UNL     1       5.476   2.671  -3.939  1.00  0.00     0.082 A 
BRANCH  15  16
ATOM     16  S   UNL     1       6.715   3.890  -4.253  1.00  0.00     0.240 S 
ATOM     17  O   UNL     1       7.811   3.673  -3.324  1.00  0.00    -0.207 OA
ATOM     18  O   UNL     1       6.903   3.946  -5.676  1.00  0.00    -0.207 OA
BRANCH  16  19
ATOM     19  N   UNL     1       5.941   5.314  -3.815  1.00  0.00    -0.208 NA
ATOM     20  H   UNL     1       4.990   5.244  -4.178  1.00  0.00     0.141 HD
BRANCH  19  21
ATOM     21  C   UNL     1       5.814   5.738  -2.411  1.00  0.00     0.070 C 
ATOM     22  C   UNL     1       4.350   6.071  -2.074  1.00  0.00     0.023 C 
ATOM     23  C   UNL     1       6.699   6.968  -2.196  1.00  0.00     0.023 C 
ATOM     24  C   UNL     1       3.825   7.279  -2.843  1.00  0.00     0.033 C 
ATOM     25  C   UNL     1       6.183   8.197  -2.950  1.00  0.00     0.033 C 
ATOM     26  C   UNL     1       4.719   8.498  -2.629  1.00  0.00     0.114 C 
BRANCH  26  27
ATOM     27  O   UNL     1       4.257   9.569  -3.444  1.00  0.00    -0.393 OA
ATOM     28  H   UNL     1       4.310   9.310  -4.378  1.00  0.00     0.210 HD
ENDBRANCH  26  27
ENDBRANCH  19  21
ENDBRANCH  16  19
ENDBRANCH  15  16
ENDBRANCH   9  10
ENDBRANCH   7   9
ENDBRANCH   6   7
ENDBRANCH   5   6
ENDBRANCH   4   5
ENDBRANCH   3   4
ENDBRANCH   2   3
ENDBRANCH   1   2
BRANCH   1  29
ATOM     29  O   UNL     1       2.919  -2.156   2.943  1.00  0.00    -0.377 OA
BRANCH  29  30
ATOM     30  C   UNL     1       4.298  -1.842   2.996  1.00  0.00     0.188 C 
BRANCH  30  31
ATOM     31  C   UNL     1       5.180  -2.948   2.390  1.00  0.00     0.188 C 
BRANCH  31  32
ATOM     32  O   UNL     1       4.509  -3.795   1.480  1.00  0.00    -0.376 OA
BRANCH  32  33
ATOM     33  C   UNL     1       3.760  -4.919   1.918  1.00  0.00     0.202 C 
BRANCH  33  34
ATOM     34  C   UNL     1       3.089  -5.111   3.296  1.00  0.00     0.261 C 
BRANCH  34  35
ATOM     35  O   UNL     1       3.533  -4.330   4.402  1.00  0.00    -0.460 OA
BRANCH  35  36
ATOM     36  C   UNL     1       4.687  -4.704   4.987  1.00  0.00     0.338 C 
ATOM     37  O   UNL     1       5.382  -5.655   4.681  1.00  0.00    -0.246 OA
BRANCH  36  38
ATOM     38  C   UNL     1       5.092  -3.605   5.891  1.00  0.00     0.060 A 
ATOM     39  C   UNL     1       6.374  -3.065   5.730  1.00  0.00     0.016 A 
ATOM     40  C   UNL     1       4.218  -3.086   6.853  1.00  0.00     0.016 A 
ATOM     41  C   UNL     1       6.814  -2.052   6.572  1.00  0.00     0.010 A 
ATOM     42  C   UNL     1       4.673  -2.093   7.726  1.00  0.00     0.010 A 
ATOM     43  C   UNL     1       5.993  -1.620   7.620  1.00  0.00    -0.014 A 
BRANCH  43  44
ATOM     44  C   UNL     1       6.645  -0.943   8.765  1.00  0.00     0.031 A 
ATOM     45  C   UNL     1       7.099  -1.813   9.908  1.00  0.00     0.074 A 
ATOM     46  C   UNL     1       6.921   0.371   8.745  1.00  0.00     0.049 A 
ATOM     47  N   UNL     1       7.733  -1.489  11.003  1.00  0.00    -0.248 NA
ATOM     48  C   UNL     1       6.795  -3.249   9.792  1.00  0.00     0.031 C 
ATOM     49  C   UNL     1       6.593   1.289   7.655  1.00  0.00     0.029 A 
ATOM     50  N   UNL     1       7.559   1.158   9.669  1.00  0.00    -0.354 N 
ATOM     51  C   UNL     1       7.896  -2.678  11.708  1.00  0.00     0.074 A 
ATOM     52  C   UNL     1       7.259  -3.720  10.937  1.00  0.00     0.031 C 
ATOM     53  C   UNL     1       7.039   2.517   7.974  1.00  0.00     0.029 A 
ATOM     54  C   UNL     1       7.650   2.479   9.302  1.00  0.00     0.049 A 
ATOM     55  H   UNL     1       7.918   0.808  10.517  1.00  0.00     0.167 HD
ATOM     56  C   UNL     1       8.529  -2.881  12.888  1.00  0.00     0.034 A 
ATOM     57  C   UNL     1       8.158   3.532   9.974  1.00  0.00     0.034 A 
ATOM     58  C   UNL     1       9.149  -1.824  13.646  1.00  0.00     0.049 A 
ATOM     59  C   UNL     1       8.772   3.296  11.336  1.00  0.00     0.074 A 
ATOM     60  C   UNL     1       9.823  -1.908  14.850  1.00  0.00     0.029 A 
ATOM     61  N   UNL     1       9.155  -0.483  13.279  1.00  0.00    -0.354 N 
ATOM     62  N   UNL     1       8.925   2.169  11.994  1.00  0.00    -0.248 NA
ATOM     63  C   UNL     1       9.294   4.476  12.036  1.00  0.00     0.031 C 
ATOM     64  C   UNL     1      10.157  -0.612  15.254  1.00  0.00     0.029 A 
ATOM     65  C   UNL     1       9.786   0.274  14.254  1.00  0.00     0.049 A 
ATOM     66  H   UNL     1       8.768  -0.123  12.448  1.00  0.00     0.167 HD
ATOM     67  C   UNL     1       9.602   2.502  13.167  1.00  0.00     0.074 A 
ATOM     68  C   UNL     1       9.836   3.930  13.114  1.00  0.00     0.031 C 
ATOM     69  C   UNL     1      10.004   1.701  14.189  1.00  0.00     0.034 A 
BRANCH  56  70
ATOM     70  C   UNL     1       8.507  -4.282  13.454  1.00  0.00     0.023 A 
ATOM     71  C   UNL     1       9.105  -5.368  12.789  1.00  0.00     0.031 A 
ATOM     72  C   UNL     1       7.829  -4.541  14.657  1.00  0.00     0.131 A 
ATOM     73  C   UNL     1       8.946  -6.669  13.292  1.00  0.00     0.055 A 
ATOM     74  C   UNL     1       7.751  -5.825  15.198  1.00  0.00     0.041 A 
ATOM     75  F   UNL     1       7.210  -3.552  15.320  1.00  0.00    -0.206 F 
ATOM     76  C   UNL     1       8.297  -6.902  14.507  1.00  0.00     0.022 A 
BRANCH  73  77
ATOM     77  S   UNL     1       9.453  -8.069  12.255  1.00  0.00     0.124 S 
ATOM     78  O   UNL     1       8.657  -7.848  11.050  1.00  0.00    -0.237 OA
ATOM     79  O   UNL     1      10.889  -7.858  12.120  1.00  0.00    -0.237 OA
ATOM     80  O   UNL     1       9.064  -9.238  13.043  1.00  0.00    -0.744 OA
ENDBRANCH  73  77
ENDBRANCH  56  70
BRANCH  57  81
ATOM     81  C   UNL     1       8.091   4.907   9.399  1.00  0.00     0.023 A 
ATOM     82  C   UNL     1       9.257   5.640   9.129  1.00  0.00     0.031 A 
ATOM     83  C   UNL     1       6.853   5.536   9.174  1.00  0.00     0.131 A 
ATOM     84  C   UNL     1       9.163   6.975   8.702  1.00  0.00     0.055 A 
ATOM     85  C   UNL     1       6.764   6.843   8.693  1.00  0.00     0.041 A 
ATOM     86  F   UNL     1       5.705   4.884   9.419  1.00  0.00    -0.206 F 
ATOM     87  C   UNL     1       7.925   7.576   8.468  1.00  0.00     0.022 A 
BRANCH  84  88
ATOM     88  S   UNL     1      10.686   7.948   8.552  1.00  0.00     0.124 S 
ATOM     89  O   UNL     1      11.226   7.865   9.904  1.00  0.00    -0.237 OA
ATOM     90  O   UNL     1      11.414   7.213   7.522  1.00  0.00    -0.237 OA
ATOM     91  O   UNL     1      10.207   9.269   8.149  1.00  0.00    -0.744 OA
ENDBRANCH  84  88
ENDBRANCH  57  81
BRANCH  69  92
ATOM     92  C   UNL     1      10.795   2.349  15.303  1.00  0.00     0.023 A 
ATOM     93  C   UNL     1      10.243   3.341  16.132  1.00  0.00     0.031 A 
ATOM     94  C   UNL     1      12.136   1.980  15.521  1.00  0.00     0.131 A 
ATOM     95  C   UNL     1      11.048   3.983  17.085  1.00  0.00     0.055 A 
ATOM     96  C   UNL     1      12.908   2.566  16.524  1.00  0.00     0.041 A 
ATOM     97  F   UNL     1      12.720   1.041  14.759  1.00  0.00    -0.206 F 
ATOM     98  C   UNL     1      12.370   3.587  17.301  1.00  0.00     0.022 A 
BRANCH  95  99
ATOM     99  S   UNL     1      10.383   5.433  17.949  1.00  0.00     0.124 S 
ATOM    100  O   UNL     1      10.008   6.301  16.837  1.00  0.00    -0.237 OA
ATOM    101  O   UNL     1       9.279   4.862  18.713  1.00  0.00    -0.237 OA
ATOM    102  O   UNL     1      11.513   5.903  18.749  1.00  0.00    -0.744 OA
ENDBRANCH  95  99
ENDBRANCH  69  92
ENDBRANCH  43  44
ENDBRANCH  36  38
ENDBRANCH  35  36
ENDBRANCH  34  35
ENDBRANCH  33  34
ENDBRANCH  32  33
ENDBRANCH  31  32
ENDBRANCH  30  31
ENDBRANCH  29  30
ENDBRANCH   1  29
TORSDOF 28
