REMARK SMILES COc1ccc(S(=O)(=O)N2C[C@H](C)C[C@H](C)C2)cc1C(=O)OCCOCCOCCOCCOC(=O)c1ccc(-c2c3nc(c(-c4cc(S(=O)(=O)[O-])ccc4F)c4ccc([nH]4)c(-c4cc(S(=O)(=O)[O-])ccc4F)c4nc(c(-c5cc(S(=O)(=O)[O-])ccc5F)c5ccc2[nH]5)C=C4)C=C3)cc1
REMARK SMILES IDX 29 1 28 2 27 3 26 4 25 5 24 6 23 7 22 8 20 9 21 10 19 11
REMARK SMILES IDX 3 12 4 13 5 14 18 15 6 16 2 17 1 18 7 19 8 20 9 21 10 22
REMARK SMILES IDX 11 23 17 24 12 25 15 26 13 27 14 28 16 29 30 30 31 31 32 32
REMARK SMILES IDX 33 33 34 34 35 35 36 36 37 37 38 38 99 39 39 40 98 41 40 42
REMARK SMILES IDX 41 43 42 44 92 45 43 46 97 47 91 48 93 49 44 50 96 51 90 52
REMARK SMILES IDX 89 53 45 55 77 56 57 57 76 58 58 59 61 60 75 61 94 62 59 63
REMARK SMILES IDX 60 64 74 66 95 67 62 68 46 69 47 70 55 71 48 72 54 73 56 74
REMARK SMILES IDX 53 75 49 76 50 77 51 78 52 79 78 80 79 81 87 82 80 83 86 84
REMARK SMILES IDX 88 85 85 86 81 87 82 88 83 89 84 90 63 91 64 92 72 93 65 94
REMARK SMILES IDX 71 95 73 96 70 97 66 98 67 99 68 100 69 101
REMARK H PARENT 93 54 61 65
REMARK Flexibility Score: inf
ROOT
ATOM      1  C   UNL     1       4.174   2.051   1.906  1.00  0.00     0.188 C 
ENDROOT
BRANCH   1   2
ATOM      2  O   UNL     1       3.287   0.967   2.178  1.00  0.00    -0.377 OA
BRANCH   2   3
ATOM      3  C   UNL     1       3.818  -0.334   2.360  1.00  0.00     0.188 C 
BRANCH   3   4
ATOM      4  C   UNL     1       4.735  -0.901   1.261  1.00  0.00     0.188 C 
BRANCH   4   5
ATOM      5  O   UNL     1       5.153   0.075   0.330  1.00  0.00    -0.376 OA
BRANCH   5   6
ATOM      6  C   UNL     1       4.701  -0.026  -1.004  1.00  0.00     0.202 C 
BRANCH   6   7
ATOM      7  C   UNL     1       3.202  -0.197  -1.308  1.00  0.00     0.261 C 
BRANCH   7   8
ATOM      8  O   UNL     1       2.387  -0.655  -0.218  1.00  0.00    -0.460 OA
BRANCH   8   9
ATOM      9  C   UNL     1       1.808  -1.867  -0.353  1.00  0.00     0.342 C 
ATOM     10  O   UNL     1       2.011  -2.669  -1.251  1.00  0.00    -0.246 OA
BRANCH   9  11
ATOM     11  C   UNL     1       1.053  -2.238   0.866  1.00  0.00     0.103 A 
ATOM     12  C   UNL     1      -0.199  -1.760   1.247  1.00  0.00     0.133 A 
ATOM     13  C   UNL     1      -0.863  -2.421   2.301  1.00  0.00     0.049 A 
ATOM     14  C   UNL     1      -0.316  -3.547   2.939  1.00  0.00     0.025 A 
ATOM     15  C   UNL     1       1.617  -3.326   1.563  1.00  0.00     0.041 A 
ATOM     16  C   UNL     1       0.933  -4.019   2.549  1.00  0.00     0.083 A 
BRANCH  12  17
ATOM     17  O   UNL     1      -0.961  -0.785   0.673  1.00  0.00    -0.496 OA
ATOM     18  C   UNL     1      -0.301   0.328   0.084  1.00  0.00     0.278 C 
ENDBRANCH  12  17
BRANCH  16  19
ATOM     19  S   UNL     1       1.525  -5.566   3.225  1.00  0.00     0.243 S 
ATOM     20  O   UNL     1       1.461  -5.416   4.665  1.00  0.00    -0.207 OA
ATOM     21  O   UNL     1       0.774  -6.603   2.549  1.00  0.00    -0.207 OA
BRANCH  19  22
ATOM     22  N   UNL     1       3.147  -5.753   2.804  1.00  0.00    -0.197 NA
ATOM     23  C   UNL     1       3.599  -6.353   1.534  1.00  0.00     0.105 C 
ATOM     24  C   UNL     1       4.228  -5.266   3.665  1.00  0.00     0.105 C 
ATOM     25  C   UNL     1       4.400  -5.331   0.711  1.00  0.00     0.001 C 
ATOM     26  C   UNL     1       4.928  -4.116   2.950  1.00  0.00     0.001 C 
ATOM     27  C   UNL     1       5.036  -5.950  -0.531  1.00  0.00     0.009 C 
ATOM     28  C   UNL     1       5.439  -4.566   1.561  1.00  0.00     0.009 C 
ATOM     29  C   UNL     1       6.057  -3.548   3.814  1.00  0.00     0.009 C 
ENDBRANCH  19  22
ENDBRANCH  16  19
ENDBRANCH   9  11
ENDBRANCH   8   9
ENDBRANCH   7   8
ENDBRANCH   6   7
ENDBRANCH   5   6
ENDBRANCH   4   5
ENDBRANCH   3   4
ENDBRANCH   2   3
ENDBRANCH   1   2
BRANCH   1  30
ATOM     30  C   UNL     1       5.657   2.007   2.345  1.00  0.00     0.188 C 
BRANCH  30  31
ATOM     31  O   UNL     1       5.960   1.065   3.368  1.00  0.00    -0.376 OA
BRANCH  31  32
ATOM     32  C   UNL     1       6.196   1.610   4.660  1.00  0.00     0.202 C 
BRANCH  32  33
ATOM     33  C   UNL     1       4.930   2.100   5.373  1.00  0.00     0.261 C 
BRANCH  33  34
ATOM     34  O   UNL     1       4.288   3.229   4.760  1.00  0.00    -0.460 OA
BRANCH  34  35
ATOM     35  C   UNL     1       5.009   4.367   4.639  1.00  0.00     0.338 C 
ATOM     36  O   UNL     1       6.142   4.568   5.040  1.00  0.00    -0.246 OA
BRANCH  35  37
ATOM     37  C   UNL     1       4.251   5.266   3.749  1.00  0.00     0.060 A 
ATOM     38  C   UNL     1       4.840   5.698   2.554  1.00  0.00     0.016 A 
ATOM     39  C   UNL     1       2.942   5.631   4.074  1.00  0.00     0.016 A 
ATOM     40  C   UNL     1       4.116   6.508   1.678  1.00  0.00     0.010 A 
ATOM     41  C   UNL     1       2.229   6.458   3.208  1.00  0.00     0.010 A 
ATOM     42  C   UNL     1       2.818   6.914   2.016  1.00  0.00    -0.014 A 
BRANCH  42  43
ATOM     43  C   UNL     1       2.127   7.950   1.215  1.00  0.00     0.031 A 
ATOM     44  C   UNL     1       2.238   9.380   1.658  1.00  0.00     0.074 A 
ATOM     45  C   UNL     1       1.384   7.621   0.145  1.00  0.00     0.049 A 
ATOM     46  N   UNL     1       1.659  10.448   1.177  1.00  0.00    -0.248 NA
ATOM     47  C   UNL     1       3.114   9.631   2.812  1.00  0.00     0.031 C 
ATOM     48  C   UNL     1       1.218   6.268  -0.383  1.00  0.00     0.029 A 
ATOM     49  N   UNL     1       0.608   8.402  -0.674  1.00  0.00    -0.354 N 
ATOM     50  C   UNL     1       2.097  11.502   1.972  1.00  0.00     0.074 A 
ATOM     51  C   UNL     1       2.959  10.933   2.986  1.00  0.00     0.031 C 
ATOM     52  C   UNL     1       0.362   6.309  -1.419  1.00  0.00     0.029 A 
ATOM     53  C   UNL     1      -0.104   7.683  -1.604  1.00  0.00     0.049 A 
ATOM     54  H   UNL     1       0.566   9.383  -0.602  1.00  0.00     0.167 HD
ATOM     55  C   UNL     1       1.809  12.822   1.860  1.00  0.00     0.034 A 
ATOM     56  C   UNL     1      -1.053   8.084  -2.474  1.00  0.00     0.034 A 
ATOM     57  C   UNL     1       0.919  13.361   0.862  1.00  0.00     0.049 A 
ATOM     58  C   UNL     1      -1.432   9.544  -2.526  1.00  0.00     0.074 A 
ATOM     59  C   UNL     1       0.592  14.684   0.621  1.00  0.00     0.029 A 
ATOM     60  N   UNL     1       0.186  12.601  -0.042  1.00  0.00    -0.354 N 
ATOM     61  N   UNL     1      -0.971  10.544  -1.809  1.00  0.00    -0.248 NA
ATOM     62  C   UNL     1      -2.457   9.928  -3.505  1.00  0.00     0.031 C 
ATOM     63  C   UNL     1      -0.399  14.716  -0.368  1.00  0.00     0.029 A 
ATOM     64  C   UNL     1      -0.634  13.421  -0.804  1.00  0.00     0.049 A 
ATOM     65  H   UNL     1       0.240  11.622  -0.129  1.00  0.00     0.167 HD
ATOM     66  C   UNL     1      -1.645  11.678  -2.258  1.00  0.00     0.074 A 
ATOM     67  C   UNL     1      -2.527  11.239  -3.321  1.00  0.00     0.031 C 
ATOM     68  C   UNL     1      -1.539  12.964  -1.835  1.00  0.00     0.034 A 
BRANCH  55  69
ATOM     69  C   UNL     1       2.414  13.743   2.891  1.00  0.00     0.023 A 
ATOM     70  C   UNL     1       3.806  13.898   3.021  1.00  0.00     0.031 A 
ATOM     71  C   UNL     1       1.589  14.421   3.806  1.00  0.00     0.131 A 
ATOM     72  C   UNL     1       4.332  14.631   4.095  1.00  0.00     0.055 A 
ATOM     73  C   UNL     1       2.118  15.220   4.822  1.00  0.00     0.041 A 
ATOM     74  F   UNL     1       0.254  14.293   3.748  1.00  0.00    -0.206 F 
ATOM     75  C   UNL     1       3.497  15.312   4.983  1.00  0.00     0.022 A 
BRANCH  72  76
ATOM     76  S   UNL     1       6.115  14.531   4.419  1.00  0.00     0.124 S 
ATOM     77  O   UNL     1       6.316  13.088   4.532  1.00  0.00    -0.237 OA
ATOM     78  O   UNL     1       6.685  15.166   3.237  1.00  0.00    -0.237 OA
ATOM     79  O   UNL     1       6.278  15.273   5.668  1.00  0.00    -0.744 OA
ENDBRANCH  72  76
ENDBRANCH  55  69
BRANCH  56  80
ATOM     80  C   UNL     1      -1.761   7.079  -3.316  1.00  0.00     0.023 A 
ATOM     81  C   UNL     1      -1.607   7.049  -4.710  1.00  0.00     0.031 A 
ATOM     82  C   UNL     1      -2.620   6.134  -2.725  1.00  0.00     0.131 A 
ATOM     83  C   UNL     1      -2.320   6.107  -5.470  1.00  0.00     0.055 A 
ATOM     84  C   UNL     1      -3.296   5.175  -3.480  1.00  0.00     0.041 A 
ATOM     85  F   UNL     1      -2.799   6.120  -1.394  1.00  0.00    -0.206 F 
ATOM     86  C   UNL     1      -3.153   5.163  -4.864  1.00  0.00     0.022 A 
BRANCH  83  87
ATOM     87  S   UNL     1      -2.174   6.155  -7.278  1.00  0.00     0.124 S 
ATOM     88  O   UNL     1      -2.710   7.476  -7.586  1.00  0.00    -0.237 OA
ATOM     89  O   UNL     1      -0.737   5.984  -7.470  1.00  0.00    -0.237 OA
ATOM     90  O   UNL     1      -2.995   5.029  -7.716  1.00  0.00    -0.744 OA
ENDBRANCH  83  87
ENDBRANCH  56  80
BRANCH  68  91
ATOM     91  C   UNL     1      -2.398  13.991  -2.534  1.00  0.00     0.023 A 
ATOM     92  C   UNL     1      -3.798  13.993  -2.403  1.00  0.00     0.031 A 
ATOM     93  C   UNL     1      -1.809  14.981  -3.341  1.00  0.00     0.131 A 
ATOM     94  C   UNL     1      -4.565  14.937  -3.105  1.00  0.00     0.055 A 
ATOM     95  C   UNL     1      -2.572  15.953  -3.989  1.00  0.00     0.041 A 
ATOM     96  F   UNL     1      -0.477  15.024  -3.505  1.00  0.00    -0.206 F 
ATOM     97  C   UNL     1      -3.959  15.928  -3.882  1.00  0.00     0.022 A 
BRANCH  94  98
ATOM     98  S   UNL     1      -6.373  14.804  -3.055  1.00  0.00     0.124 S 
ATOM     99  O   UNL     1      -6.594  13.473  -3.614  1.00  0.00    -0.237 OA
ATOM    100  O   UNL     1      -6.660  14.954  -1.632  1.00  0.00    -0.237 OA
ATOM    101  O   UNL     1      -6.822  15.911  -3.897  1.00  0.00    -0.744 OA
ENDBRANCH  94  98
ENDBRANCH  68  91
ENDBRANCH  42  43
ENDBRANCH  35  37
ENDBRANCH  34  35
ENDBRANCH  33  34
ENDBRANCH  32  33
ENDBRANCH  31  32
ENDBRANCH  30  31
ENDBRANCH   1  30
TORSDOF 26
