REMARK SMILES CC[C@H](NC(=O)NC[C@@]1(C)CCCO1)C(=O)OCCOCCOCCOCCOC(=O)c1ccc(-c2c3nc(c(-c4cc(S(=O)(=O)[O-])ccc4F)c4ccc([nH]4)c(-c4cc(S(=O)(=O)[O-])ccc4F)c4nc(c(-c5cc(S(=O)(=O)[O-])ccc5F)c5ccc2[nH]5)C=C4)C=C3)cc1
REMARK SMILES IDX 23 1 22 2 21 3 20 4 19 5 18 6 17 7 15 8 16 9 3 10 2 11 1 12
REMARK SMILES IDX 4 13 5 14 6 16 7 17 8 19 9 20 10 21 11 22 14 23 12 24 13 25
REMARK SMILES IDX 24 26 25 27 26 28 27 29 28 30 29 31 30 32 31 33 32 34 33 35
REMARK SMILES IDX 94 36 34 37 93 38 35 39 36 40 37 41 87 42 38 43 92 44 86 45
REMARK SMILES IDX 88 46 39 47 91 48 85 49 84 50 40 52 72 53 52 54 71 55 53 56
REMARK SMILES IDX 56 57 70 58 89 59 54 60 55 61 69 63 90 64 57 65 41 66 42 67
REMARK SMILES IDX 50 68 43 69 49 70 51 71 48 72 44 73 45 74 46 75 47 76 73 77
REMARK SMILES IDX 74 78 82 79 75 80 81 81 83 82 80 83 76 84 77 85 78 86 79 87
REMARK SMILES IDX 58 88 59 89 67 90 60 91 66 92 68 93 65 94 61 95 62 96 63 97
REMARK SMILES IDX 64 98
REMARK H PARENT 4 15 7 18 88 51 56 62
REMARK Flexibility Score: inf
ROOT
ATOM      1  O   UNL     1      -0.782   2.179   3.605  1.00  0.00    -0.377 OA
ENDROOT
BRANCH   1   2
ATOM      2  C   UNL     1       0.612   1.983   3.529  1.00  0.00     0.188 C 
BRANCH   2   3
ATOM      3  C   UNL     1       1.457   3.260   3.647  1.00  0.00     0.188 C 
BRANCH   3   4
ATOM      4  O   UNL     1       0.904   4.481   4.116  1.00  0.00    -0.376 OA
BRANCH   4   5
ATOM      5  C   UNL     1      -0.401   4.898   3.738  1.00  0.00     0.202 C 
BRANCH   5   6
ATOM      6  C   UNL     1      -0.857   4.908   2.268  1.00  0.00     0.261 C 
BRANCH   6   7
ATOM      7  O   UNL     1      -0.553   3.728   1.503  1.00  0.00    -0.462 OA
BRANCH   7   8
ATOM      8  C   UNL     1       0.476   3.841   0.631  1.00  0.00     0.328 C 
ATOM      9  O   UNL     1       1.079   4.887   0.403  1.00  0.00    -0.250 OA
BRANCH   8  10
ATOM     10  C   UNL     1       0.866   2.510  -0.054  1.00  0.00     0.193 C 
BRANCH  10  11
ATOM     11  C   UNL     1       0.647   2.707  -1.557  1.00  0.00     0.033 C 
ATOM     12  C   UNL     1       1.663   1.939  -2.381  1.00  0.00     0.007 C 
ENDBRANCH  10  11
BRANCH  10  13
ATOM     13  N   UNL     1       0.187   1.281   0.377  1.00  0.00    -0.325 N 
ATOM     14  C   UNL     1       0.529   0.002   0.549  1.00  0.00     0.315 C 
ATOM     15  H   UNL     1      -0.760   1.441   0.593  1.00  0.00     0.166 HD
ATOM     16  O   UNL     1      -0.373  -0.808   0.783  1.00  0.00    -0.249 OA
ATOM     17  N   UNL     1       1.765  -0.500   0.524  1.00  0.00    -0.335 N 
ATOM     18  H   UNL     1       1.744  -1.478   0.639  1.00  0.00     0.165 HD
BRANCH  17  19
ATOM     19  C   UNL     1       3.139  -0.033   0.376  1.00  0.00     0.152 C 
BRANCH  19  20
ATOM     20  C   UNL     1       4.083  -0.431   1.545  1.00  0.00     0.083 C 
ATOM     21  C   UNL     1       3.787   0.404   2.795  1.00  0.00     0.044 C 
ATOM     22  C   UNL     1       4.087  -1.929   1.860  1.00  0.00     0.039 C 
ATOM     23  O   UNL     1       5.450  -0.142   1.159  1.00  0.00    -0.373 OA
ATOM     24  C   UNL     1       5.459  -2.142   2.458  1.00  0.00     0.031 C 
ATOM     25  C   UNL     1       6.312  -1.180   1.659  1.00  0.00     0.161 C 
ENDBRANCH  19  20
ENDBRANCH  17  19
ENDBRANCH  10  13
ENDBRANCH   8  10
ENDBRANCH   7   8
ENDBRANCH   6   7
ENDBRANCH   5   6
ENDBRANCH   4   5
ENDBRANCH   3   4
ENDBRANCH   2   3
ENDBRANCH   1   2
BRANCH   1  26
ATOM     26  C   UNL     1      -1.393   1.873   4.853  1.00  0.00     0.188 C 
BRANCH  26  27
ATOM     27  C   UNL     1      -0.608   2.226   6.135  1.00  0.00     0.188 C 
BRANCH  27  28
ATOM     28  O   UNL     1       0.721   1.717   6.168  1.00  0.00    -0.376 OA
BRANCH  28  29
ATOM     29  C   UNL     1       0.962   0.478   6.819  1.00  0.00     0.202 C 
BRANCH  29  30
ATOM     30  C   UNL     1       0.299  -0.791   6.251  1.00  0.00     0.261 C 
BRANCH  30  31
ATOM     31  O   UNL     1      -1.135  -0.803   6.184  1.00  0.00    -0.460 OA
BRANCH  31  32
ATOM     32  C   UNL     1      -1.828  -0.569   7.318  1.00  0.00     0.338 C 
ATOM     33  O   UNL     1      -1.364  -0.419   8.436  1.00  0.00    -0.246 OA
BRANCH  32  34
ATOM     34  C   UNL     1      -3.234  -0.303   6.942  1.00  0.00     0.060 A 
ATOM     35  C   UNL     1      -3.814   0.920   7.306  1.00  0.00     0.016 A 
ATOM     36  C   UNL     1      -3.976  -1.249   6.230  1.00  0.00     0.016 A 
ATOM     37  C   UNL     1      -5.148   1.183   6.996  1.00  0.00     0.010 A 
ATOM     38  C   UNL     1      -5.321  -0.994   5.942  1.00  0.00     0.010 A 
ATOM     39  C   UNL     1      -5.923   0.208   6.356  1.00  0.00    -0.014 A 
BRANCH  39  40
ATOM     40  C   UNL     1      -7.401   0.353   6.318  1.00  0.00     0.031 A 
ATOM     41  C   UNL     1      -8.210  -0.377   7.358  1.00  0.00     0.074 A 
ATOM     42  C   UNL     1      -8.012   1.133   5.410  1.00  0.00     0.049 A 
ATOM     43  N   UNL     1      -9.507  -0.464   7.495  1.00  0.00    -0.248 NA
ATOM     44  C   UNL     1      -7.444  -1.111   8.377  1.00  0.00     0.031 C 
ATOM     45  C   UNL     1      -7.335   1.934   4.392  1.00  0.00     0.029 A 
ATOM     46  N   UNL     1      -9.347   1.373   5.194  1.00  0.00    -0.354 N 
ATOM     47  C   UNL     1      -9.714  -1.267   8.613  1.00  0.00     0.074 A 
ATOM     48  C   UNL     1      -8.409  -1.674   9.086  1.00  0.00     0.031 C 
ATOM     49  C   UNL     1      -8.261   2.566   3.650  1.00  0.00     0.029 A 
ATOM     50  C   UNL     1      -9.595   2.181   4.109  1.00  0.00     0.049 A 
ATOM     51  H   UNL     1     -10.060   1.002   5.763  1.00  0.00     0.167 HD
ATOM     52  C   UNL     1     -10.885  -1.622   9.196  1.00  0.00     0.034 A 
ATOM     53  C   UNL     1     -10.763   2.537   3.534  1.00  0.00     0.034 A 
ATOM     54  C   UNL     1     -12.179  -1.224   8.699  1.00  0.00     0.049 A 
ATOM     55  C   UNL     1     -12.059   2.040   4.134  1.00  0.00     0.074 A 
ATOM     56  C   UNL     1     -13.429  -1.526   9.211  1.00  0.00     0.029 A 
ATOM     57  N   UNL     1     -12.393  -0.449   7.566  1.00  0.00    -0.354 N 
ATOM     58  N   UNL     1     -12.245   1.279   5.190  1.00  0.00    -0.248 NA
ATOM     59  C   UNL     1     -13.302   2.454   3.470  1.00  0.00     0.031 C 
ATOM     60  C   UNL     1     -14.395  -1.008   8.342  1.00  0.00     0.029 A 
ATOM     61  C   UNL     1     -13.752  -0.296   7.342  1.00  0.00     0.049 A 
ATOM     62  H   UNL     1     -11.682  -0.064   7.003  1.00  0.00     0.167 HD
ATOM     63  C   UNL     1     -13.627   1.157   5.333  1.00  0.00     0.074 A 
ATOM     64  C   UNL     1     -14.223   1.932   4.265  1.00  0.00     0.031 C 
ATOM     65  C   UNL     1     -14.338   0.473   6.267  1.00  0.00     0.034 A 
BRANCH  52  66
ATOM     66  C   UNL     1     -10.811  -2.532  10.399  1.00  0.00     0.023 A 
ATOM     67  C   UNL     1     -10.174  -2.138  11.589  1.00  0.00     0.031 A 
ATOM     68  C   UNL     1     -11.354  -3.828  10.344  1.00  0.00     0.131 A 
ATOM     69  C   UNL     1     -10.027  -3.054  12.642  1.00  0.00     0.055 A 
ATOM     70  C   UNL     1     -11.284  -4.704  11.428  1.00  0.00     0.041 A 
ATOM     71  F   UNL     1     -11.951  -4.272   9.226  1.00  0.00    -0.206 F 
ATOM     72  C   UNL     1     -10.603  -4.325  12.581  1.00  0.00     0.022 A 
BRANCH  69  73
ATOM     73  S   UNL     1      -8.938  -2.617  14.024  1.00  0.00     0.124 S 
ATOM     74  O   UNL     1      -7.673  -2.369  13.336  1.00  0.00    -0.237 OA
ATOM     75  O   UNL     1      -9.598  -1.446  14.589  1.00  0.00    -0.237 OA
ATOM     76  O   UNL     1      -8.956  -3.812  14.866  1.00  0.00    -0.744 OA
ENDBRANCH  69  73
ENDBRANCH  52  66
BRANCH  53  77
ATOM     77  C   UNL     1     -10.773   3.365   2.291  1.00  0.00     0.023 A 
ATOM     78  C   UNL     1     -11.382   4.630   2.259  1.00  0.00     0.031 A 
ATOM     79  C   UNL     1     -10.224   2.871   1.093  1.00  0.00     0.131 A 
ATOM     80  C   UNL     1     -11.470   5.335   1.048  1.00  0.00     0.055 A 
ATOM     81  C   UNL     1     -10.259   3.603  -0.095  1.00  0.00     0.041 A 
ATOM     82  F   UNL     1      -9.638   1.663   1.062  1.00  0.00    -0.206 F 
ATOM     83  C   UNL     1     -10.898   4.838  -0.125  1.00  0.00     0.022 A 
BRANCH  80  84
ATOM     84  S   UNL     1     -12.432   6.873   1.004  1.00  0.00     0.124 S 
ATOM     85  O   UNL     1     -13.745   6.412   1.441  1.00  0.00    -0.237 OA
ATOM     86  O   UNL     1     -11.701   7.715   1.945  1.00  0.00    -0.237 OA
ATOM     87  O   UNL     1     -12.348   7.287  -0.395  1.00  0.00    -0.744 OA
ENDBRANCH  80  84
ENDBRANCH  53  77
BRANCH  65  88
ATOM     88  C   UNL     1     -15.845   0.579   6.209  1.00  0.00     0.023 A 
ATOM     89  C   UNL     1     -16.589   0.067   5.131  1.00  0.00     0.031 A 
ATOM     90  C   UNL     1     -16.548   1.206   7.255  1.00  0.00     0.131 A 
ATOM     91  C   UNL     1     -17.981   0.243   5.095  1.00  0.00     0.055 A 
ATOM     92  C   UNL     1     -17.939   1.314   7.247  1.00  0.00     0.041 A 
ATOM     93  F   UNL     1     -15.893   1.718   8.308  1.00  0.00    -0.206 F 
ATOM     94  C   UNL     1     -18.663   0.844   6.157  1.00  0.00     0.022 A 
BRANCH  91  95
ATOM     95  S   UNL     1     -18.882  -0.231   3.594  1.00  0.00     0.124 S 
ATOM     96  O   UNL     1     -18.214   0.572   2.574  1.00  0.00    -0.237 OA
ATOM     97  O   UNL     1     -18.647  -1.669   3.528  1.00  0.00    -0.237 OA
ATOM     98  O   UNL     1     -20.261   0.158   3.884  1.00  0.00    -0.744 OA
ENDBRANCH  91  95
ENDBRANCH  65  88
ENDBRANCH  39  40
ENDBRANCH  32  34
ENDBRANCH  31  32
ENDBRANCH  30  31
ENDBRANCH  29  30
ENDBRANCH  28  29
ENDBRANCH  27  28
ENDBRANCH  26  27
ENDBRANCH   1  26
TORSDOF 27
