REMARK SMILES COc1ccc(-c2noc(CC(=O)OCCOCCOCCOCCOC(=O)c3ccc(-c4c5nc(c(-c6cc(S(=O)(=O)[O-])ccc6F)c6ccc([nH]6)c(-c6cc(S(=O)(=O)[O-])ccc6F)c6nc(c(-c7cc(S(=O)(=O)[O-])ccc7F)c7ccc4[nH]7)C=C6)C=C5)cc3)c2-c2ccc(OC)cc2)cc1
REMARK SMILES IDX 20 1 19 2 18 3 17 4 16 5 15 6 14 7 12 8 13 9 11 10 10 11
REMARK SMILES IDX 7 12 8 13 92 14 9 15 6 16 3 17 4 18 102 19 5 20 101 21 2 22
REMARK SMILES IDX 1 23 93 24 94 25 100 26 95 27 99 28 96 29 97 30 98 31 21 32
REMARK SMILES IDX 22 33 23 34 24 35 25 36 26 37 27 38 28 39 29 40 30 41 91 42
REMARK SMILES IDX 31 43 90 44 32 45 33 46 34 47 84 48 35 49 89 50 83 51 85 52
REMARK SMILES IDX 36 53 88 54 82 55 81 56 37 58 69 59 49 60 68 61 50 62 53 63
REMARK SMILES IDX 67 64 86 65 51 66 52 67 66 69 87 70 54 71 38 72 39 73 47 74
REMARK SMILES IDX 40 75 46 76 48 77 45 78 41 79 42 80 43 81 44 82 70 83 71 84
REMARK SMILES IDX 79 85 72 86 78 87 80 88 77 89 73 90 74 91 75 92 76 93 55 94
REMARK SMILES IDX 56 95 64 96 57 97 63 98 65 99 62 100 58 101 59 102 60 103
REMARK SMILES IDX 61 104
REMARK H PARENT 85 57 53 68
REMARK Flexibility Score: inf
ROOT
ATOM      1  O   UNL     1       0.944   7.216   7.598  1.00  0.00    -0.377 OA
ENDROOT
BRANCH   1   2
ATOM      2  C   UNL     1       1.584   6.588   8.687  1.00  0.00     0.188 C 
BRANCH   2   3
ATOM      3  C   UNL     1       2.332   7.516   9.651  1.00  0.00     0.188 C 
BRANCH   3   4
ATOM      4  O   UNL     1       2.109   8.916   9.637  1.00  0.00    -0.376 OA
BRANCH   4   5
ATOM      5  C   UNL     1       1.990   9.608   8.399  1.00  0.00     0.202 C 
BRANCH   5   6
ATOM      6  C   UNL     1       3.023   9.408   7.271  1.00  0.00     0.261 C 
BRANCH   6   7
ATOM      7  O   UNL     1       3.289   8.038   6.890  1.00  0.00    -0.463 OA
BRANCH   7   8
ATOM      8  C   UNL     1       4.544   7.579   7.076  1.00  0.00     0.313 C 
ATOM      9  O   UNL     1       5.473   8.283   7.472  1.00  0.00    -0.252 OA
BRANCH   8  10
ATOM     10  C   UNL     1       4.750   6.088   6.913  1.00  0.00     0.201 C 
BRANCH  10  11
ATOM     11  C   UNL     1       3.730   5.267   6.193  1.00  0.00     0.156 A 
ATOM     12  C   UNL     1       2.449   3.945   4.931  1.00  0.00     0.122 A 
ATOM     13  N   UNL     1       2.106   3.697   6.202  1.00  0.00    -0.079 NA
ATOM     14  C   UNL     1       3.494   4.916   4.880  1.00  0.00     0.053 A 
ATOM     15  O   UNL     1       2.956   4.455   6.974  1.00  0.00    -0.359 OA
BRANCH  12  16
ATOM     16  C   UNL     1       1.884   3.174   3.835  1.00  0.00     0.005 A 
ATOM     17  C   UNL     1       0.859   1.773   1.627  1.00  0.00     0.118 A 
ATOM     18  C   UNL     1       0.040   2.630   2.368  1.00  0.00     0.047 A 
ATOM     19  C   UNL     1       2.191   1.606   2.003  1.00  0.00     0.047 A 
ATOM     20  C   UNL     1       0.542   3.320   3.477  1.00  0.00     0.014 A 
ATOM     21  C   UNL     1       2.701   2.304   3.102  1.00  0.00     0.014 A 
BRANCH  17  22
ATOM     22  O   UNL     1       0.256   1.189   0.548  1.00  0.00    -0.497 OA
ATOM     23  C   UNL     1       0.919   0.074  -0.033  1.00  0.00     0.278 C 
ENDBRANCH  17  22
ENDBRANCH  12  16
BRANCH  14  24
ATOM     24  C   UNL     1       4.372   5.268   3.795  1.00  0.00    -0.012 A 
ATOM     25  C   UNL     1       3.914   5.890   2.637  1.00  0.00     0.013 A 
ATOM     26  C   UNL     1       5.718   4.898   3.904  1.00  0.00     0.013 A 
ATOM     27  C   UNL     1       4.822   6.180   1.614  1.00  0.00     0.047 A 
ATOM     28  C   UNL     1       6.620   5.205   2.897  1.00  0.00     0.047 A 
ATOM     29  C   UNL     1       6.179   5.861   1.751  1.00  0.00     0.118 A 
BRANCH  29  30
ATOM     30  O   UNL     1       6.984   6.217   0.704  1.00  0.00    -0.497 OA
ATOM     31  C   UNL     1       8.383   6.157   0.959  1.00  0.00     0.278 C 
ENDBRANCH  29  30
ENDBRANCH  14  24
ENDBRANCH  10  11
ENDBRANCH   8  10
ENDBRANCH   7   8
ENDBRANCH   6   7
ENDBRANCH   5   6
ENDBRANCH   4   5
ENDBRANCH   3   4
ENDBRANCH   2   3
ENDBRANCH   1   2
BRANCH   1  32
ATOM     32  C   UNL     1      -0.466   7.367   7.668  1.00  0.00     0.188 C 
BRANCH  32  33
ATOM     33  C   UNL     1      -1.065   7.659   9.054  1.00  0.00     0.188 C 
BRANCH  33  34
ATOM     34  O   UNL     1      -0.733   6.692  10.045  1.00  0.00    -0.376 OA
BRANCH  34  35
ATOM     35  C   UNL     1      -1.603   5.579  10.219  1.00  0.00     0.202 C 
BRANCH  35  36
ATOM     36  C   UNL     1      -1.792   4.618   9.031  1.00  0.00     0.261 C 
BRANCH  36  37
ATOM     37  O   UNL     1      -2.469   5.143   7.875  1.00  0.00    -0.460 OA
BRANCH  37  38
ATOM     38  C   UNL     1      -3.636   5.799   8.037  1.00  0.00     0.338 C 
ATOM     39  O   UNL     1      -4.282   5.913   9.063  1.00  0.00    -0.246 OA
BRANCH  38  40
ATOM     40  C   UNL     1      -3.886   6.553   6.791  1.00  0.00     0.060 A 
ATOM     41  C   UNL     1      -3.976   7.951   6.850  1.00  0.00     0.016 A 
ATOM     42  C   UNL     1      -4.004   5.886   5.570  1.00  0.00     0.016 A 
ATOM     43  C   UNL     1      -4.196   8.686   5.685  1.00  0.00     0.010 A 
ATOM     44  C   UNL     1      -4.255   6.622   4.410  1.00  0.00     0.010 A 
ATOM     45  C   UNL     1      -4.372   8.023   4.465  1.00  0.00    -0.014 A 
BRANCH  45  46
ATOM     46  C   UNL     1      -4.853   8.764   3.276  1.00  0.00     0.031 A 
ATOM     47  C   UNL     1      -6.323   8.728   2.963  1.00  0.00     0.074 A 
ATOM     48  C   UNL     1      -4.005   9.447   2.487  1.00  0.00     0.049 A 
ATOM     49  N   UNL     1      -6.964   9.187   1.922  1.00  0.00    -0.248 NA
ATOM     50  C   UNL     1      -7.182   8.078   3.966  1.00  0.00     0.031 C 
ATOM     51  C   UNL     1      -2.572   9.608   2.729  1.00  0.00     0.029 A 
ATOM     52  N   UNL     1      -4.226  10.119   1.310  1.00  0.00    -0.354 N 
ATOM     53  C   UNL     1      -8.302   8.872   2.135  1.00  0.00     0.074 A 
ATOM     54  C   UNL     1      -8.372   8.159   3.392  1.00  0.00     0.031 C 
ATOM     55  C   UNL     1      -2.038  10.315   1.718  1.00  0.00     0.029 A 
ATOM     56  C   UNL     1      -3.078  10.610   0.733  1.00  0.00     0.049 A 
ATOM     57  H   UNL     1      -5.121  10.238   0.918  1.00  0.00     0.167 HD
ATOM     58  C   UNL     1      -9.370   9.156   1.351  1.00  0.00     0.034 A 
ATOM     59  C   UNL     1      -2.887  11.188  -0.472  1.00  0.00     0.034 A 
ATOM     60  C   UNL     1      -9.273   9.852   0.092  1.00  0.00     0.049 A 
ATOM     61  C   UNL     1      -4.075  11.383  -1.387  1.00  0.00     0.074 A 
ATOM     62  C   UNL     1     -10.291  10.206  -0.776  1.00  0.00     0.029 A 
ATOM     63  N   UNL     1      -8.087  10.281  -0.490  1.00  0.00    -0.354 N 
ATOM     64  N   UNL     1      -5.338  11.088  -1.177  1.00  0.00    -0.248 NA
ATOM     65  C   UNL     1      -3.813  11.986  -2.701  1.00  0.00     0.031 C 
ATOM     66  C   UNL     1      -9.714  10.767  -1.920  1.00  0.00     0.029 A 
ATOM     67  C   UNL     1      -8.344  10.851  -1.728  1.00  0.00     0.049 A 
ATOM     68  H   UNL     1      -7.195  10.194  -0.084  1.00  0.00     0.167 HD
ATOM     69  C   UNL     1      -6.021  11.496  -2.321  1.00  0.00     0.074 A 
ATOM     70  C   UNL     1      -5.033  12.069  -3.211  1.00  0.00     0.031 C 
ATOM     71  C   UNL     1      -7.345  11.409  -2.610  1.00  0.00     0.034 A 
BRANCH  58  72
ATOM     72  C   UNL     1     -10.718   8.653   1.805  1.00  0.00     0.023 A 
ATOM     73  C   UNL     1     -11.317   9.102   2.995  1.00  0.00     0.031 A 
ATOM     74  C   UNL     1     -11.403   7.685   1.048  1.00  0.00     0.131 A 
ATOM     75  C   UNL     1     -12.526   8.535   3.427  1.00  0.00     0.055 A 
ATOM     76  C   UNL     1     -12.646   7.186   1.441  1.00  0.00     0.041 A 
ATOM     77  F   UNL     1     -10.868   7.197  -0.082  1.00  0.00    -0.206 F 
ATOM     78  C   UNL     1     -13.208   7.600   2.645  1.00  0.00     0.022 A 
BRANCH  75  79
ATOM     79  S   UNL     1     -13.118   8.927   5.096  1.00  0.00     0.124 S 
ATOM     80  O   UNL     1     -11.989   8.499   5.918  1.00  0.00    -0.237 OA
ATOM     81  O   UNL     1     -13.345  10.365   5.021  1.00  0.00    -0.237 OA
ATOM     82  O   UNL     1     -14.322   8.110   5.232  1.00  0.00    -0.744 OA
ENDBRANCH  75  79
ENDBRANCH  58  72
BRANCH  59  83
ATOM     83  C   UNL     1      -1.514  11.568  -0.921  1.00  0.00     0.023 A 
ATOM     84  C   UNL     1      -1.188  12.901  -1.213  1.00  0.00     0.031 A 
ATOM     85  C   UNL     1      -0.524  10.589  -1.125  1.00  0.00     0.131 A 
ATOM     86  C   UNL     1       0.078  13.214  -1.735  1.00  0.00     0.055 A 
ATOM     87  C   UNL     1       0.753  10.913  -1.587  1.00  0.00     0.041 A 
ATOM     88  F   UNL     1      -0.783   9.296  -0.872  1.00  0.00    -0.206 F 
ATOM     89  C   UNL     1       1.056  12.232  -1.907  1.00  0.00     0.022 A 
BRANCH  86  90
ATOM     90  S   UNL     1       0.397  14.915  -2.279  1.00  0.00     0.124 S 
ATOM     91  O   UNL     1      -0.647  15.106  -3.280  1.00  0.00    -0.237 OA
ATOM     92  O   UNL     1       0.240  15.665  -1.037  1.00  0.00    -0.237 OA
ATOM     93  O   UNL     1       1.760  14.855  -2.802  1.00  0.00    -0.744 OA
ENDBRANCH  86  90
ENDBRANCH  59  83
BRANCH  71  94
ATOM     94  C   UNL     1      -7.810  11.986  -3.926  1.00  0.00     0.023 A 
ATOM     95  C   UNL     1      -7.444  11.416  -5.157  1.00  0.00     0.031 A 
ATOM     96  C   UNL     1      -8.654  13.113  -3.944  1.00  0.00     0.131 A 
ATOM     97  C   UNL     1      -7.886  11.998  -6.356  1.00  0.00     0.055 A 
ATOM     98  C   UNL     1      -9.141  13.649  -5.136  1.00  0.00     0.041 A 
ATOM     99  F   UNL     1      -9.033  13.701  -2.798  1.00  0.00    -0.206 F 
ATOM    100  C   UNL     1      -8.749  13.097  -6.352  1.00  0.00     0.022 A 
BRANCH  97 101
ATOM    101  S   UNL     1      -7.258  11.346  -7.927  1.00  0.00     0.124 S 
ATOM    102  O   UNL     1      -5.820  11.550  -7.786  1.00  0.00    -0.237 OA
ATOM    103  O   UNL     1      -7.711   9.960  -7.896  1.00  0.00    -0.237 OA
ATOM    104  O   UNL     1      -7.908  12.186  -8.932  1.00  0.00    -0.744 OA
ENDBRANCH  97 101
ENDBRANCH  71  94
ENDBRANCH  45  46
ENDBRANCH  38  40
ENDBRANCH  37  38
ENDBRANCH  36  37
ENDBRANCH  35  36
ENDBRANCH  34  35
ENDBRANCH  33  34
ENDBRANCH  32  33
ENDBRANCH   1  32
TORSDOF 28
