REMARK SMILES O=C(OCCOCCOCCOCCOC(=O)[C@H]1CCCC[N@H+]1Cc1ccc(F)cc1Cl)c1ccc(-c2c3nc(c(-c4cc(S(=O)(=O)[O-])ccc4F)c4ccc([nH]4)c(-c4cc(S(=O)(=O)[O-])ccc4F)c4nc(c(-c5cc(S(=O)(=O)[O-])ccc5F)c5ccc2[nH]5)C=C4)C=C3)cc1
REMARK SMILES IDX 8 1 7 2 6 3 5 4 4 5 3 6 2 7 1 8 33 9 34 10 95 11 35 12 94 13
REMARK SMILES IDX 36 14 37 15 38 16 88 17 39 18 93 19 87 20 89 21 40 22 92 23
REMARK SMILES IDX 86 24 85 25 41 27 73 28 53 29 72 30 54 31 57 32 71 33 90 34
REMARK SMILES IDX 55 35 56 36 70 38 91 39 58 40 42 41 43 42 51 43 44 44 50 45
REMARK SMILES IDX 52 46 49 47 45 48 46 49 47 50 48 51 74 52 75 53 83 54 76 55
REMARK SMILES IDX 82 56 84 57 81 58 77 59 78 60 79 61 80 62 59 63 60 64 68 65
REMARK SMILES IDX 61 66 67 67 69 68 66 69 62 70 63 71 64 72 65 73 9 74 10 75
REMARK SMILES IDX 11 76 12 77 13 78 14 79 15 80 16 81 17 82 18 83 19 84 23 85
REMARK SMILES IDX 20 86 22 87 21 89 24 90 25 91 26 92 31 93 27 94 30 95 32 96
REMARK SMILES IDX 28 97 29 98
REMARK H PARENT 89 26 57 37 23 88
REMARK Flexibility Score: inf
ROOT
ATOM      1  C   UNL     1       6.947  -0.553   1.067  1.00  0.00     0.188 C 
ENDROOT
BRANCH   1   2
ATOM      2  C   UNL     1       6.566  -0.335  -0.378  1.00  0.00     0.188 C 
BRANCH   2   3
ATOM      3  O   UNL     1       6.252   1.020  -0.622  1.00  0.00    -0.376 OA
BRANCH   3   4
ATOM      4  C   UNL     1       4.891   1.348  -0.881  1.00  0.00     0.202 C 
BRANCH   4   5
ATOM      5  C   UNL     1       4.503   0.836  -2.261  1.00  0.00     0.261 C 
BRANCH   5   6
ATOM      6  O   UNL     1       5.454   1.346  -3.224  1.00  0.00    -0.460 OA
BRANCH   6   7
ATOM      7  C   UNL     1       6.649   0.693  -3.280  1.00  0.00     0.338 C 
ATOM      8  O   UNL     1       6.791  -0.514  -3.416  1.00  0.00    -0.246 OA
BRANCH   7   9
ATOM      9  C   UNL     1       7.773   1.638  -2.992  1.00  0.00     0.060 A 
ATOM     10  C   UNL     1       7.540   2.785  -2.216  1.00  0.00     0.016 A 
ATOM     11  C   UNL     1       9.082   1.342  -3.389  1.00  0.00     0.016 A 
ATOM     12  C   UNL     1       8.568   3.605  -1.808  1.00  0.00     0.010 A 
ATOM     13  C   UNL     1      10.110   2.254  -3.108  1.00  0.00     0.010 A 
ATOM     14  C   UNL     1       9.834   3.403  -2.345  1.00  0.00    -0.014 A 
BRANCH  14  15
ATOM     15  C   UNL     1      10.622   4.645  -2.448  1.00  0.00     0.031 A 
ATOM     16  C   UNL     1      10.313   5.511  -3.643  1.00  0.00     0.074 A 
ATOM     17  C   UNL     1      11.306   5.126  -1.397  1.00  0.00     0.049 A 
ATOM     18  N   UNL     1      10.831   6.649  -4.006  1.00  0.00    -0.248 NA
ATOM     19  C   UNL     1       9.219   5.049  -4.523  1.00  0.00     0.031 C 
ATOM     20  C   UNL     1      11.396   4.487  -0.083  1.00  0.00     0.029 A 
ATOM     21  N   UNL     1      12.015   6.288  -1.252  1.00  0.00    -0.354 N 
ATOM     22  C   UNL     1      10.150   7.014  -5.164  1.00  0.00     0.074 A 
ATOM     23  C   UNL     1       9.155   6.008  -5.426  1.00  0.00     0.031 C 
ATOM     24  C   UNL     1      12.139   5.260   0.728  1.00  0.00     0.029 A 
ATOM     25  C   UNL     1      12.648   6.395  -0.035  1.00  0.00     0.049 A 
ATOM     26  H   UNL     1      12.067   6.979  -1.951  1.00  0.00     0.167 HD
ATOM     27  C   UNL     1      10.377   8.084  -5.956  1.00  0.00     0.034 A 
ATOM     28  C   UNL     1      13.588   7.276   0.362  1.00  0.00     0.034 A 
ATOM     29  C   UNL     1      11.409   9.037  -5.665  1.00  0.00     0.049 A 
ATOM     30  C   UNL     1      13.992   8.341  -0.637  1.00  0.00     0.074 A 
ATOM     31  C   UNL     1      11.855  10.093  -6.432  1.00  0.00     0.029 A 
ATOM     32  N   UNL     1      12.171   9.027  -4.502  1.00  0.00    -0.354 N 
ATOM     33  N   UNL     1      13.473   8.603  -1.818  1.00  0.00    -0.248 NA
ATOM     34  C   UNL     1      15.111   9.212  -0.267  1.00  0.00     0.031 C 
ATOM     35  C   UNL     1      12.950  10.661  -5.776  1.00  0.00     0.029 A 
ATOM     36  C   UNL     1      13.114  10.033  -4.548  1.00  0.00     0.049 A 
ATOM     37  H   UNL     1      12.055   8.395  -3.756  1.00  0.00     0.167 HD
ATOM     38  C   UNL     1      14.183   9.692  -2.315  1.00  0.00     0.074 A 
ATOM     39  C   UNL     1      15.152  10.045  -1.296  1.00  0.00     0.031 C 
ATOM     40  C   UNL     1      14.055  10.346  -3.499  1.00  0.00     0.034 A 
BRANCH  27  41
ATOM     41  C   UNL     1       9.626   8.148  -7.260  1.00  0.00     0.023 A 
ATOM     42  C   UNL     1       8.236   8.340  -7.330  1.00  0.00     0.031 A 
ATOM     43  C   UNL     1      10.324   7.923  -8.461  1.00  0.00     0.131 A 
ATOM     44  C   UNL     1       7.583   8.250  -8.572  1.00  0.00     0.055 A 
ATOM     45  C   UNL     1       9.681   7.916  -9.698  1.00  0.00     0.041 A 
ATOM     46  F   UNL     1      11.644   7.676  -8.447  1.00  0.00    -0.206 F 
ATOM     47  C   UNL     1       8.301   8.071  -9.758  1.00  0.00     0.022 A 
BRANCH  44  48
ATOM     48  S   UNL     1       5.769   8.224  -8.606  1.00  0.00     0.124 S 
ATOM     49  O   UNL     1       5.477   7.020  -7.832  1.00  0.00    -0.237 OA
ATOM     50  O   UNL     1       5.420   9.490  -7.973  1.00  0.00    -0.237 OA
ATOM     51  O   UNL     1       5.454   8.132 -10.031  1.00  0.00    -0.744 OA
ENDBRANCH  44  48
ENDBRANCH  27  41
BRANCH  28  52
ATOM     52  C   UNL     1      14.309   7.120   1.664  1.00  0.00     0.023 A 
ATOM     53  C   UNL     1      14.415   8.178   2.581  1.00  0.00     0.031 A 
ATOM     54  C   UNL     1      15.018   5.936   1.956  1.00  0.00     0.131 A 
ATOM     55  C   UNL     1      15.260   8.058   3.699  1.00  0.00     0.055 A 
ATOM     56  C   UNL     1      15.792   5.794   3.109  1.00  0.00     0.041 A 
ATOM     57  F   UNL     1      14.989   4.895   1.109  1.00  0.00    -0.206 F 
ATOM     58  C   UNL     1      15.934   6.868   3.978  1.00  0.00     0.022 A 
BRANCH  55  59
ATOM     59  S   UNL     1      15.596   9.537   4.697  1.00  0.00     0.124 S 
ATOM     60  O   UNL     1      16.087  10.467   3.687  1.00  0.00    -0.237 OA
ATOM     61  O   UNL     1      14.282   9.831   5.256  1.00  0.00    -0.237 OA
ATOM     62  O   UNL     1      16.595   9.078   5.660  1.00  0.00    -0.744 OA
ENDBRANCH  55  59
ENDBRANCH  28  52
BRANCH  40  63
ATOM     63  C   UNL     1      14.939  11.545  -3.715  1.00  0.00     0.023 A 
ATOM     64  C   UNL     1      16.332  11.426  -3.824  1.00  0.00     0.031 A 
ATOM     65  C   UNL     1      14.364  12.823  -3.832  1.00  0.00     0.131 A 
ATOM     66  C   UNL     1      17.113  12.578  -3.976  1.00  0.00     0.055 A 
ATOM     67  C   UNL     1      15.140  13.954  -4.071  1.00  0.00     0.041 A 
ATOM     68  F   UNL     1      13.035  12.988  -3.733  1.00  0.00    -0.206 F 
ATOM     69  C   UNL     1      16.526  13.837  -4.128  1.00  0.00     0.022 A 
BRANCH  66  70
ATOM     70  S   UNL     1      18.914  12.421  -3.854  1.00  0.00     0.124 S 
ATOM     71  O   UNL     1      19.075  11.827  -2.530  1.00  0.00    -0.237 OA
ATOM     72  O   UNL     1      19.230  11.554  -4.984  1.00  0.00    -0.237 OA
ATOM     73  O   UNL     1      19.386  13.798  -3.978  1.00  0.00    -0.744 OA
ENDBRANCH  66  70
ENDBRANCH  40  63
ENDBRANCH  14  15
ENDBRANCH   7   9
ENDBRANCH   6   7
ENDBRANCH   5   6
ENDBRANCH   4   5
ENDBRANCH   3   4
ENDBRANCH   2   3
ENDBRANCH   1   2
BRANCH   1  74
ATOM     74  O   UNL     1       6.061   0.073   2.008  1.00  0.00    -0.377 OA
BRANCH  74  75
ATOM     75  C   UNL     1       6.220   1.656   2.168  1.00  0.00     0.188 C 
BRANCH  75  76
ATOM     76  C   UNL     1       7.169   2.812   3.757  1.00  0.00     0.188 C 
BRANCH  76  77
ATOM     77  O   UNL     1       8.625   3.014   4.157  1.00  0.00    -0.376 OA
BRANCH  77  78
ATOM     78  C   UNL     1       9.343   2.197   5.074  1.00  0.00     0.202 C 
BRANCH  78  79
ATOM     79  C   UNL     1       8.751   1.411   6.276  1.00  0.00     0.261 C 
BRANCH  79  80
ATOM     80  O   UNL     1       7.335   1.323   6.502  1.00  0.00    -0.459 OA
BRANCH  80  81
ATOM     81  C   UNL     1       6.701   2.465   6.899  1.00  0.00     0.364 C 
ATOM     82  O   UNL     1       7.309   3.497   7.151  1.00  0.00    -0.245 OA
BRANCH  81  83
ATOM     83  C   UNL     1       5.145   2.264   6.949  1.00  0.00     0.295 C 
ATOM     84  C   UNL     1       4.688   2.632   8.361  1.00  0.00     0.078 C 
ATOM     85  N   UNL     1       4.308   3.094   6.038  1.00  0.00    -0.319 N 
ATOM     86  C   UNL     1       4.869   4.128   8.642  1.00  0.00     0.013 C 
ATOM     87  C   UNL     1       4.601   4.518   6.104  1.00  0.00     0.263 C 
ATOM     88  H   UNL     1       3.399   2.959   6.481  1.00  0.00     0.349 HD
ATOM     89  C   UNL     1       4.327   5.022   7.522  1.00  0.00     0.062 C 
BRANCH  85  90
ATOM     90  C   UNL     1       3.929   2.588   4.724  1.00  0.00     0.301 C 
BRANCH  90  91
ATOM     91  C   UNL     1       5.089   2.400   3.805  1.00  0.00     0.025 A 
ATOM     92  C   UNL     1       6.173   0.995   4.134  1.00  0.00     0.014 A 
ATOM     93  C   UNL     1       5.562   3.645   2.589  1.00  0.00     0.052 A 
ATOM     94  C   UNL     1       7.773   0.885   3.298  1.00  0.00     0.040 A 
ATOM     95  C   UNL     1       7.152   3.543   1.756  1.00  0.00     0.060 A 
ATOM     96  Cl  UNL     1       4.514   4.957   2.220  1.00  0.00    -0.084 Cl
ATOM     97  C   UNL     1       8.246   2.149   2.087  1.00  0.00     0.124 A 
ATOM     98  F   UNL     1       9.382   2.004   1.396  1.00  0.00    -0.207 F 
ENDBRANCH  90  91
ENDBRANCH  85  90
ENDBRANCH  81  83
ENDBRANCH  80  81
ENDBRANCH  79  80
ENDBRANCH  78  79
ENDBRANCH  77  78
ENDBRANCH  76  77
ENDBRANCH  75  76
ENDBRANCH  74  75
ENDBRANCH   1  74
TORSDOF 25
