REMARK SMILES Cc1c(C(=O)OCCOCCOCCOCCOC(=O)c2ccc(-c3c4nc(c(-c5cc(S(=O)(=O)[O-])ccc5F)c5ccc([nH]5)c(-c5cc(S(=O)(=O)[O-])ccc5F)c5nc(c(-c6cc(S(=O)(=O)[O-])ccc6F)c6ccc3[nH]6)C=C5)C=C4)cc2)cccc1-n1c(C)cc(/C=C2/C(=O)NC(=S)N=C2O)c1C
REMARK SMILES IDX 12 1 11 2 10 3 9 4 8 5 7 6 6 7 4 8 5 9 3 10 1 11 2 12 87 13
REMARK SMILES IDX 84 14 86 15 85 16 88 17 89 18 103 19 90 20 91 21 92 22
REMARK SMILES IDX 104 23 93 24 94 25 95 26 101 27 96 28 97 29 100 30 98 31
REMARK SMILES IDX 99 33 102 34 13 36 14 37 15 38 16 39 17 40 18 41 19 42 20 43
REMARK SMILES IDX 21 44 22 45 83 46 23 47 82 48 24 49 25 50 26 51 76 52 27 53
REMARK SMILES IDX 81 54 75 55 77 56 28 57 80 58 74 59 73 60 29 62 61 63 41 64
REMARK SMILES IDX 60 65 42 66 45 67 59 68 78 69 43 70 44 71 58 73 79 74 46 75
REMARK SMILES IDX 30 76 31 77 39 78 32 79 38 80 40 81 37 82 33 83 34 84 35 85
REMARK SMILES IDX 36 86 62 87 63 88 71 89 64 90 70 91 72 92 69 93 65 94 66 95
REMARK SMILES IDX 67 96 68 97 47 98 48 99 56 100 49 101 55 102 57 103 54 104
REMARK SMILES IDX 50 105 51 106 52 107 53 108
REMARK H PARENT 97 32 102 35 77 61 45 72
REMARK Flexibility Score: inf
ROOT
ATOM      1  O   UNL     1       0.996  -1.563   2.490  1.00  0.00    -0.377 OA
ENDROOT
BRANCH   1   2
ATOM      2  C   UNL     1      -0.358  -1.490   2.898  1.00  0.00     0.188 C 
BRANCH   2   3
ATOM      3  C   UNL     1      -1.313  -2.393   2.114  1.00  0.00     0.188 C 
BRANCH   3   4
ATOM      4  O   UNL     1      -0.988  -3.770   1.978  1.00  0.00    -0.376 OA
BRANCH   4   5
ATOM      5  C   UNL     1      -0.023  -4.069   0.970  1.00  0.00     0.202 C 
BRANCH   5   6
ATOM      6  C   UNL     1      -0.510  -3.889  -0.457  1.00  0.00     0.261 C 
BRANCH   6   7
ATOM      7  O   UNL     1      -0.352  -2.511  -0.805  1.00  0.00    -0.460 OA
BRANCH   7   8
ATOM      8  C   UNL     1      -1.447  -1.918  -1.293  1.00  0.00     0.338 C 
ATOM      9  O   UNL     1      -2.411  -2.487  -1.762  1.00  0.00    -0.246 OA
BRANCH   8  10
ATOM     10  C   UNL     1      -1.469  -0.469  -0.925  1.00  0.00     0.065 A 
ATOM     11  C   UNL     1       0.983  -0.053  -0.180  1.00  0.00     0.047 C 
ATOM     12  C   UNL     1      -0.394   0.386  -0.599  1.00  0.00    -0.012 A 
ATOM     13  C   UNL     1      -0.691   1.749  -0.421  1.00  0.00     0.049 A 
ATOM     14  C   UNL     1      -2.790   0.003  -0.775  1.00  0.00     0.016 A 
ATOM     15  C   UNL     1      -2.010   2.206  -0.291  1.00  0.00     0.027 A 
ATOM     16  C   UNL     1      -3.061   1.315  -0.414  1.00  0.00     0.003 A 
BRANCH  13  17
ATOM     17  N   UNL     1       0.341   2.689  -0.195  1.00  0.00    -0.318 N 
ATOM     18  C   UNL     1       1.247   3.176  -1.124  1.00  0.00     0.020 A 
ATOM     19  C   UNL     1       0.563   3.316   1.022  1.00  0.00     0.027 A 
ATOM     20  C   UNL     1       1.480   2.603  -2.481  1.00  0.00     0.065 C 
ATOM     21  C   UNL     1       1.802   4.311  -0.561  1.00  0.00     0.031 A 
ATOM     22  C   UNL     1       1.280   4.465   0.753  1.00  0.00    -0.003 A 
ATOM     23  C   UNL     1       0.104   2.678   2.293  1.00  0.00     0.065 C 
BRANCH  22  24
ATOM     24  C   UNL     1       1.621   5.548   1.618  1.00  0.00     0.029 C 
ATOM     25  C   UNL     1       0.970   6.100   2.658  1.00  0.00     0.102 C 
ATOM     26  C   UNL     1       1.682   7.197   3.359  1.00  0.00     0.262 C 
ATOM     27  C   UNL     1      -0.317   5.769   3.276  1.00  0.00     0.226 C 
ATOM     28  O   UNL     1       2.580   7.873   2.870  1.00  0.00    -0.269 OA
ATOM     29  N   UNL     1       1.229   7.425   4.631  1.00  0.00    -0.297 N 
ATOM     30  N   UNL     1      -0.709   6.088   4.456  1.00  0.00    -0.184 NA
ATOM     31  C   UNL     1       0.127   6.856   5.220  1.00  0.00     0.203 C 
ATOM     32  H   UNL     1       1.744   8.061   5.178  1.00  0.00     0.172 HD
ATOM     33  S   UNL     1      -0.183   7.237   6.824  1.00  0.00    -0.038 S 
BRANCH  27  34
ATOM     34  O   UNL     1      -1.217   5.156   2.507  1.00  0.00    -0.493 OA
ATOM     35  H   UNL     1      -0.991   4.898   1.635  1.00  0.00     0.295 HD
ENDBRANCH  27  34
ENDBRANCH  22  24
ENDBRANCH  13  17
ENDBRANCH   8  10
ENDBRANCH   7   8
ENDBRANCH   6   7
ENDBRANCH   5   6
ENDBRANCH   4   5
ENDBRANCH   3   4
ENDBRANCH   2   3
ENDBRANCH   1   2
BRANCH   1  36
ATOM     36  C   UNL     1       1.869  -1.891   3.566  1.00  0.00     0.188 C 
BRANCH  36  37
ATOM     37  C   UNL     1       1.843  -3.382   3.811  1.00  0.00     0.188 C 
BRANCH  37  38
ATOM     38  O   UNL     1       0.652  -3.949   4.343  1.00  0.00    -0.376 OA
BRANCH  38  39
ATOM     39  C   UNL     1       0.395  -3.764   5.728  1.00  0.00     0.202 C 
BRANCH  39  40
ATOM     40  C   UNL     1       1.593  -4.049   6.644  1.00  0.00     0.261 C 
BRANCH  40  41
ATOM     41  O   UNL     1       2.088  -5.378   6.365  1.00  0.00    -0.460 OA
BRANCH  41  42
ATOM     42  C   UNL     1       3.421  -5.465   6.078  1.00  0.00     0.338 C 
ATOM     43  O   UNL     1       4.313  -4.993   6.756  1.00  0.00    -0.246 OA
BRANCH  42  44
ATOM     44  C   UNL     1       3.600  -6.003   4.686  1.00  0.00     0.060 A 
ATOM     45  C   UNL     1       4.746  -5.643   3.953  1.00  0.00     0.016 A 
ATOM     46  C   UNL     1       2.498  -6.517   4.011  1.00  0.00     0.016 A 
ATOM     47  C   UNL     1       4.706  -5.605   2.544  1.00  0.00     0.010 A 
ATOM     48  C   UNL     1       2.448  -6.407   2.627  1.00  0.00     0.010 A 
ATOM     49  C   UNL     1       3.515  -5.883   1.872  1.00  0.00    -0.014 A 
BRANCH  49  50
ATOM     50  C   UNL     1       3.209  -5.453   0.477  1.00  0.00     0.031 A 
ATOM     51  C   UNL     1       2.441  -6.365  -0.445  1.00  0.00     0.074 A 
ATOM     52  C   UNL     1       3.279  -4.132   0.151  1.00  0.00     0.049 A 
ATOM     53  N   UNL     1       2.016  -6.070  -1.628  1.00  0.00    -0.248 NA
ATOM     54  C   UNL     1       2.001  -7.698  -0.061  1.00  0.00     0.031 C 
ATOM     55  C   UNL     1       2.600  -3.480  -0.960  1.00  0.00     0.029 A 
ATOM     56  N   UNL     1       3.940  -3.054   0.758  1.00  0.00    -0.354 N 
ATOM     57  C   UNL     1       0.956  -6.896  -1.958  1.00  0.00     0.074 A 
ATOM     58  C   UNL     1       1.057  -7.948  -0.976  1.00  0.00     0.031 C 
ATOM     59  C   UNL     1       2.955  -2.203  -1.085  1.00  0.00     0.029 A 
ATOM     60  C   UNL     1       4.081  -2.040  -0.226  1.00  0.00     0.049 A 
ATOM     61  H   UNL     1       4.248  -3.009   1.692  1.00  0.00     0.167 HD
ATOM     62  C   UNL     1       0.063  -6.498  -2.930  1.00  0.00     0.034 A 
ATOM     63  C   UNL     1       5.292  -1.669  -0.722  1.00  0.00     0.034 A 
ATOM     64  C   UNL     1       0.490  -5.221  -3.577  1.00  0.00     0.049 A 
ATOM     65  C   UNL     1       5.354  -2.067  -2.213  1.00  0.00     0.074 A 
ATOM     66  C   UNL     1      -0.103  -3.996  -3.849  1.00  0.00     0.029 A 
ATOM     67  N   UNL     1       1.840  -5.041  -3.905  1.00  0.00    -0.354 N 
ATOM     68  N   UNL     1       4.676  -3.080  -2.729  1.00  0.00    -0.248 NA
ATOM     69  C   UNL     1       5.861  -1.181  -3.258  1.00  0.00     0.031 C 
ATOM     70  C   UNL     1       0.918  -3.073  -4.245  1.00  0.00     0.029 A 
ATOM     71  C   UNL     1       2.135  -3.741  -4.267  1.00  0.00     0.049 A 
ATOM     72  H   UNL     1       2.508  -5.764  -3.880  1.00  0.00     0.167 HD
ATOM     73  C   UNL     1       4.442  -2.857  -4.072  1.00  0.00     0.074 A 
ATOM     74  C   UNL     1       5.280  -1.694  -4.362  1.00  0.00     0.031 C 
ATOM     75  C   UNL     1       3.437  -3.411  -4.843  1.00  0.00     0.034 A 
BRANCH  62  76
ATOM     76  C   UNL     1      -1.324  -7.135  -3.218  1.00  0.00     0.023 A 
ATOM     77  C   UNL     1      -2.246  -6.502  -4.096  1.00  0.00     0.031 A 
ATOM     78  C   UNL     1      -1.817  -8.341  -2.672  1.00  0.00     0.131 A 
ATOM     79  C   UNL     1      -3.544  -7.020  -4.346  1.00  0.00     0.055 A 
ATOM     80  C   UNL     1      -3.103  -8.856  -2.915  1.00  0.00     0.041 A 
ATOM     81  F   UNL     1      -1.083  -9.137  -1.897  1.00  0.00    -0.206 F 
ATOM     82  C   UNL     1      -3.977  -8.197  -3.753  1.00  0.00     0.022 A 
BRANCH  79  83
ATOM     83  S   UNL     1      -4.668  -6.173  -5.503  1.00  0.00     0.124 S 
ATOM     84  O   UNL     1      -5.009  -4.957  -4.773  1.00  0.00    -0.237 OA
ATOM     85  O   UNL     1      -3.836  -6.008  -6.689  1.00  0.00    -0.237 OA
ATOM     86  O   UNL     1      -5.772  -7.122  -5.660  1.00  0.00    -0.744 OA
ENDBRANCH  79  83
ENDBRANCH  62  76
BRANCH  63  87
ATOM     87  C   UNL     1       6.247  -1.520   0.426  1.00  0.00     0.023 A 
ATOM     88  C   UNL     1       5.865  -0.515   1.372  1.00  0.00     0.031 A 
ATOM     89  C   UNL     1       6.915  -2.644   0.935  1.00  0.00     0.131 A 
ATOM     90  C   UNL     1       5.902  -0.777   2.757  1.00  0.00     0.055 A 
ATOM     91  C   UNL     1       7.007  -2.867   2.323  1.00  0.00     0.041 A 
ATOM     92  F   UNL     1       7.293  -3.638   0.119  1.00  0.00    -0.206 F 
ATOM     93  C   UNL     1       6.434  -1.974   3.233  1.00  0.00     0.022 A 
BRANCH  90  94
ATOM     94  S   UNL     1       4.967   0.298   3.911  1.00  0.00     0.124 S 
ATOM     95  O   UNL     1       5.948   1.325   4.241  1.00  0.00    -0.237 OA
ATOM     96  O   UNL     1       3.832   0.741   3.109  1.00  0.00    -0.237 OA
ATOM     97  O   UNL     1       4.610  -0.609   5.002  1.00  0.00    -0.744 OA
ENDBRANCH  90  94
ENDBRANCH  63  87
BRANCH  75  98
ATOM     98  C   UNL     1       3.599  -3.764  -6.316  1.00  0.00     0.023 A 
ATOM     99  C   UNL     1       4.650  -3.293  -7.095  1.00  0.00     0.031 A 
ATOM    100  C   UNL     1       2.761  -4.729  -6.952  1.00  0.00     0.131 A 
ATOM    101  C   UNL     1       4.870  -3.779  -8.393  1.00  0.00     0.055 A 
ATOM    102  C   UNL     1       2.992  -5.229  -8.234  1.00  0.00     0.041 A 
ATOM    103  F   UNL     1       1.700  -5.285  -6.353  1.00  0.00    -0.206 F 
ATOM    104  C   UNL     1       4.064  -4.760  -8.963  1.00  0.00     0.022 A 
BRANCH 101 105
ATOM    105  S   UNL     1       6.283  -3.107  -9.287  1.00  0.00     0.124 S 
ATOM    106  O   UNL     1       5.920  -1.697  -9.404  1.00  0.00    -0.237 OA
ATOM    107  O   UNL     1       7.387  -3.400  -8.377  1.00  0.00    -0.237 OA
ATOM    108  O   UNL     1       6.289  -3.860 -10.538  1.00  0.00    -0.744 OA
ENDBRANCH 101 105
ENDBRANCH  75  98
ENDBRANCH  49  50
ENDBRANCH  42  44
ENDBRANCH  41  42
ENDBRANCH  40  41
ENDBRANCH  39  40
ENDBRANCH  38  39
ENDBRANCH  37  38
ENDBRANCH  36  37
ENDBRANCH   1  36
TORSDOF 26
