REMARK SMILES Cc1cc(C)cc(C(=O)N2CC[C@H](C(=O)OCCOCCOCCOCCOC(=O)c3ccc(-c4c5nc(c(-c6cc(S(=O)(=O)[O-])ccc6F)c6ccc([nH]6)c(-c6cc(S(=O)(=O)[O-])ccc6F)c6nc(c(-c7cc(S(=O)(=O)[O-])ccc7F)c7ccc4[nH]7)C=C6)C=C5)cc3)[C@@H]2C)c1
REMARK SMILES IDX 23 1 22 2 21 3 20 4 19 5 18 6 17 7 16 8 14 9 15 10 13 11
REMARK SMILES IDX 10 12 11 13 94 14 12 15 95 16 8 17 9 18 7 19 1 20 2 21 3 22
REMARK SMILES IDX 96 23 4 24 5 25 6 26 24 27 25 28 26 29 27 30 28 31 29 32
REMARK SMILES IDX 30 33 31 34 32 35 93 36 33 37 92 38 34 39 35 40 36 41 86 42
REMARK SMILES IDX 37 43 91 44 85 45 87 46 38 47 90 48 84 49 83 50 39 52 71 53
REMARK SMILES IDX 51 54 70 55 52 56 55 57 69 58 88 59 53 60 54 61 68 63 89 64
REMARK SMILES IDX 56 65 40 66 41 67 49 68 42 69 48 70 50 71 47 72 43 73 44 74
REMARK SMILES IDX 45 75 46 76 72 77 73 78 81 79 74 80 80 81 82 82 79 83 75 84
REMARK SMILES IDX 76 85 77 86 78 87 57 88 58 89 66 90 59 91 65 92 67 93 64 94
REMARK SMILES IDX 60 95 61 96 62 97 63 98
REMARK H PARENT 87 51 55 62
REMARK Flexibility Score: inf
ROOT
ATOM      1  C   UNL     1       3.043  -6.368   5.462  1.00  0.00     0.188 C 
ENDROOT
BRANCH   1   2
ATOM      2  O   UNL     1       3.607  -6.633   4.197  1.00  0.00    -0.377 OA
BRANCH   2   3
ATOM      3  C   UNL     1       2.774  -6.287   3.124  1.00  0.00     0.188 C 
BRANCH   3   4
ATOM      4  C   UNL     1       2.161  -7.470   2.379  1.00  0.00     0.188 C 
BRANCH   4   5
ATOM      5  O   UNL     1       2.984  -8.570   2.005  1.00  0.00    -0.376 OA
BRANCH   5   6
ATOM      6  C   UNL     1       4.362  -8.538   2.335  1.00  0.00     0.202 C 
BRANCH   6   7
ATOM      7  C   UNL     1       5.257  -7.656   1.441  1.00  0.00     0.261 C 
BRANCH   7   8
ATOM      8  O   UNL     1       4.814  -6.312   1.112  1.00  0.00    -0.463 OA
BRANCH   8   9
ATOM      9  C   UNL     1       3.886  -6.188   0.117  1.00  0.00     0.311 C 
ATOM     10  O   UNL     1       3.397  -7.146  -0.470  1.00  0.00    -0.252 OA
BRANCH   9  11
ATOM     11  C   UNL     1       3.659  -4.721  -0.304  1.00  0.00     0.123 C 
ATOM     12  N   UNL     1       1.453  -3.823  -0.790  1.00  0.00    -0.335 N 
ATOM     13  C   UNL     1       1.754  -4.864  -1.744  1.00  0.00     0.121 C 
ATOM     14  C   UNL     1       2.548  -3.728   0.198  1.00  0.00     0.096 C 
ATOM     15  C   UNL     1       3.276  -4.798  -1.803  1.00  0.00     0.039 C 
ATOM     16  C   UNL     1       1.971  -3.743   1.598  1.00  0.00     0.032 C 
BRANCH  12  17
ATOM     17  C   UNL     1       0.280  -3.088  -0.937  1.00  0.00     0.254 C 
ATOM     18  O   UNL     1      -0.702  -3.562  -1.510  1.00  0.00    -0.269 OA
BRANCH  17  19
ATOM     19  C   UNL     1       0.197  -1.662  -0.494  1.00  0.00     0.040 A 
ATOM     20  C   UNL     1       2.459   1.372  -0.078  1.00  0.00     0.044 C 
ATOM     21  C   UNL     1       1.226   0.521  -0.136  1.00  0.00    -0.050 A 
ATOM     22  C   UNL     1      -0.036   1.076   0.093  1.00  0.00     0.006 A 
ATOM     23  C   UNL     1       1.319  -0.829  -0.492  1.00  0.00     0.017 A 
ATOM     24  C   UNL     1      -1.190   0.285   0.014  1.00  0.00    -0.050 A 
ATOM     25  C   UNL     1      -2.537   0.938   0.128  1.00  0.00     0.044 C 
ATOM     26  C   UNL     1      -1.063  -1.089  -0.254  1.00  0.00     0.017 A 
ENDBRANCH  17  19
ENDBRANCH  12  17
ENDBRANCH   9  11
ENDBRANCH   8   9
ENDBRANCH   7   8
ENDBRANCH   6   7
ENDBRANCH   5   6
ENDBRANCH   4   5
ENDBRANCH   3   4
ENDBRANCH   2   3
ENDBRANCH   1   2
BRANCH   1  27
ATOM     27  C   UNL     1       1.709  -7.085   5.716  1.00  0.00     0.188 C 
BRANCH  27  28
ATOM     28  O   UNL     1       0.518  -6.596   5.099  1.00  0.00    -0.376 OA
BRANCH  28  29
ATOM     29  C   UNL     1       0.133  -5.227   5.105  1.00  0.00     0.202 C 
BRANCH  29  30
ATOM     30  C   UNL     1       0.138  -4.385   6.380  1.00  0.00     0.261 C 
BRANCH  30  31
ATOM     31  O   UNL     1       1.423  -4.294   7.000  1.00  0.00    -0.460 OA
BRANCH  31  32
ATOM     32  C   UNL     1       1.545  -5.007   8.151  1.00  0.00     0.338 C 
ATOM     33  O   UNL     1       0.689  -5.666   8.694  1.00  0.00    -0.246 OA
BRANCH  32  34
ATOM     34  C   UNL     1       2.972  -5.042   8.527  1.00  0.00     0.060 A 
ATOM     35  C   UNL     1       3.569  -6.296   8.716  1.00  0.00     0.016 A 
ATOM     36  C   UNL     1       3.708  -3.867   8.685  1.00  0.00     0.016 A 
ATOM     37  C   UNL     1       4.912  -6.382   9.064  1.00  0.00     0.010 A 
ATOM     38  C   UNL     1       5.040  -3.953   9.084  1.00  0.00     0.010 A 
ATOM     39  C   UNL     1       5.636  -5.209   9.297  1.00  0.00    -0.014 A 
BRANCH  39  40
ATOM     40  C   UNL     1       6.939  -5.291   9.987  1.00  0.00     0.031 A 
ATOM     41  C   UNL     1       6.942  -5.156  11.482  1.00  0.00     0.074 A 
ATOM     42  C   UNL     1       8.077  -5.484   9.301  1.00  0.00     0.049 A 
ATOM     43  N   UNL     1       7.951  -5.088  12.308  1.00  0.00    -0.248 NA
ATOM     44  C   UNL     1       5.622  -5.081  12.130  1.00  0.00     0.031 C 
ATOM     45  C   UNL     1       8.167  -5.700   7.857  1.00  0.00     0.029 A 
ATOM     46  N   UNL     1       9.378  -5.516   9.731  1.00  0.00    -0.354 N 
ATOM     47  C   UNL     1       7.389  -4.950  13.572  1.00  0.00     0.074 A 
ATOM     48  C   UNL     1       5.954  -4.915  13.400  1.00  0.00     0.031 C 
ATOM     49  C   UNL     1       9.463  -5.824   7.519  1.00  0.00     0.029 A 
ATOM     50  C   UNL     1      10.290  -5.646   8.711  1.00  0.00     0.049 A 
ATOM     51  H   UNL     1       9.634  -5.453  10.679  1.00  0.00     0.167 HD
ATOM     52  C   UNL     1       8.021  -4.861  14.766  1.00  0.00     0.034 A 
ATOM     53  C   UNL     1      11.637  -5.587   8.742  1.00  0.00     0.034 A 
ATOM     54  C   UNL     1       9.455  -4.877  14.903  1.00  0.00     0.049 A 
ATOM     55  C   UNL     1      12.319  -5.359  10.072  1.00  0.00     0.074 A 
ATOM     56  C   UNL     1      10.210  -4.813  16.060  1.00  0.00     0.029 A 
ATOM     57  N   UNL     1      10.352  -4.942  13.844  1.00  0.00    -0.354 N 
ATOM     58  N   UNL     1      11.784  -5.244  11.268  1.00  0.00    -0.248 NA
ATOM     59  C   UNL     1      13.783  -5.248  10.057  1.00  0.00     0.031 C 
ATOM     60  C   UNL     1      11.558  -4.747  15.694  1.00  0.00     0.029 A 
ATOM     61  C   UNL     1      11.651  -4.862  14.316  1.00  0.00     0.049 A 
ATOM     62  H   UNL     1      10.100  -5.030  12.896  1.00  0.00     0.167 HD
ATOM     63  C   UNL     1      12.850  -5.071  12.147  1.00  0.00     0.074 A 
ATOM     64  C   UNL     1      14.057  -5.117  11.347  1.00  0.00     0.031 C 
ATOM     65  C   UNL     1      12.839  -4.893  13.494  1.00  0.00     0.034 A 
BRANCH  52  66
ATOM     66  C   UNL     1       7.166  -4.666  15.992  1.00  0.00     0.023 A 
ATOM     67  C   UNL     1       6.240  -5.636  16.416  1.00  0.00     0.031 A 
ATOM     68  C   UNL     1       7.252  -3.472  16.730  1.00  0.00     0.131 A 
ATOM     69  C   UNL     1       5.391  -5.366  17.499  1.00  0.00     0.055 A 
ATOM     70  C   UNL     1       6.463  -3.244  17.858  1.00  0.00     0.041 A 
ATOM     71  F   UNL     1       8.094  -2.496  16.355  1.00  0.00    -0.206 F 
ATOM     72  C   UNL     1       5.515  -4.189  18.241  1.00  0.00     0.022 A 
BRANCH  69  73
ATOM     73  S   UNL     1       4.023  -6.509  17.833  1.00  0.00     0.124 S 
ATOM     74  O   UNL     1       3.301  -6.483  16.563  1.00  0.00    -0.237 OA
ATOM     75  O   UNL     1       4.719  -7.751  18.147  1.00  0.00    -0.237 OA
ATOM     76  O   UNL     1       3.321  -5.885  18.953  1.00  0.00    -0.744 OA
ENDBRANCH  69  73
ENDBRANCH  52  66
BRANCH  53  77
ATOM     77  C   UNL     1      12.433  -5.684   7.485  1.00  0.00     0.023 A 
ATOM     78  C   UNL     1      13.364  -6.718   7.299  1.00  0.00     0.031 A 
ATOM     79  C   UNL     1      12.320  -4.711   6.475  1.00  0.00     0.131 A 
ATOM     80  C   UNL     1      14.179  -6.728   6.156  1.00  0.00     0.055 A 
ATOM     81  C   UNL     1      13.091  -4.759   5.312  1.00  0.00     0.041 A 
ATOM     82  F   UNL     1      11.452  -3.694   6.603  1.00  0.00    -0.206 F 
ATOM     83  C   UNL     1      14.038  -5.766   5.154  1.00  0.00     0.022 A 
BRANCH  80  84
ATOM     84  S   UNL     1      15.499  -7.967   6.046  1.00  0.00     0.124 S 
ATOM     85  O   UNL     1      16.276  -7.678   7.246  1.00  0.00    -0.237 OA
ATOM     86  O   UNL     1      14.744  -9.215   6.054  1.00  0.00    -0.237 OA
ATOM     87  O   UNL     1      16.159  -7.648   4.782  1.00  0.00    -0.744 OA
ENDBRANCH  80  84
ENDBRANCH  53  77
BRANCH  65  88
ATOM     88  C   UNL     1      14.174  -4.759  14.183  1.00  0.00     0.023 A 
ATOM     89  C   UNL     1      15.005  -3.646  13.968  1.00  0.00     0.031 A 
ATOM     90  C   UNL     1      14.612  -5.748  15.082  1.00  0.00     0.131 A 
ATOM     91  C   UNL     1      16.252  -3.572  14.606  1.00  0.00     0.055 A 
ATOM     92  C   UNL     1      15.823  -5.637  15.764  1.00  0.00     0.041 A 
ATOM     93  F   UNL     1      13.860  -6.834  15.323  1.00  0.00    -0.206 F 
ATOM     94  C   UNL     1      16.656  -4.549  15.520  1.00  0.00     0.022 A 
BRANCH  91  95
ATOM     95  S   UNL     1      17.376  -2.220  14.165  1.00  0.00     0.124 S 
ATOM     96  O   UNL     1      17.570  -2.443  12.736  1.00  0.00    -0.237 OA
ATOM     97  O   UNL     1      16.601  -1.037  14.525  1.00  0.00    -0.237 OA
ATOM     98  O   UNL     1      18.552  -2.466  14.996  1.00  0.00    -0.744 OA
ENDBRANCH  91  95
ENDBRANCH  65  88
ENDBRANCH  39  40
ENDBRANCH  32  34
ENDBRANCH  31  32
ENDBRANCH  30  31
ENDBRANCH  29  30
ENDBRANCH  28  29
ENDBRANCH  27  28
ENDBRANCH   1  27
TORSDOF 25
