REMARK SMILES COc1ccc(CCc2nnc(NC(=O)[C@@H]3[C@@H](C(=O)OCCOCCOCCOCCOC(=O)c4ccc(-c5c6nc(c(-c7cc(S(=O)(=O)[O-])ccc7F)c7ccc([nH]7)c(-c7cc(S(=O)(=O)[O-])ccc7F)c7nc(c(-c8cc(S(=O)(=O)[O-])ccc8F)c8ccc5[nH]8)C=C7)C=C6)cc4)C3(C)C)s2)cc1
REMARK SMILES IDX 24 1 23 2 22 3 21 4 20 5 18 6 19 7 17 8 16 9 98 10 99 11
REMARK SMILES IDX 100 12 14 13 13 14 15 16 12 17 9 18 10 19 101 20 11 21 8 22
REMARK SMILES IDX 7 23 6 24 3 25 4 26 103 27 5 28 102 29 2 30 1 31 25 32 26 33
REMARK SMILES IDX 27 34 28 35 29 36 30 37 31 38 32 39 33 40 34 41 35 42 36 43
REMARK SMILES IDX 97 44 37 45 96 46 38 47 39 48 40 49 90 50 41 51 95 52 89 53
REMARK SMILES IDX 91 54 42 55 94 56 88 57 87 58 43 60 75 61 55 62 74 63 56 64
REMARK SMILES IDX 59 65 73 66 92 67 57 68 58 69 72 71 93 72 60 73 44 74 45 75
REMARK SMILES IDX 53 76 46 77 52 78 54 79 51 80 47 81 48 82 49 83 50 84 76 85
REMARK SMILES IDX 77 86 85 87 78 88 84 89 86 90 83 91 79 92 80 93 81 94 82 95
REMARK SMILES IDX 61 96 62 97 70 98 63 99 69 100 71 101 68 102 64 103 65 104
REMARK SMILES IDX 66 105 67 106
REMARK H PARENT 13 15 91 59 59 70
REMARK Flexibility Score: inf
ROOT
ATOM      1  C   UNL     1       0.062   4.018  -3.199  1.00  0.00     0.188 C 
ENDROOT
BRANCH   1   2
ATOM      2  O   UNL     1       0.112   5.331  -2.655  1.00  0.00    -0.376 OA
BRANCH   2   3
ATOM      3  C   UNL     1      -0.246   6.378  -3.551  1.00  0.00     0.202 C 
BRANCH   3   4
ATOM      4  C   UNL     1      -1.746   6.508  -3.845  1.00  0.00     0.261 C 
BRANCH   4   5
ATOM      5  O   UNL     1      -2.373   5.295  -4.290  1.00  0.00    -0.463 OA
BRANCH   5   6
ATOM      6  C   UNL     1      -2.121   4.911  -5.555  1.00  0.00     0.310 C 
ATOM      7  O   UNL     1      -1.367   5.477  -6.337  1.00  0.00    -0.252 OA
BRANCH   6   8
ATOM      8  C   UNL     1      -2.764   3.629  -5.932  1.00  0.00     0.118 C 
ATOM      9  C   UNL     1      -4.220   3.706  -6.332  1.00  0.00     0.100 C 
ATOM     10  C   UNL     1      -3.811   2.761  -5.227  1.00  0.00    -0.009 C 
ATOM     11  C   UNL     1      -4.438   3.092  -3.886  1.00  0.00     0.013 C 
ATOM     12  C   UNL     1      -3.747   1.272  -5.475  1.00  0.00     0.013 C 
BRANCH   9  13
ATOM     13  C   UNL     1      -4.566   3.395  -7.742  1.00  0.00     0.230 C 
ATOM     14  N   UNL     1      -5.116   4.395  -8.511  1.00  0.00    -0.300 N 
ATOM     15  H   UNL     1      -5.511   4.152  -9.379  1.00  0.00     0.172 HD
ATOM     16  O   UNL     1      -4.440   2.261  -8.196  1.00  0.00    -0.274 OA
BRANCH  14  17
ATOM     17  C   UNL     1      -5.143   5.708  -8.132  1.00  0.00     0.212 A 
ATOM     18  C   UNL     1      -5.990   7.835  -7.582  1.00  0.00     0.119 A 
ATOM     19  N   UNL     1      -4.887   7.556  -6.920  1.00  0.00    -0.142 NA
ATOM     20  S   UNL     1      -6.374   6.675  -8.807  1.00  0.00    -0.080 S 
ATOM     21  N   UNL     1      -4.399   6.316  -7.243  1.00  0.00    -0.120 NA
BRANCH  18  22
ATOM     22  C   UNL     1      -6.867   9.006  -7.284  1.00  0.00     0.074 C 
BRANCH  22  23
ATOM     23  C   UNL     1      -8.151   8.619  -6.534  1.00  0.00     0.043 C 
BRANCH  23  24
ATOM     24  C   UNL     1      -7.964   8.122  -5.117  1.00  0.00    -0.047 A 
ATOM     25  C   UNL     1      -7.722   7.178  -2.470  1.00  0.00     0.118 A 
ATOM     26  C   UNL     1      -7.445   6.338  -3.546  1.00  0.00     0.046 A 
ATOM     27  C   UNL     1      -8.079   8.502  -2.712  1.00  0.00     0.046 A 
ATOM     28  C   UNL     1      -7.583   6.798  -4.858  1.00  0.00     0.007 A 
ATOM     29  C   UNL     1      -8.195   8.973  -4.027  1.00  0.00     0.007 A 
BRANCH  25  30
ATOM     30  O   UNL     1      -7.572   6.623  -1.229  1.00  0.00    -0.497 OA
ATOM     31  C   UNL     1      -8.529   7.058  -0.264  1.00  0.00     0.278 C 
ENDBRANCH  25  30
ENDBRANCH  23  24
ENDBRANCH  22  23
ENDBRANCH  18  22
ENDBRANCH  14  17
ENDBRANCH   9  13
ENDBRANCH   6   8
ENDBRANCH   5   6
ENDBRANCH   4   5
ENDBRANCH   3   4
ENDBRANCH   2   3
ENDBRANCH   1   2
BRANCH   1  32
ATOM     32  C   UNL     1      -1.065   3.136  -2.644  1.00  0.00     0.188 C 
BRANCH  32  33
ATOM     33  O   UNL     1      -2.052   3.725  -1.816  1.00  0.00    -0.377 OA
BRANCH  33  34
ATOM     34  C   UNL     1      -1.659   4.479  -0.674  1.00  0.00     0.188 C 
BRANCH  34  35
ATOM     35  C   UNL     1      -0.324   4.178   0.033  1.00  0.00     0.188 C 
BRANCH  35  36
ATOM     36  O   UNL     1       0.200   2.875  -0.201  1.00  0.00    -0.376 OA
BRANCH  36  37
ATOM     37  C   UNL     1      -0.024   1.917   0.826  1.00  0.00     0.202 C 
BRANCH  37  38
ATOM     38  C   UNL     1      -1.477   1.441   0.952  1.00  0.00     0.261 C 
BRANCH  38  39
ATOM     39  O   UNL     1      -2.393   2.426   1.457  1.00  0.00    -0.460 OA
BRANCH  39  40
ATOM     40  C   UNL     1      -2.128   2.939   2.679  1.00  0.00     0.338 C 
ATOM     41  O   UNL     1      -1.233   2.610   3.436  1.00  0.00    -0.246 OA
BRANCH  40  42
ATOM     42  C   UNL     1      -3.011   4.101   2.882  1.00  0.00     0.060 A 
ATOM     43  C   UNL     1      -2.431   5.350   3.130  1.00  0.00     0.016 A 
ATOM     44  C   UNL     1      -4.400   3.953   2.846  1.00  0.00     0.016 A 
ATOM     45  C   UNL     1      -3.246   6.452   3.384  1.00  0.00     0.010 A 
ATOM     46  C   UNL     1      -5.214   5.055   3.115  1.00  0.00     0.010 A 
ATOM     47  C   UNL     1      -4.640   6.301   3.419  1.00  0.00    -0.014 A 
BRANCH  47  48
ATOM     48  C   UNL     1      -5.477   7.399   3.958  1.00  0.00     0.031 A 
ATOM     49  C   UNL     1      -5.839   7.371   5.419  1.00  0.00     0.074 A 
ATOM     50  C   UNL     1      -5.877   8.417   3.175  1.00  0.00     0.049 A 
ATOM     51  N   UNL     1      -6.526   8.232   6.124  1.00  0.00    -0.248 NA
ATOM     52  C   UNL     1      -5.363   6.208   6.184  1.00  0.00     0.031 C 
ATOM     53  C   UNL     1      -5.572   8.563   1.753  1.00  0.00     0.029 A 
ATOM     54  N   UNL     1      -6.625   9.527   3.476  1.00  0.00    -0.354 N 
ATOM     55  C   UNL     1      -6.559   7.720   7.417  1.00  0.00     0.074 A 
ATOM     56  C   UNL     1      -5.862   6.452   7.385  1.00  0.00     0.031 C 
ATOM     57  C   UNL     1      -6.121   9.707   1.306  1.00  0.00     0.029 A 
ATOM     58  C   UNL     1      -6.836  10.358   2.401  1.00  0.00     0.049 A 
ATOM     59  H   UNL     1      -6.977   9.711   4.376  1.00  0.00     0.167 HD
ATOM     60  C   UNL     1      -7.112   8.262   8.531  1.00  0.00     0.034 A 
ATOM     61  C   UNL     1      -7.537  11.507   2.317  1.00  0.00     0.034 A 
ATOM     62  C   UNL     1      -7.824   9.516   8.543  1.00  0.00     0.049 A 
ATOM     63  C   UNL     1      -8.211  12.049   3.553  1.00  0.00     0.074 A 
ATOM     64  C   UNL     1      -8.398  10.174   9.618  1.00  0.00     0.029 A 
ATOM     65  N   UNL     1      -8.081  10.295   7.421  1.00  0.00    -0.354 N 
ATOM     66  N   UNL     1      -8.215  11.569   4.775  1.00  0.00    -0.248 NA
ATOM     67  C   UNL     1      -8.973  13.294   3.390  1.00  0.00     0.031 C 
ATOM     68  C   UNL     1      -9.064  11.307   9.135  1.00  0.00     0.029 A 
ATOM     69  C   UNL     1      -8.842  11.401   7.770  1.00  0.00     0.049 A 
ATOM     70  H   UNL     1      -7.769  10.090   6.510  1.00  0.00     0.167 HD
ATOM     71  C   UNL     1      -8.966  12.466   5.531  1.00  0.00     0.074 A 
ATOM     72  C   UNL     1      -9.379  13.523   4.630  1.00  0.00     0.031 C 
ATOM     73  C   UNL     1      -9.281  12.426   6.852  1.00  0.00     0.034 A 
BRANCH  60  74
ATOM     74  C   UNL     1      -7.009   7.463   9.808  1.00  0.00     0.023 A 
ATOM     75  C   UNL     1      -5.769   7.180  10.409  1.00  0.00     0.031 A 
ATOM     76  C   UNL     1      -8.166   6.934  10.406  1.00  0.00     0.131 A 
ATOM     77  C   UNL     1      -5.710   6.330  11.524  1.00  0.00     0.055 A 
ATOM     78  C   UNL     1      -8.107   6.153  11.562  1.00  0.00     0.041 A 
ATOM     79  F   UNL     1      -9.376   7.151   9.865  1.00  0.00    -0.206 F 
ATOM     80  C   UNL     1      -6.872   5.833  12.118  1.00  0.00     0.022 A 
BRANCH  77  81
ATOM     81  S   UNL     1      -4.085   5.759  12.095  1.00  0.00     0.124 S 
ATOM     82  O   UNL     1      -3.551   5.130  10.889  1.00  0.00    -0.237 OA
ATOM     83  O   UNL     1      -3.442   7.001  12.507  1.00  0.00    -0.237 OA
ATOM     84  O   UNL     1      -4.408   4.833  13.179  1.00  0.00    -0.744 OA
ENDBRANCH  77  81
ENDBRANCH  60  74
BRANCH  61  85
ATOM     85  C   UNL     1      -7.683  12.213   1.014  1.00  0.00     0.023 A 
ATOM     86  C   UNL     1      -7.113  13.477   0.801  1.00  0.00     0.031 A 
ATOM     87  C   UNL     1      -8.467  11.658  -0.012  1.00  0.00     0.131 A 
ATOM     88  C   UNL     1      -7.366  14.162  -0.398  1.00  0.00     0.055 A 
ATOM     89  C   UNL     1      -8.674  12.320  -1.222  1.00  0.00     0.041 A 
ATOM     90  F   UNL     1      -9.052  10.462   0.154  1.00  0.00    -0.206 F 
ATOM     91  C   UNL     1      -8.128  13.585  -1.417  1.00  0.00     0.022 A 
BRANCH  88  92
ATOM     92  S   UNL     1      -6.752  15.859  -0.581  1.00  0.00     0.124 S 
ATOM     93  O   UNL     1      -7.468  16.549   0.486  1.00  0.00    -0.237 OA
ATOM     94  O   UNL     1      -5.316  15.687  -0.385  1.00  0.00    -0.237 OA
ATOM     95  O   UNL     1      -7.154  16.220  -1.939  1.00  0.00    -0.744 OA
ENDBRANCH  88  92
ENDBRANCH  61  85
BRANCH  73  96
ATOM     96  C   UNL     1     -10.101  13.575   7.389  1.00  0.00     0.023 A 
ATOM     97  C   UNL     1     -11.428  13.789   6.974  1.00  0.00     0.031 A 
ATOM     98  C   UNL     1      -9.536  14.490   8.295  1.00  0.00     0.131 A 
ATOM     99  C   UNL     1     -12.122  14.928   7.411  1.00  0.00     0.055 A 
ATOM    100  C   UNL     1     -10.254  15.586   8.776  1.00  0.00     0.041 A 
ATOM    101  F   UNL     1      -8.273  14.337   8.723  1.00  0.00    -0.206 F 
ATOM    102  C   UNL     1     -11.549  15.819   8.321  1.00  0.00     0.022 A 
BRANCH  99 103
ATOM    103  S   UNL     1     -13.743  15.291   6.682  1.00  0.00     0.124 S 
ATOM    104  O   UNL     1     -13.432  15.342   5.257  1.00  0.00    -0.237 OA
ATOM    105  O   UNL     1     -14.544  14.152   7.119  1.00  0.00    -0.237 OA
ATOM    106  O   UNL     1     -14.110  16.573   7.282  1.00  0.00    -0.744 OA
ENDBRANCH  99 103
ENDBRANCH  73  96
ENDBRANCH  47  48
ENDBRANCH  40  42
ENDBRANCH  39  40
ENDBRANCH  38  39
ENDBRANCH  37  38
ENDBRANCH  36  37
ENDBRANCH  35  36
ENDBRANCH  34  35
ENDBRANCH  33  34
ENDBRANCH  32  33
ENDBRANCH   1  32
TORSDOF 29
