REMARK SMILES CCOC(=O)c1c(NC(=O)[C@@H]2[C@@H](C(=O)OCCOCCOCCOCCOC(=O)c3ccc(-c4c5nc(c(-c6cc(S(=O)(=O)[O-])ccc6F)c6ccc([nH]6)c(-c6cc(S(=O)(=O)[O-])ccc6F)c6nc(c(-c7cc(S(=O)(=O)[O-])ccc7F)c7ccc4[nH]7)C=C6)C=C5)cc3)[C@@H]3C=C[C@H]2CC3)sc2c1CCC2
REMARK SMILES IDX 20 1 19 2 18 3 17 4 16 5 15 6 13 7 14 8 12 9 11 10 96 11
REMARK SMILES IDX 93 12 95 13 97 14 94 15 98 16 9 17 8 18 10 20 7 21 6 22
REMARK SMILES IDX 101 23 99 24 100 25 102 26 104 27 103 28 4 29 5 30 3 31 2 32
REMARK SMILES IDX 1 33 21 34 22 35 23 36 24 37 25 38 26 39 27 40 28 41 29 42
REMARK SMILES IDX 30 43 31 44 92 45 32 46 91 47 33 48 34 49 35 50 85 51 36 52
REMARK SMILES IDX 90 53 84 54 86 55 37 56 89 57 83 58 82 59 38 61 70 62 50 63
REMARK SMILES IDX 69 64 51 65 54 66 68 67 87 68 52 69 53 70 67 72 88 73 55 74
REMARK SMILES IDX 39 75 40 76 48 77 41 78 47 79 49 80 46 81 42 82 43 83 44 84
REMARK SMILES IDX 45 85 71 86 72 87 80 88 73 89 79 90 81 91 78 92 74 93 75 94
REMARK SMILES IDX 76 95 77 96 56 97 57 98 65 99 58 100 64 101 66 102 63 103
REMARK SMILES IDX 59 104 60 105 61 106 62 107
REMARK H PARENT 8 19 86 60 54 71
REMARK Flexibility Score: inf
ROOT
ATOM      1  C   UNL     1       9.155   1.492   5.477  1.00  0.00     0.188 C 
ENDROOT
BRANCH   1   2
ATOM      2  C   UNL     1       8.815   1.880   6.939  1.00  0.00     0.188 C 
BRANCH   2   3
ATOM      3  O   UNL     1       9.300   1.062   7.989  1.00  0.00    -0.376 OA
BRANCH   3   4
ATOM      4  C   UNL     1       9.165  -0.346   7.890  1.00  0.00     0.202 C 
BRANCH   4   5
ATOM      5  C   UNL     1       8.013  -0.999   7.097  1.00  0.00     0.261 C 
BRANCH   5   6
ATOM      6  O   UNL     1       7.000  -0.132   6.556  1.00  0.00    -0.463 OA
BRANCH   6   7
ATOM      7  C   UNL     1       6.098   0.407   7.414  1.00  0.00     0.310 C 
ATOM      8  O   UNL     1       6.048   0.142   8.608  1.00  0.00    -0.252 OA
BRANCH   7   9
ATOM      9  C   UNL     1       5.102   1.317   6.681  1.00  0.00     0.119 C 
ATOM     10  C   UNL     1       5.607   2.202   5.509  1.00  0.00     0.100 C 
ATOM     11  C   UNL     1       5.014   3.644   5.703  1.00  0.00     0.025 C 
ATOM     12  C   UNL     1       4.254   2.140   7.676  1.00  0.00     0.026 C 
ATOM     13  C   UNL     1       3.513   3.497   5.824  1.00  0.00    -0.027 C 
ATOM     14  C   UNL     1       5.522   4.215   7.061  1.00  0.00     0.009 C 
ATOM     15  C   UNL     1       3.116   2.721   6.846  1.00  0.00    -0.027 C 
ATOM     16  C   UNL     1       5.093   3.299   8.224  1.00  0.00     0.009 C 
BRANCH  10  17
ATOM     17  C   UNL     1       5.505   1.777   4.017  1.00  0.00     0.229 C 
ATOM     18  N   UNL     1       4.785   0.774   3.436  1.00  0.00    -0.317 N 
ATOM     19  H   UNL     1       4.918   0.680   2.465  1.00  0.00     0.170 HD
ATOM     20  O   UNL     1       6.112   2.503   3.205  1.00  0.00    -0.274 OA
BRANCH  18  21
ATOM     21  C   UNL     1       3.908  -0.124   3.984  1.00  0.00     0.110 A 
ATOM     22  C   UNL     1       2.639  -0.540   3.574  1.00  0.00     0.098 A 
ATOM     23  C   UNL     1       1.991  -1.009   4.753  1.00  0.00    -0.017 A 
ATOM     24  S   UNL     1       4.463  -1.330   5.094  1.00  0.00    -0.122 S 
ATOM     25  C   UNL     1       2.910  -1.276   5.735  1.00  0.00     0.011 A 
ATOM     26  C   UNL     1       0.632  -1.328   5.250  1.00  0.00     0.038 C 
ATOM     27  C   UNL     1       2.363  -1.542   7.076  1.00  0.00     0.047 C 
ATOM     28  C   UNL     1       0.838  -1.339   6.808  1.00  0.00     0.010 C 
BRANCH  22  29
ATOM     29  C   UNL     1       2.182  -0.377   2.200  1.00  0.00     0.341 C 
ATOM     30  O   UNL     1       2.948  -0.212   1.292  1.00  0.00    -0.246 OA
BRANCH  29  31
ATOM     31  O   UNL     1       0.829  -0.564   2.067  1.00  0.00    -0.462 OA
BRANCH  31  32
ATOM     32  C   UNL     1       0.383  -0.894   0.740  1.00  0.00     0.230 C 
ATOM     33  C   UNL     1       0.606   0.186  -0.308  1.00  0.00     0.049 C 
ENDBRANCH  31  32
ENDBRANCH  29  31
ENDBRANCH  22  29
ENDBRANCH  18  21
ENDBRANCH  10  17
ENDBRANCH   7   9
ENDBRANCH   6   7
ENDBRANCH   5   6
ENDBRANCH   4   5
ENDBRANCH   3   4
ENDBRANCH   2   3
ENDBRANCH   1   2
BRANCH   1  34
ATOM     34  O   UNL     1      10.116   0.451   5.394  1.00  0.00    -0.377 OA
BRANCH  34  35
ATOM     35  C   UNL     1      11.478   0.856   5.312  1.00  0.00     0.188 C 
BRANCH  35  36
ATOM     36  C   UNL     1      12.001   1.960   6.265  1.00  0.00     0.188 C 
BRANCH  36  37
ATOM     37  O   UNL     1      11.080   3.006   6.526  1.00  0.00    -0.376 OA
BRANCH  37  38
ATOM     38  C   UNL     1      11.313   4.356   6.174  1.00  0.00     0.202 C 
BRANCH  38  39
ATOM     39  C   UNL     1      10.909   4.719   4.748  1.00  0.00     0.261 C 
BRANCH  39  40
ATOM     40  O   UNL     1      11.244   3.709   3.817  1.00  0.00    -0.460 OA
BRANCH  40  41
ATOM     41  C   UNL     1      12.570   3.531   3.679  1.00  0.00     0.338 C 
ATOM     42  O   UNL     1      13.455   4.002   4.371  1.00  0.00    -0.246 OA
BRANCH  41  43
ATOM     43  C   UNL     1      12.799   2.766   2.459  1.00  0.00     0.060 A 
ATOM     44  C   UNL     1      14.133   2.462   2.203  1.00  0.00     0.016 A 
ATOM     45  C   UNL     1      11.811   2.811   1.464  1.00  0.00     0.016 A 
ATOM     46  C   UNL     1      14.545   2.544   0.901  1.00  0.00     0.010 A 
ATOM     47  C   UNL     1      12.230   2.921   0.170  1.00  0.00     0.010 A 
ATOM     48  C   UNL     1      13.600   2.894  -0.071  1.00  0.00    -0.014 A 
BRANCH  48  49
ATOM     49  C   UNL     1      14.071   3.107  -1.413  1.00  0.00     0.031 A 
ATOM     50  C   UNL     1      14.371   1.823  -2.060  1.00  0.00     0.074 A 
ATOM     51  C   UNL     1      14.155   4.324  -1.976  1.00  0.00     0.049 A 
ATOM     52  N   UNL     1      15.536   1.289  -2.206  1.00  0.00    -0.248 NA
ATOM     53  C   UNL     1      13.249   0.900  -2.297  1.00  0.00     0.031 C 
ATOM     54  C   UNL     1      13.670   5.604  -1.452  1.00  0.00     0.029 A 
ATOM     55  N   UNL     1      14.639   4.655  -3.201  1.00  0.00    -0.354 N 
ATOM     56  C   UNL     1      15.291   0.078  -2.832  1.00  0.00     0.074 A 
ATOM     57  C   UNL     1      13.909  -0.220  -2.589  1.00  0.00     0.031 C 
ATOM     58  C   UNL     1      13.699   6.531  -2.439  1.00  0.00     0.029 A 
ATOM     59  C   UNL     1      14.334   5.949  -3.611  1.00  0.00     0.049 A 
ATOM     60  H   UNL     1      15.162   4.030  -3.754  1.00  0.00     0.167 HD
ATOM     61  C   UNL     1      16.146  -0.373  -3.787  1.00  0.00     0.034 A 
ATOM     62  C   UNL     1      14.568   6.479  -4.841  1.00  0.00     0.034 A 
ATOM     63  C   UNL     1      17.414   0.323  -3.696  1.00  0.00     0.049 A 
ATOM     64  C   UNL     1      15.663   5.682  -5.442  1.00  0.00     0.074 A 
ATOM     65  C   UNL     1      18.437   0.386  -2.772  1.00  0.00     0.029 A 
ATOM     66  N   UNL     1      17.542   1.430  -4.504  1.00  0.00    -0.354 N 
ATOM     67  N   UNL     1      16.876   5.675  -4.962  1.00  0.00    -0.248 NA
ATOM     68  C   UNL     1      15.339   4.552  -6.303  1.00  0.00     0.031 C 
ATOM     69  C   UNL     1      18.954   1.714  -2.858  1.00  0.00     0.029 A 
ATOM     70  C   UNL     1      18.272   2.401  -3.865  1.00  0.00     0.049 A 
ATOM     71  H   UNL     1      17.165   1.514  -5.410  1.00  0.00     0.167 HD
ATOM     72  C   UNL     1      17.299   4.362  -5.081  1.00  0.00     0.074 A 
ATOM     73  C   UNL     1      16.394   3.766  -6.059  1.00  0.00     0.031 C 
ATOM     74  C   UNL     1      18.147   3.821  -4.158  1.00  0.00     0.034 A 
BRANCH  61  75
ATOM     75  C   UNL     1      15.693  -1.052  -5.066  1.00  0.00     0.023 A 
ATOM     76  C   UNL     1      16.700  -1.383  -5.991  1.00  0.00     0.031 A 
ATOM     77  C   UNL     1      14.366  -1.129  -5.556  1.00  0.00     0.131 A 
ATOM     78  C   UNL     1      16.386  -1.661  -7.332  1.00  0.00     0.055 A 
ATOM     79  C   UNL     1      14.057  -1.459  -6.877  1.00  0.00     0.041 A 
ATOM     80  F   UNL     1      13.290  -0.811  -4.830  1.00  0.00    -0.206 F 
ATOM     81  C   UNL     1      15.070  -1.697  -7.783  1.00  0.00     0.022 A 
BRANCH  78  82
ATOM     82  S   UNL     1      17.742  -1.817  -8.518  1.00  0.00     0.124 S 
ATOM     83  O   UNL     1      18.456  -0.561  -8.317  1.00  0.00    -0.237 OA
ATOM     84  O   UNL     1      18.412  -3.025  -8.046  1.00  0.00    -0.237 OA
ATOM     85  O   UNL     1      17.055  -1.946  -9.800  1.00  0.00    -0.744 OA
ENDBRANCH  78  82
ENDBRANCH  61  75
BRANCH  62  86
ATOM     86  C   UNL     1      13.717   7.414  -5.621  1.00  0.00     0.023 A 
ATOM     87  C   UNL     1      14.216   8.210  -6.675  1.00  0.00     0.031 A 
ATOM     88  C   UNL     1      12.313   7.323  -5.500  1.00  0.00     0.131 A 
ATOM     89  C   UNL     1      13.322   8.861  -7.559  1.00  0.00     0.055 A 
ATOM     90  C   UNL     1      11.437   7.964  -6.378  1.00  0.00     0.041 A 
ATOM     91  F   UNL     1      11.748   6.529  -4.576  1.00  0.00    -0.206 F 
ATOM     92  C   UNL     1      11.939   8.728  -7.419  1.00  0.00     0.022 A 
BRANCH  89  93
ATOM     93  S   UNL     1      13.954   9.831  -8.969  1.00  0.00     0.124 S 
ATOM     94  O   UNL     1      14.643  10.932  -8.308  1.00  0.00    -0.237 OA
ATOM     95  O   UNL     1      14.794   8.862  -9.664  1.00  0.00    -0.237 OA
ATOM     96  O   UNL     1      12.740  10.214  -9.692  1.00  0.00    -0.744 OA
ENDBRANCH  89  93
ENDBRANCH  62  86
BRANCH  74  97
ATOM     97  C   UNL     1      18.912   4.792  -3.279  1.00  0.00     0.023 A 
ATOM     98  C   UNL     1      18.330   5.684  -2.349  1.00  0.00     0.031 A 
ATOM     99  C   UNL     1      20.314   4.757  -3.362  1.00  0.00     0.131 A 
ATOM    100  C   UNL     1      19.153   6.510  -1.556  1.00  0.00     0.055 A 
ATOM    101  C   UNL     1      21.125   5.558  -2.560  1.00  0.00     0.041 A 
ATOM    102  F   UNL     1      20.924   3.916  -4.213  1.00  0.00    -0.206 F 
ATOM    103  C   UNL     1      20.547   6.443  -1.657  1.00  0.00     0.022 A 
BRANCH 100 104
ATOM    104  S   UNL     1      18.425   7.702  -0.384  1.00  0.00     0.124 S 
ATOM    105  O   UNL     1      17.478   8.450  -1.202  1.00  0.00    -0.237 OA
ATOM    106  O   UNL     1      17.843   6.831   0.634  1.00  0.00    -0.237 OA
ATOM    107  O   UNL     1      19.579   8.479   0.075  1.00  0.00    -0.744 OA
ENDBRANCH 100 104
ENDBRANCH  74  97
ENDBRANCH  48  49
ENDBRANCH  41  43
ENDBRANCH  40  41
ENDBRANCH  39  40
ENDBRANCH  38  39
ENDBRANCH  37  38
ENDBRANCH  36  37
ENDBRANCH  35  36
ENDBRANCH  34  35
ENDBRANCH   1  34
TORSDOF 28
