REMARK SMILES Cc1[nH]ncc1S(=O)(=O)NC[C@@H]1CC[C@@H](C(=O)OCCOCCOCCOCCOC(=O)c2ccc(-c3c4nc(c(-c5cc(S(=O)(=O)[O-])ccc5F)c5ccc([nH]5)c(-c5cc(S(=O)(=O)[O-])ccc5F)c5nc(c(-c6cc(S(=O)(=O)[O-])ccc6F)c6ccc3[nH]6)C=C5)C=C4)cc2)O1
REMARK SMILES IDX 23 1 22 2 21 3 20 4 19 5 18 6 16 7 17 8 15 9 12 10 13 11
REMARK SMILES IDX 96 12 14 13 11 14 10 15 7 17 8 18 9 19 6 20 1 21 2 22 3 23
REMARK SMILES IDX 4 24 5 26 24 27 25 28 26 29 27 30 28 31 29 32 30 33 31 34
REMARK SMILES IDX 32 35 33 36 34 37 95 38 35 39 94 40 36 41 37 42 38 43 88 44
REMARK SMILES IDX 39 45 93 46 87 47 89 48 40 49 92 50 86 51 85 52 41 54 73 55
REMARK SMILES IDX 53 56 72 57 54 58 57 59 71 60 90 61 55 62 56 63 70 65 91 66
REMARK SMILES IDX 58 67 42 68 43 69 51 70 44 71 50 72 52 73 49 74 45 75 46 76
REMARK SMILES IDX 47 77 48 78 74 79 75 80 83 81 76 82 82 83 84 84 81 85 77 86
REMARK SMILES IDX 78 87 79 88 80 89 59 90 60 91 68 92 61 93 67 94 69 95 66 96
REMARK SMILES IDX 62 97 63 98 64 99 65 100
REMARK H PARENT 10 16 3 25 89 53 57 64
REMARK Flexibility Score: inf
ROOT
ATOM      1  C   UNL     1       0.886   6.093   5.036  1.00  0.00     0.188 C 
ENDROOT
BRANCH   1   2
ATOM      2  C   UNL     1       0.332   5.008   5.988  1.00  0.00     0.188 C 
BRANCH   2   3
ATOM      3  O   UNL     1       1.177   4.063   6.636  1.00  0.00    -0.376 OA
BRANCH   3   4
ATOM      4  C   UNL     1       2.489   3.833   6.158  1.00  0.00     0.202 C 
BRANCH   4   5
ATOM      5  C   UNL     1       2.649   3.191   4.774  1.00  0.00     0.261 C 
BRANCH   5   6
ATOM      6  O   UNL     1       1.747   3.656   3.761  1.00  0.00    -0.461 OA
BRANCH   6   7
ATOM      7  C   UNL     1       0.598   2.942   3.593  1.00  0.00     0.335 C 
ATOM      8  O   UNL     1       0.262   1.976   4.267  1.00  0.00    -0.249 OA
BRANCH   7   9
ATOM      9  C   UNL     1      -0.228   3.529   2.442  1.00  0.00     0.228 C 
ATOM     10  C   UNL     1      -2.367   2.812   1.851  1.00  0.00     0.134 C 
ATOM     11  C   UNL     1      -2.427   4.319   1.928  1.00  0.00     0.037 C 
ATOM     12  O   UNL     1      -0.988   2.457   1.850  1.00  0.00    -0.362 OA
ATOM     13  C   UNL     1      -1.252   4.596   2.832  1.00  0.00     0.047 C 
BRANCH  10  14
ATOM     14  C   UNL     1      -3.082   2.181   0.669  1.00  0.00     0.131 C 
BRANCH  14  15
ATOM     15  N   UNL     1      -2.627   2.590  -0.679  1.00  0.00    -0.208 NA
ATOM     16  H   UNL     1      -3.222   2.094  -1.343  1.00  0.00     0.141 HD
BRANCH  15  17
ATOM     17  S   UNL     1      -1.037   2.354  -1.202  1.00  0.00     0.244 S 
ATOM     18  O   UNL     1      -0.245   3.436  -0.673  1.00  0.00    -0.207 OA
ATOM     19  O   UNL     1      -1.125   2.153  -2.636  1.00  0.00    -0.207 OA
BRANCH  17  20
ATOM     20  C   UNL     1      -0.334   0.903  -0.629  1.00  0.00     0.122 A 
ATOM     21  C   UNL     1      -2.221  -0.913  -0.816  1.00  0.00     0.067 C 
ATOM     22  C   UNL     1      -0.883  -0.361  -0.518  1.00  0.00     0.052 A 
ATOM     23  N   UNL     1       0.128  -1.143  -0.025  1.00  0.00    -0.281 N 
ATOM     24  N   UNL     1       1.287  -0.489   0.150  1.00  0.00    -0.183 NA
ATOM     25  H   UNL     1       0.015  -2.099   0.183  1.00  0.00     0.190 HD
ATOM     26  C   UNL     1       1.001   0.766  -0.213  1.00  0.00     0.157 A 
ENDBRANCH  17  20
ENDBRANCH  15  17
ENDBRANCH  14  15
ENDBRANCH  10  14
ENDBRANCH   7   9
ENDBRANCH   6   7
ENDBRANCH   5   6
ENDBRANCH   4   5
ENDBRANCH   3   4
ENDBRANCH   2   3
ENDBRANCH   1   2
BRANCH   1  27
ATOM     27  O   UNL     1       2.228   6.455   5.293  1.00  0.00    -0.377 OA
BRANCH  27  28
ATOM     28  C   UNL     1       2.400   7.629   6.068  1.00  0.00     0.188 C 
BRANCH  28  29
ATOM     29  C   UNL     1       1.659   7.641   7.411  1.00  0.00     0.188 C 
BRANCH  29  30
ATOM     30  O   UNL     1       0.238   7.638   7.244  1.00  0.00    -0.376 OA
BRANCH  30  31
ATOM     31  C   UNL     1      -0.450   8.854   7.498  1.00  0.00     0.202 C 
BRANCH  31  32
ATOM     32  C   UNL     1      -0.507   9.795   6.287  1.00  0.00     0.261 C 
BRANCH  32  33
ATOM     33  O   UNL     1       0.761  10.274   5.817  1.00  0.00    -0.460 OA
BRANCH  33  34
ATOM     34  C   UNL     1       1.549  10.919   6.707  1.00  0.00     0.338 C 
ATOM     35  O   UNL     1       1.261  11.219   7.853  1.00  0.00    -0.246 OA
BRANCH  34  36
ATOM     36  C   UNL     1       2.906  10.999   6.130  1.00  0.00     0.060 A 
ATOM     37  C   UNL     1       3.981  10.505   6.881  1.00  0.00     0.016 A 
ATOM     38  C   UNL     1       3.112  11.512   4.846  1.00  0.00     0.016 A 
ATOM     39  C   UNL     1       5.272  10.547   6.357  1.00  0.00     0.010 A 
ATOM     40  C   UNL     1       4.409  11.584   4.337  1.00  0.00     0.010 A 
ATOM     41  C   UNL     1       5.497  11.131   5.104  1.00  0.00    -0.014 A 
BRANCH  41  42
ATOM     42  C   UNL     1       6.877  11.506   4.716  1.00  0.00     0.031 A 
ATOM     43  C   UNL     1       7.354  12.881   5.099  1.00  0.00     0.074 A 
ATOM     44  C   UNL     1       7.688  10.655   4.065  1.00  0.00     0.049 A 
ATOM     45  N   UNL     1       8.494  13.467   4.850  1.00  0.00    -0.248 NA
ATOM     46  C   UNL     1       6.405  13.704   5.868  1.00  0.00     0.031 C 
ATOM     47  C   UNL     1       7.348   9.285   3.683  1.00  0.00     0.029 A 
ATOM     48  N   UNL     1       8.968  10.826   3.603  1.00  0.00    -0.354 N 
ATOM     49  C   UNL     1       8.405  14.724   5.439  1.00  0.00     0.074 A 
ATOM     50  C   UNL     1       7.084  14.829   6.019  1.00  0.00     0.031 C 
ATOM     51  C   UNL     1       8.391   8.745   3.028  1.00  0.00     0.029 A 
ATOM     52  C   UNL     1       9.458   9.739   2.916  1.00  0.00     0.049 A 
ATOM     53  H   UNL     1       9.488  11.649   3.749  1.00  0.00     0.167 HD
ATOM     54  C   UNL     1       9.343  15.699   5.499  1.00  0.00     0.034 A 
ATOM     55  C   UNL     1      10.623   9.583   2.254  1.00  0.00     0.034 A 
ATOM     56  C   UNL     1      10.641  15.594   4.883  1.00  0.00     0.049 A 
ATOM     57  C   UNL     1      11.618  10.723   2.245  1.00  0.00     0.074 A 
ATOM     58  C   UNL     1      11.665  16.523   4.865  1.00  0.00     0.029 A 
ATOM     59  N   UNL     1      11.086  14.495   4.158  1.00  0.00    -0.354 N 
ATOM     60  N   UNL     1      11.527  11.905   2.811  1.00  0.00    -0.248 NA
ATOM     61  C   UNL     1      12.874  10.502   1.516  1.00  0.00     0.031 C 
ATOM     62  C   UNL     1      12.701  16.015   4.072  1.00  0.00     0.029 A 
ATOM     63  C   UNL     1      12.357  14.736   3.663  1.00  0.00     0.049 A 
ATOM     64  H   UNL     1      10.573  13.667   4.017  1.00  0.00     0.167 HD
ATOM     65  C   UNL     1      12.728  12.555   2.530  1.00  0.00     0.074 A 
ATOM     66  C   UNL     1      13.528  11.629   1.757  1.00  0.00     0.031 C 
ATOM     67  C   UNL     1      13.137  13.801   2.885  1.00  0.00     0.034 A 
BRANCH  54  68
ATOM     68  C   UNL     1       8.961  16.974   6.207  1.00  0.00     0.023 A 
ATOM     69  C   UNL     1       8.674  16.996   7.584  1.00  0.00     0.031 A 
ATOM     70  C   UNL     1       8.832  18.175   5.488  1.00  0.00     0.131 A 
ATOM     71  C   UNL     1       8.203  18.174   8.182  1.00  0.00     0.055 A 
ATOM     72  C   UNL     1       8.439  19.363   6.106  1.00  0.00     0.041 A 
ATOM     73  F   UNL     1       9.063  18.207   4.166  1.00  0.00    -0.206 F 
ATOM     74  C   UNL     1       8.108  19.364   7.458  1.00  0.00     0.022 A 
BRANCH  71  75
ATOM     75  S   UNL     1       7.578  18.094   9.883  1.00  0.00     0.124 S 
ATOM     76  O   UNL     1       6.500  17.117   9.756  1.00  0.00    -0.237 OA
ATOM     77  O   UNL     1       8.751  17.657  10.631  1.00  0.00    -0.237 OA
ATOM     78  O   UNL     1       7.141  19.462  10.152  1.00  0.00    -0.744 OA
ENDBRANCH  71  75
ENDBRANCH  54  68
BRANCH  55  79
ATOM     79  C   UNL     1      10.906   8.326   1.500  1.00  0.00     0.023 A 
ATOM     80  C   UNL     1      11.979   7.490   1.847  1.00  0.00     0.031 A 
ATOM     81  C   UNL     1      10.138   7.977   0.374  1.00  0.00     0.131 A 
ATOM     82  C   UNL     1      12.284   6.374   1.050  1.00  0.00     0.055 A 
ATOM     83  C   UNL     1      10.413   6.838  -0.384  1.00  0.00     0.041 A 
ATOM     84  F   UNL     1       9.103   8.744  -0.006  1.00  0.00    -0.206 F 
ATOM     85  C   UNL     1      11.500   6.035  -0.055  1.00  0.00     0.022 A 
BRANCH  82  86
ATOM     86  S   UNL     1      13.779   5.418   1.428  1.00  0.00     0.124 S 
ATOM     87  O   UNL     1      14.818   6.435   1.319  1.00  0.00    -0.237 OA
ATOM     88  O   UNL     1      13.496   4.932   2.774  1.00  0.00    -0.237 OA
ATOM     89  O   UNL     1      13.799   4.391   0.388  1.00  0.00    -0.744 OA
ENDBRANCH  82  86
ENDBRANCH  55  79
BRANCH  67  90
ATOM     90  C   UNL     1      14.532  14.212   2.479  1.00  0.00     0.023 A 
ATOM     91  C   UNL     1      14.887  14.411   1.134  1.00  0.00     0.031 A 
ATOM     92  C   UNL     1      15.520  14.412   3.461  1.00  0.00     0.131 A 
ATOM     93  C   UNL     1      16.208  14.748   0.803  1.00  0.00     0.055 A 
ATOM     94  C   UNL     1      16.817  14.805   3.130  1.00  0.00     0.041 A 
ATOM     95  F   UNL     1      15.236  14.236   4.761  1.00  0.00    -0.206 F 
ATOM     96  C   UNL     1      17.171  14.963   1.793  1.00  0.00     0.022 A 
BRANCH  93  97
ATOM     97  S   UNL     1      16.678  14.821  -0.948  1.00  0.00     0.124 S 
ATOM     98  O   UNL     1      16.357  13.473  -1.405  1.00  0.00    -0.237 OA
ATOM     99  O   UNL     1      15.822  15.888  -1.457  1.00  0.00    -0.237 OA
ATOM    100  O   UNL     1      18.105  15.138  -0.907  1.00  0.00    -0.744 OA
ENDBRANCH  93  97
ENDBRANCH  67  90
ENDBRANCH  41  42
ENDBRANCH  34  36
ENDBRANCH  33  34
ENDBRANCH  32  33
ENDBRANCH  31  32
ENDBRANCH  30  31
ENDBRANCH  29  30
ENDBRANCH  28  29
ENDBRANCH  27  28
ENDBRANCH   1  27
TORSDOF 27
