REMARK SMILES CCOc1cnc(C(=O)c2[nH]c3cc(Cl)ccc3c2CC(=O)OCCOCCOCCOCCOC(=O)c2ccc(-c3c4nc(c(-c5cc(S(=O)(=O)[O-])ccc5F)c5ccc([nH]5)c(-c5cc(S(=O)(=O)[O-])ccc5F)c5nc(c(-c6cc(S(=O)(=O)[O-])ccc6F)c6ccc3[nH]6)C=C5)C=C4)cc2)cc1CC
REMARK SMILES IDX 28 1 27 2 26 3 25 4 24 5 23 6 21 7 22 8 20 9 19 10 10 11
REMARK SMILES IDX 11 12 12 13 18 15 13 16 17 17 14 18 16 19 15 20 8 21 9 22
REMARK SMILES IDX 7 23 4 24 5 25 102 26 6 27 101 28 3 29 2 30 1 31 103 32
REMARK SMILES IDX 104 33 29 34 30 35 31 36 32 37 33 38 34 39 35 40 36 41 37 42
REMARK SMILES IDX 38 43 39 44 100 45 40 46 99 47 41 48 42 49 43 50 93 51 44 52
REMARK SMILES IDX 98 53 92 54 94 55 45 56 97 57 91 58 90 59 46 61 78 62 58 63
REMARK SMILES IDX 77 64 59 65 62 66 76 67 95 68 60 69 61 70 75 72 96 73 63 74
REMARK SMILES IDX 47 75 48 76 56 77 49 78 55 79 57 80 54 81 50 82 51 83 52 84
REMARK SMILES IDX 53 85 79 86 80 87 88 88 81 89 87 90 89 91 86 92 82 93 83 94
REMARK SMILES IDX 84 95 85 96 64 97 65 98 73 99 66 100 72 101 74 102 71 103
REMARK SMILES IDX 67 104 68 105 69 106 70 107
REMARK H PARENT 11 14 94 60 62 71
REMARK Flexibility Score: inf
ROOT
ATOM      1  C   UNL     1       7.925  -5.281   1.110  1.00  0.00     0.188 C 
ENDROOT
BRANCH   1   2
ATOM      2  C   UNL     1       8.484  -6.387   0.218  1.00  0.00     0.188 C 
BRANCH   2   3
ATOM      3  O   UNL     1       9.470  -7.239   0.760  1.00  0.00    -0.376 OA
BRANCH   3   4
ATOM      4  C   UNL     1      10.684  -6.635   1.201  1.00  0.00     0.202 C 
BRANCH   4   5
ATOM      5  C   UNL     1      11.312  -5.478   0.392  1.00  0.00     0.261 C 
BRANCH   5   6
ATOM      6  O   UNL     1      10.544  -4.240   0.348  1.00  0.00    -0.463 OA
BRANCH   6   7
ATOM      7  C   UNL     1      10.379  -3.672  -0.872  1.00  0.00     0.310 C 
ATOM      8  O   UNL     1      10.870  -4.146  -1.899  1.00  0.00    -0.252 OA
BRANCH   7   9
ATOM      9  C   UNL     1       9.555  -2.396  -0.967  1.00  0.00     0.161 C 
BRANCH   9  10
ATOM     10  C   UNL     1       8.895  -1.751   0.232  1.00  0.00     0.000 A 
ATOM     11  C   UNL     1       7.554  -1.855   0.647  1.00  0.00     0.093 A 
ATOM     12  N   UNL     1       7.490  -1.192   1.857  1.00  0.00    -0.351 N 
ATOM     13  C   UNL     1       8.495  -0.260   1.924  1.00  0.00     0.048 A 
ATOM     14  H   UNL     1       6.825  -1.362   2.563  1.00  0.00     0.167 HD
ATOM     15  C   UNL     1       9.420  -0.612   0.944  1.00  0.00     0.004 A 
ATOM     16  C   UNL     1       8.642   0.857   2.757  1.00  0.00     0.047 A 
ATOM     17  C   UNL     1      10.559   0.207   0.782  1.00  0.00     0.012 A 
ATOM     18  C   UNL     1       9.748   1.679   2.530  1.00  0.00     0.043 A 
ATOM     19  C   UNL     1      10.696   1.364   1.561  1.00  0.00     0.021 A 
ATOM     20  Cl  UNL     1       9.918   3.131   3.443  1.00  0.00    -0.084 Cl
BRANCH  11  21
ATOM     21  C   UNL     1       6.433  -2.525  -0.019  1.00  0.00     0.227 C 
ATOM     22  O   UNL     1       6.582  -3.211  -1.032  1.00  0.00    -0.285 OA
BRANCH  21  23
ATOM     23  C   UNL     1       5.021  -2.334   0.449  1.00  0.00     0.113 A 
ATOM     24  C   UNL     1       2.328  -1.975   0.791  1.00  0.00     0.140 A 
ATOM     25  C   UNL     1       2.889  -3.220   0.531  1.00  0.00     0.158 A 
ATOM     26  C   UNL     1       3.174  -0.885   1.012  1.00  0.00    -0.002 A 
ATOM     27  N   UNL     1       4.215  -3.424   0.362  1.00  0.00    -0.249 NA
ATOM     28  C   UNL     1       4.546  -1.069   0.785  1.00  0.00     0.040 A 
BRANCH  24  29
ATOM     29  O   UNL     1       0.970  -1.827   0.833  1.00  0.00    -0.492 OA
BRANCH  29  30
ATOM     30  C   UNL     1       0.416  -1.696  -0.489  1.00  0.00     0.226 C 
ATOM     31  C   UNL     1       0.221  -0.230  -0.850  1.00  0.00     0.049 C 
ENDBRANCH  29  30
ENDBRANCH  24  29
BRANCH  26  32
ATOM     32  C   UNL     1       2.647   0.481   1.378  1.00  0.00     0.036 C 
ATOM     33  C   UNL     1       3.285   1.067   2.629  1.00  0.00     0.009 C 
ENDBRANCH  26  32
ENDBRANCH  21  23
ENDBRANCH  11  21
ENDBRANCH   9  10
ENDBRANCH   7   9
ENDBRANCH   6   7
ENDBRANCH   5   6
ENDBRANCH   4   5
ENDBRANCH   3   4
ENDBRANCH   2   3
ENDBRANCH   1   2
BRANCH   1  34
ATOM     34  O   UNL     1       8.720  -4.768   2.164  1.00  0.00    -0.377 OA
BRANCH  34  35
ATOM     35  C   UNL     1       8.538  -5.239   3.492  1.00  0.00     0.188 C 
BRANCH  35  36
ATOM     36  C   UNL     1       7.511  -6.345   3.725  1.00  0.00     0.188 C 
BRANCH  36  37
ATOM     37  O   UNL     1       6.136  -6.051   3.462  1.00  0.00    -0.376 OA
BRANCH  37  38
ATOM     38  C   UNL     1       5.679  -4.704   3.547  1.00  0.00     0.202 C 
BRANCH  38  39
ATOM     39  C   UNL     1       5.237  -4.264   4.938  1.00  0.00     0.261 C 
BRANCH  39  40
ATOM     40  O   UNL     1       6.374  -4.037   5.781  1.00  0.00    -0.460 OA
BRANCH  40  41
ATOM     41  C   UNL     1       6.668  -5.065   6.616  1.00  0.00     0.338 C 
ATOM     42  O   UNL     1       6.029  -6.085   6.779  1.00  0.00    -0.246 OA
BRANCH  41  43
ATOM     43  C   UNL     1       8.013  -4.845   7.179  1.00  0.00     0.060 A 
ATOM     44  C   UNL     1       8.892  -5.935   7.211  1.00  0.00     0.016 A 
ATOM     45  C   UNL     1       8.388  -3.606   7.705  1.00  0.00     0.016 A 
ATOM     46  C   UNL     1      10.134  -5.805   7.818  1.00  0.00     0.010 A 
ATOM     47  C   UNL     1       9.629  -3.481   8.329  1.00  0.00     0.010 A 
ATOM     48  C   UNL     1      10.483  -4.594   8.425  1.00  0.00    -0.014 A 
BRANCH  48  49
ATOM     49  C   UNL     1      11.628  -4.565   9.358  1.00  0.00     0.031 A 
ATOM     50  C   UNL     1      11.340  -4.706  10.826  1.00  0.00     0.074 A 
ATOM     51  C   UNL     1      12.886  -4.458   8.901  1.00  0.00     0.049 A 
ATOM     52  N   UNL     1      12.158  -4.654  11.843  1.00  0.00    -0.248 NA
ATOM     53  C   UNL     1       9.932  -4.932  11.194  1.00  0.00     0.031 C 
ATOM     54  C   UNL     1      13.267  -4.382   7.491  1.00  0.00     0.029 A 
ATOM     55  N   UNL     1      14.075  -4.390   9.578  1.00  0.00    -0.354 N 
ATOM     56  C   UNL     1      11.364  -4.832  12.972  1.00  0.00     0.074 A 
ATOM     57  C   UNL     1       9.998  -4.952  12.515  1.00  0.00     0.031 C 
ATOM     58  C   UNL     1      14.604  -4.268   7.410  1.00  0.00     0.029 A 
ATOM     59  C   UNL     1      15.164  -4.214   8.758  1.00  0.00     0.049 A 
ATOM     60  H   UNL     1      14.143  -4.461  10.558  1.00  0.00     0.167 HD
ATOM     61  C   UNL     1      11.749  -4.896  14.269  1.00  0.00     0.034 A 
ATOM     62  C   UNL     1      16.457  -4.002   9.072  1.00  0.00     0.034 A 
ATOM     63  C   UNL     1      13.120  -4.756  14.693  1.00  0.00     0.049 A 
ATOM     64  C   UNL     1      16.849  -3.974  10.531  1.00  0.00     0.074 A 
ATOM     65  C   UNL     1      13.636  -4.804  15.975  1.00  0.00     0.029 A 
ATOM     66  N   UNL     1      14.194  -4.525  13.840  1.00  0.00    -0.354 N 
ATOM     67  N   UNL     1      16.094  -4.139  11.595  1.00  0.00    -0.248 NA
ATOM     68  C   UNL     1      18.266  -3.739  10.831  1.00  0.00     0.031 C 
ATOM     69  C   UNL     1      15.003  -4.516  15.905  1.00  0.00     0.029 A 
ATOM     70  C   UNL     1      15.362  -4.388  14.572  1.00  0.00     0.049 A 
ATOM     71  H   UNL     1      14.133  -4.468  12.859  1.00  0.00     0.167 HD
ATOM     72  C   UNL     1      16.955  -4.064  12.688  1.00  0.00     0.074 A 
ATOM     73  C   UNL     1      18.284  -3.852  12.150  1.00  0.00     0.031 C 
ATOM     74  C   UNL     1      16.677  -4.167  14.014  1.00  0.00     0.034 A 
BRANCH  61  75
ATOM     75  C   UNL     1      10.666  -5.057  15.309  1.00  0.00     0.023 A 
ATOM     76  C   UNL     1       9.838  -6.193  15.353  1.00  0.00     0.031 A 
ATOM     77  C   UNL     1      10.428  -4.036  16.246  1.00  0.00     0.131 A 
ATOM     78  C   UNL     1       8.768  -6.246  16.260  1.00  0.00     0.055 A 
ATOM     79  C   UNL     1       9.418  -4.134  17.204  1.00  0.00     0.041 A 
ATOM     80  F   UNL     1      11.164  -2.913  16.234  1.00  0.00    -0.206 F 
ATOM     81  C   UNL     1       8.571  -5.237  17.206  1.00  0.00     0.022 A 
BRANCH  78  82
ATOM     82  S   UNL     1       7.545  -7.574  16.083  1.00  0.00     0.124 S 
ATOM     83  O   UNL     1       7.080  -7.365  14.714  1.00  0.00    -0.237 OA
ATOM     84  O   UNL     1       8.343  -8.772  16.312  1.00  0.00    -0.237 OA
ATOM     85  O   UNL     1       6.559  -7.272  17.119  1.00  0.00    -0.744 OA
ENDBRANCH  78  82
ENDBRANCH  61  75
BRANCH  62  86
ATOM     86  C   UNL     1      17.465  -3.757   8.001  1.00  0.00     0.023 A 
ATOM     87  C   UNL     1      18.556  -4.620   7.819  1.00  0.00     0.031 A 
ATOM     88  C   UNL     1      17.377  -2.623   7.172  1.00  0.00     0.131 A 
ATOM     89  C   UNL     1      19.542  -4.311   6.867  1.00  0.00     0.055 A 
ATOM     90  C   UNL     1      18.327  -2.353   6.186  1.00  0.00     0.041 A 
ATOM     91  F   UNL     1      16.357  -1.761   7.305  1.00  0.00    -0.206 F 
ATOM     92  C   UNL     1      19.426  -3.192   6.038  1.00  0.00     0.022 A 
BRANCH  89  93
ATOM     93  S   UNL     1      21.032  -5.342   6.796  1.00  0.00     0.124 S 
ATOM     94  O   UNL     1      21.541  -5.219   8.157  1.00  0.00    -0.237 OA
ATOM     95  O   UNL     1      20.483  -6.643   6.430  1.00  0.00    -0.237 OA
ATOM     96  O   UNL     1      21.843  -4.697   5.765  1.00  0.00    -0.744 OA
ENDBRANCH  89  93
ENDBRANCH  62  86
BRANCH  74  97
ATOM     97  C   UNL     1      17.846  -4.104  14.968  1.00  0.00     0.023 A 
ATOM     98  C   UNL     1      18.621  -2.942  15.120  1.00  0.00     0.031 A 
ATOM     99  C   UNL     1      18.189  -5.232  15.736  1.00  0.00     0.131 A 
ATOM    100  C   UNL     1      19.736  -2.952  15.971  1.00  0.00     0.055 A 
ATOM    101  C   UNL     1      19.255  -5.213  16.636  1.00  0.00     0.041 A 
ATOM    102  F   UNL     1      17.487  -6.372  15.630  1.00  0.00    -0.206 F 
ATOM    103  C   UNL     1      20.045  -4.073  16.746  1.00  0.00     0.022 A 
BRANCH 100 104
ATOM    104  S   UNL     1      20.844  -1.517  15.970  1.00  0.00     0.124 S 
ATOM    105  O   UNL     1      21.240  -1.442  14.567  1.00  0.00    -0.237 OA
ATOM    106  O   UNL     1      19.972  -0.448  16.444  1.00  0.00    -0.237 OA
ATOM    107  O   UNL     1      21.908  -1.904  16.895  1.00  0.00    -0.744 OA
ENDBRANCH 100 104
ENDBRANCH  74  97
ENDBRANCH  48  49
ENDBRANCH  41  43
ENDBRANCH  40  41
ENDBRANCH  39  40
ENDBRANCH  38  39
ENDBRANCH  37  38
ENDBRANCH  36  37
ENDBRANCH  35  36
ENDBRANCH  34  35
ENDBRANCH   1  34
TORSDOF 29
