REMARK SMILES CC(C)CN(C)c1cc2c(cc1Cl)C=C(C(=O)OCCOCCOCCOCCOC(=O)c1ccc(-c3c4nc(c(-c5cc(S(=O)(=O)[O-])ccc5F)c5ccc([nH]5)c(-c5cc(S(=O)(=O)[O-])ccc5F)c5nc(c(-c6cc(S(=O)(=O)[O-])ccc6F)c6ccc3[nH]6)C=C5)C=C4)cc1)[C@@H](C(F)(F)F)O2
REMARK SMILES IDX 24 1 23 2 22 3 21 4 20 5 19 6 18 7 16 8 17 9 15 10 7 11 8 12
REMARK SMILES IDX 12 13 9 14 11 15 13 16 10 17 101 18 14 19 96 20 5 21 6 22
REMARK SMILES IDX 4 23 2 24 1 25 3 26 97 27 98 28 99 29 100 30 25 31 26 32
REMARK SMILES IDX 27 33 28 34 29 35 30 36 31 37 32 38 33 39 34 40 95 41 35 42
REMARK SMILES IDX 94 43 36 44 37 45 38 46 88 47 39 48 93 49 87 50 89 51 40 52
REMARK SMILES IDX 92 53 86 54 85 55 41 57 73 58 53 59 72 60 54 61 57 62 71 63
REMARK SMILES IDX 90 64 55 65 56 66 70 68 91 69 58 70 42 71 43 72 51 73 44 74
REMARK SMILES IDX 50 75 52 76 49 77 45 78 46 79 47 80 48 81 74 82 75 83 83 84
REMARK SMILES IDX 76 85 82 86 84 87 81 88 77 89 78 90 79 91 80 92 59 93 60 94
REMARK SMILES IDX 68 95 61 96 67 97 69 98 66 99 62 100 63 101 64 102 65 103
REMARK H PARENT 89 56 57 67
REMARK Flexibility Score: inf
ROOT
ATOM      1  O   UNL     1      -2.352   7.664   3.156  1.00  0.00    -0.377 OA
ENDROOT
BRANCH   1   2
ATOM      2  C   UNL     1      -1.256   6.768   3.079  1.00  0.00     0.188 C 
BRANCH   2   3
ATOM      3  C   UNL     1       0.071   7.477   2.759  1.00  0.00     0.188 C 
BRANCH   3   4
ATOM      4  O   UNL     1       0.018   8.881   2.981  1.00  0.00    -0.376 OA
BRANCH   4   5
ATOM      5  C   UNL     1      -0.192   9.742   1.870  1.00  0.00     0.202 C 
BRANCH   5   6
ATOM      6  C   UNL     1      -1.454   9.589   0.998  1.00  0.00     0.261 C 
BRANCH   6   7
ATOM      7  O   UNL     1      -1.749   8.261   0.543  1.00  0.00    -0.460 OA
BRANCH   7   8
ATOM      8  C   UNL     1      -0.908   7.718  -0.352  1.00  0.00     0.338 C 
ATOM      9  O   UNL     1       0.044   8.268  -0.880  1.00  0.00    -0.246 OA
BRANCH   8  10
ATOM     10  C   UNL     1      -1.206   6.273  -0.467  1.00  0.00     0.087 C 
ATOM     11  C   UNL     1      -0.891   1.333  -1.395  1.00  0.00     0.059 A 
ATOM     12  C   UNL     1      -1.917   2.179  -0.920  1.00  0.00     0.074 A 
ATOM     13  C   UNL     1       0.377   1.916  -1.611  1.00  0.00     0.065 A 
ATOM     14  C   UNL     1      -1.686   3.542  -0.685  1.00  0.00     0.130 A 
ATOM     15  C   UNL     1       0.631   3.246  -1.274  1.00  0.00     0.034 A 
ATOM     16  Cl  UNL     1       1.673   1.077  -2.397  1.00  0.00    -0.082 Cl
ATOM     17  C   UNL     1      -0.404   4.063  -0.832  1.00  0.00     0.019 A 
ATOM     18  O   UNL     1      -2.755   4.313  -0.310  1.00  0.00    -0.475 OA
ATOM     19  C   UNL     1      -0.146   5.469  -0.600  1.00  0.00     0.027 C 
ATOM     20  C   UNL     1      -2.628   5.768  -0.431  1.00  0.00     0.316 C 
BRANCH  11  21
ATOM     21  N   UNL     1      -1.140  -0.017  -1.681  1.00  0.00    -0.373 N 
ATOM     22  C   UNL     1      -2.179  -0.263  -2.677  1.00  0.00     0.143 C 
BRANCH  21  23
ATOM     23  C   UNL     1      -0.994  -1.008  -0.596  1.00  0.00     0.119 C 
BRANCH  23  24
ATOM     24  C   UNL     1       0.479  -1.393  -0.336  1.00  0.00     0.002 C 
ATOM     25  C   UNL     1       1.096  -0.563   0.793  1.00  0.00     0.009 C 
ATOM     26  C   UNL     1       0.631  -2.878   0.003  1.00  0.00     0.009 C 
ENDBRANCH  23  24
ENDBRANCH  21  23
ENDBRANCH  11  21
BRANCH  20  27
ATOM     27  C   UNL     1      -3.419   6.271  -1.646  1.00  0.00     0.430 C 
ATOM     28  F   UNL     1      -4.683   5.788  -1.654  1.00  0.00    -0.167 F 
ATOM     29  F   UNL     1      -3.509   7.622  -1.656  1.00  0.00    -0.167 F 
ATOM     30  F   UNL     1      -2.836   5.900  -2.811  1.00  0.00    -0.167 F 
ENDBRANCH  20  27
ENDBRANCH   8  10
ENDBRANCH   7   8
ENDBRANCH   6   7
ENDBRANCH   5   6
ENDBRANCH   4   5
ENDBRANCH   3   4
ENDBRANCH   2   3
ENDBRANCH   1   2
BRANCH   1  31
ATOM     31  C   UNL     1      -2.561   8.357   4.387  1.00  0.00     0.188 C 
BRANCH  31  32
ATOM     32  C   UNL     1      -1.417   8.582   5.405  1.00  0.00     0.188 C 
BRANCH  32  33
ATOM     33  O   UNL     1      -0.621   7.425   5.652  1.00  0.00    -0.376 OA
BRANCH  33  34
ATOM     34  C   UNL     1      -0.785   6.791   6.913  1.00  0.00     0.202 C 
BRANCH  34  35
ATOM     35  C   UNL     1      -2.059   5.946   7.032  1.00  0.00     0.261 C 
BRANCH  35  36
ATOM     36  O   UNL     1      -3.292   6.669   6.905  1.00  0.00    -0.460 OA
BRANCH  36  37
ATOM     37  C   UNL     1      -3.530   7.675   7.778  1.00  0.00     0.338 C 
ATOM     38  O   UNL     1      -2.826   8.011   8.715  1.00  0.00    -0.246 OA
BRANCH  37  39
ATOM     39  C   UNL     1      -4.692   8.432   7.265  1.00  0.00     0.060 A 
ATOM     40  C   UNL     1      -5.863   7.760   6.904  1.00  0.00     0.016 A 
ATOM     41  C   UNL     1      -4.590   9.819   7.098  1.00  0.00     0.016 A 
ATOM     42  C   UNL     1      -6.945   8.483   6.402  1.00  0.00     0.010 A 
ATOM     43  C   UNL     1      -5.674  10.541   6.590  1.00  0.00     0.010 A 
ATOM     44  C   UNL     1      -6.867   9.881   6.262  1.00  0.00    -0.014 A 
BRANCH  44  45
ATOM     45  C   UNL     1      -8.104  10.652   5.986  1.00  0.00     0.031 A 
ATOM     46  C   UNL     1      -8.423  11.208   4.633  1.00  0.00     0.074 A 
ATOM     47  C   UNL     1      -8.952  10.844   7.015  1.00  0.00     0.049 A 
ATOM     48  N   UNL     1      -9.518  11.805   4.236  1.00  0.00    -0.248 NA
ATOM     49  C   UNL     1      -7.391  11.088   3.594  1.00  0.00     0.031 C 
ATOM     50  C   UNL     1      -8.712  10.377   8.382  1.00  0.00     0.029 A 
ATOM     51  N   UNL     1     -10.173  11.465   7.082  1.00  0.00    -0.354 N 
ATOM     52  C   UNL     1      -9.322  12.116   2.896  1.00  0.00     0.074 A 
ATOM     53  C   UNL     1      -7.980  11.682   2.562  1.00  0.00     0.031 C 
ATOM     54  C   UNL     1      -9.760  10.707   9.147  1.00  0.00     0.029 A 
ATOM     55  C   UNL     1     -10.735  11.435   8.337  1.00  0.00     0.049 A 
ATOM     56  H   UNL     1     -10.605  11.891   6.307  1.00  0.00     0.167 HD
ATOM     57  C   UNL     1     -10.194  12.691   2.032  1.00  0.00     0.034 A 
ATOM     58  C   UNL     1     -11.904  11.929   8.791  1.00  0.00     0.034 A 
ATOM     59  C   UNL     1     -11.522  13.127   2.398  1.00  0.00     0.049 A 
ATOM     60  C   UNL     1     -12.845  12.582   7.813  1.00  0.00     0.074 A 
ATOM     61  C   UNL     1     -12.498  13.664   1.576  1.00  0.00     0.029 A 
ATOM     62  N   UNL     1     -12.058  13.093   3.678  1.00  0.00    -0.354 N 
ATOM     63  N   UNL     1     -12.698  12.752   6.520  1.00  0.00    -0.248 NA
ATOM     64  C   UNL     1     -14.117  13.091   8.342  1.00  0.00     0.031 C 
ATOM     65  C   UNL     1     -13.588  14.027   2.367  1.00  0.00     0.029 A 
ATOM     66  C   UNL     1     -13.334  13.637   3.672  1.00  0.00     0.049 A 
ATOM     67  H   UNL     1     -11.600  12.736   4.473  1.00  0.00     0.167 HD
ATOM     68  C   UNL     1     -13.867  13.364   6.078  1.00  0.00     0.074 A 
ATOM     69  C   UNL     1     -14.722  13.509   7.238  1.00  0.00     0.031 C 
ATOM     70  C   UNL     1     -14.195  13.772   4.826  1.00  0.00     0.034 A 
BRANCH  57  71
ATOM     71  C   UNL     1      -9.787  12.868   0.588  1.00  0.00     0.023 A 
ATOM     72  C   UNL     1      -9.746  14.155   0.015  1.00  0.00     0.031 A 
ATOM     73  C   UNL     1      -9.626  11.759  -0.262  1.00  0.00     0.131 A 
ATOM     74  C   UNL     1      -9.597  14.297  -1.371  1.00  0.00     0.055 A 
ATOM     75  C   UNL     1      -9.435  11.908  -1.636  1.00  0.00     0.041 A 
ATOM     76  F   UNL     1      -9.668  10.511   0.232  1.00  0.00    -0.206 F 
ATOM     77  C   UNL     1      -9.436  13.181  -2.199  1.00  0.00     0.022 A 
BRANCH  74  78
ATOM     78  S   UNL     1      -9.690  15.926  -2.164  1.00  0.00     0.124 S 
ATOM     79  O   UNL     1      -8.395  16.007  -2.836  1.00  0.00    -0.237 OA
ATOM     80  O   UNL     1     -10.842  15.770  -3.048  1.00  0.00    -0.237 OA
ATOM     81  O   UNL     1      -9.869  16.850  -1.050  1.00  0.00    -0.744 OA
ENDBRANCH  74  78
ENDBRANCH  57  71
BRANCH  58  82
ATOM     82  C   UNL     1     -12.255  11.743  10.228  1.00  0.00     0.023 A 
ATOM     83  C   UNL     1     -11.448  12.289  11.244  1.00  0.00     0.031 A 
ATOM     84  C   UNL     1     -13.325  10.916  10.607  1.00  0.00     0.131 A 
ATOM     85  C   UNL     1     -11.680  11.942  12.581  1.00  0.00     0.055 A 
ATOM     86  C   UNL     1     -13.599  10.635  11.947  1.00  0.00     0.041 A 
ATOM     87  F   UNL     1     -14.111  10.356   9.675  1.00  0.00    -0.206 F 
ATOM     88  C   UNL     1     -12.762  11.134  12.940  1.00  0.00     0.022 A 
BRANCH  85  89
ATOM     89  S   UNL     1     -10.499  12.406  13.878  1.00  0.00     0.124 S 
ATOM     90  O   UNL     1     -11.323  13.224  14.761  1.00  0.00    -0.237 OA
ATOM     91  O   UNL     1     -10.110  11.100  14.406  1.00  0.00    -0.237 OA
ATOM     92  O   UNL     1      -9.451  13.116  13.152  1.00  0.00    -0.744 OA
ENDBRANCH  85  89
ENDBRANCH  58  82
BRANCH  70  93
ATOM     93  C   UNL     1     -15.540  14.426   4.604  1.00  0.00     0.023 A 
ATOM     94  C   UNL     1     -16.470  13.843   3.719  1.00  0.00     0.031 A 
ATOM     95  C   UNL     1     -15.838  15.692   5.137  1.00  0.00     0.131 A 
ATOM     96  C   UNL     1     -17.626  14.547   3.357  1.00  0.00     0.055 A 
ATOM     97  C   UNL     1     -17.018  16.365   4.816  1.00  0.00     0.041 A 
ATOM     98  F   UNL     1     -14.982  16.296   5.977  1.00  0.00    -0.206 F 
ATOM     99  C   UNL     1     -17.910  15.800   3.909  1.00  0.00     0.022 A 
BRANCH  96 100
ATOM    100  S   UNL     1     -18.754  13.908   2.087  1.00  0.00     0.124 S 
ATOM    101  O   UNL     1     -20.009  13.795   2.827  1.00  0.00    -0.237 OA
ATOM    102  O   UNL     1     -18.716  14.967   1.083  1.00  0.00    -0.237 OA
ATOM    103  O   UNL     1     -18.153  12.640   1.687  1.00  0.00    -0.744 OA
ENDBRANCH  96 100
ENDBRANCH  70  93
ENDBRANCH  44  45
ENDBRANCH  37  39
ENDBRANCH  36  37
ENDBRANCH  35  36
ENDBRANCH  34  35
ENDBRANCH  33  34
ENDBRANCH  32  33
ENDBRANCH  31  32
ENDBRANCH   1  31
TORSDOF 27
