REMARK SMILES Cc1cccc(C(=O)OCCOCCOCCOCCOC(=O)c2ccc(-c3c4nc(c(-c5cc(S(=O)(=O)[O-])ccc5F)c5ccc([nH]5)c(-c5cc(S(=O)(=O)[O-])ccc5F)c5nc(c(-c6cc(S(=O)(=O)[O-])ccc6F)c6ccc3[nH]6)C=C5)C=C4)cc2)c1OC[C@@H]1C[C@H]2CC[C@@H]1C2
REMARK SMILES IDX 15 1 14 2 13 3 12 4 11 5 10 6 9 7 7 8 8 9 6 10 1 11 2 12
REMARK SMILES IDX 3 13 87 14 4 15 5 16 88 17 89 18 90 19 91 20 95 21 92 22
REMARK SMILES IDX 94 23 96 24 93 25 16 26 17 27 18 28 19 29 20 30 21 31 22 32
REMARK SMILES IDX 23 33 24 34 25 35 86 36 26 37 85 38 27 39 28 40 29 41 79 42
REMARK SMILES IDX 30 43 84 44 78 45 80 46 31 47 83 48 77 49 76 50 32 52 64 53
REMARK SMILES IDX 44 54 63 55 45 56 48 57 62 58 81 59 46 60 47 61 61 63 82 64
REMARK SMILES IDX 49 65 33 66 34 67 42 68 35 69 41 70 43 71 40 72 36 73 37 74
REMARK SMILES IDX 38 75 39 76 65 77 66 78 74 79 67 80 73 81 75 82 72 83 68 84
REMARK SMILES IDX 69 85 70 86 71 87 50 88 51 89 59 90 52 91 58 92 60 93 57 94
REMARK SMILES IDX 53 95 54 96 55 97 56 98
REMARK H PARENT 80 51 48 62
REMARK Flexibility Score: inf
ROOT
ATOM      1  O   UNL     1      -1.066   2.497  -2.062  1.00  0.00    -0.377 OA
ENDROOT
BRANCH   1   2
ATOM      2  C   UNL     1      -1.394   1.267  -2.680  1.00  0.00     0.188 C 
BRANCH   2   3
ATOM      3  C   UNL     1      -2.768   0.699  -2.260  1.00  0.00     0.188 C 
BRANCH   3   4
ATOM      4  O   UNL     1      -3.871   1.591  -2.112  1.00  0.00    -0.376 OA
BRANCH   4   5
ATOM      5  C   UNL     1      -3.781   2.483  -0.992  1.00  0.00     0.202 C 
BRANCH   5   6
ATOM      6  C   UNL     1      -3.477   1.837   0.354  1.00  0.00     0.261 C 
BRANCH   6   7
ATOM      7  O   UNL     1      -2.084   1.503   0.384  1.00  0.00    -0.460 OA
BRANCH   7   8
ATOM      8  C   UNL     1      -1.707   0.647   1.353  1.00  0.00     0.342 C 
ATOM      9  O   UNL     1      -2.261   0.405   2.402  1.00  0.00    -0.246 OA
BRANCH   8  10
ATOM     10  C   UNL     1      -0.864  -0.359   0.690  1.00  0.00     0.102 A 
ATOM     11  C   UNL     1       2.206  -1.213  -1.438  1.00  0.00     0.048 C 
ATOM     12  C   UNL     1       0.972  -1.204  -0.587  1.00  0.00    -0.008 A 
ATOM     13  C   UNL     1       0.289  -2.456  -0.622  1.00  0.00     0.007 A 
ATOM     14  C   UNL     1       0.411  -0.125   0.119  1.00  0.00     0.136 A 
ATOM     15  C   UNL     1      -0.970  -2.643  -0.075  1.00  0.00     0.001 A 
ATOM     16  C   UNL     1      -1.553  -1.584   0.574  1.00  0.00     0.019 A 
BRANCH  14  17
ATOM     17  O   UNL     1       0.855   1.154   0.254  1.00  0.00    -0.492 OA
BRANCH  17  18
ATOM     18  C   UNL     1       2.200   1.656   0.182  1.00  0.00     0.233 C 
BRANCH  18  19
ATOM     19  C   UNL     1       2.995   1.271   1.429  1.00  0.00     0.030 C 
ATOM     20  C   UNL     1       4.047   2.280   1.944  1.00  0.00     0.011 C 
ATOM     21  C   UNL     1       3.857  -0.010   1.288  1.00  0.00    -0.004 C 
ATOM     22  C   UNL     1       5.190   1.354   2.415  1.00  0.00    -0.010 C 
ATOM     23  C   UNL     1       3.866  -0.667   2.667  1.00  0.00     0.004 C 
ATOM     24  C   UNL     1       5.308   0.472   1.183  1.00  0.00     0.007 C 
ATOM     25  C   UNL     1       4.691   0.343   3.481  1.00  0.00     0.004 C 
ENDBRANCH  18  19
ENDBRANCH  17  18
ENDBRANCH  14  17
ENDBRANCH   8  10
ENDBRANCH   7   8
ENDBRANCH   6   7
ENDBRANCH   5   6
ENDBRANCH   4   5
ENDBRANCH   3   4
ENDBRANCH   2   3
ENDBRANCH   1   2
BRANCH   1  26
ATOM     26  C   UNL     1      -0.586   3.534  -2.909  1.00  0.00     0.188 C 
BRANCH  26  27
ATOM     27  C   UNL     1      -1.238   3.726  -4.254  1.00  0.00     0.188 C 
BRANCH  27  28
ATOM     28  O   UNL     1      -2.624   3.411  -4.167  1.00  0.00    -0.376 OA
BRANCH  28  29
ATOM     29  C   UNL     1      -3.168   2.858  -5.353  1.00  0.00     0.202 C 
BRANCH  29  30
ATOM     30  C   UNL     1      -3.006   3.802  -6.548  1.00  0.00     0.261 C 
BRANCH  30  31
ATOM     31  O   UNL     1      -3.780   5.004  -6.327  1.00  0.00    -0.460 OA
BRANCH  31  32
ATOM     32  C   UNL     1      -3.068   6.097  -5.922  1.00  0.00     0.338 C 
ATOM     33  O   UNL     1      -2.194   6.630  -6.585  1.00  0.00    -0.246 OA
BRANCH  32  34
ATOM     34  C   UNL     1      -3.400   6.453  -4.505  1.00  0.00     0.060 A 
ATOM     35  C   UNL     1      -2.587   7.327  -3.762  1.00  0.00     0.016 A 
ATOM     36  C   UNL     1      -4.333   5.681  -3.834  1.00  0.00     0.016 A 
ATOM     37  C   UNL     1      -2.564   7.257  -2.349  1.00  0.00     0.010 A 
ATOM     38  C   UNL     1      -4.219   5.550  -2.462  1.00  0.00     0.010 A 
ATOM     39  C   UNL     1      -3.295   6.276  -1.688  1.00  0.00    -0.014 A 
BRANCH  39  40
ATOM     40  C   UNL     1      -3.150   5.838  -0.265  1.00  0.00     0.031 A 
ATOM     41  C   UNL     1      -4.432   5.587   0.502  1.00  0.00     0.074 A 
ATOM     42  C   UNL     1      -1.980   5.302   0.207  1.00  0.00     0.049 A 
ATOM     43  N   UNL     1      -4.515   4.942   1.611  1.00  0.00    -0.248 NA
ATOM     44  C   UNL     1      -5.770   5.965   0.032  1.00  0.00     0.031 C 
ATOM     45  C   UNL     1      -1.824   4.340   1.303  1.00  0.00     0.029 A 
ATOM     46  N   UNL     1      -0.644   5.447  -0.201  1.00  0.00    -0.354 N 
ATOM     47  C   UNL     1      -5.808   4.507   1.802  1.00  0.00     0.074 A 
ATOM     48  C   UNL     1      -6.569   5.225   0.816  1.00  0.00     0.031 C 
ATOM     49  C   UNL     1      -0.537   4.081   1.577  1.00  0.00     0.029 A 
ATOM     50  C   UNL     1       0.188   5.115   0.900  1.00  0.00     0.049 A 
ATOM     51  H   UNL     1      -0.338   5.730  -1.093  1.00  0.00     0.167 HD
ATOM     52  C   UNL     1      -6.026   3.504   2.708  1.00  0.00     0.034 A 
ATOM     53  C   UNL     1       0.944   6.053   1.530  1.00  0.00     0.034 A 
ATOM     54  C   UNL     1      -4.835   3.291   3.545  1.00  0.00     0.049 A 
ATOM     55  C   UNL     1       0.372   6.205   2.939  1.00  0.00     0.074 A 
ATOM     56  C   UNL     1      -4.058   2.201   3.882  1.00  0.00     0.029 A 
ATOM     57  N   UNL     1      -4.163   4.404   4.060  1.00  0.00    -0.354 N 
ATOM     58  N   UNL     1      -0.904   6.049   3.235  1.00  0.00    -0.248 NA
ATOM     59  C   UNL     1       1.220   6.189   4.131  1.00  0.00     0.031 C 
ATOM     60  C   UNL     1      -2.822   2.696   4.407  1.00  0.00     0.029 A 
ATOM     61  C   UNL     1      -2.893   4.081   4.486  1.00  0.00     0.049 A 
ATOM     62  H   UNL     1      -4.550   5.307   4.113  1.00  0.00     0.167 HD
ATOM     63  C   UNL     1      -1.017   5.687   4.556  1.00  0.00     0.074 A 
ATOM     64  C   UNL     1       0.330   5.872   5.089  1.00  0.00     0.031 C 
ATOM     65  C   UNL     1      -2.081   5.071   5.170  1.00  0.00     0.034 A 
BRANCH  52  66
ATOM     66  C   UNL     1      -7.242   2.581   2.791  1.00  0.00     0.023 A 
ATOM     67  C   UNL     1      -7.337   1.648   3.857  1.00  0.00     0.031 A 
ATOM     68  C   UNL     1      -8.262   2.469   1.821  1.00  0.00     0.131 A 
ATOM     69  C   UNL     1      -8.367   0.684   3.924  1.00  0.00     0.055 A 
ATOM     70  C   UNL     1      -9.320   1.547   1.918  1.00  0.00     0.041 A 
ATOM     71  F   UNL     1      -8.265   3.206   0.704  1.00  0.00    -0.206 F 
ATOM     72  C   UNL     1      -9.376   0.644   2.968  1.00  0.00     0.022 A 
BRANCH  69  73
ATOM     73  S   UNL     1      -8.366  -0.551   5.261  1.00  0.00     0.124 S 
ATOM     74  O   UNL     1      -7.208  -1.371   4.922  1.00  0.00    -0.237 OA
ATOM     75  O   UNL     1      -8.251   0.276   6.456  1.00  0.00    -0.237 OA
ATOM     76  O   UNL     1      -9.657  -1.222   5.104  1.00  0.00    -0.744 OA
ENDBRANCH  69  73
ENDBRANCH  52  66
BRANCH  53  77
ATOM     77  C   UNL     1       1.504   6.987   0.494  1.00  0.00     0.023 A 
ATOM     78  C   UNL     1       2.373   6.355  -0.448  1.00  0.00     0.031 A 
ATOM     79  C   UNL     1       0.744   8.071   0.030  1.00  0.00     0.131 A 
ATOM     80  C   UNL     1       2.235   6.605  -1.828  1.00  0.00     0.055 A 
ATOM     81  C   UNL     1       0.673   8.367  -1.343  1.00  0.00     0.041 A 
ATOM     82  F   UNL     1      -0.094   8.717   0.853  1.00  0.00    -0.206 F 
ATOM     83  C   UNL     1       1.347   7.580  -2.281  1.00  0.00     0.022 A 
BRANCH  80  84
ATOM     84  S   UNL     1       2.988   5.452  -3.029  1.00  0.00     0.124 S 
ATOM     85  O   UNL     1       4.319   6.021  -3.205  1.00  0.00    -0.237 OA
ATOM     86  O   UNL     1       2.939   4.168  -2.335  1.00  0.00    -0.237 OA
ATOM     87  O   UNL     1       2.104   5.541  -4.191  1.00  0.00    -0.744 OA
ENDBRANCH  80  84
ENDBRANCH  53  77
BRANCH  65  88
ATOM     88  C   UNL     1      -2.461   5.379   6.597  1.00  0.00     0.023 A 
ATOM     89  C   UNL     1      -1.828   6.405   7.295  1.00  0.00     0.031 A 
ATOM     90  C   UNL     1      -3.578   4.785   7.241  1.00  0.00     0.131 A 
ATOM     91  C   UNL     1      -2.222   6.746   8.589  1.00  0.00     0.055 A 
ATOM     92  C   UNL     1      -4.035   5.197   8.492  1.00  0.00     0.041 A 
ATOM     93  F   UNL     1      -4.304   3.810   6.677  1.00  0.00    -0.206 F 
ATOM     94  C   UNL     1      -3.342   6.175   9.186  1.00  0.00     0.022 A 
BRANCH  91  95
ATOM     95  S   UNL     1      -1.159   7.897   9.476  1.00  0.00     0.124 S 
ATOM     96  O   UNL     1       0.087   7.139   9.559  1.00  0.00    -0.237 OA
ATOM     97  O   UNL     1      -1.135   9.055   8.587  1.00  0.00    -0.237 OA
ATOM     98  O   UNL     1      -1.854   8.098  10.744  1.00  0.00    -0.744 OA
ENDBRANCH  91  95
ENDBRANCH  65  88
ENDBRANCH  39  40
ENDBRANCH  32  34
ENDBRANCH  31  32
ENDBRANCH  30  31
ENDBRANCH  29  30
ENDBRANCH  28  29
ENDBRANCH  27  28
ENDBRANCH  26  27
ENDBRANCH   1  26
TORSDOF 26
