REMARK SMILES CO[C@H]1C[C@@H](C(=O)OCCOCCOCCOCCOC(=O)c2ccc(-c3c4nc(c(-c5cc(S(=O)(=O)[O-])ccc5F)c5ccc([nH]5)c(-c5cc(S(=O)(=O)[O-])ccc5F)c5nc(c(-c6cc(S(=O)(=O)[O-])ccc6F)c6ccc3[nH]6)C=C5)C=C4)cc2)N(C(=O)Nc2cc(C)cc(F)c2)C1
REMARK SMILES IDX 15 1 14 2 13 3 12 4 11 5 10 6 9 7 8 8 6 9 7 10 5 11 3 12
REMARK SMILES IDX 4 13 98 14 86 15 2 16 1 17 87 18 88 19 89 20 90 22 91 23
REMARK SMILES IDX 97 24 92 25 95 26 93 27 94 28 96 29 16 30 17 31 18 32 19 33
REMARK SMILES IDX 20 34 21 35 22 36 23 37 24 38 85 39 25 40 84 41 26 42 27 43
REMARK SMILES IDX 28 44 78 45 29 46 83 47 77 48 79 49 30 50 82 51 76 52 75 53
REMARK SMILES IDX 31 55 63 56 43 57 62 58 44 59 47 60 61 61 80 62 45 63 46 64
REMARK SMILES IDX 60 66 81 67 48 68 32 69 33 70 41 71 34 72 40 73 42 74 39 75
REMARK SMILES IDX 35 76 36 77 37 78 38 79 64 80 65 81 73 82 66 83 72 84 74 85
REMARK SMILES IDX 71 86 67 87 68 88 69 89 70 90 49 91 50 92 58 93 51 94 57 95
REMARK SMILES IDX 59 96 56 97 52 98 53 99 54 100 55 101
REMARK H PARENT 89 21 79 54 47 65
REMARK Flexibility Score: inf
ROOT
ATOM      1  C   UNL     1       0.771  10.418   0.048  1.00  0.00     0.188 C 
ENDROOT
BRANCH   1   2
ATOM      2  O   UNL     1       1.824   9.470   0.027  1.00  0.00    -0.377 OA
BRANCH   2   3
ATOM      3  C   UNL     1       1.493   8.135  -0.332  1.00  0.00     0.188 C 
BRANCH   3   4
ATOM      4  C   UNL     1       0.076   7.782  -0.808  1.00  0.00     0.188 C 
BRANCH   4   5
ATOM      5  O   UNL     1      -0.982   8.385  -0.080  1.00  0.00    -0.376 OA
BRANCH   5   6
ATOM      6  C   UNL     1      -1.829   7.500   0.633  1.00  0.00     0.202 C 
BRANCH   6   7
ATOM      7  C   UNL     1      -1.077   6.773   1.751  1.00  0.00     0.261 C 
BRANCH   7   8
ATOM      8  O   UNL     1      -0.170   5.767   1.231  1.00  0.00    -0.462 OA
BRANCH   8   9
ATOM      9  C   UNL     1      -0.778   4.650   0.771  1.00  0.00     0.329 C 
ATOM     10  O   UNL     1      -1.979   4.421   0.901  1.00  0.00    -0.250 OA
BRANCH   9  11
ATOM     11  C   UNL     1       0.167   3.595   0.187  1.00  0.00     0.199 C 
ATOM     12  C   UNL     1       1.436   1.703   0.808  1.00  0.00     0.140 C 
ATOM     13  C   UNL     1       0.350   2.607   1.349  1.00  0.00     0.071 C 
ATOM     14  C   UNL     1       2.409   2.763   0.299  1.00  0.00     0.154 C 
ATOM     15  N   UNL     1       1.541   3.774  -0.336  1.00  0.00    -0.308 N 
BRANCH  12  16
ATOM     16  O   UNL     1       1.954   0.850   1.811  1.00  0.00    -0.380 OA
ATOM     17  C   UNL     1       1.102  -0.274   2.031  1.00  0.00     0.195 C 
ENDBRANCH  12  16
BRANCH  15  18
ATOM     18  C   UNL     1       2.096   4.409  -1.396  1.00  0.00     0.322 C 
ATOM     19  O   UNL     1       3.334   4.436  -1.502  1.00  0.00    -0.248 OA
ATOM     20  N   UNL     1       1.489   5.062  -2.398  1.00  0.00    -0.308 N 
ATOM     21  H   UNL     1       2.179   5.476  -2.966  1.00  0.00     0.171 HD
BRANCH  20  22
ATOM     22  C   UNL     1       0.229   5.370  -2.931  1.00  0.00     0.046 A 
ATOM     23  C   UNL     1       0.190   6.433  -3.861  1.00  0.00     0.029 A 
ATOM     24  C   UNL     1      -0.973   4.808  -2.552  1.00  0.00     0.065 A 
ATOM     25  C   UNL     1      -1.025   7.050  -4.216  1.00  0.00    -0.046 A 
ATOM     26  C   UNL     1      -2.176   5.419  -2.889  1.00  0.00     0.125 A 
ATOM     27  C   UNL     1      -1.060   8.262  -5.098  1.00  0.00     0.044 C 
ATOM     28  C   UNL     1      -2.214   6.546  -3.691  1.00  0.00     0.042 A 
ATOM     29  F   UNL     1      -3.316   4.926  -2.388  1.00  0.00    -0.207 F 
ENDBRANCH  20  22
ENDBRANCH  15  18
ENDBRANCH   9  11
ENDBRANCH   8   9
ENDBRANCH   7   8
ENDBRANCH   6   7
ENDBRANCH   5   6
ENDBRANCH   4   5
ENDBRANCH   3   4
ENDBRANCH   2   3
ENDBRANCH   1   2
BRANCH   1  30
ATOM     30  C   UNL     1       0.221  10.806  -1.341  1.00  0.00     0.188 C 
BRANCH  30  31
ATOM     31  O   UNL     1       0.774  10.031  -2.407  1.00  0.00    -0.376 OA
BRANCH  31  32
ATOM     32  C   UNL     1       1.645  10.699  -3.305  1.00  0.00     0.202 C 
BRANCH  32  33
ATOM     33  C   UNL     1       3.045  11.020  -2.769  1.00  0.00     0.261 C 
BRANCH  33  34
ATOM     34  O   UNL     1       3.080  11.795  -1.568  1.00  0.00    -0.460 OA
BRANCH  34  35
ATOM     35  C   UNL     1       2.563  13.050  -1.607  1.00  0.00     0.338 C 
ATOM     36  O   UNL     1       2.151  13.637  -2.574  1.00  0.00    -0.246 OA
BRANCH  35  37
ATOM     37  C   UNL     1       2.342  13.428  -0.185  1.00  0.00     0.060 A 
ATOM     38  C   UNL     1       1.061  13.857   0.196  1.00  0.00     0.016 A 
ATOM     39  C   UNL     1       3.322  13.167   0.781  1.00  0.00     0.016 A 
ATOM     40  C   UNL     1       0.750  13.993   1.550  1.00  0.00     0.010 A 
ATOM     41  C   UNL     1       3.025  13.348   2.131  1.00  0.00     0.010 A 
ATOM     42  C   UNL     1       1.744  13.776   2.517  1.00  0.00    -0.014 A 
BRANCH  42  43
ATOM     43  C   UNL     1       1.551  14.321   3.879  1.00  0.00     0.031 A 
ATOM     44  C   UNL     1       1.919  15.767   4.065  1.00  0.00     0.074 A 
ATOM     45  C   UNL     1       1.086  13.580   4.899  1.00  0.00     0.049 A 
ATOM     46  N   UNL     1       1.911  16.499   5.144  1.00  0.00    -0.248 NA
ATOM     47  C   UNL     1       2.364  16.480   2.854  1.00  0.00     0.031 C 
ATOM     48  C   UNL     1       0.661  12.184   4.814  1.00  0.00     0.029 A 
ATOM     49  N   UNL     1       0.902  13.907   6.220  1.00  0.00    -0.354 N 
ATOM     50  C   UNL     1       2.339  17.758   4.740  1.00  0.00     0.074 A 
ATOM     51  C   UNL     1       2.634  17.681   3.329  1.00  0.00     0.031 C 
ATOM     52  C   UNL     1       0.279  11.770   6.037  1.00  0.00     0.029 A 
ATOM     53  C   UNL     1       0.470  12.857   6.997  1.00  0.00     0.049 A 
ATOM     54  H   UNL     1       1.064  14.809   6.578  1.00  0.00     0.167 HD
ATOM     55  C   UNL     1       2.474  18.881   5.481  1.00  0.00     0.034 A 
ATOM     56  C   UNL     1       0.285  12.787   8.332  1.00  0.00     0.034 A 
ATOM     57  C   UNL     1       2.230  18.919   6.898  1.00  0.00     0.049 A 
ATOM     58  C   UNL     1       0.553  14.024   9.163  1.00  0.00     0.074 A 
ATOM     59  C   UNL     1       2.349  19.988   7.765  1.00  0.00     0.029 A 
ATOM     60  N   UNL     1       1.843  17.823   7.661  1.00  0.00    -0.354 N 
ATOM     61  N   UNL     1       0.942  15.218   8.772  1.00  0.00    -0.248 NA
ATOM     62  C   UNL     1       0.355  13.906  10.614  1.00  0.00     0.031 C 
ATOM     63  C   UNL     1       2.112  19.521   9.062  1.00  0.00     0.029 A 
ATOM     64  C   UNL     1       1.754  18.182   8.995  1.00  0.00     0.049 A 
ATOM     65  H   UNL     1       1.659  16.924   7.305  1.00  0.00     0.167 HD
ATOM     66  C   UNL     1       1.002  15.999   9.925  1.00  0.00     0.074 A 
ATOM     67  C   UNL     1       0.596  15.143  11.021  1.00  0.00     0.031 C 
ATOM     68  C   UNL     1       1.355  17.303  10.070  1.00  0.00     0.034 A 
BRANCH  55  69
ATOM     69  C   UNL     1       2.978  20.112   4.772  1.00  0.00     0.023 A 
ATOM     70  C   UNL     1       2.250  20.715   3.730  1.00  0.00     0.031 A 
ATOM     71  C   UNL     1       4.239  20.645   5.090  1.00  0.00     0.131 A 
ATOM     72  C   UNL     1       2.820  21.766   2.996  1.00  0.00     0.055 A 
ATOM     73  C   UNL     1       4.763  21.746   4.411  1.00  0.00     0.041 A 
ATOM     74  F   UNL     1       4.995  20.087   6.048  1.00  0.00    -0.206 F 
ATOM     75  C   UNL     1       4.060  22.303   3.347  1.00  0.00     0.022 A 
BRANCH  72  76
ATOM     76  S   UNL     1       1.989  22.315   1.479  1.00  0.00     0.124 S 
ATOM     77  O   UNL     1       1.969  21.084   0.691  1.00  0.00    -0.237 OA
ATOM     78  O   UNL     1       0.698  22.777   1.974  1.00  0.00    -0.237 OA
ATOM     79  O   UNL     1       2.871  23.360   0.964  1.00  0.00    -0.744 OA
ENDBRANCH  72  76
ENDBRANCH  55  69
BRANCH  56  80
ATOM     80  C   UNL     1      -0.124  11.506   8.986  1.00  0.00     0.023 A 
ATOM     81  C   UNL     1      -1.326  11.403   9.706  1.00  0.00     0.031 A 
ATOM     82  C   UNL     1       0.721  10.381   8.960  1.00  0.00     0.131 A 
ATOM     83  C   UNL     1      -1.628  10.222  10.406  1.00  0.00     0.055 A 
ATOM     84  C   UNL     1       0.391   9.190   9.611  1.00  0.00     0.041 A 
ATOM     85  F   UNL     1       1.888  10.423   8.298  1.00  0.00    -0.206 F 
ATOM     86  C   UNL     1      -0.785   9.110  10.351  1.00  0.00     0.022 A 
BRANCH  83  87
ATOM     87  S   UNL     1      -3.099  10.188  11.468  1.00  0.00     0.124 S 
ATOM     88  O   UNL     1      -2.826  11.285  12.389  1.00  0.00    -0.237 OA
ATOM     89  O   UNL     1      -4.173  10.410  10.505  1.00  0.00    -0.237 OA
ATOM     90  O   UNL     1      -3.062   8.852  12.059  1.00  0.00    -0.744 OA
ENDBRANCH  83  87
ENDBRANCH  56  80
BRANCH  68  91
ATOM     91  C   UNL     1       1.266  17.892  11.457  1.00  0.00     0.023 A 
ATOM     92  C   UNL     1       2.103  17.465  12.501  1.00  0.00     0.031 A 
ATOM     93  C   UNL     1       0.331  18.907  11.732  1.00  0.00     0.131 A 
ATOM     94  C   UNL     1       1.950  18.008  13.785  1.00  0.00     0.055 A 
ATOM     95  C   UNL     1       0.231  19.494  12.993  1.00  0.00     0.041 A 
ATOM     96  F   UNL     1      -0.495  19.355  10.772  1.00  0.00    -0.206 F 
ATOM     97  C   UNL     1       1.034  19.035  14.033  1.00  0.00     0.022 A 
BRANCH  94  98
ATOM     98  S   UNL     1       2.895  17.286  15.154  1.00  0.00     0.124 S 
ATOM     99  O   UNL     1       2.468  15.891  15.113  1.00  0.00    -0.237 OA
ATOM    100  O   UNL     1       4.274  17.544  14.752  1.00  0.00    -0.237 OA
ATOM    101  O   UNL     1       2.438  18.040  16.320  1.00  0.00    -0.744 OA
ENDBRANCH  94  98
ENDBRANCH  68  91
ENDBRANCH  42  43
ENDBRANCH  35  37
ENDBRANCH  34  35
ENDBRANCH  33  34
ENDBRANCH  32  33
ENDBRANCH  31  32
ENDBRANCH  30  31
ENDBRANCH   1  30
TORSDOF 26
