REMARK SMILES C[C@@H]1C(C(=O)OCCOCCOCCOCCOC(=O)c2ccc(-c3c4nc(c(-c5cc(S(=O)(=O)[O-])ccc5F)c5ccc([nH]5)c(-c5cc(S(=O)(=O)[O-])ccc5F)c5nc(c(-c6cc(S(=O)(=O)[O-])ccc6F)c6ccc3[nH]6)C=C5)C=C4)cc2)=NC2=C1C(=O)C[C@H](c1ccccc1)C2
REMARK SMILES IDX 13 1 12 2 11 3 10 4 9 5 8 6 7 7 6 8 4 9 5 10 3 11 1 12 2 13
REMARK SMILES IDX 86 14 84 15 85 16 87 17 97 18 88 19 89 20 90 21 91 22 92 23
REMARK SMILES IDX 96 24 93 25 95 26 94 27 14 28 15 29 16 30 17 31 18 32 19 33
REMARK SMILES IDX 20 34 21 35 22 36 83 37 23 38 82 39 24 40 25 41 26 42 76 43
REMARK SMILES IDX 27 44 81 45 75 46 77 47 28 48 80 49 74 50 73 51 29 53 61 54
REMARK SMILES IDX 41 55 60 56 42 57 45 58 59 59 78 60 43 61 44 62 58 64 79 65
REMARK SMILES IDX 46 66 30 67 31 68 39 69 32 70 38 71 40 72 37 73 33 74 34 75
REMARK SMILES IDX 35 76 36 77 62 78 63 79 71 80 64 81 70 82 72 83 69 84 65 85
REMARK SMILES IDX 66 86 67 87 68 88 47 89 48 90 56 91 49 92 55 93 57 94 54 95
REMARK SMILES IDX 50 96 51 97 52 98 53 99
REMARK H PARENT 77 52 45 63
REMARK Flexibility Score: inf
ROOT
ATOM      1  C   UNL     1       4.802  -1.474  -3.293  1.00  0.00     0.188 C 
ENDROOT
BRANCH   1   2
ATOM      2  O   UNL     1       3.526  -1.087  -3.761  1.00  0.00    -0.377 OA
BRANCH   2   3
ATOM      3  C   UNL     1       3.041   0.197  -3.413  1.00  0.00     0.188 C 
BRANCH   3   4
ATOM      4  C   UNL     1       3.355   0.721  -2.016  1.00  0.00     0.188 C 
BRANCH   4   5
ATOM      5  O   UNL     1       4.710   0.668  -1.611  1.00  0.00    -0.376 OA
BRANCH   5   6
ATOM      6  C   UNL     1       4.965   0.848  -0.213  1.00  0.00     0.202 C 
BRANCH   6   7
ATOM      7  C   UNL     1       3.997   0.198   0.808  1.00  0.00     0.261 C 
BRANCH   7   8
ATOM      8  O   UNL     1       2.606   0.586   0.673  1.00  0.00    -0.459 OA
BRANCH   8   9
ATOM      9  C   UNL     1       2.251   1.864   0.911  1.00  0.00     0.353 C 
ATOM     10  O   UNL     1       2.896   2.682   1.536  1.00  0.00    -0.245 OA
BRANCH   9  11
ATOM     11  C   UNL     1       1.027   2.212   0.041  1.00  0.00     0.133 C 
ATOM     12  C   UNL     1      -0.981   0.747   0.225  1.00  0.00     0.020 C 
ATOM     13  C   UNL     1       0.210   1.126  -0.644  1.00  0.00     0.078 C 
ATOM     14  C   UNL     1      -0.186   2.022  -1.762  1.00  0.00     0.026 C 
ATOM     15  N   UNL     1       0.699   3.443  -0.269  1.00  0.00    -0.249 NA
ATOM     16  C   UNL     1      -0.046   3.302  -1.420  1.00  0.00     0.049 C 
ATOM     17  C   UNL     1      -0.246   1.697  -3.192  1.00  0.00     0.161 C 
ATOM     18  C   UNL     1      -0.221   4.391  -2.435  1.00  0.00     0.065 C 
ATOM     19  O   UNL     1      -0.702   0.612  -3.542  1.00  0.00    -0.294 OA
ATOM     20  C   UNL     1       0.363   2.696  -4.194  1.00  0.00     0.089 C 
ATOM     21  C   UNL     1       0.724   4.108  -3.624  1.00  0.00     0.033 C 
BRANCH  21  22
ATOM     22  C   UNL     1       2.207   4.359  -3.290  1.00  0.00    -0.044 A 
ATOM     23  C   UNL     1       2.605   4.991  -2.094  1.00  0.00     0.004 A 
ATOM     24  C   UNL     1       3.228   4.041  -4.192  1.00  0.00     0.004 A 
ATOM     25  C   UNL     1       3.944   5.142  -1.731  1.00  0.00     0.000 A 
ATOM     26  C   UNL     1       4.575   4.252  -3.854  1.00  0.00     0.000 A 
ATOM     27  C   UNL     1       4.936   4.747  -2.606  1.00  0.00     0.000 A 
ENDBRANCH  21  22
ENDBRANCH   9  11
ENDBRANCH   8   9
ENDBRANCH   7   8
ENDBRANCH   6   7
ENDBRANCH   5   6
ENDBRANCH   4   5
ENDBRANCH   3   4
ENDBRANCH   2   3
ENDBRANCH   1   2
BRANCH   1  28
ATOM     28  C   UNL     1       6.093  -0.947  -3.957  1.00  0.00     0.188 C 
BRANCH  28  29
ATOM     29  O   UNL     1       6.398   0.391  -4.306  1.00  0.00    -0.376 OA
BRANCH  29  30
ATOM     30  C   UNL     1       5.600   1.262  -5.080  1.00  0.00     0.202 C 
BRANCH  30  31
ATOM     31  C   UNL     1       4.858   0.906  -6.370  1.00  0.00     0.261 C 
BRANCH  31  32
ATOM     32  O   UNL     1       4.245  -0.357  -6.329  1.00  0.00    -0.460 OA
BRANCH  32  33
ATOM     33  C   UNL     1       5.082  -1.328  -6.731  1.00  0.00     0.338 C 
ATOM     34  O   UNL     1       6.254  -1.193  -7.069  1.00  0.00    -0.246 OA
BRANCH  33  35
ATOM     35  C   UNL     1       4.368  -2.599  -6.762  1.00  0.00     0.060 A 
ATOM     36  C   UNL     1       5.121  -3.678  -7.217  1.00  0.00     0.016 A 
ATOM     37  C   UNL     1       2.965  -2.614  -6.707  1.00  0.00     0.016 A 
ATOM     38  C   UNL     1       4.463  -4.636  -7.935  1.00  0.00     0.010 A 
ATOM     39  C   UNL     1       2.308  -3.575  -7.427  1.00  0.00     0.010 A 
ATOM     40  C   UNL     1       3.085  -4.491  -8.126  1.00  0.00    -0.014 A 
BRANCH  40  41
ATOM     41  C   UNL     1       2.475  -5.373  -9.084  1.00  0.00     0.031 A 
ATOM     42  C   UNL     1       2.366  -6.748  -8.578  1.00  0.00     0.074 A 
ATOM     43  C   UNL     1       2.061  -4.951 -10.290  1.00  0.00     0.049 A 
ATOM     44  N   UNL     1       3.076  -7.766  -8.923  1.00  0.00    -0.248 NA
ATOM     45  C   UNL     1       1.537  -6.957  -7.382  1.00  0.00     0.031 C 
ATOM     46  C   UNL     1       1.901  -3.581 -10.781  1.00  0.00     0.029 A 
ATOM     47  N   UNL     1       1.596  -5.702 -11.316  1.00  0.00    -0.354 N 
ATOM     48  C   UNL     1       2.613  -8.812  -8.140  1.00  0.00     0.074 A 
ATOM     49  C   UNL     1       1.857  -8.213  -7.075  1.00  0.00     0.031 C 
ATOM     50  C   UNL     1       1.153  -3.604 -11.909  1.00  0.00     0.029 A 
ATOM     51  C   UNL     1       0.903  -4.989 -12.282  1.00  0.00     0.049 A 
ATOM     52  H   UNL     1       1.739  -6.675 -11.372  1.00  0.00     0.167 HD
ATOM     53  C   UNL     1       2.672 -10.093  -8.588  1.00  0.00     0.034 A 
ATOM     54  C   UNL     1       0.103  -5.522 -13.242  1.00  0.00     0.034 A 
ATOM     55  C   UNL     1       3.625 -10.222  -9.669  1.00  0.00     0.049 A 
ATOM     56  C   UNL     1       0.525  -6.941 -13.410  1.00  0.00     0.074 A 
ATOM     57  C   UNL     1       4.985  -9.993  -9.780  1.00  0.00     0.029 A 
ATOM     58  N   UNL     1       3.148 -10.246 -10.962  1.00  0.00    -0.354 N 
ATOM     59  N   UNL     1       1.698  -7.289 -13.869  1.00  0.00    -0.248 NA
ATOM     60  C   UNL     1      -0.139  -7.958 -12.603  1.00  0.00     0.031 C 
ATOM     61  C   UNL     1       5.159  -9.411 -11.070  1.00  0.00     0.029 A 
ATOM     62  C   UNL     1       3.916  -9.381 -11.707  1.00  0.00     0.049 A 
ATOM     63  H   UNL     1       2.394 -10.786 -11.293  1.00  0.00     0.167 HD
ATOM     64  C   UNL     1       2.101  -8.355 -13.075  1.00  0.00     0.074 A 
ATOM     65  C   UNL     1       0.889  -8.783 -12.378  1.00  0.00     0.031 C 
ATOM     66  C   UNL     1       3.424  -8.608 -12.836  1.00  0.00     0.034 A 
BRANCH  53  67
ATOM     67  C   UNL     1       1.611 -11.126  -8.297  1.00  0.00     0.023 A 
ATOM     68  C   UNL     1       1.810 -12.411  -8.829  1.00  0.00     0.031 A 
ATOM     69  C   UNL     1       0.317 -10.867  -7.783  1.00  0.00     0.131 A 
ATOM     70  C   UNL     1       0.747 -13.323  -8.924  1.00  0.00     0.055 A 
ATOM     71  C   UNL     1      -0.717 -11.803  -7.815  1.00  0.00     0.041 A 
ATOM     72  F   UNL     1      -0.059  -9.675  -7.308  1.00  0.00    -0.206 F 
ATOM     73  C   UNL     1      -0.516 -13.029  -8.419  1.00  0.00     0.022 A 
BRANCH  70  74
ATOM     74  S   UNL     1       1.001 -14.832  -9.888  1.00  0.00     0.124 S 
ATOM     75  O   UNL     1       1.504 -14.296 -11.148  1.00  0.00    -0.237 OA
ATOM     76  O   UNL     1       1.963 -15.553  -9.063  1.00  0.00    -0.237 OA
ATOM     77  O   UNL     1      -0.335 -15.421  -9.949  1.00  0.00    -0.744 OA
ENDBRANCH  70  74
ENDBRANCH  53  67
BRANCH  54  78
ATOM     78  C   UNL     1      -1.218  -4.985 -13.675  1.00  0.00     0.023 A 
ATOM     79  C   UNL     1      -1.836  -5.357 -14.887  1.00  0.00     0.031 A 
ATOM     80  C   UNL     1      -2.009  -4.246 -12.764  1.00  0.00     0.131 A 
ATOM     81  C   UNL     1      -3.177  -4.984 -15.146  1.00  0.00     0.055 A 
ATOM     82  C   UNL     1      -3.328  -3.874 -13.027  1.00  0.00     0.041 A 
ATOM     83  F   UNL     1      -1.552  -3.929 -11.542  1.00  0.00    -0.206 F 
ATOM     84  C   UNL     1      -3.922  -4.250 -14.219  1.00  0.00     0.022 A 
BRANCH  81  85
ATOM     85  S   UNL     1      -4.010  -5.529 -16.672  1.00  0.00     0.124 S 
ATOM     86  O   UNL     1      -3.294  -4.782 -17.700  1.00  0.00    -0.237 OA
ATOM     87  O   UNL     1      -3.796  -6.971 -16.649  1.00  0.00    -0.237 OA
ATOM     88  O   UNL     1      -5.400  -5.115 -16.470  1.00  0.00    -0.744 OA
ENDBRANCH  81  85
ENDBRANCH  54  78
BRANCH  66  89
ATOM     89  C   UNL     1       4.462  -7.871 -13.666  1.00  0.00     0.023 A 
ATOM     90  C   UNL     1       4.594  -6.464 -13.735  1.00  0.00     0.031 A 
ATOM     91  C   UNL     1       5.441  -8.647 -14.312  1.00  0.00     0.131 A 
ATOM     92  C   UNL     1       5.673  -5.889 -14.440  1.00  0.00     0.055 A 
ATOM     93  C   UNL     1       6.518  -8.075 -14.988  1.00  0.00     0.041 A 
ATOM     94  F   UNL     1       5.388  -9.989 -14.262  1.00  0.00    -0.206 F 
ATOM     95  C   UNL     1       6.636  -6.693 -15.059  1.00  0.00     0.022 A 
BRANCH  92  96
ATOM     96  S   UNL     1       5.840  -4.079 -14.578  1.00  0.00     0.124 S 
ATOM     97  O   UNL     1       4.508  -3.642 -14.980  1.00  0.00    -0.237 OA
ATOM     98  O   UNL     1       6.262  -3.697 -13.234  1.00  0.00    -0.237 OA
ATOM     99  O   UNL     1       6.870  -3.910 -15.607  1.00  0.00    -0.744 OA
ENDBRANCH  92  96
ENDBRANCH  66  89
ENDBRANCH  40  41
ENDBRANCH  33  35
ENDBRANCH  32  33
ENDBRANCH  31  32
ENDBRANCH  30  31
ENDBRANCH  29  30
ENDBRANCH  28  29
ENDBRANCH   1  28
TORSDOF 24
