REMARK SMILES CCCc1cc(OC(F)(F)F)cc2c1O[C@@H](C(F)(F)F)C(C(=O)OCCOCCOCCOCCOC(=O)c1ccc(-c3c4nc(c(-c5cc(S(=O)(=O)[O-])ccc5F)c5ccc([nH]5)c(-c5cc(S(=O)(=O)[O-])ccc5F)c5nc(c(-c6cc(S(=O)(=O)[O-])ccc6F)c6ccc3[nH]6)C=C5)C=C4)cc1)=C2
REMARK SMILES IDX 31 1 30 2 29 3 28 4 27 5 26 6 25 7 24 8 22 9 23 10 21 11
REMARK SMILES IDX 4 12 5 13 14 14 6 15 13 16 15 17 12 18 102 19 16 20 3 21
REMARK SMILES IDX 2 22 1 23 7 24 8 25 9 26 10 27 11 28 17 29 18 30 19 31 20 32
REMARK SMILES IDX 32 33 33 34 34 35 35 36 36 37 37 38 38 39 39 40 40 41 101 42
REMARK SMILES IDX 41 43 100 44 42 45 43 46 44 47 94 48 45 49 99 50 93 51 95 52
REMARK SMILES IDX 46 53 98 54 92 55 91 56 47 58 79 59 59 60 78 61 60 62 63 63
REMARK SMILES IDX 77 64 96 65 61 66 62 67 76 69 97 70 64 71 48 72 49 73 57 74
REMARK SMILES IDX 50 75 56 76 58 77 55 78 51 79 52 80 53 81 54 82 80 83 81 84
REMARK SMILES IDX 89 85 82 86 88 87 90 88 87 89 83 90 84 91 85 92 86 93 65 94
REMARK SMILES IDX 66 95 74 96 67 97 73 98 75 99 72 100 68 101 69 102 70 103
REMARK SMILES IDX 71 104
REMARK H PARENT 95 57 63 68
REMARK Flexibility Score: inf
ROOT
ATOM      1  C   UNL     1      -5.533   1.040   8.830  1.00  0.00     0.188 C 
ENDROOT
BRANCH   1   2
ATOM      2  O   UNL     1      -4.427   0.914   7.939  1.00  0.00    -0.377 OA
BRANCH   2   3
ATOM      3  C   UNL     1      -4.265  -0.281   7.203  1.00  0.00     0.188 C 
BRANCH   3   4
ATOM      4  C   UNL     1      -4.130  -1.582   8.011  1.00  0.00     0.188 C 
BRANCH   4   5
ATOM      5  O   UNL     1      -4.276  -1.416   9.417  1.00  0.00    -0.376 OA
BRANCH   5   6
ATOM      6  C   UNL     1      -3.094  -1.548  10.196  1.00  0.00     0.202 C 
BRANCH   6   7
ATOM      7  C   UNL     1      -2.120  -0.370  10.083  1.00  0.00     0.261 C 
BRANCH   7   8
ATOM      8  O   UNL     1      -1.636  -0.132   8.751  1.00  0.00    -0.460 OA
BRANCH   8   9
ATOM      9  C   UNL     1      -0.858  -1.081   8.188  1.00  0.00     0.338 C 
ATOM     10  O   UNL     1      -0.478  -2.112   8.711  1.00  0.00    -0.246 OA
BRANCH   9  11
ATOM     11  C   UNL     1      -0.638  -0.747   6.768  1.00  0.00     0.087 C 
ATOM     12  C   UNL     1       0.773  -0.064   2.892  1.00  0.00    -0.002 A 
ATOM     13  C   UNL     1       1.038   1.262   2.505  1.00  0.00     0.054 A 
ATOM     14  C   UNL     1       0.245  -0.284   4.172  1.00  0.00     0.131 A 
ATOM     15  C   UNL     1       0.729   2.344   3.334  1.00  0.00     0.130 A 
ATOM     16  C   UNL     1      -0.004   0.789   5.040  1.00  0.00     0.021 A 
ATOM     17  O   UNL     1       0.084  -1.584   4.582  1.00  0.00    -0.475 OA
ATOM     18  C   UNL     1       0.199   2.100   4.602  1.00  0.00     0.058 A 
ATOM     19  C   UNL     1      -0.320   0.515   6.439  1.00  0.00     0.027 C 
ATOM     20  C   UNL     1      -0.832  -1.787   5.692  1.00  0.00     0.316 C 
BRANCH  12  21
ATOM     21  C   UNL     1       1.153  -1.209   1.976  1.00  0.00     0.039 C 
BRANCH  21  22
ATOM     22  C   UNL     1       0.385  -1.298   0.650  1.00  0.00     0.001 C 
ATOM     23  C   UNL     1       0.795  -0.268  -0.394  1.00  0.00     0.004 C 
ENDBRANCH  21  22
ENDBRANCH  12  21
BRANCH  15  24
ATOM     24  O   UNL     1       0.928   3.663   3.041  1.00  0.00    -0.406 OA
BRANCH  24  25
ATOM     25  C   UNL     1       1.577   3.978   1.821  1.00  0.00     0.573 C 
ATOM     26  F   UNL     1       2.814   3.434   1.773  1.00  0.00    -0.132 F 
ATOM     27  F   UNL     1       0.860   3.548   0.760  1.00  0.00    -0.132 F 
ATOM     28  F   UNL     1       1.706   5.319   1.723  1.00  0.00    -0.132 F 
ENDBRANCH  24  25
ENDBRANCH  15  24
BRANCH  20  29
ATOM     29  C   UNL     1      -0.778  -3.276   6.076  1.00  0.00     0.430 C 
ATOM     30  F   UNL     1      -1.767  -3.616   6.933  1.00  0.00    -0.167 F 
ATOM     31  F   UNL     1      -0.978  -4.045   4.970  1.00  0.00    -0.167 F 
ATOM     32  F   UNL     1       0.404  -3.648   6.605  1.00  0.00    -0.167 F 
ENDBRANCH  20  29
ENDBRANCH   9  11
ENDBRANCH   8   9
ENDBRANCH   7   8
ENDBRANCH   6   7
ENDBRANCH   5   6
ENDBRANCH   4   5
ENDBRANCH   3   4
ENDBRANCH   2   3
ENDBRANCH   1   2
BRANCH   1  33
ATOM     33  C   UNL     1      -6.699   0.023   8.847  1.00  0.00     0.188 C 
BRANCH  33  34
ATOM     34  O   UNL     1      -6.916  -0.668   7.622  1.00  0.00    -0.376 OA
BRANCH  34  35
ATOM     35  C   UNL     1      -8.085  -0.312   6.898  1.00  0.00     0.202 C 
BRANCH  35  36
ATOM     36  C   UNL     1      -7.950   1.011   6.137  1.00  0.00     0.261 C 
BRANCH  36  37
ATOM     37  O   UNL     1      -7.778   2.168   6.969  1.00  0.00    -0.460 OA
BRANCH  37  38
ATOM     38  C   UNL     1      -8.773   2.440   7.845  1.00  0.00     0.338 C 
ATOM     39  O   UNL     1      -9.827   1.839   7.965  1.00  0.00    -0.246 OA
BRANCH  38  40
ATOM     40  C   UNL     1      -8.284   3.474   8.774  1.00  0.00     0.060 A 
ATOM     41  C   UNL     1      -8.297   3.207  10.149  1.00  0.00     0.016 A 
ATOM     42  C   UNL     1      -7.804   4.693   8.289  1.00  0.00     0.016 A 
ATOM     43  C   UNL     1      -7.863   4.180  11.048  1.00  0.00     0.010 A 
ATOM     44  C   UNL     1      -7.388   5.673   9.191  1.00  0.00     0.010 A 
ATOM     45  C   UNL     1      -7.449   5.433  10.575  1.00  0.00    -0.014 A 
BRANCH  45  46
ATOM     46  C   UNL     1      -7.301   6.559  11.526  1.00  0.00     0.031 A 
ATOM     47  C   UNL     1      -8.484   7.465  11.734  1.00  0.00     0.074 A 
ATOM     48  C   UNL     1      -6.157   6.762  12.204  1.00  0.00     0.049 A 
ATOM     49  N   UNL     1      -8.600   8.523  12.494  1.00  0.00    -0.248 NA
ATOM     50  C   UNL     1      -9.699   7.130  10.975  1.00  0.00     0.031 C 
ATOM     51  C   UNL     1      -4.960   5.929  12.111  1.00  0.00     0.029 A 
ATOM     52  N   UNL     1      -5.819   7.739  13.106  1.00  0.00    -0.354 N 
ATOM     53  C   UNL     1      -9.902   8.975  12.311  1.00  0.00     0.074 A 
ATOM     54  C   UNL     1     -10.519   8.105  11.333  1.00  0.00     0.031 C 
ATOM     55  C   UNL     1      -4.013   6.438  12.919  1.00  0.00     0.029 A 
ATOM     56  C   UNL     1      -4.525   7.648  13.562  1.00  0.00     0.049 A 
ATOM     57  H   UNL     1      -6.445   8.441  13.399  1.00  0.00     0.167 HD
ATOM     58  C   UNL     1     -10.531  10.014  12.912  1.00  0.00     0.034 A 
ATOM     59  C   UNL     1      -3.833   8.461  14.386  1.00  0.00     0.034 A 
ATOM     60  C   UNL     1      -9.896  10.890  13.864  1.00  0.00     0.049 A 
ATOM     61  C   UNL     1      -4.525   9.672  14.971  1.00  0.00     0.074 A 
ATOM     62  C   UNL     1     -10.438  11.969  14.540  1.00  0.00     0.029 A 
ATOM     63  N   UNL     1      -8.568  10.798  14.264  1.00  0.00    -0.354 N 
ATOM     64  N   UNL     1      -5.764  10.079  14.807  1.00  0.00    -0.248 NA
ATOM     65  C   UNL     1      -3.726  10.528  15.857  1.00  0.00     0.031 C 
ATOM     66  C   UNL     1      -9.422  12.571  15.290  1.00  0.00     0.029 A 
ATOM     67  C   UNL     1      -8.264  11.822  15.147  1.00  0.00     0.049 A 
ATOM     68  H   UNL     1      -7.935  10.106  13.963  1.00  0.00     0.167 HD
ATOM     69  C   UNL     1      -5.898  11.220  15.596  1.00  0.00     0.074 A 
ATOM     70  C   UNL     1      -4.619  11.427  16.244  1.00  0.00     0.031 C 
ATOM     71  C   UNL     1      -6.979  12.023  15.775  1.00  0.00     0.034 A 
BRANCH  58  72
ATOM     72  C   UNL     1     -11.959  10.281  12.505  1.00  0.00     0.023 A 
ATOM     73  C   UNL     1     -12.985   9.353  12.758  1.00  0.00     0.031 A 
ATOM     74  C   UNL     1     -12.292  11.460  11.816  1.00  0.00     0.131 A 
ATOM     75  C   UNL     1     -14.276   9.584  12.260  1.00  0.00     0.055 A 
ATOM     76  C   UNL     1     -13.597  11.721  11.392  1.00  0.00     0.041 A 
ATOM     77  F   UNL     1     -11.350  12.370  11.523  1.00  0.00    -0.206 F 
ATOM     78  C   UNL     1     -14.595  10.773  11.600  1.00  0.00     0.022 A 
BRANCH  75  79
ATOM     79  S   UNL     1     -15.495   8.244  12.356  1.00  0.00     0.124 S 
ATOM     80  O   UNL     1     -14.826   7.181  11.611  1.00  0.00    -0.237 OA
ATOM     81  O   UNL     1     -15.622   8.035  13.794  1.00  0.00    -0.237 OA
ATOM     82  O   UNL     1     -16.675   8.806  11.701  1.00  0.00    -0.744 OA
ENDBRANCH  75  79
ENDBRANCH  58  72
BRANCH  59  83
ATOM     83  C   UNL     1      -2.396   8.196  14.685  1.00  0.00     0.023 A 
ATOM     84  C   UNL     1      -1.963   7.918  15.992  1.00  0.00     0.031 A 
ATOM     85  C   UNL     1      -1.423   8.287  13.674  1.00  0.00     0.131 A 
ATOM     86  C   UNL     1      -0.591   7.790  16.262  1.00  0.00     0.055 A 
ATOM     87  C   UNL     1      -0.064   8.106  13.938  1.00  0.00     0.041 A 
ATOM     88  F   UNL     1      -1.781   8.554  12.408  1.00  0.00    -0.206 F 
ATOM     89  C   UNL     1       0.360   7.869  15.242  1.00  0.00     0.022 A 
BRANCH  86  90
ATOM     90  S   UNL     1      -0.057   7.604  17.986  1.00  0.00     0.124 S 
ATOM     91  O   UNL     1      -0.596   8.814  18.595  1.00  0.00    -0.237 OA
ATOM     92  O   UNL     1      -0.699   6.351  18.368  1.00  0.00    -0.237 OA
ATOM     93  O   UNL     1       1.400   7.550  17.887  1.00  0.00    -0.744 OA
ENDBRANCH  86  90
ENDBRANCH  59  83
BRANCH  71  94
ATOM     94  C   UNL     1      -6.831  13.173  16.743  1.00  0.00     0.023 A 
ATOM     95  C   UNL     1      -5.973  14.255  16.483  1.00  0.00     0.031 A 
ATOM     96  C   UNL     1      -7.557  13.180  17.948  1.00  0.00     0.131 A 
ATOM     97  C   UNL     1      -5.819  15.271  17.439  1.00  0.00     0.055 A 
ATOM     98  C   UNL     1      -7.447  14.224  18.867  1.00  0.00     0.041 A 
ATOM     99  F   UNL     1      -8.391  12.172  18.249  1.00  0.00    -0.206 F 
ATOM    100  C   UNL     1      -6.564  15.271  18.621  1.00  0.00     0.022 A 
BRANCH  97 101
ATOM    101  S   UNL     1      -4.562  16.549  17.160  1.00  0.00     0.124 S 
ATOM    102  O   UNL     1      -3.344  15.755  17.037  1.00  0.00    -0.237 OA
ATOM    103  O   UNL     1      -5.032  17.188  15.935  1.00  0.00    -0.237 OA
ATOM    104  O   UNL     1      -4.643  17.378  18.361  1.00  0.00    -0.744 OA
ENDBRANCH  97 101
ENDBRANCH  71  94
ENDBRANCH  45  46
ENDBRANCH  38  40
ENDBRANCH  37  38
ENDBRANCH  36  37
ENDBRANCH  35  36
ENDBRANCH  34  35
ENDBRANCH  33  34
ENDBRANCH   1  33
TORSDOF 28
