REMARK SMILES O=C(OCCOCCOCCOCCOC(=O)c1ccccc1C[N@H+]1CCCC[C@@H]1CCn1cccn1)c1ccc(-c2c3nc(c(-c4cc(S(=O)(=O)[O-])ccc4F)c4ccc([nH]4)c(-c4cc(S(=O)(=O)[O-])ccc4F)c4nc(c(-c5cc(S(=O)(=O)[O-])ccc5F)c5ccc2[nH]5)C=C4)C=C3)cc1
REMARK SMILES IDX 10 1 9 2 8 3 7 4 6 5 5 6 4 7 3 8 2 9 1 10 38 11 39 12 100 13
REMARK SMILES IDX 40 14 99 15 41 16 42 17 43 18 93 19 44 20 98 21 92 22 94 23
REMARK SMILES IDX 45 24 97 25 91 26 90 27 46 29 78 30 58 31 77 32 59 33 62 34
REMARK SMILES IDX 76 35 95 36 60 37 61 38 75 40 96 41 63 42 47 43 48 44 56 45
REMARK SMILES IDX 49 46 55 47 57 48 54 49 50 50 51 51 52 52 53 53 79 54 80 55
REMARK SMILES IDX 88 56 81 57 87 58 89 59 86 60 82 61 83 62 84 63 85 64 64 65
REMARK SMILES IDX 65 66 73 67 66 68 72 69 74 70 71 71 67 72 68 73 69 74 70 75
REMARK SMILES IDX 11 76 12 77 13 78 14 79 15 80 16 81 17 82 18 83 19 84 23 85
REMARK SMILES IDX 20 86 22 87 21 88 24 89 25 90 26 91 30 92 27 94 29 95 28 96
REMARK SMILES IDX 31 97 32 98 33 99 34 100 37 101 35 102 36 103
REMARK H PARENT 94 28 62 39 25 93
REMARK Flexibility Score: inf
ROOT
ATOM      1  C   UNL     1       4.246  -1.730   2.698  1.00  0.00     0.188 C 
ENDROOT
BRANCH   1   2
ATOM      2  O   UNL     1       2.904  -2.094   2.471  1.00  0.00    -0.377 OA
BRANCH   2   3
ATOM      3  C   UNL     1       2.307  -1.384   1.399  1.00  0.00     0.188 C 
BRANCH   3   4
ATOM      4  C   UNL     1       3.000  -1.440   0.021  1.00  0.00     0.188 C 
BRANCH   4   5
ATOM      5  O   UNL     1       4.331  -1.034  -0.272  1.00  0.00    -0.376 OA
BRANCH   5   6
ATOM      6  C   UNL     1       5.101   0.061   0.185  1.00  0.00     0.202 C 
BRANCH   6   7
ATOM      7  C   UNL     1       4.566   1.473   0.413  1.00  0.00     0.261 C 
BRANCH   7   8
ATOM      8  O   UNL     1       3.191   1.530   0.749  1.00  0.00    -0.460 OA
BRANCH   8   9
ATOM      9  C   UNL     1       2.152   1.531  -0.109  1.00  0.00     0.338 C 
ATOM     10  O   UNL     1       1.021   1.589   0.374  1.00  0.00    -0.246 OA
BRANCH   9  11
ATOM     11  C   UNL     1       2.278   1.382  -1.591  1.00  0.00     0.060 A 
ATOM     12  C   UNL     1       3.457   1.340  -2.345  1.00  0.00     0.016 A 
ATOM     13  C   UNL     1       1.050   1.261  -2.266  1.00  0.00     0.016 A 
ATOM     14  C   UNL     1       3.413   1.424  -3.720  1.00  0.00     0.010 A 
ATOM     15  C   UNL     1       0.995   1.304  -3.643  1.00  0.00     0.010 A 
ATOM     16  C   UNL     1       2.176   1.492  -4.343  1.00  0.00    -0.014 A 
BRANCH  16  17
ATOM     17  C   UNL     1       2.166   1.739  -5.767  1.00  0.00     0.031 A 
ATOM     18  C   UNL     1       2.748   0.635  -6.566  1.00  0.00     0.074 A 
ATOM     19  C   UNL     1       1.627   2.876  -6.249  1.00  0.00     0.049 A 
ATOM     20  N   UNL     1       3.811   0.665  -7.299  1.00  0.00    -0.248 NA
ATOM     21  C   UNL     1       2.194  -0.717  -6.378  1.00  0.00     0.031 C 
ATOM     22  C   UNL     1       0.877   3.901  -5.515  1.00  0.00     0.029 A 
ATOM     23  N   UNL     1       1.550   3.314  -7.529  1.00  0.00    -0.354 N 
ATOM     24  C   UNL     1       3.907  -0.599  -7.871  1.00  0.00     0.074 A 
ATOM     25  C   UNL     1       3.027  -1.449  -7.117  1.00  0.00     0.031 C 
ATOM     26  C   UNL     1       0.209   4.681  -6.395  1.00  0.00     0.029 A 
ATOM     27  C   UNL     1       0.590   4.299  -7.744  1.00  0.00     0.049 A 
ATOM     28  H   UNL     1       2.126   2.965  -8.247  1.00  0.00     0.167 HD
ATOM     29  C   UNL     1       4.495  -0.769  -9.086  1.00  0.00     0.034 A 
ATOM     30  C   UNL     1       0.092   4.700  -8.946  1.00  0.00     0.034 A 
ATOM     31  C   UNL     1       5.388   0.327  -9.385  1.00  0.00     0.049 A 
ATOM     32  C   UNL     1       1.093   4.297  -9.970  1.00  0.00     0.074 A 
ATOM     33  C   UNL     1       6.507   0.844  -8.759  1.00  0.00     0.029 A 
ATOM     34  N   UNL     1       4.946   1.320 -10.231  1.00  0.00    -0.354 N 
ATOM     35  N   UNL     1       2.295   4.809 -10.024  1.00  0.00    -0.248 NA
ATOM     36  C   UNL     1       0.961   2.975 -10.567  1.00  0.00     0.031 C 
ATOM     37  C   UNL     1       6.363   2.258  -8.864  1.00  0.00     0.029 A 
ATOM     38  C   UNL     1       5.230   2.527  -9.636  1.00  0.00     0.049 A 
ATOM     39  H   UNL     1       4.508   1.189 -11.103  1.00  0.00     0.167 HD
ATOM     40  C   UNL     1       3.138   3.731 -10.252  1.00  0.00     0.074 A 
ATOM     41  C   UNL     1       2.252   2.638 -10.657  1.00  0.00     0.031 C 
ATOM     42  C   UNL     1       4.431   3.729  -9.807  1.00  0.00     0.034 A 
BRANCH  29  43
ATOM     43  C   UNL     1       3.967  -1.711 -10.146  1.00  0.00     0.023 A 
ATOM     44  C   UNL     1       4.669  -1.778 -11.363  1.00  0.00     0.031 A 
ATOM     45  C   UNL     1       2.682  -2.306 -10.144  1.00  0.00     0.131 A 
ATOM     46  C   UNL     1       4.067  -2.319 -12.513  1.00  0.00     0.055 A 
ATOM     47  C   UNL     1       2.115  -2.900 -11.273  1.00  0.00     0.041 A 
ATOM     48  F   UNL     1       1.861  -2.265  -9.089  1.00  0.00    -0.206 F 
ATOM     49  C   UNL     1       2.794  -2.881 -12.476  1.00  0.00     0.022 A 
BRANCH  46  50
ATOM     50  S   UNL     1       4.908  -2.111 -14.103  1.00  0.00     0.124 S 
ATOM     51  O   UNL     1       5.096  -0.665 -14.149  1.00  0.00    -0.237 OA
ATOM     52  O   UNL     1       6.112  -2.913 -13.911  1.00  0.00    -0.237 OA
ATOM     53  O   UNL     1       3.949  -2.648 -15.065  1.00  0.00    -0.744 OA
ENDBRANCH  46  50
ENDBRANCH  29  43
BRANCH  30  54
ATOM     54  C   UNL     1      -1.339   5.011  -9.251  1.00  0.00     0.023 A 
ATOM     55  C   UNL     1      -1.750   5.724 -10.400  1.00  0.00     0.031 A 
ATOM     56  C   UNL     1      -2.364   4.390  -8.499  1.00  0.00     0.131 A 
ATOM     57  C   UNL     1      -3.124   5.796 -10.743  1.00  0.00     0.055 A 
ATOM     58  C   UNL     1      -3.716   4.466  -8.841  1.00  0.00     0.041 A 
ATOM     59  F   UNL     1      -2.082   3.611  -7.444  1.00  0.00    -0.206 F 
ATOM     60  C   UNL     1      -4.102   5.164  -9.972  1.00  0.00     0.022 A 
BRANCH  57  61
ATOM     61  S   UNL     1      -3.667   6.658 -12.258  1.00  0.00     0.124 S 
ATOM     62  O   UNL     1      -3.370   8.051 -11.946  1.00  0.00    -0.237 OA
ATOM     63  O   UNL     1      -2.844   6.033 -13.287  1.00  0.00    -0.237 OA
ATOM     64  O   UNL     1      -5.093   6.340 -12.341  1.00  0.00    -0.744 OA
ENDBRANCH  57  61
ENDBRANCH  30  54
BRANCH  42  65
ATOM     65  C   UNL     1       5.020   5.026  -9.276  1.00  0.00     0.023 A 
ATOM     66  C   UNL     1       4.504   5.780  -8.194  1.00  0.00     0.031 A 
ATOM     67  C   UNL     1       6.246   5.440  -9.827  1.00  0.00     0.131 A 
ATOM     68  C   UNL     1       5.212   6.904  -7.715  1.00  0.00     0.055 A 
ATOM     69  C   UNL     1       6.952   6.537  -9.337  1.00  0.00     0.041 A 
ATOM     70  F   UNL     1       6.804   4.753 -10.838  1.00  0.00    -0.206 F 
ATOM     71  C   UNL     1       6.435   7.278  -8.282  1.00  0.00     0.022 A 
BRANCH  68  72
ATOM     72  S   UNL     1       4.552   7.923  -6.353  1.00  0.00     0.124 S 
ATOM     73  O   UNL     1       3.158   8.133  -6.726  1.00  0.00    -0.237 OA
ATOM     74  O   UNL     1       4.782   7.076  -5.184  1.00  0.00    -0.237 OA
ATOM     75  O   UNL     1       5.382   9.129  -6.397  1.00  0.00    -0.744 OA
ENDBRANCH  68  72
ENDBRANCH  42  65
ENDBRANCH  16  17
ENDBRANCH   9  11
ENDBRANCH   8   9
ENDBRANCH   7   8
ENDBRANCH   6   7
ENDBRANCH   5   6
ENDBRANCH   4   5
ENDBRANCH   3   4
ENDBRANCH   2   3
ENDBRANCH   1   2
BRANCH   1  76
ATOM     76  C   UNL     1       5.266  -2.707   2.068  1.00  0.00     0.188 C 
BRANCH  76  77
ATOM     77  O   UNL     1       4.856  -3.794   1.250  1.00  0.00    -0.376 OA
BRANCH  77  78
ATOM     78  C   UNL     1       3.718  -4.582   1.556  1.00  0.00     0.202 C 
BRANCH  78  79
ATOM     79  C   UNL     1       3.424  -5.068   2.979  1.00  0.00     0.261 C 
BRANCH  79  80
ATOM     80  O   UNL     1       3.825  -4.190   4.028  1.00  0.00    -0.460 OA
BRANCH  80  81
ATOM     81  C   UNL     1       5.024  -4.418   4.598  1.00  0.00     0.338 C 
ATOM     82  O   UNL     1       5.820  -5.302   4.314  1.00  0.00    -0.246 OA
BRANCH  81  83
ATOM     83  C   UNL     1       5.302  -3.324   5.565  1.00  0.00     0.068 A 
ATOM     84  C   UNL     1       6.551  -2.689   5.445  1.00  0.00     0.016 A 
ATOM     85  C   UNL     1       4.371  -2.904   6.538  1.00  0.00     0.021 A 
ATOM     86  C   UNL     1       6.877  -1.609   6.259  1.00  0.00     0.001 A 
ATOM     87  C   UNL     1       4.728  -1.811   7.348  1.00  0.00     0.010 A 
ATOM     88  C   UNL     1       5.965  -1.173   7.212  1.00  0.00     0.001 A 
BRANCH  85  89
ATOM     89  C   UNL     1       3.048  -3.617   6.787  1.00  0.00     0.300 C 
BRANCH  89  90
ATOM     90  N   UNL     1       3.110  -4.846   7.625  1.00  0.00    -0.329 N 
ATOM     91  C   UNL     1       3.914  -5.880   6.947  1.00  0.00     0.262 C 
ATOM     92  C   UNL     1       3.568  -4.605   9.016  1.00  0.00     0.186 C 
ATOM     93  H   UNL     1       2.153  -5.183   7.726  1.00  0.00     0.348 HD
ATOM     94  C   UNL     1       4.043  -7.201   7.681  1.00  0.00     0.062 C 
ATOM     95  C   UNL     1       3.674  -5.946   9.782  1.00  0.00     0.065 C 
ATOM     96  C   UNL     1       4.577  -6.947   9.075  1.00  0.00     0.012 C 
BRANCH  92  97
ATOM     97  C   UNL     1       2.600  -3.659   9.778  1.00  0.00     0.088 C 
BRANCH  97  98
ATOM     98  C   UNL     1       3.071  -3.229  11.169  1.00  0.00     0.150 C 
BRANCH  98  99
ATOM     99  N   UNL     1       4.314  -2.480  11.143  1.00  0.00    -0.273 N 
ATOM    100  C   UNL     1       4.456  -1.126  11.038  1.00  0.00     0.108 A 
ATOM    101  N   UNL     1       5.489  -3.134  11.200  1.00  0.00    -0.182 NA
ATOM    102  C   UNL     1       5.810  -0.891  10.966  1.00  0.00     0.042 A 
ATOM    103  C   UNL     1       6.397  -2.167  11.051  1.00  0.00     0.135 A 
ENDBRANCH  98  99
ENDBRANCH  97  98
ENDBRANCH  92  97
ENDBRANCH  89  90
ENDBRANCH  85  89
ENDBRANCH  81  83
ENDBRANCH  80  81
ENDBRANCH  79  80
ENDBRANCH  78  79
ENDBRANCH  77  78
ENDBRANCH  76  77
ENDBRANCH   1  76
TORSDOF 28
