REMARK SMILES COCC[C@H](NC(=O)c1ccc(Br)nc1)C(=O)OCCOCCOCCOCCOC(=O)c1ccc(-c2c3nc(c(-c4cc(S(=O)(=O)[O-])ccc4F)c4ccc([nH]4)c(-c4cc(S(=O)(=O)[O-])ccc4F)c4nc(c(-c5cc(S(=O)(=O)[O-])ccc5F)c5ccc2[nH]5)C=C4)C=C3)cc1
REMARK SMILES IDX 24 1 23 2 22 3 21 4 20 5 19 6 18 7 16 8 17 9 5 10 4 11 3 12
REMARK SMILES IDX 2 13 1 14 6 15 7 16 8 18 9 19 10 20 15 21 11 22 14 23 12 24
REMARK SMILES IDX 13 25 25 26 26 27 27 28 28 29 29 30 30 31 31 32 32 33 33 34
REMARK SMILES IDX 34 35 95 36 35 37 94 38 36 39 37 40 38 41 88 42 39 43 93 44
REMARK SMILES IDX 87 45 89 46 40 47 92 48 86 49 85 50 41 52 73 53 53 54 72 55
REMARK SMILES IDX 54 56 57 57 71 58 90 59 55 60 56 61 70 63 91 64 58 65 42 66
REMARK SMILES IDX 43 67 51 68 44 69 50 70 52 71 49 72 45 73 46 74 47 75 48 76
REMARK SMILES IDX 74 77 75 78 83 79 76 80 82 81 84 82 81 83 77 84 78 85 79 86
REMARK SMILES IDX 80 87 59 88 60 89 68 90 61 91 67 92 69 93 66 94 62 95 63 96
REMARK SMILES IDX 64 97 65 98
REMARK H PARENT 6 17 89 51 57 62
REMARK Flexibility Score: inf
ROOT
ATOM      1  O   UNL     1      -1.798  -3.742   3.363  1.00  0.00    -0.377 OA
ENDROOT
BRANCH   1   2
ATOM      2  C   UNL     1      -1.531  -3.193   2.081  1.00  0.00     0.188 C 
BRANCH   2   3
ATOM      3  C   UNL     1      -1.644  -3.985   0.760  1.00  0.00     0.188 C 
BRANCH   3   4
ATOM      4  O   UNL     1      -1.606  -5.392   0.884  1.00  0.00    -0.376 OA
BRANCH   4   5
ATOM      5  C   UNL     1      -0.422  -6.139   0.703  1.00  0.00     0.202 C 
BRANCH   5   6
ATOM      6  C   UNL     1       0.830  -5.831   1.550  1.00  0.00     0.261 C 
BRANCH   6   7
ATOM      7  O   UNL     1       1.175  -4.448   1.733  1.00  0.00    -0.462 OA
BRANCH   7   8
ATOM      8  C   UNL     1       1.467  -3.807   0.580  1.00  0.00     0.328 C 
ATOM      9  O   UNL     1       1.396  -4.353  -0.515  1.00  0.00    -0.250 OA
BRANCH   8  10
ATOM     10  C   UNL     1       1.962  -2.363   0.760  1.00  0.00     0.194 C 
BRANCH  10  11
ATOM     11  C   UNL     1       3.489  -2.317   0.704  1.00  0.00     0.065 C 
BRANCH  11  12
ATOM     12  C   UNL     1       4.136  -3.168  -0.390  1.00  0.00     0.162 C 
BRANCH  12  13
ATOM     13  O   UNL     1       3.957  -2.598  -1.683  1.00  0.00    -0.385 OA
ATOM     14  C   UNL     1       2.944  -3.207  -2.474  1.00  0.00     0.194 C 
ENDBRANCH  12  13
ENDBRANCH  11  12
ENDBRANCH  10  11
BRANCH  10  15
ATOM     15  N   UNL     1       1.502  -1.697   1.996  1.00  0.00    -0.338 N 
ATOM     16  C   UNL     1       1.208  -0.373   2.224  1.00  0.00     0.253 C 
ATOM     17  H   UNL     1       1.389  -2.290   2.773  1.00  0.00     0.164 HD
ATOM     18  O   UNL     1       0.865   0.020   3.332  1.00  0.00    -0.269 OA
BRANCH  16  19
ATOM     19  C   UNL     1       1.361   0.610   1.143  1.00  0.00     0.058 A 
ATOM     20  C   UNL     1       0.659   0.537  -0.058  1.00  0.00     0.018 A 
ATOM     21  C   UNL     1       2.246   1.660   1.331  1.00  0.00     0.126 A 
ATOM     22  C   UNL     1       0.956   1.452  -1.067  1.00  0.00     0.037 A 
ATOM     23  N   UNL     1       2.546   2.568   0.371  1.00  0.00    -0.249 NA
ATOM     24  C   UNL     1       1.912   2.430  -0.815  1.00  0.00     0.106 A 
ATOM     25  Br  UNL     1       2.384   3.627  -2.207  1.00  0.00    -0.029 Br
ENDBRANCH  16  19
ENDBRANCH  10  15
ENDBRANCH   8  10
ENDBRANCH   7   8
ENDBRANCH   6   7
ENDBRANCH   5   6
ENDBRANCH   4   5
ENDBRANCH   3   4
ENDBRANCH   2   3
ENDBRANCH   1   2
BRANCH   1  26
ATOM     26  C   UNL     1      -2.189  -5.098   3.477  1.00  0.00     0.188 C 
BRANCH  26  27
ATOM     27  C   UNL     1      -3.545  -5.445   2.837  1.00  0.00     0.188 C 
BRANCH  27  28
ATOM     28  O   UNL     1      -4.084  -4.381   2.061  1.00  0.00    -0.376 OA
BRANCH  28  29
ATOM     29  C   UNL     1      -5.035  -3.534   2.689  1.00  0.00     0.202 C 
BRANCH  29  30
ATOM     30  C   UNL     1      -4.634  -2.771   3.966  1.00  0.00     0.261 C 
BRANCH  30  31
ATOM     31  O   UNL     1      -4.143  -3.549   5.069  1.00  0.00    -0.460 OA
BRANCH  31  32
ATOM     32  C   UNL     1      -4.943  -4.515   5.566  1.00  0.00     0.338 C 
ATOM     33  O   UNL     1      -6.084  -4.767   5.215  1.00  0.00    -0.246 OA
BRANCH  32  34
ATOM     34  C   UNL     1      -4.116  -5.379   6.439  1.00  0.00     0.060 A 
ATOM     35  C   UNL     1      -4.061  -6.751   6.160  1.00  0.00     0.016 A 
ATOM     36  C   UNL     1      -3.373  -4.843   7.495  1.00  0.00     0.016 A 
ATOM     37  C   UNL     1      -3.303  -7.598   6.966  1.00  0.00     0.010 A 
ATOM     38  C   UNL     1      -2.637  -5.699   8.324  1.00  0.00     0.010 A 
ATOM     39  C   UNL     1      -2.639  -7.085   8.088  1.00  0.00    -0.014 A 
BRANCH  39  40
ATOM     40  C   UNL     1      -2.195  -8.043   9.130  1.00  0.00     0.031 A 
ATOM     41  C   UNL     1      -3.136  -8.318  10.274  1.00  0.00     0.074 A 
ATOM     42  C   UNL     1      -1.047  -8.734   9.010  1.00  0.00     0.049 A 
ATOM     43  N   UNL     1      -3.026  -9.170  11.258  1.00  0.00    -0.248 NA
ATOM     44  C   UNL     1      -4.374  -7.522  10.301  1.00  0.00     0.031 C 
ATOM     45  C   UNL     1      -0.085  -8.591   7.919  1.00  0.00     0.029 A 
ATOM     46  N   UNL     1      -0.506  -9.709   9.810  1.00  0.00    -0.354 N 
ATOM     47  C   UNL     1      -4.183  -9.021  12.017  1.00  0.00     0.074 A 
ATOM     48  C   UNL     1      -4.954  -7.960  11.406  1.00  0.00     0.031 C 
ATOM     49  C   UNL     1       0.926  -9.456   8.114  1.00  0.00     0.029 A 
ATOM     50  C   UNL     1       0.699 -10.193   9.357  1.00  0.00     0.049 A 
ATOM     51  H   UNL     1      -0.941 -10.033  10.632  1.00  0.00     0.167 HD
ATOM     52  C   UNL     1      -4.576  -9.715  13.112  1.00  0.00     0.034 A 
ATOM     53  C   UNL     1       1.524 -11.117   9.892  1.00  0.00     0.034 A 
ATOM     54  C   UNL     1      -3.784 -10.754  13.723  1.00  0.00     0.049 A 
ATOM     55  C   UNL     1       1.108 -11.814  11.167  1.00  0.00     0.074 A 
ATOM     56  C   UNL     1      -4.076 -11.517  14.839  1.00  0.00     0.029 A 
ATOM     57  N   UNL     1      -2.534 -11.168  13.276  1.00  0.00    -0.354 N 
ATOM     58  N   UNL     1       0.008 -11.669  11.873  1.00  0.00    -0.248 NA
ATOM     59  C   UNL     1       2.038 -12.814  11.705  1.00  0.00     0.031 C 
ATOM     60  C   UNL     1      -2.971 -12.329  15.116  1.00  0.00     0.029 A 
ATOM     61  C   UNL     1      -2.030 -12.151  14.115  1.00  0.00     0.049 A 
ATOM     62  H   UNL     1      -2.075 -10.815  12.481  1.00  0.00     0.167 HD
ATOM     63  C   UNL     1       0.100 -12.591  12.915  1.00  0.00     0.074 A 
ATOM     64  C   UNL     1       1.352 -13.296  12.730  1.00  0.00     0.031 C 
ATOM     65  C   UNL     1      -0.772 -12.838  13.928  1.00  0.00     0.034 A 
BRANCH  52  66
ATOM     66  C   UNL     1      -5.890  -9.321  13.746  1.00  0.00     0.023 A 
ATOM     67  C   UNL     1      -7.113  -9.438  13.061  1.00  0.00     0.031 A 
ATOM     68  C   UNL     1      -5.914  -8.777  15.043  1.00  0.00     0.131 A 
ATOM     69  C   UNL     1      -8.293  -8.951  13.644  1.00  0.00     0.055 A 
ATOM     70  C   UNL     1      -7.104  -8.374  15.651  1.00  0.00     0.041 A 
ATOM     71  F   UNL     1      -4.777  -8.610  15.736  1.00  0.00    -0.206 F 
ATOM     72  C   UNL     1      -8.301  -8.446  14.945  1.00  0.00     0.022 A 
BRANCH  69  73
ATOM     73  S   UNL     1      -9.787  -8.840  12.620  1.00  0.00     0.124 S 
ATOM     74  O   UNL     1      -9.331  -7.987  11.525  1.00  0.00    -0.237 OA
ATOM     75  O   UNL     1     -10.040 -10.235  12.280  1.00  0.00    -0.237 OA
ATOM     76  O   UNL     1     -10.768  -8.226  13.511  1.00  0.00    -0.744 OA
ENDBRANCH  69  73
ENDBRANCH  52  66
BRANCH  53  77
ATOM     77  C   UNL     1       2.836 -11.426   9.251  1.00  0.00     0.023 A 
ATOM     78  C   UNL     1       3.137 -12.713   8.775  1.00  0.00     0.031 A 
ATOM     79  C   UNL     1       3.841 -10.445   9.166  1.00  0.00     0.131 A 
ATOM     80  C   UNL     1       4.422 -12.997   8.285  1.00  0.00     0.055 A 
ATOM     81  C   UNL     1       5.098 -10.716   8.624  1.00  0.00     0.041 A 
ATOM     82  F   UNL     1       3.612  -9.198   9.610  1.00  0.00    -0.206 F 
ATOM     83  C   UNL     1       5.399 -12.004   8.193  1.00  0.00     0.022 A 
BRANCH  80  84
ATOM     84  S   UNL     1       4.833 -14.712   7.856  1.00  0.00     0.124 S 
ATOM     85  O   UNL     1       4.587 -15.401   9.117  1.00  0.00    -0.237 OA
ATOM     86  O   UNL     1       3.888 -14.987   6.778  1.00  0.00    -0.237 OA
ATOM     87  O   UNL     1       6.234 -14.633   7.447  1.00  0.00    -0.744 OA
ENDBRANCH  80  84
ENDBRANCH  53  77
BRANCH  65  88
ATOM     88  C   UNL     1      -0.420 -13.961  14.880  1.00  0.00     0.023 A 
ATOM     89  C   UNL     1       0.731 -13.921  15.687  1.00  0.00     0.031 A 
ATOM     90  C   UNL     1      -1.232 -15.108  14.951  1.00  0.00     0.131 A 
ATOM     91  C   UNL     1       1.085 -15.040  16.456  1.00  0.00     0.055 A 
ATOM     92  C   UNL     1      -0.919 -16.184  15.783  1.00  0.00     0.041 A 
ATOM     93  F   UNL     1      -2.344 -15.207  14.205  1.00  0.00    -0.206 F 
ATOM     94  C   UNL     1       0.258 -16.163  16.526  1.00  0.00     0.022 A 
BRANCH  91  95
ATOM     95  S   UNL     1       2.718 -15.068  17.247  1.00  0.00     0.124 S 
ATOM     96  O   UNL     1       3.606 -14.819  16.115  1.00  0.00    -0.237 OA
ATOM     97  O   UNL     1       2.611 -13.987  18.221  1.00  0.00    -0.237 OA
ATOM     98  O   UNL     1       2.801 -16.411  17.816  1.00  0.00    -0.744 OA
ENDBRANCH  91  95
ENDBRANCH  65  88
ENDBRANCH  39  40
ENDBRANCH  32  34
ENDBRANCH  31  32
ENDBRANCH  30  31
ENDBRANCH  29  30
ENDBRANCH  28  29
ENDBRANCH  27  28
ENDBRANCH  26  27
ENDBRANCH   1  26
TORSDOF 28
