REMARK SMILES CCn1c(N2CCC(C(=O)OCCOCCOCCOCCOC(=O)c3ccc(-c4c5nc(c(-c6cc(S(=O)(=O)[O-])ccc6F)c6ccc([nH]6)c(-c6cc(S(=O)(=O)[O-])ccc6F)c6nc(c(-c7cc(S(=O)(=O)[O-])ccc7F)c7ccc4[nH]7)C=C6)C=C5)cc3)CC2)nc2cc(C)ccc21
REMARK SMILES IDX 18 1 17 2 16 3 15 4 14 5 13 6 12 7 11 8 9 9 10 10 8 11 5 12
REMARK SMILES IDX 6 13 90 14 7 15 89 16 4 17 3 18 98 19 91 20 92 21 97 22
REMARK SMILES IDX 93 23 96 24 94 25 95 26 2 27 1 28 19 29 20 30 21 31 22 32
REMARK SMILES IDX 23 33 24 34 25 35 26 36 27 37 88 38 28 39 87 40 29 41 30 42
REMARK SMILES IDX 31 43 81 44 32 45 86 46 80 47 82 48 33 49 85 50 79 51 78 52
REMARK SMILES IDX 34 54 66 55 46 56 65 57 47 58 50 59 64 60 83 61 48 62 49 63
REMARK SMILES IDX 63 65 84 66 51 67 35 68 36 69 44 70 37 71 43 72 45 73 42 74
REMARK SMILES IDX 38 75 39 76 40 77 41 78 67 79 68 80 76 81 69 82 75 83 77 84
REMARK SMILES IDX 74 85 70 86 71 87 72 88 73 89 52 90 53 91 61 92 54 93 60 94
REMARK SMILES IDX 62 95 59 96 55 97 56 98 57 99 58 100
REMARK H PARENT 82 53 50 64
REMARK Flexibility Score: inf
ROOT
ATOM      1  C   UNL     1      -0.963  10.316   0.608  1.00  0.00     0.188 C 
ENDROOT
BRANCH   1   2
ATOM      2  O   UNL     1      -1.086   9.046   1.224  1.00  0.00    -0.377 OA
BRANCH   2   3
ATOM      3  C   UNL     1      -1.873   8.889   2.378  1.00  0.00     0.188 C 
BRANCH   3   4
ATOM      4  C   UNL     1      -1.252   9.301   3.714  1.00  0.00     0.188 C 
BRANCH   4   5
ATOM      5  O   UNL     1      -0.485  10.480   3.811  1.00  0.00    -0.376 OA
BRANCH   5   6
ATOM      6  C   UNL     1       0.830  10.603   3.281  1.00  0.00     0.202 C 
BRANCH   6   7
ATOM      7  C   UNL     1       1.794   9.453   2.943  1.00  0.00     0.261 C 
BRANCH   7   8
ATOM      8  O   UNL     1       1.235   8.327   2.259  1.00  0.00    -0.463 OA
BRANCH   8   9
ATOM      9  C   UNL     1       1.073   7.230   3.026  1.00  0.00     0.309 C 
ATOM     10  O   UNL     1       1.318   7.176   4.230  1.00  0.00    -0.252 OA
BRANCH   9  11
ATOM     11  C   UNL     1       0.515   6.026   2.312  1.00  0.00     0.103 C 
ATOM     12  N   UNL     1       0.305   3.711   0.640  1.00  0.00    -0.342 N 
ATOM     13  C   UNL     1      -0.644   4.810   0.485  1.00  0.00     0.120 C 
ATOM     14  C   UNL     1       1.013   3.617   1.919  1.00  0.00     0.120 C 
ATOM     15  C   UNL     1      -0.013   6.141   0.884  1.00  0.00     0.037 C 
ATOM     16  C   UNL     1       1.597   4.953   2.337  1.00  0.00     0.037 C 
BRANCH  12  17
ATOM     17  C   UNL     1       0.903   3.251  -0.487  1.00  0.00     0.206 A 
ATOM     18  N   UNL     1       1.167   1.901  -0.678  1.00  0.00    -0.310 N 
ATOM     19  C   UNL     1       1.774   1.772  -1.909  1.00  0.00     0.070 A 
ATOM     20  N   UNL     1       1.181   3.946  -1.562  1.00  0.00    -0.213 NA
ATOM     21  C   UNL     1       1.762   3.067  -2.428  1.00  0.00     0.091 A 
ATOM     22  C   UNL     1       2.317   0.706  -2.639  1.00  0.00     0.029 A 
ATOM     23  C   UNL     1       2.292   3.322  -3.703  1.00  0.00     0.034 A 
ATOM     24  C   UNL     1       2.844   0.978  -3.909  1.00  0.00     0.006 A 
ATOM     25  C   UNL     1       2.836   2.267  -4.449  1.00  0.00    -0.049 A 
ATOM     26  C   UNL     1       3.415   2.541  -5.805  1.00  0.00     0.044 C 
BRANCH  18  27
ATOM     27  C   UNL     1       0.664   0.881   0.222  1.00  0.00     0.122 C 
ATOM     28  C   UNL     1       1.037  -0.570  -0.005  1.00  0.00     0.028 C 
ENDBRANCH  18  27
ENDBRANCH  12  17
ENDBRANCH   9  11
ENDBRANCH   8   9
ENDBRANCH   7   8
ENDBRANCH   6   7
ENDBRANCH   5   6
ENDBRANCH   4   5
ENDBRANCH   3   4
ENDBRANCH   2   3
ENDBRANCH   1   2
BRANCH   1  29
ATOM     29  C   UNL     1      -1.861  11.463   1.087  1.00  0.00     0.188 C 
BRANCH  29  30
ATOM     30  O   UNL     1      -3.235  11.091   1.115  1.00  0.00    -0.376 OA
BRANCH  30  31
ATOM     31  C   UNL     1      -4.039  11.480   0.011  1.00  0.00     0.202 C 
BRANCH  31  32
ATOM     32  C   UNL     1      -3.679  10.877  -1.355  1.00  0.00     0.261 C 
BRANCH  32  33
ATOM     33  O   UNL     1      -2.387  11.270  -1.849  1.00  0.00    -0.460 OA
BRANCH  33  34
ATOM     34  C   UNL     1      -2.195  12.560  -2.221  1.00  0.00     0.338 C 
ATOM     35  O   UNL     1      -3.057  13.368  -2.483  1.00  0.00    -0.246 OA
BRANCH  34  36
ATOM     36  C   UNL     1      -0.775  12.864  -1.879  1.00  0.00     0.060 A 
ATOM     37  C   UNL     1       0.241  11.920  -2.063  1.00  0.00     0.016 A 
ATOM     38  C   UNL     1      -0.543  14.002  -1.091  1.00  0.00     0.016 A 
ATOM     39  C   UNL     1       1.442  12.067  -1.369  1.00  0.00     0.010 A 
ATOM     40  C   UNL     1       0.654  14.135  -0.384  1.00  0.00     0.010 A 
ATOM     41  C   UNL     1       1.639  13.151  -0.492  1.00  0.00    -0.014 A 
BRANCH  41  42
ATOM     42  C   UNL     1       2.986  13.322   0.080  1.00  0.00     0.031 A 
ATOM     43  C   UNL     1       4.018  13.561  -0.969  1.00  0.00     0.074 A 
ATOM     44  C   UNL     1       3.341  13.461   1.375  1.00  0.00     0.049 A 
ATOM     45  N   UNL     1       5.046  12.844  -1.284  1.00  0.00    -0.248 NA
ATOM     46  C   UNL     1       3.764  14.693  -1.873  1.00  0.00     0.031 C 
ATOM     47  C   UNL     1       2.465  13.673   2.527  1.00  0.00     0.029 A 
ATOM     48  N   UNL     1       4.598  13.546   1.923  1.00  0.00    -0.354 N 
ATOM     49  C   UNL     1       5.672  13.530  -2.326  1.00  0.00     0.074 A 
ATOM     50  C   UNL     1       4.750  14.550  -2.754  1.00  0.00     0.031 C 
ATOM     51  C   UNL     1       3.209  14.049   3.593  1.00  0.00     0.029 A 
ATOM     52  C   UNL     1       4.618  14.005   3.234  1.00  0.00     0.049 A 
ATOM     53  H   UNL     1       5.414  13.303   1.428  1.00  0.00     0.167 HD
ATOM     54  C   UNL     1       6.986  13.356  -2.638  1.00  0.00     0.034 A 
ATOM     55  C   UNL     1       5.696  14.412   3.953  1.00  0.00     0.034 A 
ATOM     56  C   UNL     1       7.519  12.160  -2.051  1.00  0.00     0.049 A 
ATOM     57  C   UNL     1       6.931  13.924   3.304  1.00  0.00     0.074 A 
ATOM     58  C   UNL     1       7.306  10.808  -2.204  1.00  0.00     0.029 A 
ATOM     59  N   UNL     1       8.241  12.313  -0.897  1.00  0.00    -0.354 N 
ATOM     60  N   UNL     1       7.323  12.684   3.283  1.00  0.00    -0.248 NA
ATOM     61  C   UNL     1       7.617  14.813   2.379  1.00  0.00     0.031 C 
ATOM     62  C   UNL     1       7.579  10.235  -0.930  1.00  0.00     0.029 A 
ATOM     63  C   UNL     1       7.963  11.262  -0.065  1.00  0.00     0.049 A 
ATOM     64  H   UNL     1       8.857  13.055  -0.698  1.00  0.00     0.167 HD
ATOM     65  C   UNL     1       7.958  12.547   2.061  1.00  0.00     0.074 A 
ATOM     66  C   UNL     1       8.251  13.909   1.632  1.00  0.00     0.031 C 
ATOM     67  C   UNL     1       7.921  11.365   1.382  1.00  0.00     0.034 A 
BRANCH  54  68
ATOM     68  C   UNL     1       7.868  14.459  -3.182  1.00  0.00     0.023 A 
ATOM     69  C   UNL     1       7.482  15.813  -3.186  1.00  0.00     0.031 A 
ATOM     70  C   UNL     1       9.219  14.211  -3.500  1.00  0.00     0.131 A 
ATOM     71  C   UNL     1       8.373  16.839  -3.521  1.00  0.00     0.055 A 
ATOM     72  C   UNL     1      10.133  15.242  -3.760  1.00  0.00     0.041 A 
ATOM     73  F   UNL     1       9.710  12.962  -3.508  1.00  0.00    -0.206 F 
ATOM     74  C   UNL     1       9.711  16.566  -3.776  1.00  0.00     0.022 A 
BRANCH  71  75
ATOM     75  S   UNL     1       7.791  18.554  -3.619  1.00  0.00     0.124 S 
ATOM     76  O   UNL     1       8.595  19.203  -2.590  1.00  0.00    -0.237 OA
ATOM     77  O   UNL     1       8.125  18.901  -4.998  1.00  0.00    -0.237 OA
ATOM     78  O   UNL     1       6.362  18.447  -3.340  1.00  0.00    -0.744 OA
ENDBRANCH  71  75
ENDBRANCH  54  68
BRANCH  55  79
ATOM     79  C   UNL     1       5.754  15.517   4.943  1.00  0.00     0.023 A 
ATOM     80  C   UNL     1       4.892  16.616   4.791  1.00  0.00     0.031 A 
ATOM     81  C   UNL     1       6.838  15.665   5.828  1.00  0.00     0.131 A 
ATOM     82  C   UNL     1       5.145  17.820   5.459  1.00  0.00     0.055 A 
ATOM     83  C   UNL     1       7.082  16.866   6.507  1.00  0.00     0.041 A 
ATOM     84  F   UNL     1       7.724  14.671   5.995  1.00  0.00    -0.206 F 
ATOM     85  C   UNL     1       6.240  17.957   6.313  1.00  0.00     0.022 A 
BRANCH  82  86
ATOM     86  S   UNL     1       4.091  19.263   5.153  1.00  0.00     0.124 S 
ATOM     87  O   UNL     1       3.843  19.758   6.505  1.00  0.00    -0.237 OA
ATOM     88  O   UNL     1       4.959  20.093   4.326  1.00  0.00    -0.237 OA
ATOM     89  O   UNL     1       2.925  18.695   4.482  1.00  0.00    -0.744 OA
ENDBRANCH  82  86
ENDBRANCH  55  79
BRANCH  67  90
ATOM     90  C   UNL     1       7.560  10.107   2.135  1.00  0.00     0.023 A 
ATOM     91  C   UNL     1       8.415   9.001   1.968  1.00  0.00     0.031 A 
ATOM     92  C   UNL     1       6.355   9.899   2.834  1.00  0.00     0.131 A 
ATOM     93  C   UNL     1       8.047   7.741   2.448  1.00  0.00     0.055 A 
ATOM     94  C   UNL     1       6.029   8.654   3.381  1.00  0.00     0.041 A 
ATOM     95  F   UNL     1       5.426  10.861   2.938  1.00  0.00    -0.206 F 
ATOM     96  C   UNL     1       6.867   7.563   3.173  1.00  0.00     0.022 A 
BRANCH  93  97
ATOM     97  S   UNL     1       9.017   6.276   2.005  1.00  0.00     0.124 S 
ATOM     98  O   UNL     1       9.526   5.838   3.301  1.00  0.00    -0.237 OA
ATOM     99  O   UNL     1       8.009   5.406   1.402  1.00  0.00    -0.237 OA
ATOM    100  O   UNL     1      10.025   6.785   1.078  1.00  0.00    -0.744 OA
ENDBRANCH  93  97
ENDBRANCH  67  90
ENDBRANCH  41  42
ENDBRANCH  34  36
ENDBRANCH  33  34
ENDBRANCH  32  33
ENDBRANCH  31  32
ENDBRANCH  30  31
ENDBRANCH  29  30
ENDBRANCH   1  29
TORSDOF 25
