REMARK SMILES O=C(OCCOCCOCCOCCOC(=O)[C@H](c1c[nH]c2cc(F)ccc12)[NH+]1CCN(c2ccccc2)CC1)c1ccc(-c2c3nc(c(-c4cc(S(=O)(=O)[O-])ccc4F)c4ccc([nH]4)c(-c4cc(S(=O)(=O)[O-])ccc4F)c4nc(c(-c5cc(S(=O)(=O)[O-])ccc5F)c5ccc2[nH]5)C=C4)C=C3)cc1
REMARK SMILES IDX 8 1 7 2 6 3 5 4 4 5 3 6 2 7 1 8 41 9 42 10 103 11 43 12
REMARK SMILES IDX 102 13 44 14 45 15 46 16 96 17 47 18 101 19 95 20 97 21
REMARK SMILES IDX 48 22 100 23 94 24 93 25 49 27 81 28 61 29 80 30 62 31 65 32
REMARK SMILES IDX 79 33 98 34 63 35 64 36 78 38 99 39 66 40 50 41 51 42 59 43
REMARK SMILES IDX 52 44 58 45 60 46 57 47 53 48 54 49 55 50 56 51 82 52 83 53
REMARK SMILES IDX 91 54 84 55 90 56 92 57 89 58 85 59 86 60 87 61 88 62 67 63
REMARK SMILES IDX 68 64 76 65 69 66 75 67 77 68 74 69 70 70 71 71 72 72 73 73
REMARK SMILES IDX 9 74 10 75 11 76 12 77 13 78 14 79 15 80 16 81 17 82 18 83
REMARK SMILES IDX 29 84 30 85 40 86 31 88 39 89 32 90 33 91 34 92 38 93 35 94
REMARK SMILES IDX 37 95 36 96 19 97 20 98 28 99 21 100 22 101 27 102 23 104
REMARK SMILES IDX 26 105 24 106 25 107
REMARK H PARENT 97 26 65 37 29 87 21 103
REMARK Flexibility Score: inf
ROOT
ATOM      1  C   UNL     1       5.526   1.939   1.914  1.00  0.00     0.188 C 
ENDROOT
BRANCH   1   2
ATOM      2  C   UNL     1       5.401   1.086   0.653  1.00  0.00     0.188 C 
BRANCH   2   3
ATOM      3  O   UNL     1       4.281   0.213   0.761  1.00  0.00    -0.376 OA
BRANCH   3   4
ATOM      4  C   UNL     1       4.443  -1.114   0.271  1.00  0.00     0.202 C 
BRANCH   4   5
ATOM      5  C   UNL     1       4.197  -1.231  -1.229  1.00  0.00     0.261 C 
BRANCH   5   6
ATOM      6  O   UNL     1       4.464  -0.011  -1.933  1.00  0.00    -0.460 OA
BRANCH   6   7
ATOM      7  C   UNL     1       3.669   1.081  -2.060  1.00  0.00     0.338 C 
ATOM      8  O   UNL     1       4.140   2.059  -2.643  1.00  0.00    -0.246 OA
BRANCH   7   9
ATOM      9  C   UNL     1       2.262   1.196  -1.551  1.00  0.00     0.060 A 
ATOM     10  C   UNL     1       1.709   0.506  -0.470  1.00  0.00     0.016 A 
ATOM     11  C   UNL     1       1.461   2.170  -2.175  1.00  0.00     0.016 A 
ATOM     12  C   UNL     1       0.425   0.764  -0.011  1.00  0.00     0.010 A 
ATOM     13  C   UNL     1       0.163   2.432  -1.730  1.00  0.00     0.010 A 
ATOM     14  C   UNL     1      -0.356   1.719  -0.646  1.00  0.00    -0.014 A 
BRANCH  14  15
ATOM     15  C   UNL     1      -1.771   1.818  -0.258  1.00  0.00     0.031 A 
ATOM     16  C   UNL     1      -2.772   1.165  -1.158  1.00  0.00     0.074 A 
ATOM     17  C   UNL     1      -2.111   2.370   0.920  1.00  0.00     0.049 A 
ATOM     18  N   UNL     1      -4.072   1.217  -1.125  1.00  0.00    -0.248 NA
ATOM     19  C   UNL     1      -2.228   0.322  -2.239  1.00  0.00     0.031 C 
ATOM     20  C   UNL     1      -1.163   2.867   1.923  1.00  0.00     0.029 A 
ATOM     21  N   UNL     1      -3.337   2.598   1.482  1.00  0.00    -0.354 N 
ATOM     22  C   UNL     1      -4.502   0.461  -2.209  1.00  0.00     0.074 A 
ATOM     23  C   UNL     1      -3.328  -0.061  -2.867  1.00  0.00     0.031 C 
ATOM     24  C   UNL     1      -1.849   3.353   2.970  1.00  0.00     0.029 A 
ATOM     25  C   UNL     1      -3.274   3.290   2.670  1.00  0.00     0.049 A 
ATOM     26  H   UNL     1      -4.182   2.296   1.076  1.00  0.00     0.167 HD
ATOM     27  C   UNL     1      -5.774   0.258  -2.618  1.00  0.00     0.034 A 
ATOM     28  C   UNL     1      -4.263   3.869   3.379  1.00  0.00     0.034 A 
ATOM     29  C   UNL     1      -6.902   0.811  -1.917  1.00  0.00     0.049 A 
ATOM     30  C   UNL     1      -5.665   3.738   2.826  1.00  0.00     0.074 A 
ATOM     31  C   UNL     1      -8.244   0.722  -2.231  1.00  0.00     0.029 A 
ATOM     32  N   UNL     1      -6.807   1.575  -0.759  1.00  0.00    -0.354 N 
ATOM     33  N   UNL     1      -6.075   3.067   1.770  1.00  0.00    -0.248 NA
ATOM     34  C   UNL     1      -6.732   4.449   3.537  1.00  0.00     0.031 C 
ATOM     35  C   UNL     1      -8.950   1.503  -1.311  1.00  0.00     0.029 A 
ATOM     36  C   UNL     1      -8.060   2.008  -0.372  1.00  0.00     0.049 A 
ATOM     37  H   UNL     1      -5.969   1.778  -0.284  1.00  0.00     0.167 HD
ATOM     38  C   UNL     1      -7.449   3.269   1.700  1.00  0.00     0.074 A 
ATOM     39  C   UNL     1      -7.800   4.093   2.840  1.00  0.00     0.031 C 
ATOM     40  C   UNL     1      -8.347   2.831   0.779  1.00  0.00     0.034 A 
BRANCH  27  41
ATOM     41  C   UNL     1      -5.981  -0.468  -3.920  1.00  0.00     0.023 A 
ATOM     42  C   UNL     1      -5.670  -1.828  -4.086  1.00  0.00     0.031 A 
ATOM     43  C   UNL     1      -6.453   0.244  -5.037  1.00  0.00     0.131 A 
ATOM     44  C   UNL     1      -5.790  -2.420  -5.354  1.00  0.00     0.055 A 
ATOM     45  C   UNL     1      -6.636  -0.367  -6.278  1.00  0.00     0.041 A 
ATOM     46  F   UNL     1      -6.726   1.556  -4.945  1.00  0.00    -0.206 F 
ATOM     47  C   UNL     1      -6.295  -1.705  -6.444  1.00  0.00     0.022 A 
BRANCH  44  48
ATOM     48  S   UNL     1      -5.166  -4.107  -5.593  1.00  0.00     0.124 S 
ATOM     49  O   UNL     1      -3.742  -3.937  -5.313  1.00  0.00    -0.237 OA
ATOM     50  O   UNL     1      -5.922  -4.868  -4.605  1.00  0.00    -0.237 OA
ATOM     51  O   UNL     1      -5.491  -4.400  -6.987  1.00  0.00    -0.744 OA
ENDBRANCH  44  48
ENDBRANCH  27  41
BRANCH  28  52
ATOM     52  C   UNL     1      -3.976   4.716   4.578  1.00  0.00     0.023 A 
ATOM     53  C   UNL     1      -4.597   4.471   5.812  1.00  0.00     0.031 A 
ATOM     54  C   UNL     1      -3.150   5.854   4.482  1.00  0.00     0.131 A 
ATOM     55  C   UNL     1      -4.443   5.383   6.871  1.00  0.00     0.055 A 
ATOM     56  C   UNL     1      -2.938   6.715   5.561  1.00  0.00     0.041 A 
ATOM     57  F   UNL     1      -2.539   6.160   3.326  1.00  0.00    -0.206 F 
ATOM     58  C   UNL     1      -3.605   6.493   6.759  1.00  0.00     0.022 A 
BRANCH  55  59
ATOM     59  S   UNL     1      -5.478   5.178   8.348  1.00  0.00     0.124 S 
ATOM     60  O   UNL     1      -6.814   5.122   7.767  1.00  0.00    -0.237 OA
ATOM     61  O   UNL     1      -4.967   3.930   8.905  1.00  0.00    -0.237 OA
ATOM     62  O   UNL     1      -5.189   6.376   9.134  1.00  0.00    -0.744 OA
ENDBRANCH  55  59
ENDBRANCH  28  52
BRANCH  40  63
ATOM     63  C   UNL     1      -9.782   3.221   1.001  1.00  0.00     0.023 A 
ATOM     64  C   UNL     1     -10.204   4.553   0.869  1.00  0.00     0.031 A 
ATOM     65  C   UNL     1     -10.739   2.242   1.318  1.00  0.00     0.131 A 
ATOM     66  C   UNL     1     -11.545   4.880   1.100  1.00  0.00     0.055 A 
ATOM     67  C   UNL     1     -12.085   2.563   1.479  1.00  0.00     0.041 A 
ATOM     68  F   UNL     1     -10.381   0.954   1.455  1.00  0.00    -0.206 F 
ATOM     69  C   UNL     1     -12.492   3.890   1.380  1.00  0.00     0.022 A 
BRANCH  66  70
ATOM     70  S   UNL     1     -12.021   6.627   1.104  1.00  0.00     0.124 S 
ATOM     71  O   UNL     1     -11.209   7.159   2.193  1.00  0.00    -0.237 OA
ATOM     72  O   UNL     1     -11.646   7.058  -0.239  1.00  0.00    -0.237 OA
ATOM     73  O   UNL     1     -13.459   6.589   1.362  1.00  0.00    -0.744 OA
ENDBRANCH  66  70
ENDBRANCH  40  63
ENDBRANCH  14  15
ENDBRANCH   7   9
ENDBRANCH   6   7
ENDBRANCH   5   6
ENDBRANCH   4   5
ENDBRANCH   3   4
ENDBRANCH   2   3
ENDBRANCH   1   2
BRANCH   1  74
ATOM     74  O   UNL     1       5.885   1.206   3.080  1.00  0.00    -0.377 OA
BRANCH  74  75
ATOM     75  C   UNL     1       5.078   0.066   3.362  1.00  0.00     0.188 C 
BRANCH  75  76
ATOM     76  C   UNL     1       3.543   0.252   3.463  1.00  0.00     0.188 C 
BRANCH  76  77
ATOM     77  O   UNL     1       3.151   1.604   3.617  1.00  0.00    -0.376 OA
BRANCH  77  78
ATOM     78  C   UNL     1       2.825   1.989   4.947  1.00  0.00     0.202 C 
BRANCH  78  79
ATOM     79  C   UNL     1       3.983   1.908   5.954  1.00  0.00     0.261 C 
BRANCH  79  80
ATOM     80  O   UNL     1       4.601   0.612   6.139  1.00  0.00    -0.459 OA
BRANCH  80  81
ATOM     81  C   UNL     1       3.840  -0.467   6.507  1.00  0.00     0.370 C 
ATOM     82  O   UNL     1       2.678  -0.386   6.861  1.00  0.00    -0.245 OA
BRANCH  81  83
ATOM     83  C   UNL     1       4.681  -1.786   6.339  1.00  0.00     0.328 C 
BRANCH  83  84
ATOM     84  N   UNL     1       4.575  -2.525   7.623  1.00  0.00    -0.316 N 
ATOM     85  C   UNL     1       4.282  -3.964   7.562  1.00  0.00     0.284 C 
ATOM     86  C   UNL     1       5.779  -2.317   8.455  1.00  0.00     0.284 C 
ATOM     87  H   UNL     1       3.741  -2.110   8.039  1.00  0.00     0.349 HD
ATOM     88  C   UNL     1       5.436  -4.851   7.057  1.00  0.00     0.178 C 
ATOM     89  C   UNL     1       7.012  -3.136   8.005  1.00  0.00     0.178 C 
ATOM     90  N   UNL     1       6.689  -4.546   7.766  1.00  0.00    -0.360 N 
BRANCH  90  91
ATOM     91  C   UNL     1       7.103  -5.557   8.613  1.00  0.00     0.037 A 
ATOM     92  C   UNL     1       7.492  -6.786   8.059  1.00  0.00     0.026 A 
ATOM     93  C   UNL     1       7.029  -5.445  10.002  1.00  0.00     0.026 A 
ATOM     94  C   UNL     1       7.759  -7.889   8.865  1.00  0.00     0.002 A 
ATOM     95  C   UNL     1       7.288  -6.550  10.815  1.00  0.00     0.002 A 
ATOM     96  C   UNL     1       7.644  -7.772  10.246  1.00  0.00     0.000 A 
ENDBRANCH  90  91
ENDBRANCH  83  84
BRANCH  83  97
ATOM     97  C   UNL     1       4.310  -2.610   5.093  1.00  0.00     0.046 A 
ATOM     98  C   UNL     1       3.045  -2.999   4.680  1.00  0.00     0.094 A 
ATOM     99  C   UNL     1       5.224  -3.175   4.108  1.00  0.00     0.009 A 
ATOM    100  N   UNL     1       3.151  -3.792   3.569  1.00  0.00    -0.361 N 
ATOM    101  C   UNL     1       4.469  -3.936   3.209  1.00  0.00     0.049 A 
ATOM    102  C   UNL     1       6.631  -3.151   3.925  1.00  0.00     0.014 A 
ATOM    103  H   UNL     1       2.391  -4.201   3.096  1.00  0.00     0.166 HD
ATOM    104  C   UNL     1       5.042  -4.687   2.172  1.00  0.00     0.065 A 
ATOM    105  C   UNL     1       7.219  -3.892   2.889  1.00  0.00     0.040 A 
ATOM    106  C   UNL     1       6.428  -4.651   2.040  1.00  0.00     0.125 A 
ATOM    107  F   UNL     1       7.012  -5.369   1.069  1.00  0.00    -0.207 F 
ENDBRANCH  83  97
ENDBRANCH  81  83
ENDBRANCH  80  81
ENDBRANCH  79  80
ENDBRANCH  78  79
ENDBRANCH  77  78
ENDBRANCH  76  77
ENDBRANCH  75  76
ENDBRANCH  74  75
ENDBRANCH   1  74
TORSDOF 26
