REMARK SMILES O=C(OCCOCCOCCOCCOC(=O)c1ccc(-c2c3nc(c(-c4cc(S(=O)(=O)[O-])ccc4F)c4ccc([nH]4)c(-c4cc(S(=O)(=O)[O-])ccc4F)c4nc(c(-c5cc(S(=O)(=O)[O-])ccc5F)c5ccc2[nH]5)C=C4)C=C3)cc1)c1ccc(NC(=O)[C@@H]2CC=CC[C@H]2C(=O)Nc2cccc([N+](=O)[O-])c2)cc1
REMARK SMILES IDX 8 1 7 2 6 3 5 4 4 5 3 6 2 7 1 8 81 9 82 10 107 11 83 12
REMARK SMILES IDX 106 13 84 14 85 15 86 16 87 18 88 19 89 20 93 21 90 22 92 23
REMARK SMILES IDX 91 24 94 25 95 26 96 27 97 29 98 30 105 31 99 32 101 33
REMARK SMILES IDX 100 34 102 35 103 36 104 37 9 38 10 39 11 40 12 41 13 42
REMARK SMILES IDX 14 43 15 44 16 45 17 46 18 47 19 48 80 49 20 50 79 51 21 52
REMARK SMILES IDX 22 53 23 54 73 55 24 56 78 57 72 58 74 59 25 60 77 61 71 62
REMARK SMILES IDX 70 63 26 65 58 66 38 67 57 68 39 69 42 70 56 71 75 72 40 73
REMARK SMILES IDX 41 74 55 76 76 77 43 78 27 79 28 80 36 81 29 82 35 83 37 84
REMARK SMILES IDX 34 85 30 86 31 87 32 88 33 89 59 90 60 91 68 92 61 93 67 94
REMARK SMILES IDX 69 95 66 96 62 97 63 98 64 99 65 100 44 101 45 102 53 103
REMARK SMILES IDX 46 104 52 105 54 106 51 107 47 108 48 109 49 110 50 111
REMARK H PARENT 85 17 96 28 74 64 42 75
REMARK Flexibility Score: inf
ROOT
ATOM      1  C   UNL     1      11.876  -9.203   2.166  1.00  0.00     0.188 C 
ENDROOT
BRANCH   1   2
ATOM      2  C   UNL     1      11.201  -8.433   1.013  1.00  0.00     0.188 C 
BRANCH   2   3
ATOM      3  O   UNL     1       9.784  -8.530   0.818  1.00  0.00    -0.376 OA
BRANCH   3   4
ATOM      4  C   UNL     1       9.361  -9.585  -0.040  1.00  0.00     0.202 C 
BRANCH   4   5
ATOM      5  C   UNL     1       9.425  -9.294  -1.544  1.00  0.00     0.261 C 
BRANCH   5   6
ATOM      6  O   UNL     1      10.668  -8.728  -1.989  1.00  0.00    -0.460 OA
BRANCH   6   7
ATOM      7  C   UNL     1      11.089  -7.448  -2.113  1.00  0.00     0.338 C 
ATOM      8  O   UNL     1      12.246  -7.279  -2.505  1.00  0.00    -0.246 OA
BRANCH   7   9
ATOM      9  C   UNL     1      10.305  -6.213  -1.757  1.00  0.00     0.060 A 
ATOM     10  C   UNL     1       8.984  -6.139  -1.329  1.00  0.00     0.018 A 
ATOM     11  C   UNL     1      10.997  -4.991  -1.837  1.00  0.00     0.018 A 
ATOM     12  C   UNL     1       8.420  -4.924  -0.880  1.00  0.00     0.027 A 
ATOM     13  C   UNL     1      10.446  -3.796  -1.344  1.00  0.00     0.027 A 
ATOM     14  C   UNL     1       9.187  -3.785  -0.744  1.00  0.00     0.041 A 
BRANCH  14  15
ATOM     15  N   UNL     1       8.837  -2.634  -0.019  1.00  0.00    -0.326 N 
ATOM     16  C   UNL     1       7.993  -2.304   1.002  1.00  0.00     0.228 C 
ATOM     17  H   UNL     1       9.339  -1.848  -0.334  1.00  0.00     0.169 HD
ATOM     18  O   UNL     1       8.028  -1.103   1.314  1.00  0.00    -0.274 OA
BRANCH  16  19
ATOM     19  C   UNL     1       7.029  -3.261   1.735  1.00  0.00     0.095 C 
ATOM     20  C   UNL     1       5.977  -2.405   2.493  1.00  0.00     0.041 C 
ATOM     21  C   UNL     1       7.684  -4.306   2.666  1.00  0.00     0.095 C 
ATOM     22  C   UNL     1       5.143  -3.123   3.506  1.00  0.00    -0.030 C 
ATOM     23  C   UNL     1       6.899  -4.826   3.899  1.00  0.00     0.041 C 
ATOM     24  C   UNL     1       5.569  -4.210   4.150  1.00  0.00    -0.030 C 
BRANCH  21  25
ATOM     25  C   UNL     1       8.251  -5.535   1.976  1.00  0.00     0.228 C 
ATOM     26  O   UNL     1       9.483  -5.599   1.849  1.00  0.00    -0.274 OA
ATOM     27  N   UNL     1       7.515  -6.617   1.554  1.00  0.00    -0.326 N 
ATOM     28  H   UNL     1       8.088  -7.391   1.350  1.00  0.00     0.169 HD
BRANCH  27  29
ATOM     29  C   UNL     1       6.147  -6.904   1.337  1.00  0.00     0.048 A 
ATOM     30  C   UNL     1       5.711  -8.225   1.491  1.00  0.00     0.026 A 
ATOM     31  C   UNL     1       5.213  -5.994   0.857  1.00  0.00     0.111 A 
ATOM     32  C   UNL     1       4.373  -8.591   1.256  1.00  0.00     0.009 A 
ATOM     33  C   UNL     1       3.875  -6.343   0.620  1.00  0.00     0.271 A 
ATOM     34  C   UNL     1       3.442  -7.646   0.830  1.00  0.00     0.086 A 
BRANCH  33  35
ATOM     35  N   UNL     1       2.953  -5.319   0.104  1.00  0.00     0.062 N 
ATOM     36  O   UNL     1       1.759  -5.621  -0.016  1.00  0.00    -0.258 OA
ATOM     37  O   UNL     1       3.428  -4.210  -0.189  1.00  0.00    -0.258 OA
ENDBRANCH  33  35
ENDBRANCH  27  29
ENDBRANCH  21  25
ENDBRANCH  16  19
ENDBRANCH  14  15
ENDBRANCH   7   9
ENDBRANCH   6   7
ENDBRANCH   5   6
ENDBRANCH   4   5
ENDBRANCH   3   4
ENDBRANCH   2   3
ENDBRANCH   1   2
BRANCH   1  38
ATOM     38  O   UNL     1      11.230  -9.453   3.395  1.00  0.00    -0.377 OA
BRANCH  38  39
ATOM     39  C   UNL     1       9.874  -9.819   3.374  1.00  0.00     0.188 C 
BRANCH  39  40
ATOM     40  C   UNL     1       8.930  -8.705   3.853  1.00  0.00     0.188 C 
BRANCH  40  41
ATOM     41  O   UNL     1       9.388  -7.412   4.210  1.00  0.00    -0.376 OA
BRANCH  41  42
ATOM     42  C   UNL     1      10.625  -7.248   4.888  1.00  0.00     0.202 C 
BRANCH  42  43
ATOM     43  C   UNL     1      10.894  -8.000   6.206  1.00  0.00     0.261 C 
BRANCH  43  44
ATOM     44  O   UNL     1      10.470  -9.371   6.244  1.00  0.00    -0.460 OA
BRANCH  44  45
ATOM     45  C   UNL     1       9.296  -9.607   6.880  1.00  0.00     0.338 C 
ATOM     46  O   UNL     1       8.610  -8.790   7.476  1.00  0.00    -0.246 OA
BRANCH  45  47
ATOM     47  C   UNL     1       8.824 -10.966   6.520  1.00  0.00     0.060 A 
ATOM     48  C   UNL     1       7.521 -11.095   6.012  1.00  0.00     0.016 A 
ATOM     49  C   UNL     1       9.659 -12.083   6.597  1.00  0.00     0.016 A 
ATOM     50  C   UNL     1       7.047 -12.334   5.585  1.00  0.00     0.010 A 
ATOM     51  C   UNL     1       9.168 -13.336   6.209  1.00  0.00     0.010 A 
ATOM     52  C   UNL     1       7.852 -13.470   5.728  1.00  0.00    -0.014 A 
BRANCH  52  53
ATOM     53  C   UNL     1       7.220 -14.810   5.647  1.00  0.00     0.031 A 
ATOM     54  C   UNL     1       6.732 -15.417   6.936  1.00  0.00     0.074 A 
ATOM     55  C   UNL     1       7.040 -15.455   4.481  1.00  0.00     0.049 A 
ATOM     56  N   UNL     1       6.192 -16.587   7.155  1.00  0.00    -0.248 NA
ATOM     57  C   UNL     1       6.879 -14.583   8.140  1.00  0.00     0.031 C 
ATOM     58  C   UNL     1       7.408 -14.943   3.163  1.00  0.00     0.029 A 
ATOM     59  N   UNL     1       6.501 -16.692   4.222  1.00  0.00    -0.354 N 
ATOM     60  C   UNL     1       5.942 -16.632   8.523  1.00  0.00     0.074 A 
ATOM     61  C   UNL     1       6.423 -15.389   9.084  1.00  0.00     0.031 C 
ATOM     62  C   UNL     1       7.096 -15.867   2.235  1.00  0.00     0.029 A 
ATOM     63  C   UNL     1       6.545 -17.051   2.895  1.00  0.00     0.049 A 
ATOM     64  H   UNL     1       6.118 -17.268   4.923  1.00  0.00     0.167 HD
ATOM     65  C   UNL     1       5.357 -17.617   9.246  1.00  0.00     0.034 A 
ATOM     66  C   UNL     1       6.209 -18.212   2.293  1.00  0.00     0.034 A 
ATOM     67  C   UNL     1       4.902 -18.860   8.677  1.00  0.00     0.049 A 
ATOM     68  C   UNL     1       5.662 -19.344   3.137  1.00  0.00     0.074 A 
ATOM     69  C   UNL     1       4.295 -19.926   9.316  1.00  0.00     0.029 A 
ATOM     70  N   UNL     1       5.020 -19.212   7.339  1.00  0.00    -0.354 N 
ATOM     71  N   UNL     1       5.426 -19.376   4.430  1.00  0.00    -0.248 NA
ATOM     72  C   UNL     1       5.333 -20.595   2.439  1.00  0.00     0.031 C 
ATOM     73  C   UNL     1       4.124 -20.953   8.383  1.00  0.00     0.029 A 
ATOM     74  C   UNL     1       4.534 -20.494   7.141  1.00  0.00     0.049 A 
ATOM     75  H   UNL     1       5.394 -18.635   6.635  1.00  0.00     0.167 HD
ATOM     76  C   UNL     1       4.888 -20.637   4.688  1.00  0.00     0.074 A 
ATOM     77  C   UNL     1       4.822 -21.326   3.417  1.00  0.00     0.031 C 
ATOM     78  C   UNL     1       4.480 -21.174   5.867  1.00  0.00     0.034 A 
BRANCH  65  79
ATOM     79  C   UNL     1       5.243 -17.404  10.735  1.00  0.00     0.023 A 
ATOM     80  C   UNL     1       4.468 -16.364  11.278  1.00  0.00     0.031 A 
ATOM     81  C   UNL     1       5.955 -18.228  11.623  1.00  0.00     0.131 A 
ATOM     82  C   UNL     1       4.485 -16.129  12.661  1.00  0.00     0.055 A 
ATOM     83  C   UNL     1       5.897 -18.044  13.005  1.00  0.00     0.041 A 
ATOM     84  F   UNL     1       6.735 -19.218  11.161  1.00  0.00    -0.206 F 
ATOM     85  C   UNL     1       5.171 -16.979  13.531  1.00  0.00     0.022 A 
BRANCH  82  86
ATOM     86  S   UNL     1       3.726 -14.606  13.289  1.00  0.00     0.124 S 
ATOM     87  O   UNL     1       4.472 -13.583  12.560  1.00  0.00    -0.237 OA
ATOM     88  O   UNL     1       2.328 -14.770  12.907  1.00  0.00    -0.237 OA
ATOM     89  O   UNL     1       3.992 -14.658  14.725  1.00  0.00    -0.744 OA
ENDBRANCH  82  86
ENDBRANCH  65  79
BRANCH  66  90
ATOM     90  C   UNL     1       6.421 -18.402   0.827  1.00  0.00     0.023 A 
ATOM     91  C   UNL     1       5.347 -18.672  -0.037  1.00  0.00     0.031 A 
ATOM     92  C   UNL     1       7.716 -18.393   0.278  1.00  0.00     0.131 A 
ATOM     93  C   UNL     1       5.590 -18.971  -1.388  1.00  0.00     0.055 A 
ATOM     94  C   UNL     1       7.949 -18.633  -1.078  1.00  0.00     0.041 A 
ATOM     95  F   UNL     1       8.782 -18.148   1.057  1.00  0.00    -0.206 F 
ATOM     96  C   UNL     1       6.882 -18.939  -1.917  1.00  0.00     0.022 A 
BRANCH  93  97
ATOM     97  S   UNL     1       4.199 -19.497  -2.427  1.00  0.00     0.124 S 
ATOM     98  O   UNL     1       3.724 -20.674  -1.711  1.00  0.00    -0.237 OA
ATOM     99  O   UNL     1       3.332 -18.324  -2.384  1.00  0.00    -0.237 OA
ATOM    100  O   UNL     1       4.823 -19.760  -3.722  1.00  0.00    -0.744 OA
ENDBRANCH  93  97
ENDBRANCH  66  90
BRANCH  78 101
ATOM    101  C   UNL     1       3.873 -22.558   5.829  1.00  0.00     0.023 A 
ATOM    102  C   UNL     1       4.623 -23.691   5.469  1.00  0.00     0.031 A 
ATOM    103  C   UNL     1       2.519 -22.744   6.163  1.00  0.00     0.131 A 
ATOM    104  C   UNL     1       4.002 -24.947   5.394  1.00  0.00     0.055 A 
ATOM    105  C   UNL     1       1.924 -24.007   6.156  1.00  0.00     0.041 A 
ATOM    106  F   UNL     1       1.751 -21.700   6.512  1.00  0.00    -0.206 F 
ATOM    107  C   UNL     1       2.663 -25.116   5.756  1.00  0.00     0.022 A 
BRANCH 104 108
ATOM    108  S   UNL     1       4.940 -26.345   4.718  1.00  0.00     0.124 S 
ATOM    109  O   UNL     1       5.308 -25.850   3.396  1.00  0.00    -0.237 OA
ATOM    110  O   UNL     1       6.033 -26.480   5.675  1.00  0.00    -0.237 OA
ATOM    111  O   UNL     1       3.973 -27.442   4.723  1.00  0.00    -0.744 OA
ENDBRANCH 104 108
ENDBRANCH  78 101
ENDBRANCH  52  53
ENDBRANCH  45  47
ENDBRANCH  44  45
ENDBRANCH  43  44
ENDBRANCH  42  43
ENDBRANCH  41  42
ENDBRANCH  40  41
ENDBRANCH  39  40
ENDBRANCH  38  39
ENDBRANCH   1  38
TORSDOF 28
