REMARK SMILES O=C1O[C@@H](c2ccc(O)c(O)c2)[C@H](C(=O)OCCOCCOCCOCCOC(=O)c2ccc(-c3c4nc(c(-c5cc(S(=O)(=O)[O-])ccc5F)c5ccc([nH]5)c(-c5cc(S(=O)(=O)[O-])ccc5F)c5nc(c(-c6cc(S(=O)(=O)[O-])ccc6F)c6ccc3[nH]6)C=C5)C=C4)cc2)/C1=C\c1ccc(O)c(O)c1
REMARK SMILES IDX 23 1 22 2 21 3 20 4 19 5 18 6 17 7 16 8 14 9 15 10 13 11
REMARK SMILES IDX 1 12 2 13 3 14 94 15 4 16 95 17 5 18 6 19 12 20 7 21 10 22
REMARK SMILES IDX 8 23 11 24 9 26 96 28 97 29 103 30 98 31 101 32 99 33 102 34
REMARK SMILES IDX 100 36 24 38 25 39 26 40 27 41 28 42 29 43 30 44 31 45 32 46
REMARK SMILES IDX 93 47 33 48 92 49 34 50 35 51 36 52 86 53 37 54 91 55 85 56
REMARK SMILES IDX 87 57 38 58 90 59 84 60 83 61 39 63 71 64 51 65 70 66 52 67
REMARK SMILES IDX 55 68 69 69 88 70 53 71 54 72 68 74 89 75 56 76 40 77 41 78
REMARK SMILES IDX 49 79 42 80 48 81 50 82 47 83 43 84 44 85 45 86 46 87 72 88
REMARK SMILES IDX 73 89 81 90 74 91 80 92 82 93 79 94 75 95 76 96 77 97 78 98
REMARK SMILES IDX 57 99 58 100 66 101 59 102 65 103 67 104 64 105 60 106
REMARK SMILES IDX 61 107 62 108 63 109
REMARK H PARENT 11 25 9 27 102 35 100 37 87 62 55 73
REMARK Flexibility Score: inf
ROOT
ATOM      1  C   UNL     1       4.447   4.013   2.586  1.00  0.00     0.188 C 
ENDROOT
BRANCH   1   2
ATOM      2  O   UNL     1       3.772   3.174   1.645  1.00  0.00    -0.377 OA
BRANCH   2   3
ATOM      3  C   UNL     1       2.472   3.556   1.247  1.00  0.00     0.188 C 
BRANCH   3   4
ATOM      4  C   UNL     1       1.385   3.396   2.328  1.00  0.00     0.188 C 
BRANCH   4   5
ATOM      5  O   UNL     1       1.911   3.346   3.641  1.00  0.00    -0.376 OA
BRANCH   5   6
ATOM      6  C   UNL     1       2.014   2.121   4.337  1.00  0.00     0.202 C 
BRANCH   6   7
ATOM      7  C   UNL     1       2.623   0.870   3.681  1.00  0.00     0.261 C 
BRANCH   7   8
ATOM      8  O   UNL     1       2.386   0.712   2.277  1.00  0.00    -0.463 OA
BRANCH   8   9
ATOM      9  C   UNL     1       1.163   0.265   1.890  1.00  0.00     0.317 C 
ATOM     10  O   UNL     1       0.289  -0.127   2.647  1.00  0.00    -0.251 OA
BRANCH   9  11
ATOM     11  C   UNL     1       1.054   0.396   0.377  1.00  0.00     0.182 C 
ATOM     12  O   UNL     1      -1.976  -1.234  -0.415  1.00  0.00    -0.247 OA
ATOM     13  C   UNL     1      -0.818  -0.873  -0.272  1.00  0.00     0.335 C 
ATOM     14  O   UNL     1       0.274  -1.686  -0.314  1.00  0.00    -0.453 OA
ATOM     15  C   UNL     1      -0.357   0.517  -0.066  1.00  0.00     0.056 C 
ATOM     16  C   UNL     1       1.490  -0.916  -0.236  1.00  0.00     0.226 C 
ATOM     17  C   UNL     1      -1.164   1.556  -0.355  1.00  0.00     0.020 C 
BRANCH  16  18
ATOM     18  C   UNL     1       2.168  -0.768  -1.596  1.00  0.00    -0.002 A 
ATOM     19  C   UNL     1       3.287   0.081  -1.758  1.00  0.00     0.012 A 
ATOM     20  C   UNL     1       1.738  -1.517  -2.701  1.00  0.00     0.057 A 
ATOM     21  C   UNL     1       3.936   0.201  -2.994  1.00  0.00     0.050 A 
ATOM     22  C   UNL     1       2.391  -1.398  -3.920  1.00  0.00     0.157 A 
ATOM     23  C   UNL     1       3.481  -0.546  -4.071  1.00  0.00     0.157 A 
BRANCH  22  24
ATOM     24  O   UNL     1       1.960  -2.146  -4.979  1.00  0.00    -0.504 OA
ATOM     25  H   UNL     1       2.390  -2.076  -5.808  1.00  0.00     0.293 HD
ENDBRANCH  22  24
BRANCH  23  26
ATOM     26  O   UNL     1       4.080  -0.492  -5.299  1.00  0.00    -0.504 OA
ATOM     27  H   UNL     1       4.817   0.070  -5.436  1.00  0.00     0.293 HD
ENDBRANCH  23  26
ENDBRANCH  16  18
BRANCH  17  28
ATOM     28  C   UNL     1      -0.871   2.999  -0.339  1.00  0.00    -0.021 A 
ATOM     29  C   UNL     1      -0.010   3.582  -1.284  1.00  0.00     0.012 A 
ATOM     30  C   UNL     1      -1.545   3.835   0.564  1.00  0.00     0.058 A 
ATOM     31  C   UNL     1       0.198   4.972  -1.314  1.00  0.00     0.051 A 
ATOM     32  C   UNL     1      -1.324   5.211   0.536  1.00  0.00     0.157 A 
ATOM     33  C   UNL     1      -0.460   5.780  -0.395  1.00  0.00     0.157 A 
BRANCH  32  34
ATOM     34  O   UNL     1      -1.955   6.007   1.450  1.00  0.00    -0.504 OA
ATOM     35  H   UNL     1      -1.814   6.933   1.442  1.00  0.00     0.293 HD
ENDBRANCH  32  34
BRANCH  33  36
ATOM     36  O   UNL     1      -0.290   7.136  -0.364  1.00  0.00    -0.504 OA
ATOM     37  H   UNL     1       0.285   7.551  -0.978  1.00  0.00     0.293 HD
ENDBRANCH  33  36
ENDBRANCH  17  28
ENDBRANCH   9  11
ENDBRANCH   8   9
ENDBRANCH   7   8
ENDBRANCH   6   7
ENDBRANCH   5   6
ENDBRANCH   4   5
ENDBRANCH   3   4
ENDBRANCH   2   3
ENDBRANCH   1   2
BRANCH   1  38
ATOM     38  C   UNL     1       3.795   5.279   3.216  1.00  0.00     0.188 C 
BRANCH  38  39
ATOM     39  O   UNL     1       2.707   5.849   2.502  1.00  0.00    -0.376 OA
BRANCH  39  40
ATOM     40  C   UNL     1       2.904   7.063   1.801  1.00  0.00     0.202 C 
BRANCH  40  41
ATOM     41  C   UNL     1       3.837   7.001   0.584  1.00  0.00     0.261 C 
BRANCH  41  42
ATOM     42  O   UNL     1       5.154   6.506   0.849  1.00  0.00    -0.460 OA
BRANCH  42  43
ATOM     43  C   UNL     1       5.905   7.236   1.707  1.00  0.00     0.338 C 
ATOM     44  O   UNL     1       5.598   8.288   2.235  1.00  0.00    -0.246 OA
BRANCH  43  45
ATOM     45  C   UNL     1       7.080   6.417   2.058  1.00  0.00     0.060 A 
ATOM     46  C   UNL     1       7.273   6.037   3.393  1.00  0.00     0.016 A 
ATOM     47  C   UNL     1       7.955   5.987   1.058  1.00  0.00     0.016 A 
ATOM     48  C   UNL     1       8.353   5.228   3.737  1.00  0.00     0.010 A 
ATOM     49  C   UNL     1       9.058   5.211   1.409  1.00  0.00     0.010 A 
ATOM     50  C   UNL     1       9.274   4.852   2.752  1.00  0.00    -0.014 A 
BRANCH  50  51
ATOM     51  C   UNL     1      10.589   4.303   3.149  1.00  0.00     0.031 A 
ATOM     52  C   UNL     1      11.734   5.268   3.266  1.00  0.00     0.074 A 
ATOM     53  C   UNL     1      10.762   2.993   3.392  1.00  0.00     0.049 A 
ATOM     54  N   UNL     1      13.003   5.034   3.463  1.00  0.00    -0.248 NA
ATOM     55  C   UNL     1      11.395   6.694   3.130  1.00  0.00     0.031 C 
ATOM     56  C   UNL     1       9.706   1.983   3.378  1.00  0.00     0.029 A 
ATOM     57  N   UNL     1      11.902   2.287   3.683  1.00  0.00    -0.354 N 
ATOM     58  C   UNL     1      13.618   6.281   3.461  1.00  0.00     0.074 A 
ATOM     59  C   UNL     1      12.586   7.263   3.211  1.00  0.00     0.031 C 
ATOM     60  C   UNL     1      10.254   0.780   3.628  1.00  0.00     0.029 A 
ATOM     61  C   UNL     1      11.702   0.929   3.766  1.00  0.00     0.049 A 
ATOM     62  H   UNL     1      12.780   2.712   3.819  1.00  0.00     0.167 HD
ATOM     63  C   UNL     1      14.926   6.574   3.652  1.00  0.00     0.034 A 
ATOM     64  C   UNL     1      12.595  -0.074   3.895  1.00  0.00     0.034 A 
ATOM     65  C   UNL     1      15.936   5.574   3.882  1.00  0.00     0.049 A 
ATOM     66  C   UNL     1      14.066   0.267   3.992  1.00  0.00     0.074 A 
ATOM     67  C   UNL     1      17.291   5.753   4.094  1.00  0.00     0.029 A 
ATOM     68  N   UNL     1      15.705   4.205   3.913  1.00  0.00    -0.354 N 
ATOM     69  N   UNL     1      14.644   1.448   3.980  1.00  0.00    -0.248 NA
ATOM     70  C   UNL     1      15.005  -0.856   4.120  1.00  0.00     0.031 C 
ATOM     71  C   UNL     1      17.890   4.493   4.164  1.00  0.00     0.029 A 
ATOM     72  C   UNL     1      16.898   3.527   4.099  1.00  0.00     0.049 A 
ATOM     73  H   UNL     1      14.823   3.779   3.817  1.00  0.00     0.167 HD
ATOM     74  C   UNL     1      16.007   1.208   4.141  1.00  0.00     0.074 A 
ATOM     75  C   UNL     1      16.165  -0.227   4.249  1.00  0.00     0.031 C 
ATOM     76  C   UNL     1      17.035   2.093   4.206  1.00  0.00     0.034 A 
BRANCH  63  77
ATOM     77  C   UNL     1      15.334   8.023   3.551  1.00  0.00     0.023 A 
ATOM     78  C   UNL     1      14.849   8.996   4.441  1.00  0.00     0.031 A 
ATOM     79  C   UNL     1      16.197   8.442   2.523  1.00  0.00     0.131 A 
ATOM     80  C   UNL     1      15.171  10.347   4.242  1.00  0.00     0.055 A 
ATOM     81  C   UNL     1      16.585   9.775   2.385  1.00  0.00     0.041 A 
ATOM     82  F   UNL     1      16.666   7.563   1.623  1.00  0.00    -0.206 F 
ATOM     83  C   UNL     1      16.059  10.740   3.239  1.00  0.00     0.022 A 
BRANCH  80  84
ATOM     84  S   UNL     1      14.288  11.598   5.214  1.00  0.00     0.124 S 
ATOM     85  O   UNL     1      12.898  11.315   4.865  1.00  0.00    -0.237 OA
ATOM     86  O   UNL     1      14.683  11.273   6.580  1.00  0.00    -0.237 OA
ATOM     87  O   UNL     1      14.807  12.863   4.697  1.00  0.00    -0.744 OA
ENDBRANCH  80  84
ENDBRANCH  63  77
BRANCH  64  88
ATOM     88  C   UNL     1      12.144  -1.497   3.885  1.00  0.00     0.023 A 
ATOM     89  C   UNL     1      12.367  -2.336   4.987  1.00  0.00     0.031 A 
ATOM     90  C   UNL     1      11.537  -2.056   2.746  1.00  0.00     0.131 A 
ATOM     91  C   UNL     1      12.033  -3.698   4.910  1.00  0.00     0.055 A 
ATOM     92  C   UNL     1      11.149  -3.396   2.697  1.00  0.00     0.041 A 
ATOM     93  F   UNL     1      11.306  -1.303   1.659  1.00  0.00    -0.206 F 
ATOM     94  C   UNL     1      11.409  -4.230   3.779  1.00  0.00     0.022 A 
BRANCH  91  95
ATOM     95  S   UNL     1      12.521  -4.789   6.274  1.00  0.00     0.124 S 
ATOM     96  O   UNL     1      13.966  -4.594   6.304  1.00  0.00    -0.237 OA
ATOM     97  O   UNL     1      11.772  -4.226   7.393  1.00  0.00    -0.237 OA
ATOM     98  O   UNL     1      12.077  -6.108   5.829  1.00  0.00    -0.744 OA
ENDBRANCH  91  95
ENDBRANCH  64  88
BRANCH  76  99
ATOM     99  C   UNL     1      18.417   1.543   4.470  1.00  0.00     0.023 A 
ATOM    100  C   UNL     1      19.099   0.750   3.533  1.00  0.00     0.031 A 
ATOM    101  C   UNL     1      19.073   1.856   5.676  1.00  0.00     0.131 A 
ATOM    102  C   UNL     1      20.382   0.265   3.832  1.00  0.00     0.055 A 
ATOM    103  C   UNL     1      20.373   1.425   5.940  1.00  0.00     0.041 A 
ATOM    104  F   UNL     1      18.467   2.607   6.609  1.00  0.00    -0.206 F 
ATOM    105  C   UNL     1      21.032   0.616   5.019  1.00  0.00     0.022 A 
BRANCH 102 106
ATOM    106  S   UNL     1      21.168  -0.894   2.679  1.00  0.00     0.124 S 
ATOM    107  O   UNL     1      20.211  -1.995   2.658  1.00  0.00    -0.237 OA
ATOM    108  O   UNL     1      21.259  -0.105   1.455  1.00  0.00    -0.237 OA
ATOM    109  O   UNL     1      22.448  -1.196   3.317  1.00  0.00    -0.744 OA
ENDBRANCH 102 106
ENDBRANCH  76  99
ENDBRANCH  50  51
ENDBRANCH  43  45
ENDBRANCH  42  43
ENDBRANCH  41  42
ENDBRANCH  40  41
ENDBRANCH  39  40
ENDBRANCH  38  39
ENDBRANCH   1  38
TORSDOF 29
