REMARK SMILES NC(=O)[C@@H]1CCC[N@H+]1[C@@H](C(=O)OCCOCCOCCOCCOC(=O)c1ccc(-c2c3nc(c(-c4cc(S(=O)(=O)[O-])ccc4F)c4ccc([nH]4)c(-c4cc(S(=O)(=O)[O-])ccc4F)c4nc(c(-c5cc(S(=O)(=O)[O-])ccc5F)c5ccc2[nH]5)C=C4)C=C3)cc1)c1c[nH]c2cc(OCc3ccccc3)ccc12
REMARK SMILES IDX 17 1 16 2 15 3 14 4 13 5 12 6 10 7 11 8 9 9 8 10 4 11 5 12
REMARK SMILES IDX 6 13 7 14 2 16 1 17 3 20 90 21 91 22 106 23 92 24 93 25
REMARK SMILES IDX 105 26 94 28 104 29 95 30 96 31 97 32 98 33 99 34 103 35
REMARK SMILES IDX 100 36 102 37 101 38 18 39 19 40 20 41 21 42 22 43 23 44
REMARK SMILES IDX 24 45 25 46 26 47 27 48 28 49 89 50 29 51 88 52 30 53 31 54
REMARK SMILES IDX 32 55 82 56 33 57 87 58 81 59 83 60 34 61 86 62 80 63 79 64
REMARK SMILES IDX 35 66 67 67 47 68 66 69 48 70 51 71 65 72 84 73 49 74 50 75
REMARK SMILES IDX 64 77 85 78 52 79 36 80 37 81 45 82 38 83 44 84 46 85 43 86
REMARK SMILES IDX 39 87 40 88 41 89 42 90 68 91 69 92 77 93 70 94 76 95 78 96
REMARK SMILES IDX 75 97 71 98 72 99 73 100 74 101 53 102 54 103 62 104 55 105
REMARK SMILES IDX 61 106 63 107 60 108 56 109 57 110 58 111 59 112
REMARK H PARENT 8 15 1 18 1 19 92 27 83 65 51 76
REMARK Flexibility Score: inf
ROOT
ATOM      1  C   UNL     1       1.441   4.238   3.599  1.00  0.00     0.188 C 
ENDROOT
BRANCH   1   2
ATOM      2  C   UNL     1       0.413   4.644   4.658  1.00  0.00     0.188 C 
BRANCH   2   3
ATOM      3  O   UNL     1      -0.155   3.676   5.530  1.00  0.00    -0.376 OA
BRANCH   3   4
ATOM      4  C   UNL     1      -0.262   2.332   5.089  1.00  0.00     0.202 C 
BRANCH   4   5
ATOM      5  C   UNL     1      -1.135   2.035   3.857  1.00  0.00     0.261 C 
BRANCH   5   6
ATOM      6  O   UNL     1      -0.769   2.730   2.651  1.00  0.00    -0.459 OA
BRANCH   6   7
ATOM      7  C   UNL     1      -1.527   3.786   2.202  1.00  0.00     0.370 C 
ATOM      8  O   UNL     1      -2.548   4.169   2.765  1.00  0.00    -0.245 OA
BRANCH   7   9
ATOM      9  C   UNL     1      -0.943   4.442   0.893  1.00  0.00     0.329 C 
BRANCH   9  10
ATOM     10  N   UNL     1       0.378   3.853   0.504  1.00  0.00    -0.309 N 
ATOM     11  C   UNL     1       0.501   2.603  -0.271  1.00  0.00     0.275 C 
ATOM     12  C   UNL     1       1.970   2.298   0.039  1.00  0.00     0.081 C 
ATOM     13  C   UNL     1       2.654   3.651  -0.053  1.00  0.00     0.068 C 
ATOM     14  C   UNL     1       1.520   4.660   0.100  1.00  0.00     0.264 C 
ATOM     15  H   UNL     1       0.403   3.667   1.507  1.00  0.00     0.349 HD
BRANCH  11  16
ATOM     16  C   UNL     1      -0.468   1.465   0.063  1.00  0.00     0.275 C 
ATOM     17  N   UNL     1       0.054   0.205   0.152  1.00  0.00    -0.365 N 
ATOM     18  H   UNL     1      -0.533  -0.557   0.365  1.00  0.00     0.159 HD
ATOM     19  H   UNL     1       1.016   0.059   0.004  1.00  0.00     0.159 HD
ATOM     20  O   UNL     1      -1.687   1.619   0.134  1.00  0.00    -0.268 OA
ENDBRANCH  11  16
ENDBRANCH   9  10
BRANCH   9  21
ATOM     21  C   UNL     1      -0.905   6.016   0.921  1.00  0.00     0.046 A 
ATOM     22  C   UNL     1      -1.336   6.811  -0.135  1.00  0.00     0.094 A 
ATOM     23  C   UNL     1      -0.073   6.989   1.600  1.00  0.00     0.009 A 
ATOM     24  N   UNL     1      -0.197   7.440  -0.561  1.00  0.00    -0.361 N 
ATOM     25  C   UNL     1       0.565   7.670   0.558  1.00  0.00     0.050 A 
ATOM     26  C   UNL     1       0.284   7.397   2.903  1.00  0.00     0.015 A 
ATOM     27  H   UNL     1       0.031   7.680  -1.488  1.00  0.00     0.166 HD
ATOM     28  C   UNL     1       1.733   8.411   0.729  1.00  0.00     0.073 A 
ATOM     29  C   UNL     1       1.385   8.264   3.104  1.00  0.00     0.047 A 
ATOM     30  C   UNL     1       2.166   8.675   2.030  1.00  0.00     0.121 A 
BRANCH  30  31
ATOM     31  O   UNL     1       3.364   9.325   2.057  1.00  0.00    -0.489 OA
BRANCH  31  32
ATOM     32  C   UNL     1       3.845   9.987   3.224  1.00  0.00     0.265 C 
BRANCH  32  33
ATOM     33  C   UNL     1       3.866  11.480   2.989  1.00  0.00    -0.011 A 
ATOM     34  C   UNL     1       4.898  12.274   3.512  1.00  0.00     0.007 A 
ATOM     35  C   UNL     1       2.832  12.105   2.277  1.00  0.00     0.007 A 
ATOM     36  C   UNL     1       4.901  13.656   3.306  1.00  0.00     0.000 A 
ATOM     37  C   UNL     1       2.839  13.482   2.067  1.00  0.00     0.000 A 
ATOM     38  C   UNL     1       3.873  14.258   2.581  1.00  0.00     0.000 A 
ENDBRANCH  32  33
ENDBRANCH  31  32
ENDBRANCH  30  31
ENDBRANCH   9  21
ENDBRANCH   7   9
ENDBRANCH   6   7
ENDBRANCH   5   6
ENDBRANCH   4   5
ENDBRANCH   3   4
ENDBRANCH   2   3
ENDBRANCH   1   2
BRANCH   1  39
ATOM     39  O   UNL     1       2.147   3.059   3.912  1.00  0.00    -0.377 OA
BRANCH  39  40
ATOM     40  C   UNL     1       3.523   3.243   4.159  1.00  0.00     0.188 C 
BRANCH  40  41
ATOM     41  C   UNL     1       3.813   4.300   5.230  1.00  0.00     0.188 C 
BRANCH  41  42
ATOM     42  O   UNL     1       3.421   5.620   4.850  1.00  0.00    -0.376 OA
BRANCH  42  43
ATOM     43  C   UNL     1       4.400   6.450   4.236  1.00  0.00     0.202 C 
BRANCH  43  44
ATOM     44  C   UNL     1       4.797   6.134   2.782  1.00  0.00     0.261 C 
BRANCH  44  45
ATOM     45  O   UNL     1       5.516   4.908   2.568  1.00  0.00    -0.460 OA
BRANCH  45  46
ATOM     46  C   UNL     1       6.582   4.650   3.353  1.00  0.00     0.338 C 
ATOM     47  O   UNL     1       7.111   5.405   4.152  1.00  0.00    -0.246 OA
BRANCH  46  48
ATOM     48  C   UNL     1       6.844   3.204   3.261  1.00  0.00     0.060 A 
ATOM     49  C   UNL     1       6.740   2.434   4.426  1.00  0.00     0.016 A 
ATOM     50  C   UNL     1       7.151   2.607   2.035  1.00  0.00     0.016 A 
ATOM     51  C   UNL     1       6.948   1.061   4.374  1.00  0.00     0.010 A 
ATOM     52  C   UNL     1       7.412   1.237   1.993  1.00  0.00     0.010 A 
ATOM     53  C   UNL     1       7.340   0.469   3.169  1.00  0.00    -0.014 A 
BRANCH  53  54
ATOM     54  C   UNL     1       7.942  -0.880   3.220  1.00  0.00     0.031 A 
ATOM     55  C   UNL     1       9.432  -0.961   3.402  1.00  0.00     0.074 A 
ATOM     56  C   UNL     1       7.185  -1.989   3.180  1.00  0.00     0.049 A 
ATOM     57  N   UNL     1      10.207  -2.009   3.469  1.00  0.00    -0.248 NA
ATOM     58  C   UNL     1      10.141   0.324   3.528  1.00  0.00     0.031 C 
ATOM     59  C   UNL     1       5.726  -2.013   3.087  1.00  0.00     0.029 A 
ATOM     60  N   UNL     1       7.544  -3.311   3.219  1.00  0.00    -0.354 N 
ATOM     61  C   UNL     1      11.494  -1.511   3.649  1.00  0.00     0.074 A 
ATOM     62  C   UNL     1      11.398  -0.069   3.640  1.00  0.00     0.031 C 
ATOM     63  C   UNL     1       5.314  -3.294   3.065  1.00  0.00     0.029 A 
ATOM     64  C   UNL     1       6.481  -4.175   3.103  1.00  0.00     0.049 A 
ATOM     65  H   UNL     1       8.475  -3.614   3.321  1.00  0.00     0.167 HD
ATOM     66  C   UNL     1      12.648  -2.200   3.814  1.00  0.00     0.034 A 
ATOM     67  C   UNL     1       6.464  -5.521   3.013  1.00  0.00     0.034 A 
ATOM     68  C   UNL     1      12.719  -3.638   3.793  1.00  0.00     0.049 A 
ATOM     69  C   UNL     1       7.779  -6.265   3.083  1.00  0.00     0.074 A 
ATOM     70  C   UNL     1      13.830  -4.449   3.933  1.00  0.00     0.029 A 
ATOM     71  N   UNL     1      11.631  -4.482   3.603  1.00  0.00    -0.354 N 
ATOM     72  N   UNL     1       8.993  -5.788   3.243  1.00  0.00    -0.248 NA
ATOM     73  C   UNL     1       7.720  -7.728   2.969  1.00  0.00     0.031 C 
ATOM     74  C   UNL     1      13.427  -5.775   3.747  1.00  0.00     0.029 A 
ATOM     75  C   UNL     1      12.050  -5.802   3.585  1.00  0.00     0.049 A 
ATOM     76  H   UNL     1      10.698  -4.185   3.498  1.00  0.00     0.167 HD
ATOM     77  C   UNL     1       9.836  -6.896   3.287  1.00  0.00     0.074 A 
ATOM     78  C   UNL     1       8.989  -8.063   3.146  1.00  0.00     0.031 C 
ATOM     79  C   UNL     1      11.186  -6.950   3.436  1.00  0.00     0.034 A 
BRANCH  66  80
ATOM     80  C   UNL     1      13.918  -1.396   3.954  1.00  0.00     0.023 A 
ATOM     81  C   UNL     1      14.131  -0.526   5.039  1.00  0.00     0.031 A 
ATOM     82  C   UNL     1      14.908  -1.462   2.959  1.00  0.00     0.131 A 
ATOM     83  C   UNL     1      15.269   0.294   5.064  1.00  0.00     0.055 A 
ATOM     84  C   UNL     1      16.079  -0.706   3.034  1.00  0.00     0.041 A 
ATOM     85  F   UNL     1      14.745  -2.248   1.884  1.00  0.00    -0.206 F 
ATOM     86  C   UNL     1      16.258   0.190   4.084  1.00  0.00     0.022 A 
BRANCH  83  87
ATOM     87  S   UNL     1      15.364   1.609   6.311  1.00  0.00     0.124 S 
ATOM     88  O   UNL     1      14.159   2.381   6.018  1.00  0.00    -0.237 OA
ATOM     89  O   UNL     1      15.354   0.859   7.562  1.00  0.00    -0.237 OA
ATOM     90  O   UNL     1      16.620   2.287   5.999  1.00  0.00    -0.744 OA
ENDBRANCH  83  87
ENDBRANCH  66  80
BRANCH  67  91
ATOM     91  C   UNL     1       5.181  -6.253   2.799  1.00  0.00     0.023 A 
ATOM     92  C   UNL     1       4.713  -7.193   3.730  1.00  0.00     0.031 A 
ATOM     93  C   UNL     1       4.434  -6.066   1.622  1.00  0.00     0.131 A 
ATOM     94  C   UNL     1       3.561  -7.946   3.446  1.00  0.00     0.055 A 
ATOM     95  C   UNL     1       3.257  -6.775   1.371  1.00  0.00     0.041 A 
ATOM     96  F   UNL     1       4.835  -5.182   0.694  1.00  0.00    -0.206 F 
ATOM     97  C   UNL     1       2.823  -7.732   2.281  1.00  0.00     0.022 A 
BRANCH  94  98
ATOM     98  S   UNL     1       3.095  -9.282   4.582  1.00  0.00     0.124 S 
ATOM     99  O   UNL     1       4.294 -10.111   4.571  1.00  0.00    -0.237 OA
ATOM    100  O   UNL     1       2.830  -8.550   5.816  1.00  0.00    -0.237 OA
ATOM    101  O   UNL     1       1.920  -9.873   3.945  1.00  0.00    -0.744 OA
ENDBRANCH  94  98
ENDBRANCH  67  91
BRANCH  79 102
ATOM    102  C   UNL     1      11.818  -8.319   3.510  1.00  0.00     0.023 A 
ATOM    103  C   UNL     1      11.822  -9.196   2.412  1.00  0.00     0.031 A 
ATOM    104  C   UNL     1      12.432  -8.748   4.701  1.00  0.00     0.131 A 
ATOM    105  C   UNL     1      12.376 -10.478   2.545  1.00  0.00     0.055 A 
ATOM    106  C   UNL     1      13.043  -9.998   4.806  1.00  0.00     0.041 A 
ATOM    107  F   UNL     1      12.457  -7.952   5.782  1.00  0.00    -0.206 F 
ATOM    108  C   UNL     1      13.004 -10.877   3.728  1.00  0.00     0.022 A 
BRANCH 105 109
ATOM    109  S   UNL     1      12.178 -11.658   1.181  1.00  0.00     0.124 S 
ATOM    110  O   UNL     1      10.726 -11.719   1.043  1.00  0.00    -0.237 OA
ATOM    111  O   UNL     1      12.894 -11.000   0.093  1.00  0.00    -0.237 OA
ATOM    112  O   UNL     1      12.804 -12.877   1.689  1.00  0.00    -0.744 OA
ENDBRANCH 105 109
ENDBRANCH  79 102
ENDBRANCH  53  54
ENDBRANCH  46  48
ENDBRANCH  45  46
ENDBRANCH  44  45
ENDBRANCH  43  44
ENDBRANCH  42  43
ENDBRANCH  41  42
ENDBRANCH  40  41
ENDBRANCH  39  40
ENDBRANCH   1  39
TORSDOF 29
