REMARK SMILES CC1(C)CCCC[C@H]1[N@H+]1CCC[N@H+](CC(=O)OCCOCCOCCOCCOC(=O)c2ccc(-c3c4nc(c(-c5cc(S(=O)(=O)[O-])ccc5F)c5ccc([nH]5)c(-c5cc(S(=O)(=O)[O-])ccc5F)c5nc(c(-c6cc(S(=O)(=O)[O-])ccc6F)c6ccc3[nH]6)C=C5)C=C4)cc2)CC1
REMARK SMILES IDX 22 1 21 2 20 3 19 4 18 5 17 6 15 7 16 8 14 9 13 10 95 12
REMARK SMILES IDX 96 13 9 14 8 16 1 17 2 18 3 19 4 20 5 21 7 22 6 23 10 24
REMARK SMILES IDX 12 26 11 27 23 29 24 30 25 31 26 32 27 33 28 34 29 35 30 36
REMARK SMILES IDX 31 37 32 38 33 39 94 40 34 41 93 42 35 43 36 44 37 45 87 46
REMARK SMILES IDX 38 47 92 48 86 49 88 50 39 51 91 52 85 53 84 54 40 56 72 57
REMARK SMILES IDX 52 58 71 59 53 60 56 61 70 62 89 63 54 64 55 65 69 67 90 68
REMARK SMILES IDX 57 69 41 70 42 71 50 72 43 73 49 74 51 75 48 76 44 77 45 78
REMARK SMILES IDX 46 79 47 80 73 81 74 82 82 83 75 84 81 85 83 86 80 87 76 88
REMARK SMILES IDX 77 89 78 90 79 91 58 92 59 93 67 94 60 95 66 96 68 97 65 98
REMARK SMILES IDX 61 99 62 100 63 101 64 102
REMARK H PARENT 13 11 9 15 88 55 56 66
REMARK Flexibility Score: 90.00
ROOT
ATOM      1  C   UNL     1       0.223  -2.878  -5.301  1.00  0.00     0.188 C 
ENDROOT
BRANCH   1   2
ATOM      2  C   UNL     1      -0.232  -3.633  -4.051  1.00  0.00     0.188 C 
BRANCH   2   3
ATOM      3  O   UNL     1      -1.453  -3.090  -3.542  1.00  0.00    -0.376 OA
BRANCH   3   4
ATOM      4  C   UNL     1      -1.280  -2.211  -2.430  1.00  0.00     0.202 C 
BRANCH   4   5
ATOM      5  C   UNL     1      -1.169  -2.970  -1.101  1.00  0.00     0.261 C 
BRANCH   5   6
ATOM      6  O   UNL     1       0.163  -2.943  -0.549  1.00  0.00    -0.459 OA
BRANCH   6   7
ATOM      7  C   UNL     1       0.855  -4.111  -0.545  1.00  0.00     0.361 C 
ATOM      8  O   UNL     1       0.477  -5.146  -1.088  1.00  0.00    -0.245 OA
BRANCH   7   9
ATOM      9  C   UNL     1       2.131  -4.030   0.288  1.00  0.00     0.386 C 
BRANCH   9  10
ATOM     10  N   UNL     1       3.280  -3.353  -0.315  1.00  0.00    -0.321 N 
ATOM     11  H   UNL     1       3.995  -3.994   0.029  1.00  0.00     0.348 HD
BRANCH  10  12
ATOM     12  C   UNL     1       3.693  -2.091   0.272  1.00  0.00     0.324 C 
BRANCH  12  13
ATOM     13  C   UNL     1       2.723  -0.896   0.156  1.00  0.00     0.324 C 
BRANCH  13  14
ATOM     14  N   UNL     1       2.054  -0.555  -1.097  1.00  0.00    -0.327 N 
ATOM     15  H   UNL     1       1.220  -1.093  -0.860  1.00  0.00     0.348 HD
BRANCH  14  16
ATOM     16  C   UNL     1       1.589   0.854  -1.278  1.00  0.00     0.189 C 
ATOM     17  C   UNL     1       0.548   1.218   1.101  1.00  0.00     0.017 C 
ATOM     18  C   UNL     1       0.360   1.382  -0.417  1.00  0.00     0.017 C 
ATOM     19  C   UNL     1      -0.942   0.661  -0.804  1.00  0.00     0.017 C 
ATOM     20  C   UNL     1       0.086   2.883  -0.726  1.00  0.00     0.012 C 
ATOM     21  C   UNL     1       1.314   3.756  -0.589  1.00  0.00     0.001 C 
ATOM     22  C   UNL     1       2.790   1.829  -1.245  1.00  0.00     0.065 C 
ATOM     23  C   UNL     1       2.389   3.268  -1.534  1.00  0.00     0.006 C 
ENDBRANCH  14  16
BRANCH  14  24
ATOM     24  C   UNL     1       2.458  -1.196  -2.353  1.00  0.00     0.268 CG0
ATOM     25  G   UNL     1       3.621  -2.178  -2.510  1.00  0.00     0.000 G0
ENDBRANCH  14  24
ENDBRANCH  13  14
ENDBRANCH  12  13
ENDBRANCH  10  12
BRANCH  10  26
ATOM     26  C   UNL     1       3.502  -3.492  -1.737  1.00  0.00     0.268 C 
BRANCH  26  27
ATOM     27  C   UNL     1       3.621  -2.178  -2.510  1.00  0.00     0.123 CG0
ATOM     28  G   UNL     1       2.458  -1.196  -2.353  1.00  0.00     0.000 G0
ENDBRANCH  26  27
ENDBRANCH  10  26
ENDBRANCH   9  10
ENDBRANCH   7   9
ENDBRANCH   6   7
ENDBRANCH   5   6
ENDBRANCH   4   5
ENDBRANCH   3   4
ENDBRANCH   2   3
ENDBRANCH   1   2
BRANCH   1  29
ATOM     29  O   UNL     1       1.028  -1.745  -4.950  1.00  0.00    -0.377 OA
BRANCH  29  30
ATOM     30  C   UNL     1       0.627  -0.531  -5.586  1.00  0.00     0.188 C 
BRANCH  30  31
ATOM     31  C   UNL     1       0.937  -0.449  -7.089  1.00  0.00     0.188 C 
BRANCH  31  32
ATOM     32  O   UNL     1       1.089  -1.734  -7.679  1.00  0.00    -0.376 OA
BRANCH  32  33
ATOM     33  C   UNL     1       2.416  -2.066  -8.095  1.00  0.00     0.202 C 
BRANCH  33  34
ATOM     34  C   UNL     1       3.529  -2.043  -7.031  1.00  0.00     0.261 C 
BRANCH  34  35
ATOM     35  O   UNL     1       3.777  -0.765  -6.414  1.00  0.00    -0.460 OA
BRANCH  35  36
ATOM     36  C   UNL     1       4.471   0.118  -7.168  1.00  0.00     0.338 C 
ATOM     37  O   UNL     1       4.816  -0.024  -8.325  1.00  0.00    -0.246 OA
BRANCH  36  38
ATOM     38  C   UNL     1       4.817   1.290  -6.342  1.00  0.00     0.060 A 
ATOM     39  C   UNL     1       3.927   2.361  -6.210  1.00  0.00     0.016 A 
ATOM     40  C   UNL     1       6.109   1.369  -5.815  1.00  0.00     0.016 A 
ATOM     41  C   UNL     1       4.362   3.548  -5.608  1.00  0.00     0.010 A 
ATOM     42  C   UNL     1       6.537   2.551  -5.205  1.00  0.00     0.010 A 
ATOM     43  C   UNL     1       5.685   3.666  -5.149  1.00  0.00    -0.014 A 
BRANCH  43  44
ATOM     44  C   UNL     1       6.248   5.003  -4.819  1.00  0.00     0.031 A 
ATOM     45  C   UNL     1       6.993   5.748  -5.888  1.00  0.00     0.074 A 
ATOM     46  C   UNL     1       6.108   5.549  -3.599  1.00  0.00     0.049 A 
ATOM     47  N   UNL     1       7.609   6.899  -5.821  1.00  0.00    -0.248 NA
ATOM     48  C   UNL     1       7.072   5.093  -7.202  1.00  0.00     0.031 C 
ATOM     49  C   UNL     1       5.423   4.904  -2.491  1.00  0.00     0.029 A 
ATOM     50  N   UNL     1       6.520   6.752  -3.082  1.00  0.00    -0.354 N 
ATOM     51  C   UNL     1       8.161   7.102  -7.079  1.00  0.00     0.074 A 
ATOM     52  C   UNL     1       7.829   5.941  -7.878  1.00  0.00     0.031 C 
ATOM     53  C   UNL     1       5.412   5.733  -1.433  1.00  0.00     0.029 A 
ATOM     54  C   UNL     1       6.162   6.941  -1.765  1.00  0.00     0.049 A 
ATOM     55  H   UNL     1       7.025   7.417  -3.603  1.00  0.00     0.167 HD
ATOM     56  C   UNL     1       8.882   8.160  -7.524  1.00  0.00     0.034 A 
ATOM     57  C   UNL     1       6.436   7.955  -0.918  1.00  0.00     0.034 A 
ATOM     58  C   UNL     1       9.229   9.293  -6.702  1.00  0.00     0.049 A 
ATOM     59  C   UNL     1       7.283   9.098  -1.421  1.00  0.00     0.074 A 
ATOM     60  C   UNL     1       9.965  10.414  -7.044  1.00  0.00     0.029 A 
ATOM     61  N   UNL     1       8.874   9.444  -5.366  1.00  0.00    -0.354 N 
ATOM     62  N   UNL     1       7.801   9.278  -2.616  1.00  0.00    -0.248 NA
ATOM     63  C   UNL     1       7.596  10.167  -0.464  1.00  0.00     0.031 C 
ATOM     64  C   UNL     1      10.107  11.210  -5.901  1.00  0.00     0.029 A 
ATOM     65  C   UNL     1       9.397  10.626  -4.864  1.00  0.00     0.049 A 
ATOM     66  H   UNL     1       8.331   8.805  -4.852  1.00  0.00     0.167 HD
ATOM     67  C   UNL     1       8.485  10.488  -2.555  1.00  0.00     0.074 A 
ATOM     68  C   UNL     1       8.296  11.004  -1.215  1.00  0.00     0.031 C 
ATOM     69  C   UNL     1       9.205  11.117  -3.519  1.00  0.00     0.034 A 
BRANCH  56  70
ATOM     70  C   UNL     1       9.389   8.089  -8.941  1.00  0.00     0.023 A 
ATOM     71  C   UNL     1       8.511   8.071 -10.039  1.00  0.00     0.031 A 
ATOM     72  C   UNL     1      10.767   7.974  -9.197  1.00  0.00     0.131 A 
ATOM     73  C   UNL     1       9.012   7.864 -11.333  1.00  0.00     0.055 A 
ATOM     74  C   UNL     1      11.266   7.847 -10.494  1.00  0.00     0.041 A 
ATOM     75  F   UNL     1      11.650   7.958  -8.186  1.00  0.00    -0.206 F 
ATOM     76  C   UNL     1      10.386   7.775 -11.570  1.00  0.00     0.022 A 
BRANCH  73  77
ATOM     77  S   UNL     1       7.836   7.564 -12.680  1.00  0.00     0.124 S 
ATOM     78  O   UNL     1       7.137   6.373 -12.202  1.00  0.00    -0.237 OA
ATOM     79  O   UNL     1       7.058   8.796 -12.700  1.00  0.00    -0.237 OA
ATOM     80  O   UNL     1       8.695   7.348 -13.843  1.00  0.00    -0.744 OA
ENDBRANCH  73  77
ENDBRANCH  56  70
BRANCH  57  81
ATOM     81  C   UNL     1       5.967   7.922   0.500  1.00  0.00     0.023 A 
ATOM     82  C   UNL     1       5.094   8.902   1.004  1.00  0.00     0.031 A 
ATOM     83  C   UNL     1       6.433   6.940   1.393  1.00  0.00     0.131 A 
ATOM     84  C   UNL     1       4.749   8.902   2.366  1.00  0.00     0.055 A 
ATOM     85  C   UNL     1       6.044   6.912   2.734  1.00  0.00     0.041 A 
ATOM     86  F   UNL     1       7.273   5.981   0.971  1.00  0.00    -0.206 F 
ATOM     87  C   UNL     1       5.207   7.905   3.231  1.00  0.00     0.022 A 
BRANCH  84  88
ATOM     88  S   UNL     1       3.757  10.275   3.017  1.00  0.00     0.124 S 
ATOM     89  O   UNL     1       4.588  11.427   2.684  1.00  0.00    -0.237 OA
ATOM     90  O   UNL     1       2.517  10.138   2.260  1.00  0.00    -0.237 OA
ATOM     91  O   UNL     1       3.651   9.973   4.443  1.00  0.00    -0.744 OA
ENDBRANCH  84  88
ENDBRANCH  57  81
BRANCH  69  92
ATOM     92  C   UNL     1       9.798  12.457  -3.162  1.00  0.00     0.023 A 
ATOM     93  C   UNL     1      10.841  12.582  -2.227  1.00  0.00     0.031 A 
ATOM     94  C   UNL     1       9.303  13.628  -3.764  1.00  0.00     0.131 A 
ATOM     95  C   UNL     1      11.319  13.854  -1.882  1.00  0.00     0.055 A 
ATOM     96  C   UNL     1       9.822  14.886  -3.458  1.00  0.00     0.041 A 
ATOM     97  F   UNL     1       8.307  13.565  -4.662  1.00  0.00    -0.206 F 
ATOM     98  C   UNL     1      10.827  15.006  -2.503  1.00  0.00     0.022 A 
BRANCH  95  99
ATOM     99  S   UNL     1      12.537  13.995  -0.545  1.00  0.00     0.124 S 
ATOM    100  O   UNL     1      11.827  13.390   0.578  1.00  0.00    -0.237 OA
ATOM    101  O   UNL     1      13.666  13.235  -1.070  1.00  0.00    -0.237 OA
ATOM    102  O   UNL     1      12.759  15.436  -0.433  1.00  0.00    -0.744 OA
ENDBRANCH  95  99
ENDBRANCH  69  92
ENDBRANCH  43  44
ENDBRANCH  36  38
ENDBRANCH  35  36
ENDBRANCH  34  35
ENDBRANCH  33  34
ENDBRANCH  32  33
ENDBRANCH  31  32
ENDBRANCH  30  31
ENDBRANCH  29  30
ENDBRANCH   1  29
TORSDOF 25
