REMARK SMILES O=C(C[NH+]1CC[NH+](Cc2cc(Cl)ccc2[N+](=O)[O-])CC1)OCCOCCOCCOCCOC(=O)c1ccc(-c2c3nc(c(-c4cc(S(=O)(=O)[O-])ccc4F)c4ccc([nH]4)c(-c4cc(S(=O)(=O)[O-])ccc4F)c4nc(c(-c5cc(S(=O)(=O)[O-])ccc5F)c5ccc2[nH]5)C=C4)C=C3)cc1
REMARK SMILES IDX 26 1 25 2 24 3 23 4 22 5 21 6 2 7 1 8 3 9 4 10 5 11 20 12
REMARK SMILES IDX 6 14 19 15 7 16 8 18 9 19 10 20 15 21 11 22 14 23 12 24
REMARK SMILES IDX 13 25 16 26 17 27 18 28 27 29 28 30 29 31 30 32 31 33 32 34
REMARK SMILES IDX 33 35 34 36 35 37 36 38 37 39 98 40 38 41 97 42 39 43 40 44
REMARK SMILES IDX 41 45 91 46 42 47 96 48 90 49 92 50 43 51 95 52 89 53 88 54
REMARK SMILES IDX 44 56 76 57 56 58 75 59 57 60 60 61 74 62 93 63 58 64 59 65
REMARK SMILES IDX 73 67 94 68 61 69 45 70 46 71 54 72 47 73 53 74 55 75 52 76
REMARK SMILES IDX 48 77 49 78 50 79 51 80 77 81 78 82 86 83 79 84 85 85 87 86
REMARK SMILES IDX 84 87 80 88 81 89 82 90 83 91 62 92 63 93 71 94 64 95 70 96
REMARK SMILES IDX 72 97 69 98 65 99 66 100 67 101 68 102
REMARK H PARENT 4 13 7 17 92 55 60 66
REMARK Flexibility Score: inf
ROOT
ATOM      1  C   UNL     1       1.827  -2.179   1.793  1.00  0.00     0.188 C 
ENDROOT
BRANCH   1   2
ATOM      2  C   UNL     1       2.756  -2.267   0.581  1.00  0.00     0.188 C 
BRANCH   2   3
ATOM      3  O   UNL     1       3.962  -1.502   0.560  1.00  0.00    -0.376 OA
BRANCH   3   4
ATOM      4  C   UNL     1       4.099  -0.386   1.427  1.00  0.00     0.202 C 
BRANCH   4   5
ATOM      5  C   UNL     1       3.318   0.835   1.013  1.00  0.00     0.261 C 
BRANCH   5   6
ATOM      6  O   UNL     1       1.956   0.609   0.671  1.00  0.00    -0.459 OA
BRANCH   6   7
ATOM      7  C   UNL     1       1.543   1.012  -0.561  1.00  0.00     0.361 C 
ATOM      8  O   UNL     1       0.477   1.611  -0.685  1.00  0.00    -0.245 OA
BRANCH   7   9
ATOM      9  C   UNL     1       2.343   0.518  -1.769  1.00  0.00     0.386 C 
BRANCH   9  10
ATOM     10  N   UNL     1       3.442   1.331  -2.296  1.00  0.00    -0.316 N 
ATOM     11  C   UNL     1       3.621   2.722  -1.913  1.00  0.00     0.325 C 
ATOM     12  C   UNL     1       4.695   0.630  -2.546  1.00  0.00     0.325 C 
ATOM     13  H   UNL     1       2.979   1.490  -3.191  1.00  0.00     0.348 HD
ATOM     14  C   UNL     1       4.782   3.042  -0.923  1.00  0.00     0.324 C 
ATOM     15  C   UNL     1       5.751   0.772  -1.436  1.00  0.00     0.324 C 
ATOM     16  N   UNL     1       5.915   2.104  -0.834  1.00  0.00    -0.322 N 
ATOM     17  H   UNL     1       5.861   1.867   0.156  1.00  0.00     0.348 HD
BRANCH  16  18
ATOM     18  C   UNL     1       7.254   2.696  -0.965  1.00  0.00     0.306 C 
BRANCH  18  19
ATOM     19  C   UNL     1       7.630   2.850  -2.430  1.00  0.00     0.085 A 
ATOM     20  C   UNL     1       6.923   3.834  -3.151  1.00  0.00     0.037 A 
ATOM     21  C   UNL     1       8.348   1.881  -3.161  1.00  0.00     0.278 A 
ATOM     22  C   UNL     1       6.718   3.702  -4.519  1.00  0.00     0.042 A 
ATOM     23  C   UNL     1       8.155   1.768  -4.549  1.00  0.00     0.088 A 
ATOM     24  Cl  UNL     1       5.644   4.779  -5.320  1.00  0.00    -0.084 Cl
ATOM     25  C   UNL     1       7.298   2.647  -5.213  1.00  0.00     0.027 A 
BRANCH  21  26
ATOM     26  N   UNL     1       9.264   0.920  -2.519  1.00  0.00     0.063 N 
ATOM     27  O   UNL     1       9.506  -0.130  -3.132  1.00  0.00    -0.258 OA
ATOM     28  O   UNL     1       9.774   1.231  -1.437  1.00  0.00    -0.258 OA
ENDBRANCH  21  26
ENDBRANCH  18  19
ENDBRANCH  16  18
ENDBRANCH   9  10
ENDBRANCH   7   9
ENDBRANCH   6   7
ENDBRANCH   5   6
ENDBRANCH   4   5
ENDBRANCH   3   4
ENDBRANCH   2   3
ENDBRANCH   1   2
BRANCH   1  29
ATOM     29  O   UNL     1       2.145  -3.067   2.848  1.00  0.00    -0.377 OA
BRANCH  29  30
ATOM     30  C   UNL     1       3.359  -2.823   3.537  1.00  0.00     0.188 C 
BRANCH  30  31
ATOM     31  C   UNL     1       4.620  -3.436   2.891  1.00  0.00     0.188 C 
BRANCH  31  32
ATOM     32  O   UNL     1       4.613  -4.766   2.378  1.00  0.00    -0.376 OA
BRANCH  32  33
ATOM     33  C   UNL     1       3.469  -5.581   2.554  1.00  0.00     0.202 C 
BRANCH  33  34
ATOM     34  C   UNL     1       3.215  -6.139   3.967  1.00  0.00     0.261 C 
BRANCH  34  35
ATOM     35  O   UNL     1       3.543  -5.263   5.058  1.00  0.00    -0.460 OA
BRANCH  35  36
ATOM     36  C   UNL     1       4.856  -5.260   5.430  1.00  0.00     0.338 C 
ATOM     37  O   UNL     1       5.697  -6.037   5.061  1.00  0.00    -0.246 OA
BRANCH  36  38
ATOM     38  C   UNL     1       5.163  -4.007   6.198  1.00  0.00     0.060 A 
ATOM     39  C   UNL     1       6.417  -3.415   5.974  1.00  0.00     0.016 A 
ATOM     40  C   UNL     1       4.268  -3.401   7.089  1.00  0.00     0.016 A 
ATOM     41  C   UNL     1       6.814  -2.285   6.691  1.00  0.00     0.010 A 
ATOM     42  C   UNL     1       4.676  -2.281   7.834  1.00  0.00     0.010 A 
ATOM     43  C   UNL     1       5.981  -1.770   7.690  1.00  0.00    -0.014 A 
BRANCH  43  44
ATOM     44  C   UNL     1       6.636  -1.044   8.816  1.00  0.00     0.031 A 
ATOM     45  C   UNL     1       7.106  -1.895   9.976  1.00  0.00     0.074 A 
ATOM     46  C   UNL     1       6.910   0.273   8.793  1.00  0.00     0.049 A 
ATOM     47  N   UNL     1       7.733  -1.554  11.071  1.00  0.00    -0.248 NA
ATOM     48  C   UNL     1       6.824  -3.337   9.874  1.00  0.00     0.031 C 
ATOM     49  C   UNL     1       6.584   1.193   7.706  1.00  0.00     0.029 A 
ATOM     50  N   UNL     1       7.546   1.064   9.721  1.00  0.00    -0.354 N 
ATOM     51  C   UNL     1       7.911  -2.736  11.785  1.00  0.00     0.074 A 
ATOM     52  C   UNL     1       7.286  -3.792  11.024  1.00  0.00     0.031 C 
ATOM     53  C   UNL     1       7.024   2.424   8.030  1.00  0.00     0.029 A 
ATOM     54  C   UNL     1       7.639   2.388   9.358  1.00  0.00     0.049 A 
ATOM     55  H   UNL     1       7.904   0.714  10.569  1.00  0.00     0.167 HD
ATOM     56  C   UNL     1       8.550  -2.935  12.963  1.00  0.00     0.034 A 
ATOM     57  C   UNL     1       8.152   3.443  10.028  1.00  0.00     0.034 A 
ATOM     58  C   UNL     1       9.165  -1.878  13.721  1.00  0.00     0.049 A 
ATOM     59  C   UNL     1       8.773   3.217  11.391  1.00  0.00     0.074 A 
ATOM     60  C   UNL     1       9.836  -1.961  14.927  1.00  0.00     0.029 A 
ATOM     61  N   UNL     1       9.172  -0.540  13.350  1.00  0.00    -0.354 N 
ATOM     62  N   UNL     1       8.933   2.095  12.056  1.00  0.00    -0.248 NA
ATOM     63  C   UNL     1       9.292   4.402  12.087  1.00  0.00     0.031 C 
ATOM     64  C   UNL     1      10.179  -0.665  15.324  1.00  0.00     0.029 A 
ATOM     65  C   UNL     1       9.805   0.218  14.322  1.00  0.00     0.049 A 
ATOM     66  H   UNL     1       8.785  -0.182  12.519  1.00  0.00     0.167 HD
ATOM     67  C   UNL     1       9.611   2.437  13.226  1.00  0.00     0.074 A 
ATOM     68  C   UNL     1       9.836   3.866  13.169  1.00  0.00     0.031 C 
ATOM     69  C   UNL     1      10.020   1.644  14.251  1.00  0.00     0.034 A 
BRANCH  56  70
ATOM     70  C   UNL     1       8.537  -4.338  13.523  1.00  0.00     0.023 A 
ATOM     71  C   UNL     1       9.152  -5.414  12.857  1.00  0.00     0.031 A 
ATOM     72  C   UNL     1       7.835  -4.614  14.709  1.00  0.00     0.131 A 
ATOM     73  C   UNL     1       8.982  -6.722  13.337  1.00  0.00     0.055 A 
ATOM     74  C   UNL     1       7.745  -5.905  15.229  1.00  0.00     0.041 A 
ATOM     75  F   UNL     1       7.200  -3.633  15.370  1.00  0.00    -0.206 F 
ATOM     76  C   UNL     1       8.306  -6.972  14.533  1.00  0.00     0.022 A 
BRANCH  73  77
ATOM     77  S   UNL     1       9.511  -8.108  12.291  1.00  0.00     0.124 S 
ATOM     78  O   UNL     1       8.727  -7.878  11.080  1.00  0.00    -0.237 OA
ATOM     79  O   UNL     1      10.948  -7.885  12.175  1.00  0.00    -0.237 OA
ATOM     80  O   UNL     1       9.122  -9.287  13.062  1.00  0.00    -0.744 OA
ENDBRANCH  73  77
ENDBRANCH  56  70
BRANCH  57  81
ATOM     81  C   UNL     1       8.083   4.823   9.457  1.00  0.00     0.023 A 
ATOM     82  C   UNL     1       9.247   5.559   9.176  1.00  0.00     0.031 A 
ATOM     83  C   UNL     1       6.844   5.461   9.265  1.00  0.00     0.131 A 
ATOM     84  C   UNL     1       9.150   6.900   8.768  1.00  0.00     0.055 A 
ATOM     85  C   UNL     1       6.751   6.777   8.808  1.00  0.00     0.041 A 
ATOM     86  F   UNL     1       5.698   4.811   9.525  1.00  0.00    -0.206 F 
ATOM     87  C   UNL     1       7.909   7.510   8.570  1.00  0.00     0.022 A 
BRANCH  84  88
ATOM     88  S   UNL     1      10.673   7.872   8.585  1.00  0.00     0.124 S 
ATOM     89  O   UNL     1      11.241   7.787   9.925  1.00  0.00    -0.237 OA
ATOM     90  O   UNL     1      11.376   7.135   7.541  1.00  0.00    -0.237 OA
ATOM     91  O   UNL     1      10.188   9.193   8.193  1.00  0.00    -0.744 OA
ENDBRANCH  84  88
ENDBRANCH  57  81
BRANCH  69  92
ATOM     92  C   UNL     1      10.810   2.297  15.362  1.00  0.00     0.023 A 
ATOM     93  C   UNL     1      10.246   3.267  16.209  1.00  0.00     0.031 A 
ATOM     94  C   UNL     1      12.157   1.946  15.568  1.00  0.00     0.131 A 
ATOM     95  C   UNL     1      11.043   3.902  17.174  1.00  0.00     0.055 A 
ATOM     96  C   UNL     1      12.925   2.529  16.576  1.00  0.00     0.041 A 
ATOM     97  F   UNL     1      12.750   1.025  14.791  1.00  0.00    -0.206 F 
ATOM     98  C   UNL     1      12.374   3.526  17.375  1.00  0.00     0.022 A 
BRANCH  95  99
ATOM     99  S   UNL     1      10.351   5.308  18.087  1.00  0.00     0.124 S 
ATOM    100  O   UNL     1       9.945   6.201  17.006  1.00  0.00    -0.237 OA
ATOM    101  O   UNL     1       9.268   4.687  18.842  1.00  0.00    -0.237 OA
ATOM    102  O   UNL     1      11.476   5.782  18.892  1.00  0.00    -0.744 OA
ENDBRANCH  95  99
ENDBRANCH  69  92
ENDBRANCH  43  44
ENDBRANCH  36  38
ENDBRANCH  35  36
ENDBRANCH  34  35
ENDBRANCH  33  34
ENDBRANCH  32  33
ENDBRANCH  31  32
ENDBRANCH  30  31
ENDBRANCH  29  30
ENDBRANCH   1  29
TORSDOF 27
