REMARK SMILES CC1(C)CCCN(c2cncc(C(=O)OCCOCCOCCOCCOC(=O)c3ccc(-c4c5nc(c(-c6cc(S(=O)(=O)[O-])ccc6F)c6ccc([nH]6)c(-c6cc(S(=O)(=O)[O-])ccc6F)c6nc(c(-c7cc(S(=O)(=O)[O-])ccc7F)c7ccc4[nH]7)C=C6)C=C5)cc3)n2)CC1
REMARK SMILES IDX 20 1 19 2 18 3 17 4 16 5 15 6 13 7 14 8 12 9 8 10 9 11 93 12
REMARK SMILES IDX 10 13 11 14 7 15 94 16 95 17 2 18 1 19 3 20 4 21 6 23 5 24
REMARK SMILES IDX 21 26 22 27 23 28 24 29 25 30 26 31 27 32 28 33 29 34 30 35
REMARK SMILES IDX 31 36 92 37 32 38 91 39 33 40 34 41 35 42 85 43 36 44 90 45
REMARK SMILES IDX 84 46 86 47 37 48 89 49 83 50 82 51 38 53 70 54 50 55 69 56
REMARK SMILES IDX 51 57 54 58 68 59 87 60 52 61 53 62 67 64 88 65 55 66 39 67
REMARK SMILES IDX 40 68 48 69 41 70 47 71 49 72 46 73 42 74 43 75 44 76 45 77
REMARK SMILES IDX 71 78 72 79 80 80 73 81 79 82 81 83 78 84 74 85 75 86 76 87
REMARK SMILES IDX 77 88 56 89 57 90 65 91 58 92 64 93 66 94 63 95 59 96 60 97
REMARK SMILES IDX 61 98 62 99
REMARK H PARENT 86 52 54 63
REMARK Flexibility Score: 80.00
ROOT
ATOM      1  C   UNL     1      -1.227  -8.232   2.020  1.00  0.00     0.188 C 
ENDROOT
BRANCH   1   2
ATOM      2  C   UNL     1      -2.141  -9.229   2.779  1.00  0.00     0.188 C 
BRANCH   2   3
ATOM      3  O   UNL     1      -3.257  -9.703   2.049  1.00  0.00    -0.376 OA
BRANCH   3   4
ATOM      4  C   UNL     1      -4.558  -9.272   2.391  1.00  0.00     0.202 C 
BRANCH   4   5
ATOM      5  C   UNL     1      -4.884  -7.785   2.200  1.00  0.00     0.261 C 
BRANCH   5   6
ATOM      6  O   UNL     1      -3.924  -6.866   2.738  1.00  0.00    -0.458 OA
BRANCH   6   7
ATOM      7  C   UNL     1      -3.874  -6.721   4.083  1.00  0.00     0.358 C 
ATOM      8  O   UNL     1      -4.562  -7.309   4.901  1.00  0.00    -0.244 OA
BRANCH   7   9
ATOM      9  C   UNL     1      -2.665  -5.929   4.417  1.00  0.00     0.169 A 
ATOM     10  C   UNL     1      -1.153  -4.261   3.872  1.00  0.00     0.148 A 
ATOM     11  C   UNL     1      -0.271  -4.848   4.792  1.00  0.00     0.157 A 
ATOM     12  N   UNL     1      -2.372  -4.821   3.682  1.00  0.00    -0.221 NA
ATOM     13  N   UNL     1      -0.556  -5.942   5.551  1.00  0.00    -0.258 NA
ATOM     14  C   UNL     1      -1.785  -6.464   5.343  1.00  0.00     0.147 A 
BRANCH  10  15
ATOM     15  N   UNL     1      -0.819  -3.102   3.178  1.00  0.00    -0.355 N 
BRANCH  15  16
ATOM     16  C   UNL     1       0.510  -3.005   2.580  1.00  0.00     0.118 C 
BRANCH  16  17
ATOM     17  C   UNL     1       0.604  -2.163   1.302  1.00  0.00     0.028 C 
BRANCH  17  18
ATOM     18  C   UNL     1       0.531  -0.622   1.449  1.00  0.00    -0.034 C 
ATOM     19  C   UNL     1       0.914   0.002   0.084  1.00  0.00     0.011 C 
ATOM     20  C   UNL     1       1.543  -0.101   2.488  1.00  0.00     0.011 C 
BRANCH  18  21
ATOM     21  C   UNL     1      -0.893  -0.132   1.785  1.00  0.00     0.008 CG0
ATOM     22  G   UNL     1      -1.556  -0.762   3.006  1.00  0.00     0.000 G0
ENDBRANCH  18  21
ENDBRANCH  17  18
ENDBRANCH  16  17
ENDBRANCH  15  16
BRANCH  15  23
ATOM     23  C   UNL     1      -1.922  -2.230   2.798  1.00  0.00     0.118 C 
BRANCH  23  24
ATOM     24  C   UNL     1      -1.556  -0.762   3.006  1.00  0.00     0.022 CG0
ATOM     25  G   UNL     1      -0.893  -0.132   1.785  1.00  0.00     0.000 G0
ENDBRANCH  23  24
ENDBRANCH  15  23
ENDBRANCH  10  15
ENDBRANCH   7   9
ENDBRANCH   6   7
ENDBRANCH   5   6
ENDBRANCH   4   5
ENDBRANCH   3   4
ENDBRANCH   2   3
ENDBRANCH   1   2
BRANCH   1  26
ATOM     26  O   UNL     1      -1.184  -8.124   0.600  1.00  0.00    -0.377 OA
BRANCH  26  27
ATOM     27  C   UNL     1      -2.043  -8.930  -0.191  1.00  0.00     0.188 C 
BRANCH  27  28
ATOM     28  C   UNL     1      -1.743 -10.441  -0.139  1.00  0.00     0.188 C 
BRANCH  28  29
ATOM     29  O   UNL     1      -0.759 -10.770   0.835  1.00  0.00    -0.376 OA
BRANCH  29  30
ATOM     30  C   UNL     1       0.561 -10.998   0.371  1.00  0.00     0.202 C 
BRANCH  30  31
ATOM     31  C   UNL     1       1.275  -9.907  -0.446  1.00  0.00     0.261 C 
BRANCH  31  32
ATOM     32  O   UNL     1       0.576  -9.363  -1.575  1.00  0.00    -0.460 OA
BRANCH  32  33
ATOM     33  C   UNL     1       0.321 -10.168  -2.628  1.00  0.00     0.338 C 
ATOM     34  O   UNL     1       0.621 -11.344  -2.742  1.00  0.00    -0.246 OA
BRANCH  33  35
ATOM     35  C   UNL     1      -0.560  -9.406  -3.543  1.00  0.00     0.060 A 
ATOM     36  C   UNL     1      -1.874  -9.841  -3.767  1.00  0.00     0.016 A 
ATOM     37  C   UNL     1      -0.101  -8.223  -4.125  1.00  0.00     0.016 A 
ATOM     38  C   UNL     1      -2.733  -9.087  -4.573  1.00  0.00     0.010 A 
ATOM     39  C   UNL     1      -0.953  -7.486  -4.952  1.00  0.00     0.010 A 
ATOM     40  C   UNL     1      -2.269  -7.918  -5.191  1.00  0.00    -0.014 A 
BRANCH  40  41
ATOM     41  C   UNL     1      -3.091  -7.218  -6.212  1.00  0.00     0.031 A 
ATOM     42  C   UNL     1      -2.812  -7.498  -7.663  1.00  0.00     0.074 A 
ATOM     43  C   UNL     1      -4.049  -6.340  -5.862  1.00  0.00     0.049 A 
ATOM     44  N   UNL     1      -3.286  -6.911  -8.729  1.00  0.00    -0.248 NA
ATOM     45  C   UNL     1      -1.864  -8.589  -7.943  1.00  0.00     0.031 C 
ATOM     46  C   UNL     1      -4.458  -6.034  -4.492  1.00  0.00     0.029 A 
ATOM     47  N   UNL     1      -4.843  -5.529  -6.637  1.00  0.00    -0.354 N 
ATOM     48  C   UNL     1      -2.697  -7.559  -9.809  1.00  0.00     0.074 A 
ATOM     49  C   UNL     1      -1.804  -8.560  -9.266  1.00  0.00     0.031 C 
ATOM     50  C   UNL     1      -5.414  -5.089  -4.524  1.00  0.00     0.029 A 
ATOM     51  C   UNL     1      -5.647  -4.681  -5.909  1.00  0.00     0.049 A 
ATOM     52  H   UNL     1      -4.838  -5.552  -7.622  1.00  0.00     0.167 HD
ATOM     53  C   UNL     1      -2.892  -7.344 -11.133  1.00  0.00     0.034 A 
ATOM     54  C   UNL     1      -6.441  -3.667  -6.314  1.00  0.00     0.034 A 
ATOM     55  C   UNL     1      -3.770  -6.331 -11.660  1.00  0.00     0.049 A 
ATOM     56  C   UNL     1      -6.527  -3.350  -7.794  1.00  0.00     0.074 A 
ATOM     57  C   UNL     1      -4.034  -6.025 -12.984  1.00  0.00     0.029 A 
ATOM     58  N   UNL     1      -4.518  -5.450 -10.892  1.00  0.00    -0.354 N 
ATOM     59  N   UNL     1      -5.963  -3.968  -8.807  1.00  0.00    -0.248 NA
ATOM     60  C   UNL     1      -7.350  -2.195  -8.183  1.00  0.00     0.031 C 
ATOM     61  C   UNL     1      -4.880  -4.913 -13.015  1.00  0.00     0.029 A 
ATOM     62  C   UNL     1      -5.211  -4.575 -11.713  1.00  0.00     0.049 A 
ATOM     63  H   UNL     1      -4.551  -5.446  -9.908  1.00  0.00     0.167 HD
ATOM     64  C   UNL     1      -6.395  -3.296  -9.950  1.00  0.00     0.074 A 
ATOM     65  C   UNL     1      -7.278  -2.241  -9.505  1.00  0.00     0.031 C 
ATOM     66  C   UNL     1      -6.090  -3.528 -11.252  1.00  0.00     0.034 A 
BRANCH  53  67
ATOM     67  C   UNL     1      -2.110  -8.195 -12.100  1.00  0.00     0.023 A 
ATOM     68  C   UNL     1      -2.327  -9.580 -12.201  1.00  0.00     0.031 A 
ATOM     69  C   UNL     1      -1.140  -7.615 -12.935  1.00  0.00     0.131 A 
ATOM     70  C   UNL     1      -1.549 -10.346 -13.082  1.00  0.00     0.055 A 
ATOM     71  C   UNL     1      -0.421  -8.371 -13.863  1.00  0.00     0.041 A 
ATOM     72  F   UNL     1      -0.874  -6.301 -12.863  1.00  0.00    -0.206 F 
ATOM     73  C   UNL     1      -0.617  -9.747 -13.933  1.00  0.00     0.022 A 
BRANCH  70  74
ATOM     74  S   UNL     1      -1.692 -12.152 -13.017  1.00  0.00     0.124 S 
ATOM     75  O   UNL     1      -1.307 -12.429 -11.635  1.00  0.00    -0.237 OA
ATOM     76  O   UNL     1      -3.096 -12.370 -13.344  1.00  0.00    -0.237 OA
ATOM     77  O   UNL     1      -0.738 -12.608 -14.026  1.00  0.00    -0.744 OA
ENDBRANCH  70  74
ENDBRANCH  53  67
BRANCH  54  78
ATOM     78  C   UNL     1      -7.174  -2.816  -5.327  1.00  0.00     0.023 A 
ATOM     79  C   UNL     1      -8.572  -2.689  -5.384  1.00  0.00     0.031 A 
ATOM     80  C   UNL     1      -6.484  -2.028  -4.388  1.00  0.00     0.131 A 
ATOM     81  C   UNL     1      -9.225  -1.745  -4.574  1.00  0.00     0.055 A 
ATOM     82  C   UNL     1      -7.146  -1.145  -3.532  1.00  0.00     0.041 A 
ATOM     83  F   UNL     1      -5.146  -2.093  -4.297  1.00  0.00    -0.206 F 
ATOM     84  C   UNL     1      -8.523  -0.985  -3.636  1.00  0.00     0.022 A 
BRANCH  81  85
ATOM     85  S   UNL     1     -10.986  -1.423  -4.868  1.00  0.00     0.124 S 
ATOM     86  O   UNL     1     -10.986  -1.061  -6.281  1.00  0.00    -0.237 OA
ATOM     87  O   UNL     1     -11.589  -2.709  -4.534  1.00  0.00    -0.237 OA
ATOM     88  O   UNL     1     -11.291  -0.333  -3.944  1.00  0.00    -0.744 OA
ENDBRANCH  81  85
ENDBRANCH  54  78
BRANCH  66  89
ATOM     89  C   UNL     1      -6.752  -2.654 -12.289  1.00  0.00     0.023 A 
ATOM     90  C   UNL     1      -6.450  -1.286 -12.404  1.00  0.00     0.031 A 
ATOM     91  C   UNL     1      -7.682  -3.204 -13.190  1.00  0.00     0.131 A 
ATOM     92  C   UNL     1      -7.103  -0.505 -13.370  1.00  0.00     0.055 A 
ATOM     93  C   UNL     1      -8.282  -2.436 -14.188  1.00  0.00     0.041 A 
ATOM     94  F   UNL     1      -8.008  -4.505 -13.126  1.00  0.00    -0.206 F 
ATOM     95  C   UNL     1      -8.001  -1.075 -14.276  1.00  0.00     0.022 A 
BRANCH  92  96
ATOM     96  S   UNL     1      -6.814   1.285 -13.385  1.00  0.00     0.124 S 
ATOM     97  O   UNL     1      -7.282   1.680 -12.060  1.00  0.00    -0.237 OA
ATOM     98  O   UNL     1      -5.373   1.369 -13.602  1.00  0.00    -0.237 OA
ATOM     99  O   UNL     1      -7.635   1.757 -14.499  1.00  0.00    -0.744 OA
ENDBRANCH  92  96
ENDBRANCH  66  89
ENDBRANCH  40  41
ENDBRANCH  33  35
ENDBRANCH  32  33
ENDBRANCH  31  32
ENDBRANCH  30  31
ENDBRANCH  29  30
ENDBRANCH  28  29
ENDBRANCH  27  28
ENDBRANCH  26  27
ENDBRANCH   1  26
TORSDOF 24
