REMARK SMILES CN1C(=O)/C(=C\c2ccc(OCC(=O)OCCOCCOCCOCCOC(=O)c3ccc(-c4c5nc(c(-c6cc(S(=O)(=O)[O-])ccc6F)c6ccc([nH]6)c(-c6cc(S(=O)(=O)[O-])ccc6F)c6nc(c(-c7cc(S(=O)(=O)[O-])ccc7F)c7ccc4[nH]7)C=C6)C=C5)cc3)cc2)C(O)=NC1=S
REMARK SMILES IDX 20 1 19 2 18 3 17 4 16 5 15 6 13 7 14 8 12 9 11 10 10 11
REMARK SMILES IDX 7 12 8 13 94 14 9 15 93 16 6 17 1 18 2 19 3 20 98 21 4 22
REMARK SMILES IDX 5 23 97 24 99 25 95 26 96 27 21 29 22 30 23 31 24 32 25 33
REMARK SMILES IDX 26 34 27 35 28 36 29 37 30 38 31 39 92 40 32 41 91 42 33 43
REMARK SMILES IDX 34 44 35 45 85 46 36 47 90 48 84 49 86 50 37 51 89 52 83 53
REMARK SMILES IDX 82 54 38 56 70 57 50 58 69 59 51 60 54 61 68 62 87 63 52 64
REMARK SMILES IDX 53 65 67 67 88 68 55 69 39 70 40 71 48 72 41 73 47 74 49 75
REMARK SMILES IDX 46 76 42 77 43 78 44 79 45 80 71 81 72 82 80 83 73 84 79 85
REMARK SMILES IDX 81 86 78 87 74 88 75 89 76 90 77 91 56 92 57 93 65 94 58 95
REMARK SMILES IDX 64 96 66 97 63 98 59 99 60 100 61 101 62 102
REMARK H PARENT 96 28 86 55 54 66
REMARK Flexibility Score: inf
ROOT
ATOM      1  C   UNL     1       3.194  -1.925   3.852  1.00  0.00     0.188 C 
ENDROOT
BRANCH   1   2
ATOM      2  C   UNL     1       1.708  -1.970   4.271  1.00  0.00     0.188 C 
BRANCH   2   3
ATOM      3  O   UNL     1       1.323  -1.552   5.580  1.00  0.00    -0.376 OA
BRANCH   3   4
ATOM      4  C   UNL     1       2.374  -1.286   6.488  1.00  0.00     0.202 C 
BRANCH   4   5
ATOM      5  C   UNL     1       2.984  -2.550   7.116  1.00  0.00     0.261 C 
BRANCH   5   6
ATOM      6  O   UNL     1       3.079  -3.685   6.216  1.00  0.00    -0.461 OA
BRANCH   6   7
ATOM      7  C   UNL     1       2.021  -4.544   6.187  1.00  0.00     0.344 C 
ATOM      8  O   UNL     1       1.060  -4.491   6.946  1.00  0.00    -0.248 OA
BRANCH   7   9
ATOM      9  C   UNL     1       2.194  -5.668   5.140  1.00  0.00     0.351 C 
BRANCH   9  10
ATOM     10  O   UNL     1       2.683  -5.383   3.833  1.00  0.00    -0.482 OA
BRANCH  10  11
ATOM     11  C   UNL     1       1.858  -5.489   2.740  1.00  0.00     0.120 A 
ATOM     12  C   UNL     1       0.467  -5.245   0.238  1.00  0.00    -0.024 A 
ATOM     13  C   UNL     1       1.799  -5.674   0.290  1.00  0.00     0.012 A 
ATOM     14  C   UNL     1      -0.186  -5.064   1.471  1.00  0.00     0.012 A 
ATOM     15  C   UNL     1       2.491  -5.762   1.521  1.00  0.00     0.047 A 
ATOM     16  C   UNL     1       0.496  -5.195   2.710  1.00  0.00     0.047 A 
BRANCH  12  17
ATOM     17  C   UNL     1      -0.256  -5.080  -1.054  1.00  0.00     0.027 C 
ATOM     18  C   UNL     1      -0.814  -0.385  -1.323  1.00  0.00     0.156 C 
ATOM     19  N   UNL     1      -1.068  -1.695  -1.933  1.00  0.00    -0.286 N 
ATOM     20  C   UNL     1      -0.044  -2.613  -1.794  1.00  0.00     0.265 C 
ATOM     21  C   UNL     1      -2.113  -1.968  -2.820  1.00  0.00     0.205 C 
ATOM     22  O   UNL     1       1.139  -2.313  -1.827  1.00  0.00    -0.268 OA
ATOM     23  C   UNL     1      -0.476  -4.022  -1.876  1.00  0.00     0.103 C 
ATOM     24  N   UNL     1      -2.123  -3.193  -3.465  1.00  0.00    -0.184 NA
ATOM     25  S   UNL     1      -3.333  -0.855  -3.193  1.00  0.00    -0.038 S 
ATOM     26  C   UNL     1      -1.364  -4.135  -3.034  1.00  0.00     0.226 C 
BRANCH  26  27
ATOM     27  O   UNL     1      -1.288  -5.287  -3.723  1.00  0.00    -0.493 OA
ATOM     28  H   UNL     1      -0.737  -5.980  -3.416  1.00  0.00     0.295 HD
ENDBRANCH  26  27
ENDBRANCH  12  17
ENDBRANCH  10  11
ENDBRANCH   9  10
ENDBRANCH   7   9
ENDBRANCH   6   7
ENDBRANCH   5   6
ENDBRANCH   4   5
ENDBRANCH   3   4
ENDBRANCH   2   3
ENDBRANCH   1   2
BRANCH   1  29
ATOM     29  O   UNL     1       3.627  -0.591   3.610  1.00  0.00    -0.377 OA
BRANCH  29  30
ATOM     30  C   UNL     1       3.822  -0.294   2.231  1.00  0.00     0.188 C 
BRANCH  30  31
ATOM     31  C   UNL     1       2.521   0.087   1.527  1.00  0.00     0.188 C 
BRANCH  31  32
ATOM     32  O   UNL     1       1.494  -0.881   1.391  1.00  0.00    -0.376 OA
BRANCH  32  33
ATOM     33  C   UNL     1       1.736  -2.213   0.982  1.00  0.00     0.202 C 
BRANCH  33  34
ATOM     34  C   UNL     1       2.944  -2.630   0.153  1.00  0.00     0.261 C 
BRANCH  34  35
ATOM     35  O   UNL     1       3.397  -1.561  -0.643  1.00  0.00    -0.460 OA
BRANCH  35  36
ATOM     36  C   UNL     1       4.138  -1.919  -1.709  1.00  0.00     0.338 C 
ATOM     37  O   UNL     1       4.223  -3.012  -2.252  1.00  0.00    -0.246 OA
BRANCH  36  38
ATOM     38  C   UNL     1       5.136  -0.850  -1.754  1.00  0.00     0.060 A 
ATOM     39  C   UNL     1       4.776   0.472  -1.435  1.00  0.00     0.016 A 
ATOM     40  C   UNL     1       6.467  -1.251  -1.841  1.00  0.00     0.016 A 
ATOM     41  C   UNL     1       5.760   1.388  -1.117  1.00  0.00     0.010 A 
ATOM     42  C   UNL     1       7.452  -0.327  -1.558  1.00  0.00     0.010 A 
ATOM     43  C   UNL     1       7.094   0.984  -1.198  1.00  0.00    -0.014 A 
BRANCH  43  44
ATOM     44  C   UNL     1       8.158   1.988  -1.177  1.00  0.00     0.031 A 
ATOM     45  C   UNL     1       8.552   2.541  -2.507  1.00  0.00     0.074 A 
ATOM     46  C   UNL     1       8.786   2.274  -0.028  1.00  0.00     0.049 A 
ATOM     47  N   UNL     1       9.591   3.252  -2.833  1.00  0.00    -0.248 NA
ATOM     48  C   UNL     1       7.662   2.206  -3.635  1.00  0.00     0.031 C 
ATOM     49  C   UNL     1       8.410   1.772   1.295  1.00  0.00     0.029 A 
ATOM     50  N   UNL     1       9.901   3.028   0.199  1.00  0.00    -0.354 N 
ATOM     51  C   UNL     1       9.496   3.428  -4.208  1.00  0.00     0.074 A 
ATOM     52  C   UNL     1       8.315   2.730  -4.657  1.00  0.00     0.031 C 
ATOM     53  C   UNL     1       9.307   2.209   2.196  1.00  0.00     0.029 A 
ATOM     54  C   UNL     1      10.334   2.979   1.502  1.00  0.00     0.049 A 
ATOM     55  H   UNL     1      10.350   3.554  -0.502  1.00  0.00     0.167 HD
ATOM     56  C   UNL     1      10.340   4.109  -5.016  1.00  0.00     0.034 A 
ATOM     57  C   UNL     1      11.463   3.477   2.038  1.00  0.00     0.034 A 
ATOM     58  C   UNL     1      11.528   4.744  -4.515  1.00  0.00     0.049 A 
ATOM     59  C   UNL     1      12.411   4.200   1.113  1.00  0.00     0.074 A 
ATOM     60  C   UNL     1      12.487   5.463  -5.200  1.00  0.00     0.029 A 
ATOM     61  N   UNL     1      11.925   4.715  -3.179  1.00  0.00    -0.354 N 
ATOM     62  N   UNL     1      12.317   4.382  -0.188  1.00  0.00    -0.248 NA
ATOM     63  C   UNL     1      13.607   4.787   1.721  1.00  0.00     0.031 C 
ATOM     64  C   UNL     1      13.487   5.823  -4.289  1.00  0.00     0.029 A 
ATOM     65  C   UNL     1      13.121   5.387  -3.022  1.00  0.00     0.049 A 
ATOM     66  H   UNL     1      11.424   4.278  -2.453  1.00  0.00     0.167 HD
ATOM     67  C   UNL     1      13.431   5.131  -0.549  1.00  0.00     0.074 A 
ATOM     68  C   UNL     1      14.174   5.372   0.675  1.00  0.00     0.031 C 
ATOM     69  C   UNL     1      13.815   5.587  -1.771  1.00  0.00     0.034 A 
BRANCH  56  70
ATOM     70  C   UNL     1      10.020   4.104  -6.489  1.00  0.00     0.023 A 
ATOM     71  C   UNL     1       8.826   4.662  -6.985  1.00  0.00     0.031 A 
ATOM     72  C   UNL     1      10.857   3.433  -7.395  1.00  0.00     0.131 A 
ATOM     73  C   UNL     1       8.461   4.460  -8.325  1.00  0.00     0.055 A 
ATOM     74  C   UNL     1      10.529   3.309  -8.746  1.00  0.00     0.041 A 
ATOM     75  F   UNL     1      11.990   2.848  -6.974  1.00  0.00    -0.206 F 
ATOM     76  C   UNL     1       9.316   3.808  -9.215  1.00  0.00     0.022 A 
BRANCH  73  77
ATOM     77  S   UNL     1       6.783   4.915  -8.845  1.00  0.00     0.124 S 
ATOM     78  O   UNL     1       5.967   4.053  -7.994  1.00  0.00    -0.237 OA
ATOM     79  O   UNL     1       6.734   6.341  -8.543  1.00  0.00    -0.237 OA
ATOM     80  O   UNL     1       6.762   4.578 -10.267  1.00  0.00    -0.744 OA
ENDBRANCH  73  77
ENDBRANCH  56  70
BRANCH  57  81
ATOM     81  C   UNL     1      11.764   3.296   3.485  1.00  0.00     0.023 A 
ATOM     82  C   UNL     1      11.800   4.397   4.354  1.00  0.00     0.031 A 
ATOM     83  C   UNL     1      12.032   2.024   4.022  1.00  0.00     0.131 A 
ATOM     84  C   UNL     1      12.130   4.214   5.706  1.00  0.00     0.055 A 
ATOM     85  C   UNL     1      12.322   1.841   5.377  1.00  0.00     0.041 A 
ATOM     86  F   UNL     1      12.000   0.935   3.239  1.00  0.00    -0.206 F 
ATOM     87  C   UNL     1      12.382   2.942   6.225  1.00  0.00     0.022 A 
BRANCH  84  88
ATOM     88  S   UNL     1      12.282   5.677   6.768  1.00  0.00     0.124 S 
ATOM     89  O   UNL     1      13.299   6.451   6.065  1.00  0.00    -0.237 OA
ATOM     90  O   UNL     1      10.927   6.216   6.734  1.00  0.00    -0.237 OA
ATOM     91  O   UNL     1      12.698   5.122   8.054  1.00  0.00    -0.744 OA
ENDBRANCH  84  88
ENDBRANCH  57  81
BRANCH  69  92
ATOM     92  C   UNL     1      15.064   6.424  -1.806  1.00  0.00     0.023 A 
ATOM     93  C   UNL     1      16.330   5.862  -1.579  1.00  0.00     0.031 A 
ATOM     94  C   UNL     1      14.977   7.802  -2.066  1.00  0.00     0.131 A 
ATOM     95  C   UNL     1      17.460   6.688  -1.562  1.00  0.00     0.055 A 
ATOM     96  C   UNL     1      16.111   8.609  -2.106  1.00  0.00     0.041 A 
ATOM     97  F   UNL     1      13.786   8.381  -2.291  1.00  0.00    -0.206 F 
ATOM     98  C   UNL     1      17.361   8.055  -1.840  1.00  0.00     0.022 A 
BRANCH  95  99
ATOM     99  S   UNL     1      19.052   5.967  -1.086  1.00  0.00     0.124 S 
ATOM    100  O   UNL     1      18.770   5.471   0.257  1.00  0.00    -0.237 OA
ATOM    101  O   UNL     1      19.253   4.948  -2.112  1.00  0.00    -0.237 OA
ATOM    102  O   UNL     1      19.974   7.099  -1.149  1.00  0.00    -0.744 OA
ENDBRANCH  95  99
ENDBRANCH  69  92
ENDBRANCH  43  44
ENDBRANCH  36  38
ENDBRANCH  35  36
ENDBRANCH  34  35
ENDBRANCH  33  34
ENDBRANCH  32  33
ENDBRANCH  31  32
ENDBRANCH  30  31
ENDBRANCH  29  30
ENDBRANCH   1  29
TORSDOF 27
