REMARK SMILES Cc1cscc1CNC(=O)N[C@@H](C)c1nc(C(=O)OCCOCCOCCOCCOC(=O)c2ccc(-c3c4nc(c(-c5cc(S(=O)(=O)[O-])ccc5F)c5ccc([nH]5)c(-c5cc(S(=O)(=O)[O-])ccc5F)c5nc(c(-c6cc(S(=O)(=O)[O-])ccc6F)c6ccc3[nH]6)C=C5)C=C4)cc2)cs1
REMARK SMILES IDX 24 1 23 2 22 3 21 4 20 5 19 6 17 7 18 8 16 9 14 10 15 11
REMARK SMILES IDX 98 12 97 13 12 14 13 15 11 16 8 17 9 18 10 20 7 22 6 23 1 24
REMARK SMILES IDX 2 25 3 26 4 27 5 28 25 29 26 30 27 31 28 32 29 33 30 34
REMARK SMILES IDX 31 35 32 36 33 37 34 38 35 39 96 40 36 41 95 42 37 43 38 44
REMARK SMILES IDX 39 45 89 46 40 47 94 48 88 49 90 50 41 51 93 52 87 53 86 54
REMARK SMILES IDX 42 56 74 57 54 58 73 59 55 60 58 61 72 62 91 63 56 64 57 65
REMARK SMILES IDX 71 67 92 68 59 69 43 70 44 71 52 72 45 73 51 74 53 75 50 76
REMARK SMILES IDX 46 77 47 78 48 79 49 80 75 81 76 82 84 83 77 84 83 85 85 86
REMARK SMILES IDX 82 87 78 88 79 89 80 90 81 91 60 92 61 93 69 94 62 95 68 96
REMARK SMILES IDX 70 97 67 98 63 99 64 100 65 101 66 102
REMARK H PARENT 8 19 11 21 90 55 58 66
REMARK Flexibility Score: inf
ROOT
ATOM      1  C   UNL     1      -4.717   5.694   2.528  1.00  0.00     0.188 C 
ENDROOT
BRANCH   1   2
ATOM      2  C   UNL     1      -5.404   5.555   3.897  1.00  0.00     0.188 C 
BRANCH   2   3
ATOM      3  O   UNL     1      -5.781   6.788   4.500  1.00  0.00    -0.376 OA
BRANCH   3   4
ATOM      4  C   UNL     1      -5.087   7.149   5.685  1.00  0.00     0.202 C 
BRANCH   4   5
ATOM      5  C   UNL     1      -3.728   7.808   5.415  1.00  0.00     0.261 C 
BRANCH   5   6
ATOM      6  O   UNL     1      -2.778   6.955   4.758  1.00  0.00    -0.458 OA
BRANCH   6   7
ATOM      7  C   UNL     1      -2.417   5.818   5.406  1.00  0.00     0.357 C 
ATOM      8  O   UNL     1      -2.762   5.520   6.544  1.00  0.00    -0.244 OA
BRANCH   7   9
ATOM      9  C   UNL     1      -1.698   4.898   4.527  1.00  0.00     0.159 A 
ATOM     10  C   UNL     1      -0.333   4.297   2.875  1.00  0.00     0.116 A 
ATOM     11  N   UNL     1      -0.833   5.330   3.522  1.00  0.00    -0.232 NA
ATOM     12  S   UNL     1      -0.946   2.762   3.363  1.00  0.00    -0.124 S 
ATOM     13  C   UNL     1      -1.869   3.526   4.580  1.00  0.00     0.102 A 
BRANCH  10  14
ATOM     14  C   UNL     1       0.736   4.371   1.810  1.00  0.00     0.140 C 
ATOM     15  C   UNL     1       1.856   5.320   2.235  1.00  0.00     0.039 C 
BRANCH  14  16
ATOM     16  N   UNL     1       0.147   4.824   0.562  1.00  0.00    -0.329 N 
ATOM     17  N   UNL     1       1.039   3.479  -1.169  1.00  0.00    -0.334 N 
ATOM     18  C   UNL     1       0.330   4.518  -0.723  1.00  0.00     0.315 C 
ATOM     19  H   UNL     1       1.100   3.469  -2.151  1.00  0.00     0.165 HD
ATOM     20  O   UNL     1      -0.216   5.223  -1.573  1.00  0.00    -0.249 OA
ATOM     21  H   UNL     1      -0.543   5.513   0.695  1.00  0.00     0.166 HD
BRANCH  17  22
ATOM     22  C   UNL     1       1.739   2.365  -0.573  1.00  0.00     0.154 C 
BRANCH  22  23
ATOM     23  C   UNL     1       0.817   1.199  -0.319  1.00  0.00    -0.015 A 
ATOM     24  C   UNL     1       2.713  -0.575  -0.031  1.00  0.00     0.045 C 
ATOM     25  C   UNL     1       1.279  -0.157  -0.080  1.00  0.00    -0.035 A 
ATOM     26  C   UNL     1       0.223  -1.032   0.094  1.00  0.00     0.068 A 
ATOM     27  S   UNL     1      -1.296  -0.267   0.002  1.00  0.00    -0.152 S 
ATOM     28  C   UNL     1      -0.568   1.248  -0.286  1.00  0.00     0.070 A 
ENDBRANCH  22  23
ENDBRANCH  17  22
ENDBRANCH  14  16
ENDBRANCH  10  14
ENDBRANCH   7   9
ENDBRANCH   6   7
ENDBRANCH   5   6
ENDBRANCH   4   5
ENDBRANCH   3   4
ENDBRANCH   2   3
ENDBRANCH   1   2
BRANCH   1  29
ATOM     29  O   UNL     1      -4.623   6.974   1.932  1.00  0.00    -0.377 OA
BRANCH  29  30
ATOM     30  C   UNL     1      -5.747   7.842   1.917  1.00  0.00     0.188 C 
BRANCH  30  31
ATOM     31  C   UNL     1      -7.184   7.285   1.951  1.00  0.00     0.188 C 
BRANCH  31  32
ATOM     32  O   UNL     1      -7.308   5.922   1.555  1.00  0.00    -0.376 OA
BRANCH  32  33
ATOM     33  C   UNL     1      -7.980   5.706   0.320  1.00  0.00     0.202 C 
BRANCH  33  34
ATOM     34  C   UNL     1      -7.069   5.911  -0.894  1.00  0.00     0.261 C 
BRANCH  34  35
ATOM     35  O   UNL     1      -6.605   7.257  -1.070  1.00  0.00    -0.460 OA
BRANCH  35  36
ATOM     36  C   UNL     1      -7.548   8.203  -1.274  1.00  0.00     0.338 C 
ATOM     37  O   UNL     1      -8.752   8.039  -1.347  1.00  0.00    -0.246 OA
BRANCH  36  38
ATOM     38  C   UNL     1      -6.882   9.517  -1.230  1.00  0.00     0.060 A 
ATOM     39  C   UNL     1      -7.354  10.489  -0.340  1.00  0.00     0.016 A 
ATOM     40  C   UNL     1      -5.800   9.783  -2.073  1.00  0.00     0.016 A 
ATOM     41  C   UNL     1      -6.767  11.754  -0.322  1.00  0.00     0.010 A 
ATOM     42  C   UNL     1      -5.228  11.054  -2.069  1.00  0.00     0.010 A 
ATOM     43  C   UNL     1      -5.734  12.053  -1.221  1.00  0.00    -0.014 A 
BRANCH  43  44
ATOM     44  C   UNL     1      -5.344  13.462  -1.464  1.00  0.00     0.031 A 
ATOM     45  C   UNL     1      -6.054  14.199  -2.566  1.00  0.00     0.074 A 
ATOM     46  C   UNL     1      -4.371  14.057  -0.754  1.00  0.00     0.049 A 
ATOM     47  N   UNL     1      -5.831  15.391  -3.050  1.00  0.00    -0.248 NA
ATOM     48  C   UNL     1      -7.162  13.479  -3.216  1.00  0.00     0.031 C 
ATOM     49  C   UNL     1      -3.643  13.452   0.358  1.00  0.00     0.029 A 
ATOM     50  N   UNL     1      -3.817  15.306  -0.883  1.00  0.00    -0.354 N 
ATOM     51  C   UNL     1      -6.769  15.566  -4.062  1.00  0.00     0.074 A 
ATOM     52  C   UNL     1      -7.539  14.345  -4.143  1.00  0.00     0.031 C 
ATOM     53  C   UNL     1      -2.719  14.325   0.798  1.00  0.00     0.029 A 
ATOM     54  C   UNL     1      -2.766  15.533  -0.025  1.00  0.00     0.049 A 
ATOM     55  H   UNL     1      -4.140  15.976  -1.528  1.00  0.00     0.167 HD
ATOM     56  C   UNL     1      -6.970  16.649  -4.852  1.00  0.00     0.034 A 
ATOM     57  C   UNL     1      -1.924  16.584   0.057  1.00  0.00     0.034 A 
ATOM     58  C   UNL     1      -6.168  17.844  -4.784  1.00  0.00     0.049 A 
ATOM     59  C   UNL     1      -2.107  17.746  -0.892  1.00  0.00     0.074 A 
ATOM     60  C   UNL     1      -6.270  18.996  -5.542  1.00  0.00     0.029 A 
ATOM     61  N   UNL     1      -5.102  18.031  -3.914  1.00  0.00    -0.354 N 
ATOM     62  N   UNL     1      -3.000  17.905  -1.844  1.00  0.00    -0.248 NA
ATOM     63  C   UNL     1      -1.173  18.872  -0.754  1.00  0.00     0.031 C 
ATOM     64  C   UNL     1      -5.229  19.855  -5.172  1.00  0.00     0.029 A 
ATOM     65  C   UNL     1      -4.523  19.270  -4.133  1.00  0.00     0.049 A 
ATOM     66  H   UNL     1      -4.802  17.379  -3.240  1.00  0.00     0.167 HD
ATOM     67  C   UNL     1      -2.756  19.164  -2.389  1.00  0.00     0.074 A 
ATOM     68  C   UNL     1      -1.634  19.720  -1.662  1.00  0.00     0.031 C 
ATOM     69  C   UNL     1      -3.407  19.808  -3.390  1.00  0.00     0.034 A 
BRANCH  56  70
ATOM     70  C   UNL     1      -8.059  16.545  -5.889  1.00  0.00     0.023 A 
ATOM     71  C   UNL     1      -9.412  16.415  -5.525  1.00  0.00     0.031 A 
ATOM     72  C   UNL     1      -7.737  16.516  -7.256  1.00  0.00     0.131 A 
ATOM     73  C   UNL     1     -10.382  16.187  -6.512  1.00  0.00     0.055 A 
ATOM     74  C   UNL     1      -8.717  16.366  -8.239  1.00  0.00     0.041 A 
ATOM     75  F   UNL     1      -6.460  16.609  -7.660  1.00  0.00    -0.206 F 
ATOM     76  C   UNL     1     -10.047  16.185  -7.868  1.00  0.00     0.022 A 
BRANCH  73  77
ATOM     77  S   UNL     1     -12.063  15.749  -5.991  1.00  0.00     0.124 S 
ATOM     78  O   UNL     1     -11.826  14.536  -5.214  1.00  0.00    -0.237 OA
ATOM     79  O   UNL     1     -12.474  16.924  -5.231  1.00  0.00    -0.237 OA
ATOM     80  O   UNL     1     -12.771  15.544  -7.253  1.00  0.00    -0.744 OA
ENDBRANCH  73  77
ENDBRANCH  56  70
BRANCH  57  81
ATOM     81  C   UNL     1      -0.801  16.580   1.038  1.00  0.00     0.023 A 
ATOM     82  C   UNL     1      -0.745  17.515   2.084  1.00  0.00     0.031 A 
ATOM     83  C   UNL     1       0.267  15.675   0.904  1.00  0.00     0.131 A 
ATOM     84  C   UNL     1       0.377  17.553   2.928  1.00  0.00     0.055 A 
ATOM     85  C   UNL     1       1.357  15.685   1.776  1.00  0.00     0.041 A 
ATOM     86  F   UNL     1       0.265  14.762  -0.080  1.00  0.00    -0.206 F 
ATOM     87  C   UNL     1       1.423  16.638   2.788  1.00  0.00     0.022 A 
BRANCH  84  88
ATOM     88  S   UNL     1       0.489  18.875   4.165  1.00  0.00     0.124 S 
ATOM     89  O   UNL     1       0.431  20.070   3.330  1.00  0.00    -0.237 OA
ATOM     90  O   UNL     1      -0.682  18.614   4.995  1.00  0.00    -0.237 OA
ATOM     91  O   UNL     1       1.776  18.628   4.812  1.00  0.00    -0.744 OA
ENDBRANCH  84  88
ENDBRANCH  57  81
BRANCH  69  92
ATOM     92  C   UNL     1      -2.969  21.216  -3.708  1.00  0.00     0.023 A 
ATOM     93  C   UNL     1      -1.738  21.494  -4.325  1.00  0.00     0.031 A 
ATOM     94  C   UNL     1      -3.819  22.295  -3.401  1.00  0.00     0.131 A 
ATOM     95  C   UNL     1      -1.374  22.825  -4.582  1.00  0.00     0.055 A 
ATOM     96  C   UNL     1      -3.473  23.611  -3.704  1.00  0.00     0.041 A 
ATOM     97  F   UNL     1      -5.007  22.082  -2.813  1.00  0.00    -0.206 F 
ATOM     98  C   UNL     1      -2.240  23.883  -4.290  1.00  0.00     0.022 A 
BRANCH  95  99
ATOM     99  S   UNL     1       0.276  23.166  -5.255  1.00  0.00     0.124 S 
ATOM    100  O   UNL     1       1.146  22.621  -4.217  1.00  0.00    -0.237 OA
ATOM    101  O   UNL     1       0.257  22.436  -6.518  1.00  0.00    -0.237 OA
ATOM    102  O   UNL     1       0.301  24.622  -5.382  1.00  0.00    -0.744 OA
ENDBRANCH  95  99
ENDBRANCH  69  92
ENDBRANCH  43  44
ENDBRANCH  36  38
ENDBRANCH  35  36
ENDBRANCH  34  35
ENDBRANCH  33  34
ENDBRANCH  32  33
ENDBRANCH  31  32
ENDBRANCH  30  31
ENDBRANCH  29  30
ENDBRANCH   1  29
TORSDOF 27
