REMARK SMILES COc1cc(C(=O)N[C@H]2CCCC[C@H]2C(=O)OCCOCCOCCOCCOC(=O)c2ccc(-c3c4nc(c(-c5cc(S(=O)(=O)[O-])ccc5F)c5ccc([nH]5)c(-c5cc(S(=O)(=O)[O-])ccc5F)c5nc(c(-c6cc(S(=O)(=O)[O-])ccc6F)c6ccc3[nH]6)C=C5)C=C4)cc2)cc(Cl)c1OC
REMARK SMILES IDX 23 1 22 2 21 3 20 4 19 5 18 6 17 7 15 8 16 9 14 10 9 11
REMARK SMILES IDX 10 12 11 13 13 14 12 15 8 16 6 17 7 18 5 20 3 21 4 22 98 23
REMARK SMILES IDX 96 24 95 25 97 26 2 27 1 28 99 29 100 30 24 31 25 32 26 33
REMARK SMILES IDX 27 34 28 35 29 36 30 37 31 38 32 39 33 40 94 41 34 42 93 43
REMARK SMILES IDX 35 44 36 45 37 46 87 47 38 48 92 49 86 50 88 51 39 52 91 53
REMARK SMILES IDX 85 54 84 55 40 57 72 58 52 59 71 60 53 61 56 62 70 63 89 64
REMARK SMILES IDX 54 65 55 66 69 68 90 69 57 70 41 71 42 72 50 73 43 74 49 75
REMARK SMILES IDX 51 76 48 77 44 78 45 79 46 80 47 81 73 82 74 83 82 84 75 85
REMARK SMILES IDX 81 86 83 87 80 88 76 89 77 90 78 91 79 92 58 93 59 94 67 95
REMARK SMILES IDX 60 96 66 97 68 98 65 99 61 100 62 101 63 102 64 103
REMARK H PARENT 8 19 88 56 56 67
REMARK Flexibility Score: inf
ROOT
ATOM      1  O   UNL     1       4.461  -5.745  -0.908  1.00  0.00    -0.377 OA
ENDROOT
BRANCH   1   2
ATOM      2  C   UNL     1       5.750  -5.873  -0.335  1.00  0.00     0.188 C 
BRANCH   2   3
ATOM      3  C   UNL     1       6.705  -6.987  -0.809  1.00  0.00     0.188 C 
BRANCH   3   4
ATOM      4  O   UNL     1       6.427  -7.649  -2.023  1.00  0.00    -0.376 OA
BRANCH   4   5
ATOM      5  C   UNL     1       5.426  -8.645  -2.093  1.00  0.00     0.202 C 
BRANCH   5   6
ATOM      6  C   UNL     1       4.674  -9.174  -0.869  1.00  0.00     0.261 C 
BRANCH   6   7
ATOM      7  O   UNL     1       4.244  -8.231   0.127  1.00  0.00    -0.463 OA
BRANCH   7   8
ATOM      8  C   UNL     1       4.791  -8.279   1.378  1.00  0.00     0.311 C 
ATOM      9  O   UNL     1       5.829  -8.867   1.659  1.00  0.00    -0.252 OA
BRANCH   8  10
ATOM     10  C   UNL     1       3.898  -7.636   2.448  1.00  0.00     0.121 C 
ATOM     11  C   UNL     1       2.681  -6.937   1.867  1.00  0.00     0.096 C 
ATOM     12  C   UNL     1       2.124  -6.011   2.977  1.00  0.00     0.026 C 
ATOM     13  C   UNL     1       1.673  -6.790   4.210  1.00  0.00     0.002 C 
ATOM     14  C   UNL     1       3.446  -8.507   3.646  1.00  0.00     0.017 C 
ATOM     15  C   UNL     1       2.769  -7.707   4.753  1.00  0.00     0.001 C 
BRANCH  11  16
ATOM     16  N   UNL     1       1.585  -7.726   1.227  1.00  0.00    -0.348 N 
ATOM     17  C   UNL     1       1.196  -8.954   0.737  1.00  0.00     0.251 C 
ATOM     18  O   UNL     1       0.190  -8.895   0.017  1.00  0.00    -0.269 OA
ATOM     19  H   UNL     1       0.824  -7.114   1.104  1.00  0.00     0.164 HD
BRANCH  17  20
ATOM     20  C   UNL     1       1.751 -10.340   0.949  1.00  0.00     0.045 A 
ATOM     21  C   UNL     1       1.514 -12.761   0.675  1.00  0.00     0.163 A 
ATOM     22  C   UNL     1       1.021 -11.441   0.509  1.00  0.00     0.064 A 
ATOM     23  C   UNL     1       2.714 -13.046   1.351  1.00  0.00     0.179 A 
ATOM     24  C   UNL     1       3.491 -11.958   1.676  1.00  0.00     0.087 A 
ATOM     25  C   UNL     1       2.977 -10.673   1.485  1.00  0.00     0.038 A 
ATOM     26  Cl  UNL     1       5.139 -12.021   2.214  1.00  0.00    -0.080 Cl
BRANCH  21  27
ATOM     27  O   UNL     1       0.807 -13.801   0.121  1.00  0.00    -0.493 OA
ATOM     28  C   UNL     1       0.889 -13.710  -1.307  1.00  0.00     0.278 C 
ENDBRANCH  21  27
BRANCH  23  29
ATOM     29  O   UNL     1       3.042 -14.357   1.566  1.00  0.00    -0.491 OA
ATOM     30  C   UNL     1       3.797 -14.630   2.750  1.00  0.00     0.278 C 
ENDBRANCH  23  29
ENDBRANCH  17  20
ENDBRANCH  11  16
ENDBRANCH   8  10
ENDBRANCH   7   8
ENDBRANCH   6   7
ENDBRANCH   5   6
ENDBRANCH   4   5
ENDBRANCH   3   4
ENDBRANCH   2   3
ENDBRANCH   1   2
BRANCH   1  31
ATOM     31  C   UNL     1       4.300  -5.554  -2.309  1.00  0.00     0.188 C 
BRANCH  31  32
ATOM     32  C   UNL     1       5.493  -5.157  -3.198  1.00  0.00     0.188 C 
BRANCH  32  33
ATOM     33  O   UNL     1       6.620  -4.650  -2.505  1.00  0.00    -0.376 OA
BRANCH  33  34
ATOM     34  C   UNL     1       6.735  -3.247  -2.321  1.00  0.00     0.202 C 
BRANCH  34  35
ATOM     35  C   UNL     1       5.574  -2.498  -1.643  1.00  0.00     0.261 C 
BRANCH  35  36
ATOM     36  O   UNL     1       4.306  -2.564  -2.308  1.00  0.00    -0.460 OA
BRANCH  36  37
ATOM     37  C   UNL     1       4.261  -2.148  -3.590  1.00  0.00     0.338 C 
ATOM     38  O   UNL     1       5.173  -1.653  -4.236  1.00  0.00    -0.246 OA
BRANCH  37  39
ATOM     39  C   UNL     1       2.973  -2.581  -4.155  1.00  0.00     0.060 A 
ATOM     40  C   UNL     1       2.972  -3.469  -5.239  1.00  0.00     0.016 A 
ATOM     41  C   UNL     1       1.774  -2.104  -3.620  1.00  0.00     0.016 A 
ATOM     42  C   UNL     1       1.768  -3.851  -5.822  1.00  0.00     0.010 A 
ATOM     43  C   UNL     1       0.570  -2.462  -4.227  1.00  0.00     0.010 A 
ATOM     44  C   UNL     1       0.568  -3.303  -5.354  1.00  0.00    -0.014 A 
BRANCH  44  45
ATOM     45  C   UNL     1      -0.643  -3.403  -6.200  1.00  0.00     0.031 A 
ATOM     46  C   UNL     1      -0.951  -2.250  -7.117  1.00  0.00     0.074 A 
ATOM     47  C   UNL     1      -1.424  -4.497  -6.181  1.00  0.00     0.049 A 
ATOM     48  N   UNL     1      -1.974  -2.066  -7.907  1.00  0.00    -0.248 NA
ATOM     49  C   UNL     1       0.033  -1.153  -7.141  1.00  0.00     0.031 C 
ATOM     50  C   UNL     1      -1.180  -5.696  -5.379  1.00  0.00     0.029 A 
ATOM     51  N   UNL     1      -2.588  -4.772  -6.852  1.00  0.00    -0.354 N 
ATOM     52  C   UNL     1      -1.770  -0.827  -8.505  1.00  0.00     0.074 A 
ATOM     53  C   UNL     1      -0.535  -0.296  -7.974  1.00  0.00     0.031 C 
ATOM     54  C   UNL     1      -2.178  -6.572  -5.593  1.00  0.00     0.029 A 
ATOM     55  C   UNL     1      -3.152  -5.978  -6.507  1.00  0.00     0.049 A 
ATOM     56  H   UNL     1      -2.983  -4.163  -7.518  1.00  0.00     0.167 HD
ATOM     57  C   UNL     1      -2.549  -0.193  -9.413  1.00  0.00     0.034 A 
ATOM     58  C   UNL     1      -4.338  -6.516  -6.863  1.00  0.00     0.034 A 
ATOM     59  C   UNL     1      -3.776  -0.743  -9.928  1.00  0.00     0.049 A 
ATOM     60  C   UNL     1      -5.229  -5.745  -7.813  1.00  0.00     0.074 A 
ATOM     61  C   UNL     1      -4.627  -0.203 -10.877  1.00  0.00     0.029 A 
ATOM     62  N   UNL     1      -4.340  -1.946  -9.525  1.00  0.00    -0.354 N 
ATOM     63  N   UNL     1      -5.017  -4.584  -8.392  1.00  0.00    -0.248 NA
ATOM     64  C   UNL     1      -6.516  -6.361  -8.164  1.00  0.00     0.031 C 
ATOM     65  C   UNL     1      -5.748  -1.031 -10.976  1.00  0.00     0.029 A 
ATOM     66  C   UNL     1      -5.551  -2.141 -10.170  1.00  0.00     0.049 A 
ATOM     67  H   UNL     1      -3.939  -2.569  -8.877  1.00  0.00     0.167 HD
ATOM     68  C   UNL     1      -6.127  -4.354  -9.204  1.00  0.00     0.074 A 
ATOM     69  C   UNL     1      -6.994  -5.503  -9.052  1.00  0.00     0.031 C 
ATOM     70  C   UNL     1      -6.404  -3.295 -10.007  1.00  0.00     0.034 A 
BRANCH  57  71
ATOM     71  C   UNL     1      -2.139   1.193  -9.847  1.00  0.00     0.023 A 
ATOM     72  C   UNL     1      -0.961   1.437 -10.573  1.00  0.00     0.031 A 
ATOM     73  C   UNL     1      -2.955   2.292  -9.524  1.00  0.00     0.131 A 
ATOM     74  C   UNL     1      -0.609   2.753 -10.910  1.00  0.00     0.055 A 
ATOM     75  C   UNL     1      -2.638   3.589  -9.928  1.00  0.00     0.041 A 
ATOM     76  F   UNL     1      -4.075   2.123  -8.803  1.00  0.00    -0.206 F 
ATOM     77  C   UNL     1      -1.454   3.827 -10.618  1.00  0.00     0.022 A 
BRANCH  74  78
ATOM     78  S   UNL     1       1.027   3.061 -11.631  1.00  0.00     0.124 S 
ATOM     79  O   UNL     1       1.911   2.542 -10.590  1.00  0.00    -0.237 OA
ATOM     80  O   UNL     1       0.977   2.292 -12.868  1.00  0.00    -0.237 OA
ATOM     81  O   UNL     1       1.060   4.513 -11.798  1.00  0.00    -0.744 OA
ENDBRANCH  74  78
ENDBRANCH  57  71
BRANCH  58  82
ATOM     82  C   UNL     1      -4.795  -7.815  -6.284  1.00  0.00     0.023 A 
ATOM     83  C   UNL     1      -5.101  -8.912  -7.106  1.00  0.00     0.031 A 
ATOM     84  C   UNL     1      -5.029  -7.947  -4.902  1.00  0.00     0.131 A 
ATOM     85  C   UNL     1      -5.689 -10.061  -6.551  1.00  0.00     0.055 A 
ATOM     86  C   UNL     1      -5.545  -9.119  -4.347  1.00  0.00     0.041 A 
ATOM     87  F   UNL     1      -4.767  -6.928  -4.068  1.00  0.00    -0.206 F 
ATOM     88  C   UNL     1      -5.897 -10.178  -5.176  1.00  0.00     0.022 A 
BRANCH  85  89
ATOM     89  S   UNL     1      -6.306 -11.346  -7.674  1.00  0.00     0.124 S 
ATOM     90  O   UNL     1      -7.215 -10.584  -8.523  1.00  0.00    -0.237 OA
ATOM     91  O   UNL     1      -5.075 -11.811  -8.306  1.00  0.00    -0.237 OA
ATOM     92  O   UNL     1      -6.944 -12.305  -6.776  1.00  0.00    -0.744 OA
ENDBRANCH  85  89
ENDBRANCH  58  82
BRANCH  70  93
ATOM     93  C   UNL     1      -7.669  -3.361 -10.831  1.00  0.00     0.023 A 
ATOM     94  C   UNL     1      -8.945  -3.369 -10.241  1.00  0.00     0.031 A 
ATOM     95  C   UNL     1      -7.591  -3.415 -12.235  1.00  0.00     0.131 A 
ATOM     96  C   UNL     1     -10.086  -3.493 -11.048  1.00  0.00     0.055 A 
ATOM     97  C   UNL     1      -8.732  -3.463 -13.035  1.00  0.00     0.041 A 
ATOM     98  F   UNL     1      -6.399  -3.413 -12.854  1.00  0.00    -0.206 F 
ATOM     99  C   UNL     1      -9.989  -3.517 -12.441  1.00  0.00     0.022 A 
BRANCH  96 100
ATOM    100  S   UNL     1     -11.697  -3.727 -10.248  1.00  0.00     0.124 S 
ATOM    101  O   UNL     1     -11.470  -4.931  -9.456  1.00  0.00    -0.237 OA
ATOM    102  O   UNL     1     -11.855  -2.487  -9.493  1.00  0.00    -0.237 OA
ATOM    103  O   UNL     1     -12.618  -3.888 -11.372  1.00  0.00    -0.744 OA
ENDBRANCH  96 100
ENDBRANCH  70  93
ENDBRANCH  44  45
ENDBRANCH  37  39
ENDBRANCH  36  37
ENDBRANCH  35  36
ENDBRANCH  34  35
ENDBRANCH  33  34
ENDBRANCH  32  33
ENDBRANCH  31  32
ENDBRANCH   1  31
TORSDOF 27
