REMARK SMILES Cc1cc(C)c2c(c1)C=C(C(=O)OCCOCCOCCOCCOC(=O)c1ccc(-c3c4nc(c(-c5cc(S(=O)(=O)[O-])ccc5F)c5ccc([nH]5)c(-c5cc(S(=O)(=O)[O-])ccc5F)c5nc(c(-c6cc(S(=O)(=O)[O-])ccc6F)c6ccc3[nH]6)C=C5)C=C4)cc1)[C@@H](C(F)(F)F)O2
REMARK SMILES IDX 20 1 19 2 18 3 17 4 16 5 15 6 14 7 13 8 11 9 12 10 10 11
REMARK SMILES IDX 1 12 2 13 3 14 8 15 4 16 7 17 5 18 6 19 9 20 96 21 91 22
REMARK SMILES IDX 92 23 93 24 94 25 95 26 21 27 22 28 23 29 24 30 25 31 26 32
REMARK SMILES IDX 27 33 28 34 29 35 90 36 30 37 89 38 31 39 32 40 33 41 83 42
REMARK SMILES IDX 34 43 88 44 82 45 84 46 35 47 87 48 81 49 80 50 36 52 68 53
REMARK SMILES IDX 48 54 67 55 49 56 52 57 66 58 85 59 50 60 51 61 65 63 86 64
REMARK SMILES IDX 53 65 37 66 38 67 46 68 39 69 45 70 47 71 44 72 40 73 41 74
REMARK SMILES IDX 42 75 43 76 69 77 70 78 78 79 71 80 77 81 79 82 76 83 72 84
REMARK SMILES IDX 73 85 74 86 75 87 54 88 55 89 63 90 56 91 62 92 64 93 61 94
REMARK SMILES IDX 57 95 58 96 59 97 60 98
REMARK H PARENT 84 51 52 62
REMARK Flexibility Score: inf
ROOT
ATOM      1  C   UNL     1       1.000   4.726   9.040  1.00  0.00     0.188 C 
ENDROOT
BRANCH   1   2
ATOM      2  O   UNL     1       0.325   3.949   8.049  1.00  0.00    -0.377 OA
BRANCH   2   3
ATOM      3  C   UNL     1       0.834   3.982   6.726  1.00  0.00     0.188 C 
BRANCH   3   4
ATOM      4  C   UNL     1       0.328   5.195   5.924  1.00  0.00     0.188 C 
BRANCH   4   5
ATOM      5  O   UNL     1      -0.205   6.221   6.746  1.00  0.00    -0.376 OA
BRANCH   5   6
ATOM      6  C   UNL     1      -1.599   6.277   7.009  1.00  0.00     0.202 C 
BRANCH   6   7
ATOM      7  C   UNL     1      -2.424   5.041   7.414  1.00  0.00     0.261 C 
BRANCH   7   8
ATOM      8  O   UNL     1      -2.104   3.804   6.770  1.00  0.00    -0.460 OA
BRANCH   8   9
ATOM      9  C   UNL     1      -2.481   3.635   5.492  1.00  0.00     0.338 C 
ATOM     10  O   UNL     1      -3.102   4.421   4.799  1.00  0.00    -0.246 OA
BRANCH   9  11
ATOM     11  C   UNL     1      -1.849   2.387   5.005  1.00  0.00     0.087 C 
ATOM     12  C   UNL     1       1.091   0.049   0.123  1.00  0.00     0.044 C 
ATOM     13  C   UNL     1       0.469   0.050   1.488  1.00  0.00    -0.050 A 
ATOM     14  C   UNL     1       0.372  -1.137   2.223  1.00  0.00     0.010 A 
ATOM     15  C   UNL     1      -0.012   1.238   2.047  1.00  0.00     0.015 A 
ATOM     16  C   UNL     1      -0.207  -1.149   3.502  1.00  0.00    -0.008 A 
ATOM     17  C   UNL     1      -0.619   1.236   3.308  1.00  0.00     0.018 A 
ATOM     18  C   UNL     1      -0.335  -2.441   4.258  1.00  0.00     0.048 C 
ATOM     19  C   UNL     1      -0.685   0.053   4.048  1.00  0.00     0.130 A 
ATOM     20  C   UNL     1      -1.245   2.446   3.812  1.00  0.00     0.027 C 
ATOM     21  O   UNL     1      -1.214  -0.011   5.306  1.00  0.00    -0.475 OA
ATOM     22  C   UNL     1      -1.839   1.165   5.888  1.00  0.00     0.316 C 
BRANCH  22  23
ATOM     23  C   UNL     1      -3.250   0.767   6.342  1.00  0.00     0.430 C 
ATOM     24  F   UNL     1      -3.228  -0.372   7.076  1.00  0.00    -0.167 F 
ATOM     25  F   UNL     1      -3.828   1.717   7.109  1.00  0.00    -0.167 F 
ATOM     26  F   UNL     1      -4.069   0.548   5.285  1.00  0.00    -0.167 F 
ENDBRANCH  22  23
ENDBRANCH   9  11
ENDBRANCH   8   9
ENDBRANCH   7   8
ENDBRANCH   6   7
ENDBRANCH   5   6
ENDBRANCH   4   5
ENDBRANCH   3   4
ENDBRANCH   2   3
ENDBRANCH   1   2
BRANCH   1  27
ATOM     27  C   UNL     1       1.855   5.960   8.663  1.00  0.00     0.188 C 
BRANCH  27  28
ATOM     28  O   UNL     1       2.724   5.751   7.552  1.00  0.00    -0.376 OA
BRANCH  28  29
ATOM     29  C   UNL     1       4.111   5.623   7.832  1.00  0.00     0.202 C 
BRANCH  29  30
ATOM     30  C   UNL     1       4.517   4.281   8.454  1.00  0.00     0.261 C 
BRANCH  30  31
ATOM     31  O   UNL     1       3.933   3.991   9.733  1.00  0.00    -0.460 OA
BRANCH  31  32
ATOM     32  C   UNL     1       4.189   4.853  10.742  1.00  0.00     0.338 C 
ATOM     33  O   UNL     1       4.916   5.830  10.704  1.00  0.00    -0.246 OA
BRANCH  32  34
ATOM     34  C   UNL     1       3.272   4.520  11.850  1.00  0.00     0.060 A 
ATOM     35  C   UNL     1       2.376   5.493  12.310  1.00  0.00     0.016 A 
ATOM     36  C   UNL     1       3.282   3.241  12.414  1.00  0.00     0.016 A 
ATOM     37  C   UNL     1       1.504   5.196  13.357  1.00  0.00     0.010 A 
ATOM     38  C   UNL     1       2.426   2.953  13.479  1.00  0.00     0.010 A 
ATOM     39  C   UNL     1       1.554   3.938  13.974  1.00  0.00    -0.014 A 
BRANCH  39  40
ATOM     40  C   UNL     1       0.860   3.730  15.268  1.00  0.00     0.031 A 
ATOM     41  C   UNL     1       1.644   3.959  16.532  1.00  0.00     0.074 A 
ATOM     42  C   UNL     1      -0.440   3.390  15.326  1.00  0.00     0.049 A 
ATOM     43  N   UNL     1       1.271   3.821  17.776  1.00  0.00    -0.248 NA
ATOM     44  C   UNL     1       3.037   4.408  16.365  1.00  0.00     0.031 C 
ATOM     45  C   UNL     1      -1.318   3.202  14.172  1.00  0.00     0.029 A 
ATOM     46  N   UNL     1      -1.251   3.152  16.408  1.00  0.00    -0.354 N 
ATOM     47  C   UNL     1       2.374   4.181  18.540  1.00  0.00     0.074 A 
ATOM     48  C   UNL     1       3.444   4.500  17.622  1.00  0.00     0.031 C 
ATOM     49  C   UNL     1      -2.550   2.885  14.611  1.00  0.00     0.029 A 
ATOM     50  C   UNL     1      -2.540   2.812  16.072  1.00  0.00     0.049 A 
ATOM     51  H   UNL     1      -0.938   3.218  17.339  1.00  0.00     0.167 HD
ATOM     52  C   UNL     1       2.482   4.254  19.888  1.00  0.00     0.034 A 
ATOM     53  C   UNL     1      -3.585   2.469  16.854  1.00  0.00     0.034 A 
ATOM     54  C   UNL     1       1.419   3.921  20.797  1.00  0.00     0.049 A 
ATOM     55  C   UNL     1      -3.404   2.437  18.354  1.00  0.00     0.074 A 
ATOM     56  C   UNL     1       1.431   3.949  22.180  1.00  0.00     0.029 A 
ATOM     57  N   UNL     1       0.155   3.492  20.417  1.00  0.00    -0.354 N 
ATOM     58  N   UNL     1      -2.345   2.751  19.064  1.00  0.00    -0.248 NA
ATOM     59  C   UNL     1      -4.555   1.998  19.156  1.00  0.00     0.031 C 
ATOM     60  C   UNL     1       0.198   3.477  22.637  1.00  0.00     0.029 A 
ATOM     61  C   UNL     1      -0.609   3.221  21.539  1.00  0.00     0.049 A 
ATOM     62  H   UNL     1      -0.152   3.394  19.487  1.00  0.00     0.167 HD
ATOM     63  C   UNL     1      -2.712   2.571  20.395  1.00  0.00     0.074 A 
ATOM     64  C   UNL     1      -4.089   2.125  20.392  1.00  0.00     0.031 C 
ATOM     65  C   UNL     1      -1.977   2.765  21.519  1.00  0.00     0.034 A 
BRANCH  52  66
ATOM     66  C   UNL     1       3.807   4.683  20.456  1.00  0.00     0.023 A 
ATOM     67  C   UNL     1       4.274   6.000  20.309  1.00  0.00     0.031 A 
ATOM     68  C   UNL     1       4.606   3.768  21.162  1.00  0.00     0.131 A 
ATOM     69  C   UNL     1       5.525   6.357  20.831  1.00  0.00     0.055 A 
ATOM     70  C   UNL     1       5.822   4.146  21.732  1.00  0.00     0.041 A 
ATOM     71  F   UNL     1       4.216   2.492  21.309  1.00  0.00    -0.206 F 
ATOM     72  C   UNL     1       6.291   5.446  21.562  1.00  0.00     0.022 A 
BRANCH  69  73
ATOM     73  S   UNL     1       6.176   8.011  20.473  1.00  0.00     0.124 S 
ATOM     74  O   UNL     1       6.334   7.958  19.022  1.00  0.00    -0.237 OA
ATOM     75  O   UNL     1       5.118   8.883  20.969  1.00  0.00    -0.237 OA
ATOM     76  O   UNL     1       7.426   8.057  21.229  1.00  0.00    -0.744 OA
ENDBRANCH  69  73
ENDBRANCH  52  66
BRANCH  53  77
ATOM     77  C   UNL     1      -4.893   2.099  16.243  1.00  0.00     0.023 A 
ATOM     78  C   UNL     1      -6.033   2.896  16.433  1.00  0.00     0.031 A 
ATOM     79  C   UNL     1      -5.027   0.923  15.483  1.00  0.00     0.131 A 
ATOM     80  C   UNL     1      -7.264   2.495  15.890  1.00  0.00     0.055 A 
ATOM     81  C   UNL     1      -6.245   0.550  14.911  1.00  0.00     0.041 A 
ATOM     82  F   UNL     1      -3.968   0.124  15.276  1.00  0.00    -0.206 F 
ATOM     83  C   UNL     1      -7.375   1.335  15.119  1.00  0.00     0.022 A 
BRANCH  80  84
ATOM     84  S   UNL     1      -8.737   3.496  16.236  1.00  0.00     0.124 S 
ATOM     85  O   UNL     1      -8.859   3.352  17.682  1.00  0.00    -0.237 OA
ATOM     86  O   UNL     1      -8.332   4.812  15.752  1.00  0.00    -0.237 OA
ATOM     87  O   UNL     1      -9.784   2.843  15.452  1.00  0.00    -0.744 OA
ENDBRANCH  80  84
ENDBRANCH  53  77
BRANCH  65  88
ATOM     88  C   UNL     1      -2.645   2.520  22.847  1.00  0.00     0.023 A 
ATOM     89  C   UNL     1      -2.944   1.222  23.290  1.00  0.00     0.031 A 
ATOM     90  C   UNL     1      -2.920   3.598  23.709  1.00  0.00     0.131 A 
ATOM     91  C   UNL     1      -3.520   1.033  24.555  1.00  0.00     0.055 A 
ATOM     92  C   UNL     1      -3.450   3.401  24.984  1.00  0.00     0.041 A 
ATOM     93  F   UNL     1      -2.646   4.858  23.334  1.00  0.00    -0.206 F 
ATOM     94  C   UNL     1      -3.757   2.112  25.412  1.00  0.00     0.022 A 
BRANCH  91  95
ATOM     95  S   UNL     1      -3.980  -0.646  25.063  1.00  0.00     0.124 S 
ATOM     96  O   UNL     1      -5.021  -0.980  24.096  1.00  0.00    -0.237 OA
ATOM     97  O   UNL     1      -2.723  -1.374  24.923  1.00  0.00    -0.237 OA
ATOM     98  O   UNL     1      -4.444  -0.474  26.439  1.00  0.00    -0.744 OA
ENDBRANCH  91  95
ENDBRANCH  65  88
ENDBRANCH  39  40
ENDBRANCH  32  34
ENDBRANCH  31  32
ENDBRANCH  30  31
ENDBRANCH  29  30
ENDBRANCH  28  29
ENDBRANCH  27  28
ENDBRANCH   1  27
TORSDOF 24
