REMARK SMILES CS(=O)(=O)c1ccc(/C=C(/C(=O)OCCOCCOCCOCCOC(=O)c2ccc(-c3c4nc(c(-c5cc(S(=O)(=O)[O-])ccc5F)c5ccc([nH]5)c(-c5cc(S(=O)(=O)[O-])ccc5F)c5nc(c(-c6cc(S(=O)(=O)[O-])ccc6F)c6ccc3[nH]6)C=C5)C=C4)cc2)c2cccc(Br)c2)cc1
REMARK SMILES IDX 20 1 19 2 18 3 17 4 16 5 15 6 14 7 13 8 11 9 12 10 10 11
REMARK SMILES IDX 9 12 8 13 5 14 6 15 99 16 7 17 98 18 2 19 1 20 3 21 4 22
REMARK SMILES IDX 91 23 92 24 97 25 93 26 95 27 94 28 96 29 21 30 22 31 23 32
REMARK SMILES IDX 24 33 25 34 26 35 27 36 28 37 29 38 90 39 30 40 89 41 31 42
REMARK SMILES IDX 32 43 33 44 83 45 34 46 88 47 82 48 84 49 35 50 87 51 81 52
REMARK SMILES IDX 80 53 36 55 68 56 48 57 67 58 49 59 52 60 66 61 85 62 50 63
REMARK SMILES IDX 51 64 65 66 86 67 53 68 37 69 38 70 46 71 39 72 45 73 47 74
REMARK SMILES IDX 44 75 40 76 41 77 42 78 43 79 69 80 70 81 78 82 71 83 77 84
REMARK SMILES IDX 79 85 76 86 72 87 73 88 74 89 75 90 54 91 55 92 63 93 56 94
REMARK SMILES IDX 62 95 64 96 61 97 57 98 58 99 59 100 60 101
REMARK H PARENT 84 54 52 65
REMARK Flexibility Score: inf
ROOT
ATOM      1  C   UNL     1       5.034   7.009  -7.554  1.00  0.00     0.188 C 
ENDROOT
BRANCH   1   2
ATOM      2  O   UNL     1       4.427   5.887  -6.919  1.00  0.00    -0.377 OA
BRANCH   2   3
ATOM      3  C   UNL     1       4.844   4.581  -7.272  1.00  0.00     0.188 C 
BRANCH   3   4
ATOM      4  C   UNL     1       4.887   4.204  -8.770  1.00  0.00     0.188 C 
BRANCH   4   5
ATOM      5  O   UNL     1       4.633   5.292  -9.637  1.00  0.00    -0.376 OA
BRANCH   5   6
ATOM      6  C   UNL     1       3.362   5.372 -10.256  1.00  0.00     0.202 C 
BRANCH   6   7
ATOM      7  C   UNL     1       2.092   5.362  -9.388  1.00  0.00     0.261 C 
BRANCH   7   8
ATOM      8  O   UNL     1       2.085   4.463  -8.268  1.00  0.00    -0.460 OA
BRANCH   8   9
ATOM      9  C   UNL     1       1.875   3.149  -8.512  1.00  0.00     0.338 C 
ATOM     10  O   UNL     1       1.656   2.658  -9.609  1.00  0.00    -0.246 OA
BRANCH   9  11
ATOM     11  C   UNL     1       2.107   2.339  -7.263  1.00  0.00     0.067 C 
ATOM     12  C   UNL     1       1.700   2.842  -6.070  1.00  0.00     0.024 C 
BRANCH  12  13
ATOM     13  C   UNL     1       1.608   2.160  -4.755  1.00  0.00    -0.025 A 
ATOM     14  C   UNL     1       0.910   0.582  -2.548  1.00  0.00     0.067 A 
ATOM     15  C   UNL     1       2.041   0.263  -3.294  1.00  0.00     0.021 A 
ATOM     16  C   UNL     1       0.201   1.754  -2.807  1.00  0.00     0.021 A 
ATOM     17  C   UNL     1       2.412   1.084  -4.360  1.00  0.00     0.009 A 
ATOM     18  C   UNL     1       0.558   2.543  -3.905  1.00  0.00     0.009 A 
BRANCH  14  19
ATOM     19  S   UNL     1       0.279  -0.588  -1.373  1.00  0.00     0.175 S 
ATOM     20  C   UNL     1       0.950  -0.040   0.168  1.00  0.00     0.163 C 
ATOM     21  O   UNL     1       0.864  -1.881  -1.679  1.00  0.00    -0.224 OA
ATOM     22  O   UNL     1      -1.162  -0.425  -1.325  1.00  0.00    -0.224 OA
ENDBRANCH  14  19
ENDBRANCH  12  13
BRANCH  11  23
ATOM     23  C   UNL     1       2.754   1.018  -7.413  1.00  0.00    -0.010 A 
ATOM     24  C   UNL     1       4.159   0.924  -7.462  1.00  0.00     0.009 A 
ATOM     25  C   UNL     1       2.001  -0.159  -7.385  1.00  0.00     0.024 A 
ATOM     26  C   UNL     1       4.801  -0.313  -7.482  1.00  0.00     0.002 A 
ATOM     27  C   UNL     1       2.652  -1.394  -7.378  1.00  0.00     0.018 A 
ATOM     28  C   UNL     1       4.044  -1.477  -7.431  1.00  0.00     0.016 A 
ATOM     29  Br  UNL     1       1.635  -2.981  -7.232  1.00  0.00    -0.051 Br
ENDBRANCH  11  23
ENDBRANCH   9  11
ENDBRANCH   8   9
ENDBRANCH   7   8
ENDBRANCH   6   7
ENDBRANCH   5   6
ENDBRANCH   4   5
ENDBRANCH   3   4
ENDBRANCH   2   3
ENDBRANCH   1   2
BRANCH   1  30
ATOM     30  C   UNL     1       6.420   6.900  -8.235  1.00  0.00     0.188 C 
BRANCH  30  31
ATOM     31  O   UNL     1       7.144   5.714  -7.943  1.00  0.00    -0.376 OA
BRANCH  31  32
ATOM     32  C   UNL     1       8.236   5.811  -7.047  1.00  0.00     0.202 C 
BRANCH  32  33
ATOM     33  C   UNL     1       7.912   6.201  -5.598  1.00  0.00     0.261 C 
BRANCH  33  34
ATOM     34  O   UNL     1       7.187   7.426  -5.420  1.00  0.00    -0.460 OA
BRANCH  34  35
ATOM     35  C   UNL     1       7.791   8.566  -5.825  1.00  0.00     0.338 C 
ATOM     36  O   UNL     1       8.903   8.668  -6.317  1.00  0.00    -0.246 OA
BRANCH  35  37
ATOM     37  C   UNL     1       6.787   9.647  -5.758  1.00  0.00     0.060 A 
ATOM     38  C   UNL     1       6.422  10.318  -6.934  1.00  0.00     0.016 A 
ATOM     39  C   UNL     1       6.182   9.970  -4.542  1.00  0.00     0.016 A 
ATOM     40  C   UNL     1       5.465  11.332  -6.890  1.00  0.00     0.010 A 
ATOM     41  C   UNL     1       5.244  11.004  -4.495  1.00  0.00     0.010 A 
ATOM     42  C   UNL     1       4.903  11.710  -5.663  1.00  0.00    -0.014 A 
BRANCH  42  43
ATOM     43  C   UNL     1       4.118  12.965  -5.570  1.00  0.00     0.031 A 
ATOM     44  C   UNL     1       4.818  14.203  -5.080  1.00  0.00     0.074 A 
ATOM     45  C   UNL     1       2.823  13.013  -5.930  1.00  0.00     0.049 A 
ATOM     46  N   UNL     1       4.339  15.399  -4.859  1.00  0.00    -0.248 NA
ATOM     47  C   UNL     1       6.255  14.066  -4.796  1.00  0.00     0.031 C 
ATOM     48  C   UNL     1       2.053  11.891  -6.465  1.00  0.00     0.029 A 
ATOM     49  N   UNL     1       1.925  14.050  -5.892  1.00  0.00    -0.354 N 
ATOM     50  C   UNL     1       5.413  16.157  -4.404  1.00  0.00     0.074 A 
ATOM     51  C   UNL     1       6.557  15.272  -4.343  1.00  0.00     0.031 C 
ATOM     52  C   UNL     1       0.793  12.300  -6.696  1.00  0.00     0.029 A 
ATOM     53  C   UNL     1       0.655  13.697  -6.285  1.00  0.00     0.049 A 
ATOM     54  H   UNL     1       2.167  14.962  -5.610  1.00  0.00     0.167 HD
ATOM     55  C   UNL     1       5.442  17.471  -4.074  1.00  0.00     0.034 A 
ATOM     56  C   UNL     1      -0.491  14.410  -6.282  1.00  0.00     0.034 A 
ATOM     57  C   UNL     1       4.287  18.333  -4.126  1.00  0.00     0.049 A 
ATOM     58  C   UNL     1      -0.456  15.849  -5.816  1.00  0.00     0.074 A 
ATOM     59  C   UNL     1       4.207  19.682  -3.830  1.00  0.00     0.029 A 
ATOM     60  N   UNL     1       3.006  17.928  -4.479  1.00  0.00    -0.354 N 
ATOM     61  N   UNL     1       0.567  16.560  -5.399  1.00  0.00    -0.248 NA
ATOM     62  C   UNL     1      -1.729  16.582  -5.830  1.00  0.00     0.031 C 
ATOM     63  C   UNL     1       2.866  20.070  -3.918  1.00  0.00     0.029 A 
ATOM     64  C   UNL     1       2.122  18.990  -4.366  1.00  0.00     0.049 A 
ATOM     65  H   UNL     1       2.761  17.019  -4.768  1.00  0.00     0.167 HD
ATOM     66  C   UNL     1       0.064  17.833  -5.133  1.00  0.00     0.074 A 
ATOM     67  C   UNL     1      -1.348  17.793  -5.452  1.00  0.00     0.031 C 
ATOM     68  C   UNL     1       0.711  18.936  -4.675  1.00  0.00     0.034 A 
BRANCH  55  69
ATOM     69  C   UNL     1       6.751  18.031  -3.570  1.00  0.00     0.023 A 
ATOM     70  C   UNL     1       7.905  18.068  -4.372  1.00  0.00     0.031 A 
ATOM     71  C   UNL     1       6.854  18.508  -2.250  1.00  0.00     0.131 A 
ATOM     72  C   UNL     1       9.123  18.500  -3.827  1.00  0.00     0.055 A 
ATOM     73  C   UNL     1       8.049  19.018  -1.741  1.00  0.00     0.041 A 
ATOM     74  F   UNL     1       5.794  18.471  -1.426  1.00  0.00    -0.206 F 
ATOM     75  C   UNL     1       9.197  19.002  -2.526  1.00  0.00     0.022 A 
BRANCH  72  76
ATOM     76  S   UNL     1      10.641  18.249  -4.790  1.00  0.00     0.124 S 
ATOM     77  O   UNL     1      10.616  16.804  -5.008  1.00  0.00    -0.237 OA
ATOM     78  O   UNL     1      10.408  19.077  -5.967  1.00  0.00    -0.237 OA
ATOM     79  O   UNL     1      11.696  18.718  -3.894  1.00  0.00    -0.744 OA
ENDBRANCH  72  76
ENDBRANCH  55  69
BRANCH  56  80
ATOM     80  C   UNL     1      -1.780  13.775  -6.685  1.00  0.00     0.023 A 
ATOM     81  C   UNL     1      -2.515  14.246  -7.784  1.00  0.00     0.031 A 
ATOM     82  C   UNL     1      -2.327  12.718  -5.933  1.00  0.00     0.131 A 
ATOM     83  C   UNL     1      -3.774  13.695  -8.073  1.00  0.00     0.055 A 
ATOM     84  C   UNL     1      -3.552  12.134  -6.261  1.00  0.00     0.041 A 
ATOM     85  F   UNL     1      -1.673  12.233  -4.866  1.00  0.00    -0.206 F 
ATOM     86  C   UNL     1      -4.290  12.632  -7.330  1.00  0.00     0.022 A 
BRANCH  83  87
ATOM     87  S   UNL     1      -4.776  14.455  -9.381  1.00  0.00     0.124 S 
ATOM     88  O   UNL     1      -4.901  15.826  -8.899  1.00  0.00    -0.237 OA
ATOM     89  O   UNL     1      -3.935  14.261 -10.557  1.00  0.00    -0.237 OA
ATOM     90  O   UNL     1      -6.009  13.671  -9.363  1.00  0.00    -0.744 OA
ENDBRANCH  83  87
ENDBRANCH  56  80
BRANCH  68  91
ATOM     91  C   UNL     1      -0.095  20.208  -4.541  1.00  0.00     0.023 A 
ATOM     92  C   UNL     1      -1.154  20.326  -3.623  1.00  0.00     0.031 A 
ATOM     93  C   UNL     1       0.201  21.321  -5.350  1.00  0.00     0.131 A 
ATOM     94  C   UNL     1      -1.914  21.505  -3.580  1.00  0.00     0.055 A 
ATOM     95  C   UNL     1      -0.512  22.516  -5.251  1.00  0.00     0.041 A 
ATOM     96  F   UNL     1       1.198  21.267  -6.248  1.00  0.00    -0.206 F 
ATOM     97  C   UNL     1      -1.587  22.608  -4.373  1.00  0.00     0.022 A 
BRANCH  94  98
ATOM     98  S   UNL     1      -3.407  21.542  -2.549  1.00  0.00     0.124 S 
ATOM     99  O   UNL     1      -4.175  20.426  -3.090  1.00  0.00    -0.237 OA
ATOM    100  O   UNL     1      -2.865  21.353  -1.208  1.00  0.00    -0.237 OA
ATOM    101  O   UNL     1      -3.970  22.866  -2.809  1.00  0.00    -0.744 OA
ENDBRANCH  94  98
ENDBRANCH  68  91
ENDBRANCH  42  43
ENDBRANCH  35  37
ENDBRANCH  34  35
ENDBRANCH  33  34
ENDBRANCH  32  33
ENDBRANCH  31  32
ENDBRANCH  30  31
ENDBRANCH   1  30
TORSDOF 26
