REMARK SMILES Cc1cc(Cl)c2c(c1)C=C(C(=O)OCCOCCOCCOCCOC(=O)c1ccc(-c3c4nc(c(-c5cc(S(=O)(=O)[O-])ccc5F)c5ccc([nH]5)c(-c5cc(S(=O)(=O)[O-])ccc5F)c5nc(c(-c6cc(S(=O)(=O)[O-])ccc6F)c6ccc3[nH]6)C=C5)C=C4)cc1)[C@@H](C(F)(F)F)O2
REMARK SMILES IDX 20 1 19 2 18 3 17 4 16 5 15 6 14 7 13 8 11 9 12 10 10 11
REMARK SMILES IDX 1 12 2 13 3 14 8 15 4 16 7 17 5 18 6 19 9 20 96 21 91 22
REMARK SMILES IDX 92 23 93 24 94 25 95 26 21 27 22 28 23 29 24 30 25 31 26 32
REMARK SMILES IDX 27 33 28 34 29 35 90 36 30 37 89 38 31 39 32 40 33 41 83 42
REMARK SMILES IDX 34 43 88 44 82 45 84 46 35 47 87 48 81 49 80 50 36 52 68 53
REMARK SMILES IDX 48 54 67 55 49 56 52 57 66 58 85 59 50 60 51 61 65 63 86 64
REMARK SMILES IDX 53 65 37 66 38 67 46 68 39 69 45 70 47 71 44 72 40 73 41 74
REMARK SMILES IDX 42 75 43 76 69 77 70 78 78 79 71 80 77 81 79 82 76 83 72 84
REMARK SMILES IDX 73 85 74 86 75 87 54 88 55 89 63 90 56 91 62 92 64 93 61 94
REMARK SMILES IDX 57 95 58 96 59 97 60 98
REMARK H PARENT 84 51 52 62
REMARK Flexibility Score: inf
ROOT
ATOM      1  C   UNL     1      -6.890  -6.393  -0.416  1.00  0.00     0.188 C 
ENDROOT
BRANCH   1   2
ATOM      2  O   UNL     1      -5.640  -5.970  -0.959  1.00  0.00    -0.377 OA
BRANCH   2   3
ATOM      3  C   UNL     1      -5.215  -4.653  -0.653  1.00  0.00     0.188 C 
BRANCH   3   4
ATOM      4  C   UNL     1      -5.724  -3.613  -1.666  1.00  0.00     0.188 C 
BRANCH   4   5
ATOM      5  O   UNL     1      -6.819  -4.014  -2.465  1.00  0.00    -0.376 OA
BRANCH   5   6
ATOM      6  C   UNL     1      -6.690  -4.889  -3.576  1.00  0.00     0.202 C 
BRANCH   6   7
ATOM      7  C   UNL     1      -5.479  -5.778  -3.928  1.00  0.00     0.261 C 
BRANCH   7   8
ATOM      8  O   UNL     1      -4.253  -5.552  -3.239  1.00  0.00    -0.460 OA
BRANCH   8   9
ATOM      9  C   UNL     1      -3.445  -4.590  -3.713  1.00  0.00     0.338 C 
ATOM     10  O   UNL     1      -3.633  -3.881  -4.686  1.00  0.00    -0.246 OA
BRANCH   9  11
ATOM     11  C   UNL     1      -2.354  -4.407  -2.731  1.00  0.00     0.087 C 
ATOM     12  C   UNL     1       0.907   0.034   0.011  1.00  0.00     0.044 C 
ATOM     13  C   UNL     1       0.495  -1.372  -0.309  1.00  0.00    -0.049 A 
ATOM     14  C   UNL     1       1.212  -2.459   0.202  1.00  0.00     0.028 A 
ATOM     15  C   UNL     1      -0.626  -1.616  -1.109  1.00  0.00     0.015 A 
ATOM     16  C   UNL     1       0.815  -3.769  -0.090  1.00  0.00     0.084 A 
ATOM     17  C   UNL     1      -0.995  -2.926  -1.442  1.00  0.00     0.019 A 
ATOM     18  Cl  UNL     1       1.755  -5.066   0.558  1.00  0.00    -0.080 Cl
ATOM     19  C   UNL     1      -0.292  -4.011  -0.913  1.00  0.00     0.146 A 
ATOM     20  C   UNL     1      -2.068  -3.145  -2.392  1.00  0.00     0.027 C 
ATOM     21  O   UNL     1      -0.633  -5.311  -1.167  1.00  0.00    -0.474 OA
ATOM     22  C   UNL     1      -1.688  -5.613  -2.121  1.00  0.00     0.316 C 
BRANCH  22  23
ATOM     23  C   UNL     1      -1.116  -6.554  -3.190  1.00  0.00     0.430 C 
ATOM     24  F   UNL     1      -0.455  -7.595  -2.632  1.00  0.00    -0.167 F 
ATOM     25  F   UNL     1      -2.084  -7.078  -3.976  1.00  0.00    -0.167 F 
ATOM     26  F   UNL     1      -0.245  -5.908  -4.001  1.00  0.00    -0.167 F 
ENDBRANCH  22  23
ENDBRANCH   9  11
ENDBRANCH   8   9
ENDBRANCH   7   8
ENDBRANCH   6   7
ENDBRANCH   5   6
ENDBRANCH   4   5
ENDBRANCH   3   4
ENDBRANCH   2   3
ENDBRANCH   1   2
BRANCH   1  27
ATOM     27  C   UNL     1      -8.026  -5.371  -0.177  1.00  0.00     0.188 C 
BRANCH  27  28
ATOM     28  O   UNL     1      -7.609  -4.189   0.504  1.00  0.00    -0.376 OA
BRANCH  28  29
ATOM     29  C   UNL     1      -7.980  -4.051   1.867  1.00  0.00     0.202 C 
BRANCH  29  30
ATOM     30  C   UNL     1      -7.218  -4.950   2.851  1.00  0.00     0.261 C 
BRANCH  30  31
ATOM     31  O   UNL     1      -7.353  -6.362   2.635  1.00  0.00    -0.460 OA
BRANCH  31  32
ATOM     32  C   UNL     1      -8.598  -6.882   2.708  1.00  0.00     0.338 C 
ATOM     33  O   UNL     1      -9.623  -6.289   2.994  1.00  0.00    -0.246 OA
BRANCH  32  34
ATOM     34  C   UNL     1      -8.533  -8.260   2.180  1.00  0.00     0.060 A 
ATOM     35  C   UNL     1      -9.316  -8.601   1.070  1.00  0.00     0.016 A 
ATOM     36  C   UNL     1      -7.692  -9.205   2.773  1.00  0.00     0.016 A 
ATOM     37  C   UNL     1      -9.284  -9.902   0.569  1.00  0.00     0.010 A 
ATOM     38  C   UNL     1      -7.681 -10.514   2.287  1.00  0.00     0.010 A 
ATOM     39  C   UNL     1      -8.504 -10.876   1.206  1.00  0.00    -0.014 A 
BRANCH  39  40
ATOM     40  C   UNL     1      -8.733 -12.309   0.903  1.00  0.00     0.031 A 
ATOM     41  C   UNL     1      -9.705 -13.060   1.774  1.00  0.00     0.074 A 
ATOM     42  C   UNL     1      -8.134 -12.922  -0.133  1.00  0.00     0.049 A 
ATOM     43  N   UNL     1     -10.034 -14.324   1.754  1.00  0.00    -0.248 NA
ATOM     44  C   UNL     1     -10.401 -12.272   2.806  1.00  0.00     0.031 C 
ATOM     45  C   UNL     1      -7.232 -12.283  -1.089  1.00  0.00     0.029 A 
ATOM     46  N   UNL     1      -8.202 -14.227  -0.554  1.00  0.00    -0.354 N 
ATOM     47  C   UNL     1     -10.978 -14.482   2.762  1.00  0.00     0.074 A 
ATOM     48  C   UNL     1     -11.141 -13.194   3.400  1.00  0.00     0.031 C 
ATOM     49  C   UNL     1      -6.832 -13.200  -1.989  1.00  0.00     0.029 A 
ATOM     50  C   UNL     1      -7.416 -14.497  -1.649  1.00  0.00     0.049 A 
ATOM     51  H   UNL     1      -8.761 -14.906  -0.112  1.00  0.00     0.167 HD
ATOM     52  C   UNL     1     -11.657 -15.598   3.116  1.00  0.00     0.034 A 
ATOM     53  C   UNL     1      -7.182 -15.662  -2.288  1.00  0.00     0.034 A 
ATOM     54  C   UNL     1     -11.480 -16.878   2.484  1.00  0.00     0.049 A 
ATOM     55  C   UNL     1      -7.855 -16.921  -1.795  1.00  0.00     0.074 A 
ATOM     56  C   UNL     1     -12.110 -18.074   2.777  1.00  0.00     0.029 A 
ATOM     57  N   UNL     1     -10.607 -17.131   1.436  1.00  0.00    -0.354 N 
ATOM     58  N   UNL     1      -8.718 -17.067  -0.815  1.00  0.00    -0.248 NA
ATOM     59  C   UNL     1      -7.517 -18.173  -2.487  1.00  0.00     0.031 C 
ATOM     60  C   UNL     1     -11.569 -19.064   1.951  1.00  0.00     0.029 A 
ATOM     61  C   UNL     1     -10.656 -18.471   1.093  1.00  0.00     0.049 A 
ATOM     62  H   UNL     1     -10.037 -16.457   1.001  1.00  0.00     0.167 HD
ATOM     63  C   UNL     1      -9.040 -18.422  -0.789  1.00  0.00     0.074 A 
ATOM     64  C   UNL     1      -8.287 -19.049  -1.855  1.00  0.00     0.031 C 
ATOM     65  C   UNL     1      -9.887 -19.085   0.038  1.00  0.00     0.034 A 
BRANCH  52  66
ATOM     66  C   UNL     1     -12.624 -15.486   4.264  1.00  0.00     0.023 A 
ATOM     67  C   UNL     1     -13.813 -14.746   4.152  1.00  0.00     0.031 A 
ATOM     68  C   UNL     1     -12.357 -16.136   5.481  1.00  0.00     0.131 A 
ATOM     69  C   UNL     1     -14.674 -14.642   5.254  1.00  0.00     0.055 A 
ATOM     70  C   UNL     1     -13.248 -16.080   6.553  1.00  0.00     0.041 A 
ATOM     71  F   UNL     1     -11.223 -16.835   5.647  1.00  0.00    -0.206 F 
ATOM     72  C   UNL     1     -14.412 -15.324   6.445  1.00  0.00     0.022 A 
BRANCH  69  73
ATOM     73  S   UNL     1     -16.104 -13.534   5.138  1.00  0.00     0.124 S 
ATOM     74  O   UNL     1     -15.457 -12.233   4.983  1.00  0.00    -0.237 OA
ATOM     75  O   UNL     1     -16.805 -14.041   3.964  1.00  0.00    -0.237 OA
ATOM     76  O   UNL     1     -16.796 -13.732   6.410  1.00  0.00    -0.744 OA
ENDBRANCH  69  73
ENDBRANCH  52  66
BRANCH  53  77
ATOM     77  C   UNL     1      -6.241 -15.710  -3.443  1.00  0.00     0.023 A 
ATOM     78  C   UNL     1      -6.697 -16.009  -4.737  1.00  0.00     0.031 A 
ATOM     79  C   UNL     1      -4.865 -15.481  -3.264  1.00  0.00     0.131 A 
ATOM     80  C   UNL     1      -5.782 -16.091  -5.799  1.00  0.00     0.055 A 
ATOM     81  C   UNL     1      -3.965 -15.524  -4.330  1.00  0.00     0.041 A 
ATOM     82  F   UNL     1      -4.378 -15.195  -2.046  1.00  0.00    -0.206 F 
ATOM     83  C   UNL     1      -4.422 -15.837  -5.607  1.00  0.00     0.022 A 
BRANCH  80  84
ATOM     84  S   UNL     1      -6.392 -16.570  -7.439  1.00  0.00     0.124 S 
ATOM     85  O   UNL     1      -6.856 -17.931  -7.198  1.00  0.00    -0.237 OA
ATOM     86  O   UNL     1      -7.428 -15.571  -7.683  1.00  0.00    -0.237 OA
ATOM     87  O   UNL     1      -5.208 -16.453  -8.289  1.00  0.00    -0.744 OA
ENDBRANCH  80  84
ENDBRANCH  53  77
BRANCH  65  88
ATOM     88  C   UNL     1     -10.065 -20.566  -0.182  1.00  0.00     0.023 A 
ATOM     89  C   UNL     1      -9.042 -21.479   0.120  1.00  0.00     0.031 A 
ATOM     90  C   UNL     1     -11.293 -21.071  -0.644  1.00  0.00     0.131 A 
ATOM     91  C   UNL     1      -9.256 -22.853  -0.069  1.00  0.00     0.055 A 
ATOM     92  C   UNL     1     -11.517 -22.441  -0.783  1.00  0.00     0.041 A 
ATOM     93  F   UNL     1     -12.305 -20.240  -0.942  1.00  0.00    -0.206 F 
ATOM     94  C   UNL     1     -10.493 -23.340  -0.500  1.00  0.00     0.022 A 
BRANCH  91  95
ATOM     95  S   UNL     1      -7.880 -23.997   0.220  1.00  0.00     0.124 S 
ATOM     96  O   UNL     1      -6.916 -23.573  -0.790  1.00  0.00    -0.237 OA
ATOM     97  O   UNL     1      -7.518 -23.712   1.605  1.00  0.00    -0.237 OA
ATOM     98  O   UNL     1      -8.475 -25.314  -0.005  1.00  0.00    -0.744 OA
ENDBRANCH  91  95
ENDBRANCH  65  88
ENDBRANCH  39  40
ENDBRANCH  32  34
ENDBRANCH  31  32
ENDBRANCH  30  31
ENDBRANCH  29  30
ENDBRANCH  28  29
ENDBRANCH  27  28
ENDBRANCH   1  27
TORSDOF 24
