REMARK SMILES O=C(COc1ccccc1[C@@H]1[NH2+]CCc2cc(O)c(O)cc21)OCCOCCOCCOCCOC(=O)c1ccc(-c2c3nc(c(-c4cc(S(=O)(=O)[O-])ccc4F)c4ccc([nH]4)c(-c4cc(S(=O)(=O)[O-])ccc4F)c4nc(c(-c5cc(S(=O)(=O)[O-])ccc5F)c5ccc2[nH]5)C=C4)C=C3)cc1
REMARK SMILES IDX 28 1 27 2 26 3 25 4 24 5 23 6 2 7 1 8 3 9 4 10 5 11 6 12
REMARK SMILES IDX 10 13 7 14 9 15 8 16 11 17 12 18 22 19 13 20 15 23 21 24
REMARK SMILES IDX 14 25 16 26 19 27 17 28 20 29 18 31 29 33 30 34 31 35 32 36
REMARK SMILES IDX 33 37 34 38 35 39 36 40 37 41 38 42 39 43 100 44 40 45 99 46
REMARK SMILES IDX 41 47 42 48 43 49 93 50 44 51 98 52 92 53 94 54 45 55 97 56
REMARK SMILES IDX 91 57 90 58 46 60 78 61 58 62 77 63 59 64 62 65 76 66 95 67
REMARK SMILES IDX 60 68 61 69 75 71 96 72 63 73 47 74 48 75 56 76 49 77 55 78
REMARK SMILES IDX 57 79 54 80 50 81 51 82 52 83 53 84 79 85 80 86 88 87 81 88
REMARK SMILES IDX 87 89 89 90 86 91 82 92 83 93 84 94 85 95 64 96 65 97 73 98
REMARK SMILES IDX 66 99 72 100 74 101 71 102 67 103 68 104 69 105 70 106
REMARK H PARENT 12 21 12 22 20 30 18 32 94 59 62 70
REMARK Flexibility Score: inf
ROOT
ATOM      1  C   UNL     1       2.622   2.366  -0.152  1.00  0.00     0.188 C 
ENDROOT
BRANCH   1   2
ATOM      2  C   UNL     1       3.513   1.793   0.983  1.00  0.00     0.188 C 
BRANCH   2   3
ATOM      3  O   UNL     1       4.858   1.301   0.987  1.00  0.00    -0.376 OA
BRANCH   3   4
ATOM      4  C   UNL     1       5.794   0.939  -0.018  1.00  0.00     0.202 C 
BRANCH   4   5
ATOM      5  C   UNL     1       5.741  -0.422  -0.721  1.00  0.00     0.261 C 
BRANCH   5   6
ATOM      6  O   UNL     1       4.474  -0.695  -1.290  1.00  0.00    -0.461 OA
BRANCH   6   7
ATOM      7  C   UNL     1       3.427  -0.882  -0.459  1.00  0.00     0.344 C 
ATOM      8  O   UNL     1       2.311  -0.618  -0.896  1.00  0.00    -0.248 OA
BRANCH   7   9
ATOM      9  C   UNL     1       3.723  -1.389   0.975  1.00  0.00     0.351 C 
BRANCH   9  10
ATOM     10  O   UNL     1       3.936  -2.747   1.176  1.00  0.00    -0.481 OA
BRANCH  10  11
ATOM     11  C   UNL     1       2.936  -3.652   1.337  1.00  0.00     0.129 A 
ATOM     12  C   UNL     1       3.548  -4.844   1.774  1.00  0.00     0.047 A 
ATOM     13  C   UNL     1       1.555  -3.622   1.030  1.00  0.00     0.056 A 
ATOM     14  C   UNL     1       2.882  -6.053   1.745  1.00  0.00     0.004 A 
ATOM     15  C   UNL     1       0.931  -4.887   0.932  1.00  0.00     0.014 A 
ATOM     16  C   UNL     1       1.587  -6.080   1.262  1.00  0.00     0.001 A 
BRANCH  13  17
ATOM     17  C   UNL     1       0.730  -2.392   0.635  1.00  0.00     0.249 C 
ATOM     18  N   UNL     1       0.967  -1.197   1.470  1.00  0.00    -0.336 N 
ATOM     19  C   UNL     1      -0.796  -2.452   0.485  1.00  0.00     0.021 A 
ATOM     20  C   UNL     1       0.321  -1.209   2.787  1.00  0.00     0.266 C 
ATOM     21  H   UNL     1       0.624  -0.384   0.959  1.00  0.00     0.347 HD
ATOM     22  H   UNL     1       1.970  -1.176   1.651  1.00  0.00     0.347 HD
ATOM     23  C   UNL     1      -1.575  -2.297   1.659  1.00  0.00    -0.029 A 
ATOM     24  C   UNL     1      -1.396  -2.304  -0.775  1.00  0.00     0.060 A 
ATOM     25  C   UNL     1      -0.819  -2.221   2.958  1.00  0.00     0.097 C 
ATOM     26  C   UNL     1      -2.938  -2.014   1.575  1.00  0.00     0.054 A 
ATOM     27  C   UNL     1      -2.742  -1.968  -0.842  1.00  0.00     0.157 A 
ATOM     28  C   UNL     1      -3.501  -1.829   0.321  1.00  0.00     0.157 A 
BRANCH  27  29
ATOM     29  O   UNL     1      -3.351  -1.678  -2.034  1.00  0.00    -0.504 OA
ATOM     30  H   UNL     1      -4.261  -1.454  -2.053  1.00  0.00     0.293 HD
ENDBRANCH  27  29
BRANCH  28  31
ATOM     31  O   UNL     1      -4.802  -1.418   0.233  1.00  0.00    -0.504 OA
ATOM     32  H   UNL     1      -5.316  -1.323   1.010  1.00  0.00     0.293 HD
ENDBRANCH  28  31
ENDBRANCH  13  17
ENDBRANCH  10  11
ENDBRANCH   9  10
ENDBRANCH   7   9
ENDBRANCH   6   7
ENDBRANCH   5   6
ENDBRANCH   4   5
ENDBRANCH   3   4
ENDBRANCH   2   3
ENDBRANCH   1   2
BRANCH   1  33
ATOM     33  O   UNL     1       2.975   3.534  -0.868  1.00  0.00    -0.377 OA
BRANCH  33  34
ATOM     34  C   UNL     1       4.323   3.551  -1.284  1.00  0.00     0.188 C 
BRANCH  34  35
ATOM     35  C   UNL     1       5.214   4.189  -0.198  1.00  0.00     0.188 C 
BRANCH  35  36
ATOM     36  O   UNL     1       4.530   4.358   1.033  1.00  0.00    -0.376 OA
BRANCH  36  37
ATOM     37  C   UNL     1       3.877   5.594   1.284  1.00  0.00     0.202 C 
BRANCH  37  38
ATOM     38  C   UNL     1       2.999   6.306   0.232  1.00  0.00     0.261 C 
BRANCH  38  39
ATOM     39  O   UNL     1       3.442   6.329  -1.132  1.00  0.00    -0.460 OA
BRANCH  39  40
ATOM     40  C   UNL     1       4.573   7.014  -1.435  1.00  0.00     0.338 C 
ATOM     41  O   UNL     1       5.243   7.670  -0.684  1.00  0.00    -0.246 OA
BRANCH  40  42
ATOM     42  C   UNL     1       4.972   6.558  -2.800  1.00  0.00     0.060 A 
ATOM     43  C   UNL     1       6.235   5.967  -2.972  1.00  0.00     0.016 A 
ATOM     44  C   UNL     1       4.069   6.607  -3.866  1.00  0.00     0.016 A 
ATOM     45  C   UNL     1       6.603   5.442  -4.211  1.00  0.00     0.010 A 
ATOM     46  C   UNL     1       4.458   6.131  -5.121  1.00  0.00     0.010 A 
ATOM     47  C   UNL     1       5.739   5.580  -5.305  1.00  0.00    -0.014 A 
BRANCH  47  48
ATOM     48  C   UNL     1       6.296   5.464  -6.674  1.00  0.00     0.031 A 
ATOM     49  C   UNL     1       6.859   6.722  -7.282  1.00  0.00     0.074 A 
ATOM     50  C   UNL     1       6.330   4.301  -7.347  1.00  0.00     0.049 A 
ATOM     51  N   UNL     1       7.345   6.929  -8.475  1.00  0.00    -0.248 NA
ATOM     52  C   UNL     1       6.865   7.912  -6.413  1.00  0.00     0.031 C 
ATOM     53  C   UNL     1       5.877   3.010  -6.836  1.00  0.00     0.029 A 
ATOM     54  N   UNL     1       6.766   4.026  -8.620  1.00  0.00    -0.354 N 
ATOM     55  C   UNL     1       7.713   8.270  -8.501  1.00  0.00     0.074 A 
ATOM     56  C   UNL     1       7.361   8.835  -7.218  1.00  0.00     0.031 C 
ATOM     57  C   UNL     1       6.043   2.080  -7.795  1.00  0.00     0.029 A 
ATOM     58  C   UNL     1       6.575   2.718  -9.000  1.00  0.00     0.049 A 
ATOM     59  H   UNL     1       7.177   4.702  -9.206  1.00  0.00     0.167 HD
ATOM     60  C   UNL     1       8.296   8.969  -9.504  1.00  0.00     0.034 A 
ATOM     61  C   UNL     1       6.777   2.121 -10.193  1.00  0.00     0.034 A 
ATOM     62  C   UNL     1       8.611   8.398 -10.787  1.00  0.00     0.049 A 
ATOM     63  C   UNL     1       7.323   2.948 -11.339  1.00  0.00     0.074 A 
ATOM     64  C   UNL     1       9.193   9.009 -11.882  1.00  0.00     0.029 A 
ATOM     65  N   UNL     1       8.350   7.083 -11.154  1.00  0.00    -0.354 N 
ATOM     66  N   UNL     1       7.667   4.216 -11.356  1.00  0.00    -0.248 NA
ATOM     67  C   UNL     1       7.510   2.260 -12.623  1.00  0.00     0.031 C 
ATOM     68  C   UNL     1       9.212   8.088 -12.935  1.00  0.00     0.029 A 
ATOM     69  C   UNL     1       8.727   6.875 -12.471  1.00  0.00     0.049 A 
ATOM     70  H   UNL     1       7.955   6.400 -10.566  1.00  0.00     0.167 HD
ATOM     71  C   UNL     1       8.146   4.465 -12.642  1.00  0.00     0.074 A 
ATOM     72  C   UNL     1       8.056   3.213 -13.365  1.00  0.00     0.031 C 
ATOM     73  C   UNL     1       8.624   5.619 -13.177  1.00  0.00     0.034 A 
BRANCH  60  74
ATOM     74  C   UNL     1       8.558  10.434  -9.260  1.00  0.00     0.023 A 
ATOM     75  C   UNL     1       9.447  10.873  -8.262  1.00  0.00     0.031 A 
ATOM     76  C   UNL     1       7.868  11.408 -10.003  1.00  0.00     0.131 A 
ATOM     77  C   UNL     1       9.567  12.243  -7.986  1.00  0.00     0.055 A 
ATOM     78  C   UNL     1       8.056  12.773  -9.780  1.00  0.00     0.041 A 
ATOM     79  F   UNL     1       6.982  11.049 -10.945  1.00  0.00    -0.206 F 
ATOM     80  C   UNL     1       8.899  13.198  -8.757  1.00  0.00     0.022 A 
BRANCH  77  81
ATOM     81  S   UNL     1      10.490  12.753  -6.510  1.00  0.00     0.124 S 
ATOM     82  O   UNL     1       9.756  12.065  -5.451  1.00  0.00    -0.237 OA
ATOM     83  O   UNL     1      11.831  12.252  -6.788  1.00  0.00    -0.237 OA
ATOM     84  O   UNL     1      10.355  14.208  -6.507  1.00  0.00    -0.744 OA
ENDBRANCH  77  81
ENDBRANCH  60  74
BRANCH  61  85
ATOM     85  C   UNL     1       6.422   0.685 -10.400  1.00  0.00     0.023 A 
ATOM     86  C   UNL     1       7.396  -0.263 -10.754  1.00  0.00     0.031 A 
ATOM     87  C   UNL     1       5.086   0.254 -10.318  1.00  0.00     0.131 A 
ATOM     88  C   UNL     1       7.014  -1.580 -11.059  1.00  0.00     0.055 A 
ATOM     89  C   UNL     1       4.719  -1.071 -10.566  1.00  0.00     0.041 A 
ATOM     90  F   UNL     1       4.111   1.118  -9.993  1.00  0.00    -0.206 F 
ATOM     91  C   UNL     1       5.684  -1.994 -10.953  1.00  0.00     0.022 A 
BRANCH  88  92
ATOM     92  S   UNL     1       8.271  -2.726 -11.692  1.00  0.00     0.124 S 
ATOM     93  O   UNL     1       8.737  -2.026 -12.883  1.00  0.00    -0.237 OA
ATOM     94  O   UNL     1       9.210  -2.791 -10.576  1.00  0.00    -0.237 OA
ATOM     95  O   UNL     1       7.518  -3.953 -11.942  1.00  0.00    -0.744 OA
ENDBRANCH  88  92
ENDBRANCH  61  85
BRANCH  73  96
ATOM     96  C   UNL     1       9.140   5.564 -14.595  1.00  0.00     0.023 A 
ATOM     97  C   UNL     1       8.291   5.317 -15.688  1.00  0.00     0.031 A 
ATOM     98  C   UNL     1      10.508   5.770 -14.854  1.00  0.00     0.131 A 
ATOM     99  C   UNL     1       8.828   5.227 -16.982  1.00  0.00     0.055 A 
ATOM    100  C   UNL     1      11.024   5.746 -16.150  1.00  0.00     0.041 A 
ATOM    101  F   UNL     1      11.365   6.009 -13.849  1.00  0.00    -0.206 F 
ATOM    102  C   UNL     1      10.184   5.460 -17.222  1.00  0.00     0.022 A 
BRANCH  99 103
ATOM    103  S   UNL     1       7.744   4.704 -18.340  1.00  0.00     0.124 S 
ATOM    104  O   UNL     1       7.274   3.405 -17.869  1.00  0.00    -0.237 OA
ATOM    105  O   UNL     1       6.748   5.770 -18.372  1.00  0.00    -0.237 OA
ATOM    106  O   UNL     1       8.639   4.659 -19.494  1.00  0.00    -0.744 OA
ENDBRANCH  99 103
ENDBRANCH  73  96
ENDBRANCH  47  48
ENDBRANCH  40  42
ENDBRANCH  39  40
ENDBRANCH  38  39
ENDBRANCH  37  38
ENDBRANCH  36  37
ENDBRANCH  35  36
ENDBRANCH  34  35
ENDBRANCH  33  34
ENDBRANCH   1  33
TORSDOF 28
