REMARK SMILES C[C@]12C(=O)N(c3ccc(C(=O)OCCOCCOCCOCCOC(=O)c4ccc(-c5c6nc(c(-c7cc(S(=O)(=O)[O-])ccc7F)c7ccc([nH]7)c(-c7cc(S(=O)(=O)[O-])ccc7F)c7nc(c(-c8cc(S(=O)(=O)[O-])ccc8F)c8ccc5[nH]8)C=C7)C=C6)cc4)cc3)C(=O)[C@H]1[C@H]1c3ccccc3[C@@H]2c2ccccc21
REMARK SMILES IDX 19 1 18 2 17 3 16 4 15 5 14 6 13 7 12 8 10 9 11 10 9 11 6 12
REMARK SMILES IDX 7 13 91 14 8 15 90 16 5 17 1 18 2 19 3 20 94 21 102 22 4 23
REMARK SMILES IDX 92 24 95 25 101 26 103 27 93 28 96 29 108 30 100 31 104 32
REMARK SMILES IDX 97 33 107 34 99 35 105 36 98 37 106 38 20 39 21 40 22 41
REMARK SMILES IDX 23 42 24 43 25 44 26 45 27 46 28 47 89 48 29 49 88 50 30 51
REMARK SMILES IDX 31 52 32 53 82 54 33 55 87 56 81 57 83 58 34 59 86 60 80 61
REMARK SMILES IDX 79 62 35 64 67 65 47 66 66 67 48 68 51 69 65 70 84 71 49 72
REMARK SMILES IDX 50 73 64 75 85 76 52 77 36 78 37 79 45 80 38 81 44 82 46 83
REMARK SMILES IDX 43 84 39 85 40 86 41 87 42 88 68 89 69 90 77 91 70 92 76 93
REMARK SMILES IDX 78 94 75 95 71 96 72 97 73 98 74 99 53 100 54 101 62 102
REMARK SMILES IDX 55 103 61 104 63 105 60 106 56 107 57 108 58 109 59 110
REMARK H PARENT 83 63 51 74
REMARK Flexibility Score: inf
ROOT
ATOM      1  C   UNL     1       0.872  10.560  -4.872  1.00  0.00     0.188 C 
ENDROOT
BRANCH   1   2
ATOM      2  O   UNL     1       0.556   9.239  -5.288  1.00  0.00    -0.377 OA
BRANCH   2   3
ATOM      3  C   UNL     1       1.521   8.250  -4.995  1.00  0.00     0.188 C 
BRANCH   3   4
ATOM      4  C   UNL     1       2.379   7.840  -6.208  1.00  0.00     0.188 C 
BRANCH   4   5
ATOM      5  O   UNL     1       2.278   8.516  -7.457  1.00  0.00    -0.376 OA
BRANCH   5   6
ATOM      6  C   UNL     1       1.013   8.916  -7.969  1.00  0.00     0.202 C 
BRANCH   6   7
ATOM      7  C   UNL     1      -0.154   7.919  -8.083  1.00  0.00     0.261 C 
BRANCH   7   8
ATOM      8  O   UNL     1      -0.403   7.123  -6.917  1.00  0.00    -0.460 OA
BRANCH   8   9
ATOM      9  C   UNL     1      -0.135   5.806  -7.042  1.00  0.00     0.338 C 
ATOM     10  O   UNL     1       0.251   5.211  -8.035  1.00  0.00    -0.246 OA
BRANCH   9  11
ATOM     11  C   UNL     1      -0.153   5.177  -5.710  1.00  0.00     0.060 A 
ATOM     12  C   UNL     1      -0.088   3.697  -3.318  1.00  0.00     0.052 A 
ATOM     13  C   UNL     1       1.084   3.930  -4.059  1.00  0.00     0.028 A 
ATOM     14  C   UNL     1      -1.264   4.344  -3.732  1.00  0.00     0.028 A 
ATOM     15  C   UNL     1       1.040   4.606  -5.272  1.00  0.00     0.018 A 
ATOM     16  C   UNL     1      -1.294   5.107  -4.912  1.00  0.00     0.018 A 
BRANCH  12  17
ATOM     17  N   UNL     1      -0.081   2.634  -2.368  1.00  0.00    -0.250 N 
ATOM     18  C   UNL     1       1.412   0.230  -0.270  1.00  0.00     0.024 C 
ATOM     19  C   UNL     1       0.858   0.613  -1.648  1.00  0.00     0.071 C 
ATOM     20  C   UNL     1       1.080   2.082  -1.878  1.00  0.00     0.241 C 
ATOM     21  C   UNL     1      -0.689   0.458  -1.709  1.00  0.00     0.107 C 
ATOM     22  C   UNL     1       1.529  -0.173  -2.836  1.00  0.00     0.066 C 
ATOM     23  O   UNL     1       2.156   2.630  -1.668  1.00  0.00    -0.273 OA
ATOM     24  C   UNL     1      -1.177   1.851  -2.064  1.00  0.00     0.238 C 
ATOM     25  C   UNL     1      -1.079  -0.567  -2.825  1.00  0.00     0.063 C 
ATOM     26  C   UNL     1       0.841   0.230  -4.152  1.00  0.00    -0.036 A 
ATOM     27  C   UNL     1       1.147  -1.630  -2.610  1.00  0.00    -0.036 A 
ATOM     28  O   UNL     1      -2.367   2.132  -2.113  1.00  0.00    -0.274 OA
ATOM     29  C   UNL     1      -0.564   0.016  -4.143  1.00  0.00    -0.036 A 
ATOM     30  C   UNL     1      -0.259  -1.843  -2.579  1.00  0.00    -0.036 A 
ATOM     31  C   UNL     1       1.454   0.794  -5.262  1.00  0.00     0.005 A 
ATOM     32  C   UNL     1       2.044  -2.682  -2.495  1.00  0.00     0.005 A 
ATOM     33  C   UNL     1      -1.353   0.398  -5.219  1.00  0.00     0.004 A 
ATOM     34  C   UNL     1      -0.759  -3.128  -2.440  1.00  0.00     0.004 A 
ATOM     35  C   UNL     1       0.656   1.181  -6.343  1.00  0.00     0.000 A 
ATOM     36  C   UNL     1       1.532  -3.969  -2.350  1.00  0.00     0.000 A 
ATOM     37  C   UNL     1      -0.735   0.991  -6.319  1.00  0.00     0.000 A 
ATOM     38  C   UNL     1       0.145  -4.189  -2.324  1.00  0.00     0.000 A 
ENDBRANCH  12  17
ENDBRANCH   9  11
ENDBRANCH   8   9
ENDBRANCH   7   8
ENDBRANCH   6   7
ENDBRANCH   5   6
ENDBRANCH   4   5
ENDBRANCH   3   4
ENDBRANCH   2   3
ENDBRANCH   1   2
BRANCH   1  39
ATOM     39  C   UNL     1       2.293  11.071  -5.164  1.00  0.00     0.188 C 
BRANCH  39  40
ATOM     40  O   UNL     1       3.312  10.351  -4.462  1.00  0.00    -0.376 OA
BRANCH  40  41
ATOM     41  C   UNL     1       3.851  10.992  -3.307  1.00  0.00     0.202 C 
BRANCH  41  42
ATOM     42  C   UNL     1       3.016  10.803  -2.032  1.00  0.00     0.261 C 
BRANCH  42  43
ATOM     43  O   UNL     1       1.727  11.434  -2.039  1.00  0.00    -0.460 OA
BRANCH  43  44
ATOM     44  C   UNL     1       1.677  12.768  -2.253  1.00  0.00     0.338 C 
ATOM     45  O   UNL     1       2.624  13.526  -2.356  1.00  0.00    -0.246 OA
BRANCH  44  46
ATOM     46  C   UNL     1       0.271  13.121  -2.551  1.00  0.00     0.060 A 
ATOM     47  C   UNL     1      -0.773  12.651  -1.747  1.00  0.00     0.016 A 
ATOM     48  C   UNL     1      -0.003  13.904  -3.679  1.00  0.00     0.016 A 
ATOM     49  C   UNL     1      -2.091  12.994  -2.056  1.00  0.00     0.010 A 
ATOM     50  C   UNL     1      -1.323  14.239  -3.991  1.00  0.00     0.010 A 
ATOM     51  C   UNL     1      -2.373  13.805  -3.168  1.00  0.00    -0.014 A 
BRANCH  51  52
ATOM     52  C   UNL     1      -3.736  14.364  -3.340  1.00  0.00     0.031 A 
ATOM     53  C   UNL     1      -4.727  13.781  -4.298  1.00  0.00     0.074 A 
ATOM     54  C   UNL     1      -4.060  15.442  -2.599  1.00  0.00     0.049 A 
ATOM     55  N   UNL     1      -5.979  14.114  -4.476  1.00  0.00    -0.248 NA
ATOM     56  C   UNL     1      -4.260  12.694  -5.168  1.00  0.00     0.031 C 
ATOM     57  C   UNL     1      -3.153  16.104  -1.661  1.00  0.00     0.029 A 
ATOM     58  N   UNL     1      -5.220  16.167  -2.514  1.00  0.00    -0.354 N 
ATOM     59  C   UNL     1      -6.465  13.263  -5.460  1.00  0.00     0.074 A 
ATOM     60  C   UNL     1      -5.354  12.431  -5.875  1.00  0.00     0.031 C 
ATOM     61  C   UNL     1      -3.794  17.130  -1.085  1.00  0.00     0.029 A 
ATOM     62  C   UNL     1      -5.147  17.215  -1.627  1.00  0.00     0.049 A 
ATOM     63  H   UNL     1      -6.028  15.957  -3.036  1.00  0.00     0.167 HD
ATOM     64  C   UNL     1      -7.726  13.179  -5.949  1.00  0.00     0.034 A 
ATOM     65  C   UNL     1      -6.065  18.141  -1.282  1.00  0.00     0.034 A 
ATOM     66  C   UNL     1      -8.812  14.035  -5.531  1.00  0.00     0.049 A 
ATOM     67  C   UNL     1      -7.449  18.046  -1.865  1.00  0.00     0.074 A 
ATOM     68  C   UNL     1     -10.139  13.983  -5.924  1.00  0.00     0.029 A 
ATOM     69  N   UNL     1      -8.704  15.098  -4.646  1.00  0.00    -0.354 N 
ATOM     70  N   UNL     1      -7.929  17.156  -2.701  1.00  0.00    -0.248 NA
ATOM     71  C   UNL     1      -8.423  19.064  -1.450  1.00  0.00     0.031 C 
ATOM     72  C   UNL     1     -10.814  15.053  -5.335  1.00  0.00     0.029 A 
ATOM     73  C   UNL     1      -9.929  15.733  -4.513  1.00  0.00     0.049 A 
ATOM     74  H   UNL     1      -7.877  15.363  -4.181  1.00  0.00     0.167 HD
ATOM     75  C   UNL     1      -9.265  17.491  -2.894  1.00  0.00     0.074 A 
ATOM     76  C   UNL     1      -9.524  18.652  -2.068  1.00  0.00     0.031 C 
ATOM     77  C   UNL     1     -10.189  16.889  -3.685  1.00  0.00     0.034 A 
BRANCH  64  78
ATOM     78  C   UNL     1      -8.043  12.112  -6.969  1.00  0.00     0.023 A 
ATOM     79  C   UNL     1      -8.490  12.469  -8.256  1.00  0.00     0.031 A 
ATOM     80  C   UNL     1      -8.063  10.752  -6.611  1.00  0.00     0.131 A 
ATOM     81  C   UNL     1      -8.972  11.480  -9.124  1.00  0.00     0.055 A 
ATOM     82  C   UNL     1      -8.511   9.768  -7.493  1.00  0.00     0.041 A 
ATOM     83  F   UNL     1      -7.655  10.362  -5.393  1.00  0.00    -0.206 F 
ATOM     84  C   UNL     1      -8.981  10.132  -8.751  1.00  0.00     0.022 A 
BRANCH  81  85
ATOM     85  S   UNL     1      -9.672  11.908 -10.742  1.00  0.00     0.124 S 
ATOM     86  O   UNL     1      -8.802  11.164 -11.651  1.00  0.00    -0.237 OA
ATOM     87  O   UNL     1     -11.036  11.399 -10.630  1.00  0.00    -0.237 OA
ATOM     88  O   UNL     1      -9.542  13.359 -10.809  1.00  0.00    -0.744 OA
ENDBRANCH  81  85
ENDBRANCH  64  78
BRANCH  65  89
ATOM     89  C   UNL     1      -5.696  19.173  -0.272  1.00  0.00     0.023 A 
ATOM     90  C   UNL     1      -4.661  20.092  -0.525  1.00  0.00     0.031 A 
ATOM     91  C   UNL     1      -6.278  19.166   1.006  1.00  0.00     0.131 A 
ATOM     92  C   UNL     1      -4.193  20.915   0.507  1.00  0.00     0.055 A 
ATOM     93  C   UNL     1      -5.856  20.037   2.011  1.00  0.00     0.041 A 
ATOM     94  F   UNL     1      -7.256  18.295   1.299  1.00  0.00    -0.206 F 
ATOM     95  C   UNL     1      -4.794  20.904   1.769  1.00  0.00     0.022 A 
BRANCH  92  96
ATOM     96  S   UNL     1      -2.697  21.920   0.289  1.00  0.00     0.124 S 
ATOM     97  O   UNL     1      -3.206  23.272   0.497  1.00  0.00    -0.237 OA
ATOM     98  O   UNL     1      -1.833  21.401   1.347  1.00  0.00    -0.237 OA
ATOM     99  O   UNL     1      -2.268  21.608  -1.070  1.00  0.00    -0.744 OA
ENDBRANCH  92  96
ENDBRANCH  65  89
BRANCH  77 100
ATOM    100  C   UNL     1     -11.587  17.462  -3.727  1.00  0.00     0.023 A 
ATOM    101  C   UNL     1     -12.682  16.686  -3.297  1.00  0.00     0.031 A 
ATOM    102  C   UNL     1     -11.849  18.706  -4.326  1.00  0.00     0.131 A 
ATOM    103  C   UNL     1     -13.988  17.143  -3.514  1.00  0.00     0.055 A 
ATOM    104  C   UNL     1     -13.151  19.178  -4.496  1.00  0.00     0.041 A 
ATOM    105  F   UNL     1     -10.841  19.480  -4.759  1.00  0.00    -0.206 F 
ATOM    106  C   UNL     1     -14.228  18.389  -4.104  1.00  0.00     0.022 A 
BRANCH 103 107
ATOM    107  S   UNL     1     -15.423  16.105  -3.121  1.00  0.00     0.124 S 
ATOM    108  O   UNL     1     -16.138  16.932  -2.151  1.00  0.00    -0.237 OA
ATOM    109  O   UNL     1     -16.071  15.970  -4.423  1.00  0.00    -0.237 OA
ATOM    110  O   UNL     1     -14.837  14.883  -2.582  1.00  0.00    -0.744 OA
ENDBRANCH 103 107
ENDBRANCH  77 100
ENDBRANCH  51  52
ENDBRANCH  44  46
ENDBRANCH  43  44
ENDBRANCH  42  43
ENDBRANCH  41  42
ENDBRANCH  40  41
ENDBRANCH  39  40
ENDBRANCH   1  39
TORSDOF 24
