REMARK SMILES CCCCCCNC(=O)Oc1cccc(-c2ccc([C@@H](C)C(=O)OCCOCCOCCOCCOC(=O)c3ccc(-c4c5nc(c(-c6cc(S(=O)(=O)[O-])ccc6F)c6ccc([nH]6)c(-c6cc(S(=O)(=O)[O-])ccc6F)c6nc(c(-c7cc(S(=O)(=O)[O-])ccc7F)c7ccc4[nH]7)C=C6)C=C5)cc3)cc2)c1
REMARK SMILES IDX 27 1 26 2 25 3 24 4 22 5 23 6 20 7 21 8 19 9 16 10 17 11
REMARK SMILES IDX 103 12 18 13 102 14 15 15 11 16 12 17 104 18 13 19 14 20
REMARK SMILES IDX 10 21 8 22 7 23 9 25 6 26 5 27 4 28 3 29 2 30 1 31 28 32
REMARK SMILES IDX 29 33 30 34 31 35 32 36 33 37 34 38 35 39 36 40 37 41 38 42
REMARK SMILES IDX 39 43 40 44 101 45 41 46 100 47 42 48 43 49 44 50 94 51
REMARK SMILES IDX 45 52 99 53 93 54 95 55 46 56 98 57 92 58 91 59 47 61 79 62
REMARK SMILES IDX 59 63 78 64 60 65 63 66 77 67 96 68 61 69 62 70 76 72 97 73
REMARK SMILES IDX 64 74 48 75 49 76 57 77 50 78 56 79 58 80 55 81 51 82 52 83
REMARK SMILES IDX 53 84 54 85 80 86 81 87 89 88 82 89 88 90 90 91 87 92 83 93
REMARK SMILES IDX 84 94 85 95 86 96 65 97 66 98 74 99 67 100 73 101 75 102
REMARK SMILES IDX 72 103 68 104 69 105 70 106 71 107
REMARK H PARENT 7 24 95 60 63 71
REMARK Flexibility Score: inf
ROOT
ATOM      1  O   UNL     1      -0.830   8.066 -12.541  1.00  0.00    -0.376 OA
ENDROOT
BRANCH   1   2
ATOM      2  C   UNL     1      -1.159   9.445 -12.448  1.00  0.00     0.202 C 
BRANCH   2   3
ATOM      3  C   UNL     1      -2.608   9.914 -12.680  1.00  0.00     0.261 C 
BRANCH   3   4
ATOM      4  O   UNL     1      -3.643   9.235 -11.938  1.00  0.00    -0.463 OA
BRANCH   4   5
ATOM      5  C   UNL     1      -4.391   8.342 -12.625  1.00  0.00     0.313 C 
ATOM      6  O   UNL     1      -4.239   8.112 -13.825  1.00  0.00    -0.252 OA
BRANCH   5   7
ATOM      7  C   UNL     1      -5.492   7.634 -11.835  1.00  0.00     0.126 C 
ATOM      8  C   UNL     1      -6.839   8.195 -12.277  1.00  0.00     0.025 C 
BRANCH   7   9
ATOM      9  C   UNL     1      -5.421   7.490 -10.313  1.00  0.00    -0.034 A 
ATOM     10  C   UNL     1      -5.259   7.085  -7.475  1.00  0.00    -0.018 A 
ATOM     11  C   UNL     1      -5.273   8.373  -8.039  1.00  0.00     0.009 A 
ATOM     12  C   UNL     1      -5.328   6.001  -8.358  1.00  0.00     0.009 A 
ATOM     13  C   UNL     1      -5.356   8.576  -9.432  1.00  0.00     0.005 A 
ATOM     14  C   UNL     1      -5.419   6.198  -9.746  1.00  0.00     0.005 A 
BRANCH  10  15
ATOM     15  C   UNL     1      -5.239   6.878  -6.010  1.00  0.00    -0.015 A 
ATOM     16  C   UNL     1      -4.287   5.921  -3.980  1.00  0.00     0.133 A 
ATOM     17  C   UNL     1      -5.318   6.456  -3.209  1.00  0.00     0.047 A 
ATOM     18  C   UNL     1      -4.246   6.112  -5.368  1.00  0.00     0.056 A 
ATOM     19  C   UNL     1      -6.306   7.214  -3.829  1.00  0.00     0.004 A 
ATOM     20  C   UNL     1      -6.265   7.421  -5.212  1.00  0.00     0.009 A 
BRANCH  16  21
ATOM     21  O   UNL     1      -3.370   5.091  -3.306  1.00  0.00    -0.410 OA
BRANCH  21  22
ATOM     22  C   UNL     1      -2.036   5.470  -3.321  1.00  0.00     0.412 C 
ATOM     23  N   UNL     1      -1.232   4.685  -2.537  1.00  0.00    -0.321 N 
ATOM     24  H   UNL     1      -0.266   4.874  -2.578  1.00  0.00     0.167 HD
ATOM     25  O   UNL     1      -1.565   6.409  -3.951  1.00  0.00    -0.224 OA
BRANCH  23  26
ATOM     26  C   UNL     1      -1.637   3.608  -1.655  1.00  0.00     0.119 C 
BRANCH  26  27
ATOM     27  C   UNL     1      -1.020   2.266  -2.052  1.00  0.00     0.021 C 
BRANCH  27  28
ATOM     28  C   UNL     1       0.510   2.196  -1.946  1.00  0.00     0.002 C 
BRANCH  28  29
ATOM     29  C   UNL     1       1.091   2.402  -0.542  1.00  0.00    -0.000 C 
BRANCH  29  30
ATOM     30  C   UNL     1       0.629   1.400   0.519  1.00  0.00    -0.003 C 
ATOM     31  C   UNL     1       1.036  -0.034   0.216  1.00  0.00     0.004 C 
ENDBRANCH  29  30
ENDBRANCH  28  29
ENDBRANCH  27  28
ENDBRANCH  26  27
ENDBRANCH  23  26
ENDBRANCH  21  22
ENDBRANCH  16  21
ENDBRANCH  10  15
ENDBRANCH   7   9
ENDBRANCH   5   7
ENDBRANCH   4   5
ENDBRANCH   3   4
ENDBRANCH   2   3
ENDBRANCH   1   2
BRANCH   1  32
ATOM     32  C   UNL     1      -1.500   7.104 -11.735  1.00  0.00     0.188 C 
BRANCH  32  33
ATOM     33  C   UNL     1      -2.022   7.448 -10.332  1.00  0.00     0.188 C 
BRANCH  33  34
ATOM     34  O   UNL     1      -1.878   8.798  -9.948  1.00  0.00    -0.377 OA
BRANCH  34  35
ATOM     35  C   UNL     1      -0.840   9.082  -9.025  1.00  0.00     0.188 C 
BRANCH  35  36
ATOM     36  C   UNL     1       0.509   8.380  -9.270  1.00  0.00     0.188 C 
BRANCH  36  37
ATOM     37  O   UNL     1       0.415   6.960  -9.367  1.00  0.00    -0.376 OA
BRANCH  37  38
ATOM     38  C   UNL     1       0.666   6.190  -8.197  1.00  0.00     0.202 C 
BRANCH  38  39
ATOM     39  C   UNL     1      -0.324   6.311  -7.026  1.00  0.00     0.261 C 
BRANCH  39  40
ATOM     40  O   UNL     1      -0.498   7.620  -6.472  1.00  0.00    -0.460 OA
BRANCH  40  41
ATOM     41  C   UNL     1       0.590   8.246  -5.971  1.00  0.00     0.338 C 
ATOM     42  O   UNL     1       1.718   7.810  -5.917  1.00  0.00    -0.246 OA
BRANCH  41  43
ATOM     43  C   UNL     1       0.212   9.658  -5.722  1.00  0.00     0.060 A 
ATOM     44  C   UNL     1       0.916  10.668  -6.390  1.00  0.00     0.016 A 
ATOM     45  C   UNL     1      -0.821   9.984  -4.840  1.00  0.00     0.016 A 
ATOM     46  C   UNL     1       0.626  12.010  -6.138  1.00  0.00     0.010 A 
ATOM     47  C   UNL     1      -1.096  11.331  -4.571  1.00  0.00     0.010 A 
ATOM     48  C   UNL     1      -0.345  12.349  -5.187  1.00  0.00    -0.014 A 
BRANCH  48  49
ATOM     49  C   UNL     1      -0.403  13.744  -4.677  1.00  0.00     0.031 A 
ATOM     50  C   UNL     1       0.309  14.059  -3.388  1.00  0.00     0.074 A 
ATOM     51  C   UNL     1      -1.020  14.724  -5.362  1.00  0.00     0.049 A 
ATOM     52  N   UNL     1       0.395  15.188  -2.733  1.00  0.00    -0.248 NA
ATOM     53  C   UNL     1       1.019  12.938  -2.752  1.00  0.00     0.031 C 
ATOM     54  C   UNL     1      -1.691  14.561  -6.649  1.00  0.00     0.029 A 
ATOM     55  N   UNL     1      -1.178  16.056  -5.066  1.00  0.00    -0.354 N 
ATOM     56  C   UNL     1       1.166  14.914  -1.607  1.00  0.00     0.074 A 
ATOM     57  C   UNL     1       1.479  13.501  -1.647  1.00  0.00     0.031 C 
ATOM     58  C   UNL     1      -2.191  15.749  -7.033  1.00  0.00     0.029 A 
ATOM     59  C   UNL     1      -1.911  16.748  -6.001  1.00  0.00     0.049 A 
ATOM     60  H   UNL     1      -0.802  16.477  -4.259  1.00  0.00     0.167 HD
ATOM     61  C   UNL     1       1.586  15.763  -0.637  1.00  0.00     0.034 A 
ATOM     62  C   UNL     1      -2.325  18.033  -6.011  1.00  0.00     0.034 A 
ATOM     63  C   UNL     1       1.247  17.165  -0.600  1.00  0.00     0.049 A 
ATOM     64  C   UNL     1      -1.944  18.938  -4.862  1.00  0.00     0.074 A 
ATOM     65  C   UNL     1       1.618  18.118   0.333  1.00  0.00     0.029 A 
ATOM     66  N   UNL     1       0.441  17.814  -1.528  1.00  0.00    -0.354 N 
ATOM     67  N   UNL     1      -1.214  18.670  -3.803  1.00  0.00    -0.248 NA
ATOM     68  C   UNL     1      -2.439  20.320  -4.914  1.00  0.00     0.031 C 
ATOM     69  C   UNL     1       0.969  19.316   0.018  1.00  0.00     0.029 A 
ATOM     70  C   UNL     1       0.270  19.142  -1.166  1.00  0.00     0.049 A 
ATOM     71  H   UNL     1       0.048  17.392  -2.326  1.00  0.00     0.167 HD
ATOM     72  C   UNL     1      -1.132  19.862  -3.084  1.00  0.00     0.074 A 
ATOM     73  C   UNL     1      -1.879  20.849  -3.836  1.00  0.00     0.031 C 
ATOM     74  C   UNL     1      -0.488  20.119  -1.915  1.00  0.00     0.034 A 
BRANCH  61  75
ATOM     75  C   UNL     1       2.402  15.173   0.490  1.00  0.00     0.023 A 
ATOM     76  C   UNL     1       3.648  14.561   0.264  1.00  0.00     0.031 A 
ATOM     77  C   UNL     1       1.901  15.173   1.805  1.00  0.00     0.131 A 
ATOM     78  C   UNL     1       4.305  13.899   1.313  1.00  0.00     0.055 A 
ATOM     79  C   UNL     1       2.605  14.595   2.862  1.00  0.00     0.041 A 
ATOM     80  F   UNL     1       0.706  15.718   2.081  1.00  0.00    -0.206 F 
ATOM     81  C   UNL     1       3.806  13.936   2.617  1.00  0.00     0.022 A 
BRANCH  78  82
ATOM     82  S   UNL     1       5.724  12.841   0.916  1.00  0.00     0.124 S 
ATOM     83  O   UNL     1       5.141  11.918  -0.055  1.00  0.00    -0.237 OA
ATOM     84  O   UNL     1       6.692  13.796   0.389  1.00  0.00    -0.237 OA
ATOM     85  O   UNL     1       6.074  12.240   2.201  1.00  0.00    -0.744 OA
ENDBRANCH  78  82
ENDBRANCH  61  75
BRANCH  62  86
ATOM     86  C   UNL     1      -3.178  18.543  -7.126  1.00  0.00     0.023 A 
ATOM     87  C   UNL     1      -2.735  19.575  -7.968  1.00  0.00     0.031 A 
ATOM     88  C   UNL     1      -4.474  18.037  -7.332  1.00  0.00     0.131 A 
ATOM     89  C   UNL     1      -3.594  20.096  -8.950  1.00  0.00     0.055 A 
ATOM     90  C   UNL     1      -5.303  18.519  -8.346  1.00  0.00     0.041 A 
ATOM     91  F   UNL     1      -4.952  17.055  -6.550  1.00  0.00    -0.206 F 
ATOM     92  C   UNL     1      -4.869  19.563  -9.155  1.00  0.00     0.022 A 
BRANCH  89  93
ATOM     93  S   UNL     1      -3.052  21.540  -9.904  1.00  0.00     0.124 S 
ATOM     94  O   UNL     1      -2.836  22.526  -8.852  1.00  0.00    -0.237 OA
ATOM     95  O   UNL     1      -1.854  21.034 -10.567  1.00  0.00    -0.237 OA
ATOM     96  O   UNL     1      -4.184  21.808 -10.789  1.00  0.00    -0.744 OA
ENDBRANCH  89  93
ENDBRANCH  62  86
BRANCH  74  97
ATOM     97  C   UNL     1      -0.518  21.542  -1.403  1.00  0.00     0.023 A 
ATOM     98  C   UNL     1      -1.710  22.162  -0.990  1.00  0.00     0.031 A 
ATOM     99  C   UNL     1       0.672  22.289  -1.329  1.00  0.00     0.131 A 
ATOM    100  C   UNL     1      -1.695  23.504  -0.578  1.00  0.00     0.055 A 
ATOM    101  C   UNL     1       0.692  23.600  -0.852  1.00  0.00     0.041 A 
ATOM    102  F   UNL     1       1.842  21.752  -1.714  1.00  0.00    -0.206 F 
ATOM    103  C   UNL     1      -0.498  24.220  -0.486  1.00  0.00     0.022 A 
BRANCH 100 104
ATOM    104  S   UNL     1      -3.274  24.338  -0.259  1.00  0.00     0.124 S 
ATOM    105  O   UNL     1      -3.963  24.180  -1.535  1.00  0.00    -0.237 OA
ATOM    106  O   UNL     1      -3.814  23.569   0.858  1.00  0.00    -0.237 OA
ATOM    107  O   UNL     1      -2.880  25.708   0.067  1.00  0.00    -0.744 OA
ENDBRANCH 100 104
ENDBRANCH  74  97
ENDBRANCH  48  49
ENDBRANCH  41  43
ENDBRANCH  40  41
ENDBRANCH  39  40
ENDBRANCH  38  39
ENDBRANCH  37  38
ENDBRANCH  36  37
ENDBRANCH  35  36
ENDBRANCH  34  35
ENDBRANCH  33  34
ENDBRANCH  32  33
ENDBRANCH   1  32
TORSDOF 32
