REMARK SMILES Cc1cc(F)cc(N[C@@](C)(C(=O)OCCOCCOCCOCCOC(=O)c2ccc(-c3c4nc(c(-c5cc(S(=O)(=O)[O-])ccc5F)c5ccc([nH]5)c(-c5cc(S(=O)(=O)[O-])ccc5F)c5nc(c(-c6cc(S(=O)(=O)[O-])ccc6F)c6ccc3[nH]6)C=C5)C=C4)cc2)c2ccc(O)cc2)c1
REMARK SMILES IDX 20 1 19 2 18 3 17 4 16 5 15 6 14 7 13 8 11 9 12 10 9 11
REMARK SMILES IDX 10 12 8 13 7 15 1 16 2 17 3 18 98 19 4 20 5 21 6 22 91 23
REMARK SMILES IDX 92 24 97 25 93 26 96 27 94 28 95 29 21 31 22 32 23 33 24 34
REMARK SMILES IDX 25 35 26 36 27 37 28 38 29 39 90 40 30 41 89 42 31 43 32 44
REMARK SMILES IDX 33 45 83 46 34 47 88 48 82 49 84 50 35 51 87 52 81 53 80 54
REMARK SMILES IDX 36 56 68 57 48 58 67 59 49 60 52 61 66 62 85 63 50 64 51 65
REMARK SMILES IDX 65 67 86 68 53 69 37 70 38 71 46 72 39 73 45 74 47 75 44 76
REMARK SMILES IDX 40 77 41 78 42 79 43 80 69 81 70 82 78 83 71 84 77 85 79 86
REMARK SMILES IDX 76 87 72 88 73 89 74 90 75 91 54 92 55 93 63 94 56 95 62 96
REMARK SMILES IDX 64 97 61 98 57 99 58 100 59 101 60 102
REMARK H PARENT 8 14 95 30 84 55 52 66
REMARK Flexibility Score: inf
ROOT
ATOM      1  C   UNL     1       2.072  -4.614   4.245  1.00  0.00     0.188 C 
ENDROOT
BRANCH   1   2
ATOM      2  O   UNL     1       1.240  -4.807   3.121  1.00  0.00    -0.377 OA
BRANCH   2   3
ATOM      3  C   UNL     1       0.305  -3.784   2.857  1.00  0.00     0.188 C 
BRANCH   3   4
ATOM      4  C   UNL     1      -1.150  -4.096   3.252  1.00  0.00     0.188 C 
BRANCH   4   5
ATOM      5  O   UNL     1      -1.549  -5.387   3.706  1.00  0.00    -0.376 OA
BRANCH   5   6
ATOM      6  C   UNL     1      -0.755  -6.524   3.401  1.00  0.00     0.202 C 
BRANCH   6   7
ATOM      7  C   UNL     1      -0.459  -6.853   1.923  1.00  0.00     0.261 C 
BRANCH   7   8
ATOM      8  O   UNL     1      -0.357  -5.717   1.033  1.00  0.00    -0.461 OA
BRANCH   8   9
ATOM      9  C   UNL     1      -1.367  -5.535   0.146  1.00  0.00     0.336 C 
ATOM     10  O   UNL     1      -2.249  -6.378  -0.028  1.00  0.00    -0.249 OA
BRANCH   9  11
ATOM     11  C   UNL     1      -1.305  -4.174  -0.673  1.00  0.00     0.158 C 
ATOM     12  C   UNL     1      -1.072  -4.697  -2.112  1.00  0.00     0.053 C 
BRANCH  11  13
ATOM     13  N   UNL     1      -0.098  -3.305  -0.376  1.00  0.00    -0.366 N 
ATOM     14  H   UNL     1       0.752  -3.795  -0.458  1.00  0.00     0.162 HD
BRANCH  13  15
ATOM     15  C   UNL     1       0.081  -1.976  -0.013  1.00  0.00     0.038 A 
ATOM     16  C   UNL     1       2.826   0.727  -0.344  1.00  0.00     0.044 C 
ATOM     17  C   UNL     1       1.514   0.052  -0.064  1.00  0.00    -0.046 A 
ATOM     18  C   UNL     1       0.467   0.816   0.447  1.00  0.00     0.042 A 
ATOM     19  C   UNL     1       1.299  -1.324  -0.320  1.00  0.00     0.029 A 
ATOM     20  C   UNL     1      -0.709   0.184   0.807  1.00  0.00     0.125 A 
ATOM     21  F   UNL     1      -1.704   0.908   1.339  1.00  0.00    -0.207 F 
ATOM     22  C   UNL     1      -0.878  -1.189   0.628  1.00  0.00     0.065 A 
ENDBRANCH  13  15
ENDBRANCH  11  13
BRANCH  11  23
ATOM     23  C   UNL     1      -2.650  -3.409  -0.608  1.00  0.00    -0.011 A 
ATOM     24  C   UNL     1      -2.839  -2.225  -1.352  1.00  0.00     0.010 A 
ATOM     25  C   UNL     1      -3.696  -3.793   0.258  1.00  0.00     0.010 A 
ATOM     26  C   UNL     1      -3.938  -1.391  -1.114  1.00  0.00     0.046 A 
ATOM     27  C   UNL     1      -4.823  -2.990   0.451  1.00  0.00     0.046 A 
ATOM     28  C   UNL     1      -4.910  -1.772  -0.202  1.00  0.00     0.115 A 
BRANCH  28  29
ATOM     29  O   UNL     1      -5.934  -0.909   0.053  1.00  0.00    -0.508 OA
ATOM     30  H   UNL     1      -5.979  -0.089  -0.397  1.00  0.00     0.293 HD
ENDBRANCH  28  29
ENDBRANCH  11  23
ENDBRANCH   9  11
ENDBRANCH   8   9
ENDBRANCH   7   8
ENDBRANCH   6   7
ENDBRANCH   5   6
ENDBRANCH   4   5
ENDBRANCH   3   4
ENDBRANCH   2   3
ENDBRANCH   1   2
BRANCH   1  31
ATOM     31  C   UNL     1       1.374  -4.120   5.521  1.00  0.00     0.188 C 
BRANCH  31  32
ATOM     32  O   UNL     1       0.619  -2.926   5.337  1.00  0.00    -0.376 OA
BRANCH  32  33
ATOM     33  C   UNL     1       1.220  -1.678   5.652  1.00  0.00     0.202 C 
BRANCH  33  34
ATOM     34  C   UNL     1       2.375  -1.172   4.766  1.00  0.00     0.261 C 
BRANCH  34  35
ATOM     35  O   UNL     1       3.533  -2.013   4.648  1.00  0.00    -0.460 OA
BRANCH  35  36
ATOM     36  C   UNL     1       4.155  -2.400   5.788  1.00  0.00     0.338 C 
ATOM     37  O   UNL     1       3.885  -2.053   6.913  1.00  0.00    -0.246 OA
BRANCH  36  38
ATOM     38  C   UNL     1       5.079  -3.508   5.434  1.00  0.00     0.060 A 
ATOM     39  C   UNL     1       4.916  -4.746   6.072  1.00  0.00     0.016 A 
ATOM     40  C   UNL     1       6.070  -3.341   4.464  1.00  0.00     0.016 A 
ATOM     41  C   UNL     1       5.765  -5.810   5.766  1.00  0.00     0.010 A 
ATOM     42  C   UNL     1       6.941  -4.398   4.181  1.00  0.00     0.010 A 
ATOM     43  C   UNL     1       6.813  -5.626   4.856  1.00  0.00    -0.014 A 
BRANCH  43  44
ATOM     44  C   UNL     1       7.907  -6.629   4.794  1.00  0.00     0.031 A 
ATOM     45  C   UNL     1       9.150  -6.364   5.598  1.00  0.00     0.074 A 
ATOM     46  C   UNL     1       7.797  -7.754   4.068  1.00  0.00     0.049 A 
ATOM     47  N   UNL     1      10.260  -7.050   5.672  1.00  0.00    -0.248 NA
ATOM     48  C   UNL     1       9.135  -5.147   6.424  1.00  0.00     0.031 C 
ATOM     49  C   UNL     1       6.625  -8.143   3.287  1.00  0.00     0.029 A 
ATOM     50  N   UNL     1       8.694  -8.773   3.861  1.00  0.00    -0.354 N 
ATOM     51  C   UNL     1      11.084  -6.340   6.540  1.00  0.00     0.074 A 
ATOM     52  C   UNL     1      10.356  -5.153   6.933  1.00  0.00     0.031 C 
ATOM     53  C   UNL     1       6.884  -9.309   2.668  1.00  0.00     0.029 A 
ATOM     54  C   UNL     1       8.252  -9.726   2.975  1.00  0.00     0.049 A 
ATOM     55  H   UNL     1       9.572  -8.816   4.306  1.00  0.00     0.167 HD
ATOM     56  C   UNL     1      12.330  -6.654   6.973  1.00  0.00     0.034 A 
ATOM     57  C   UNL     1       8.890 -10.791   2.446  1.00  0.00     0.034 A 
ATOM     58  C   UNL     1      13.044  -7.835   6.553  1.00  0.00     0.049 A 
ATOM     59  C   UNL     1      10.310 -11.081   2.872  1.00  0.00     0.074 A 
ATOM     60  C   UNL     1      14.296  -8.270   6.949  1.00  0.00     0.029 A 
ATOM     61  N   UNL     1      12.580  -8.758   5.622  1.00  0.00    -0.354 N 
ATOM     62  N   UNL     1      11.075 -10.419   3.711  1.00  0.00    -0.248 NA
ATOM     63  C   UNL     1      10.950 -12.267   2.285  1.00  0.00     0.031 C 
ATOM     64  C   UNL     1      14.628  -9.396   6.189  1.00  0.00     0.029 A 
ATOM     65  C   UNL     1      13.543  -9.730   5.393  1.00  0.00     0.049 A 
ATOM     66  H   UNL     1      11.697  -8.725   5.188  1.00  0.00     0.167 HD
ATOM     67  C   UNL     1      12.275 -11.125   3.773  1.00  0.00     0.074 A 
ATOM     68  C   UNL     1      12.127 -12.268   2.895  1.00  0.00     0.031 C 
ATOM     69  C   UNL     1      13.394 -10.857   4.498  1.00  0.00     0.034 A 
BRANCH  56  70
ATOM     70  C   UNL     1      13.015  -5.659   7.882  1.00  0.00     0.023 A 
ATOM     71  C   UNL     1      12.486  -5.304   9.136  1.00  0.00     0.031 A 
ATOM     72  C   UNL     1      14.185  -5.003   7.456  1.00  0.00     0.131 A 
ATOM     73  C   UNL     1      13.063  -4.256   9.869  1.00  0.00     0.055 A 
ATOM     74  C   UNL     1      14.812  -4.031   8.237  1.00  0.00     0.041 A 
ATOM     75  F   UNL     1      14.725  -5.277   6.258  1.00  0.00    -0.206 F 
ATOM     76  C   UNL     1      14.239  -3.636   9.442  1.00  0.00     0.022 A 
BRANCH  73  77
ATOM     77  S   UNL     1      12.149  -3.585  11.286  1.00  0.00     0.124 S 
ATOM     78  O   UNL     1      10.867  -3.240  10.673  1.00  0.00    -0.237 OA
ATOM     79  O   UNL     1      12.132  -4.712  12.211  1.00  0.00    -0.237 OA
ATOM     80  O   UNL     1      12.957  -2.442  11.705  1.00  0.00    -0.744 OA
ENDBRANCH  73  77
ENDBRANCH  56  70
BRANCH  57  81
ATOM     81  C   UNL     1       8.213 -11.626   1.412  1.00  0.00     0.023 A 
ATOM     82  C   UNL     1       7.895 -12.973   1.643  1.00  0.00     0.031 A 
ATOM     83  C   UNL     1       7.889 -11.079   0.156  1.00  0.00     0.131 A 
ATOM     84  C   UNL     1       7.295 -13.734   0.626  1.00  0.00     0.055 A 
ATOM     85  C   UNL     1       7.248 -11.825  -0.833  1.00  0.00     0.041 A 
ATOM     86  F   UNL     1       8.177  -9.797  -0.120  1.00  0.00    -0.206 F 
ATOM     87  C   UNL     1       6.954 -13.165  -0.603  1.00  0.00     0.022 A 
BRANCH  84  88
ATOM     88  S   UNL     1       7.017 -15.505   0.908  1.00  0.00     0.124 S 
ATOM     89  O   UNL     1       8.375 -15.987   1.131  1.00  0.00    -0.237 OA
ATOM     90  O   UNL     1       6.140 -15.492   2.075  1.00  0.00    -0.237 OA
ATOM     91  O   UNL     1       6.390 -15.953  -0.334  1.00  0.00    -0.744 OA
ENDBRANCH  84  88
ENDBRANCH  57  81
BRANCH  69  92
ATOM     92  C   UNL     1      14.534 -11.846   4.408  1.00  0.00     0.023 A 
ATOM     93  C   UNL     1      15.246 -12.059   3.214  1.00  0.00     0.031 A 
ATOM     94  C   UNL     1      14.917 -12.586   5.542  1.00  0.00     0.131 A 
ATOM     95  C   UNL     1      16.263 -13.026   3.168  1.00  0.00     0.055 A 
ATOM     96  C   UNL     1      15.976 -13.494   5.509  1.00  0.00     0.041 A 
ATOM     97  F   UNL     1      14.271 -12.431   6.709  1.00  0.00    -0.206 F 
ATOM     98  C   UNL     1      16.647 -13.729   4.313  1.00  0.00     0.022 A 
BRANCH  95  99
ATOM     99  S   UNL     1      17.010 -13.433   1.565  1.00  0.00     0.124 S 
ATOM    100  O   UNL     1      15.845 -13.836   0.784  1.00  0.00    -0.237 OA
ATOM    101  O   UNL     1      17.630 -12.169   1.180  1.00  0.00    -0.237 OA
ATOM    102  O   UNL     1      17.945 -14.510   1.886  1.00  0.00    -0.744 OA
ENDBRANCH  95  99
ENDBRANCH  69  92
ENDBRANCH  43  44
ENDBRANCH  36  38
ENDBRANCH  35  36
ENDBRANCH  34  35
ENDBRANCH  33  34
ENDBRANCH  32  33
ENDBRANCH  31  32
ENDBRANCH   1  31
TORSDOF 27
