REMARK SMILES Cc1cc(=O)cc(C)n1C[C@H]1CCCC[C@@H]1C(=O)OCCOCCOCCOCCOC(=O)c1ccc(-c2c3nc(c(-c4cc(S(=O)(=O)[O-])ccc4F)c4ccc([nH]4)c(-c4cc(S(=O)(=O)[O-])ccc4F)c4nc(c(-c5cc(S(=O)(=O)[O-])ccc5F)c5ccc2[nH]5)C=C4)C=C3)cc1
REMARK SMILES IDX 26 1 25 2 24 3 23 4 22 5 21 6 20 7 19 8 17 9 18 10 16 11
REMARK SMILES IDX 11 12 12 13 13 14 15 15 14 16 10 17 9 18 1 19 2 20 3 21 4 22
REMARK SMILES IDX 7 23 5 24 6 25 8 26 27 27 28 28 29 29 30 30 31 31 32 32
REMARK SMILES IDX 33 33 34 34 35 35 96 36 36 37 95 38 37 39 38 40 39 41 89 42
REMARK SMILES IDX 40 43 94 44 88 45 90 46 41 47 93 48 87 49 86 50 42 52 74 53
REMARK SMILES IDX 54 54 73 55 55 56 58 57 72 58 91 59 56 60 57 61 71 63 92 64
REMARK SMILES IDX 59 65 43 66 44 67 52 68 45 69 51 70 53 71 50 72 46 73 47 74
REMARK SMILES IDX 48 75 49 76 75 77 76 78 84 79 77 80 83 81 85 82 82 83 78 84
REMARK SMILES IDX 79 85 80 86 81 87 60 88 61 89 69 90 62 91 68 92 70 93 67 94
REMARK SMILES IDX 63 95 64 96 65 97 66 98
REMARK H PARENT 90 51 58 62
REMARK Flexibility Score: inf
ROOT
ATOM      1  C   UNL     1      -1.376  -0.901   0.557  1.00  0.00     0.188 C 
ENDROOT
BRANCH   1   2
ATOM      2  O   UNL     1      -0.754  -0.265  -0.553  1.00  0.00    -0.377 OA
BRANCH   2   3
ATOM      3  C   UNL     1       0.101   0.842  -0.336  1.00  0.00     0.188 C 
BRANCH   3   4
ATOM      4  C   UNL     1      -0.332   1.950   0.650  1.00  0.00     0.188 C 
BRANCH   4   5
ATOM      5  O   UNL     1      -1.556   1.708   1.329  1.00  0.00    -0.376 OA
BRANCH   5   6
ATOM      6  C   UNL     1      -2.719   2.357   0.841  1.00  0.00     0.202 C 
BRANCH   6   7
ATOM      7  C   UNL     1      -3.181   1.984  -0.581  1.00  0.00     0.261 C 
BRANCH   7   8
ATOM      8  O   UNL     1      -2.174   2.106  -1.606  1.00  0.00    -0.463 OA
BRANCH   8   9
ATOM      9  C   UNL     1      -1.711   3.361  -1.806  1.00  0.00     0.309 C 
ATOM     10  O   UNL     1      -2.167   4.334  -1.219  1.00  0.00    -0.252 OA
BRANCH   9  11
ATOM     11  C   UNL     1      -0.559   3.407  -2.839  1.00  0.00     0.104 C 
ATOM     12  C   UNL     1       0.825   3.915  -2.277  1.00  0.00     0.023 C 
ATOM     13  C   UNL     1       0.570   5.283  -1.643  1.00  0.00     0.006 C 
ATOM     14  C   UNL     1      -0.086   6.287  -2.602  1.00  0.00     0.000 C 
ATOM     15  C   UNL     1      -1.052   4.318  -3.965  1.00  0.00     0.016 C 
ATOM     16  C   UNL     1      -1.215   5.765  -3.497  1.00  0.00     0.001 C 
BRANCH  12  17
ATOM     17  C   UNL     1       1.951   3.921  -3.377  1.00  0.00     0.126 C 
BRANCH  17  18
ATOM     18  N   UNL     1       3.385   4.097  -2.911  1.00  0.00    -0.349 N 
ATOM     19  C   UNL     1       3.959   1.702  -3.627  1.00  0.00     0.064 C 
ATOM     20  C   UNL     1       4.318   3.012  -2.966  1.00  0.00     0.018 A 
ATOM     21  C   UNL     1       5.589   3.116  -2.527  1.00  0.00     0.073 A 
ATOM     22  C   UNL     1       6.079   4.384  -1.972  1.00  0.00     0.182 A 
ATOM     23  C   UNL     1       3.935   5.374  -2.578  1.00  0.00     0.018 A 
ATOM     24  O   UNL     1       7.214   4.501  -1.526  1.00  0.00    -0.290 OA
ATOM     25  C   UNL     1       5.177   5.533  -2.083  1.00  0.00     0.073 A 
ATOM     26  C   UNL     1       3.240   6.666  -2.912  1.00  0.00     0.064 C 
ENDBRANCH  17  18
ENDBRANCH  12  17
ENDBRANCH   9  11
ENDBRANCH   8   9
ENDBRANCH   7   8
ENDBRANCH   6   7
ENDBRANCH   5   6
ENDBRANCH   4   5
ENDBRANCH   3   4
ENDBRANCH   2   3
ENDBRANCH   1   2
BRANCH   1  27
ATOM     27  C   UNL     1      -0.712  -0.884   1.951  1.00  0.00     0.188 C 
BRANCH  27  28
ATOM     28  O   UNL     1       0.618  -0.388   1.969  1.00  0.00    -0.376 OA
BRANCH  28  29
ATOM     29  C   UNL     1       1.659  -1.339   2.110  1.00  0.00     0.202 C 
BRANCH  29  30
ATOM     30  C   UNL     1       1.851  -2.321   0.945  1.00  0.00     0.261 C 
BRANCH  30  31
ATOM     31  O   UNL     1       0.704  -3.100   0.573  1.00  0.00    -0.460 OA
BRANCH  31  32
ATOM     32  C   UNL     1       0.190  -3.941   1.498  1.00  0.00     0.338 C 
ATOM     33  O   UNL     1       0.615  -4.138   2.623  1.00  0.00    -0.246 OA
BRANCH  32  34
ATOM     34  C   UNL     1      -1.109  -4.423   0.979  1.00  0.00     0.060 A 
ATOM     35  C   UNL     1      -2.283  -4.127   1.687  1.00  0.00     0.016 A 
ATOM     36  C   UNL     1      -1.169  -5.111  -0.235  1.00  0.00     0.016 A 
ATOM     37  C   UNL     1      -3.521  -4.534   1.188  1.00  0.00     0.010 A 
ATOM     38  C   UNL     1      -2.404  -5.556  -0.712  1.00  0.00     0.010 A 
ATOM     39  C   UNL     1      -3.580  -5.295   0.013  1.00  0.00    -0.014 A 
BRANCH  39  40
ATOM     40  C   UNL     1      -4.823  -6.036  -0.308  1.00  0.00     0.031 A 
ATOM     41  C   UNL     1      -4.944  -7.441   0.219  1.00  0.00     0.074 A 
ATOM     42  C   UNL     1      -5.829  -5.479  -1.005  1.00  0.00     0.049 A 
ATOM     43  N   UNL     1      -5.897  -8.316   0.040  1.00  0.00    -0.248 NA
ATOM     44  C   UNL     1      -3.837  -7.920   1.067  1.00  0.00     0.031 C 
ATOM     45  C   UNL     1      -5.856  -4.106  -1.504  1.00  0.00     0.029 A 
ATOM     46  N   UNL     1      -7.030  -6.008  -1.410  1.00  0.00    -0.354 N 
ATOM     47  C   UNL     1      -5.509  -9.443   0.755  1.00  0.00     0.074 A 
ATOM     48  C   UNL     1      -4.221  -9.156   1.344  1.00  0.00     0.031 C 
ATOM     49  C   UNL     1      -7.018  -3.901  -2.152  1.00  0.00     0.029 A 
ATOM     50  C   UNL     1      -7.800  -5.138  -2.147  1.00  0.00     0.049 A 
ATOM     51  H   UNL     1      -7.315  -6.925  -1.192  1.00  0.00     0.167 HD
ATOM     52  C   UNL     1      -6.173 -10.611   0.913  1.00  0.00     0.034 A 
ATOM     53  C   UNL     1      -8.985  -5.330  -2.764  1.00  0.00     0.034 A 
ATOM     54  C   UNL     1      -7.450 -10.892   0.316  1.00  0.00     0.049 A 
ATOM     55  C   UNL     1      -9.653  -6.682  -2.668  1.00  0.00     0.074 A 
ATOM     56  C   UNL     1      -8.204 -12.048   0.409  1.00  0.00     0.029 A 
ATOM     57  N   UNL     1      -8.159 -10.014  -0.491  1.00  0.00    -0.354 N 
ATOM     58  N   UNL     1      -9.262  -7.751  -2.014  1.00  0.00    -0.248 NA
ATOM     59  C   UNL     1     -10.919  -6.855  -3.396  1.00  0.00     0.031 C 
ATOM     60  C   UNL     1      -9.335 -11.894  -0.395  1.00  0.00     0.029 A 
ATOM     61  C   UNL     1      -9.326 -10.615  -0.929  1.00  0.00     0.049 A 
ATOM     62  H   UNL     1      -7.874  -9.099  -0.717  1.00  0.00     0.167 HD
ATOM     63  C   UNL     1     -10.245  -8.714  -2.233  1.00  0.00     0.074 A 
ATOM     64  C   UNL     1     -11.250  -8.098  -3.074  1.00  0.00     0.031 C 
ATOM     65  C   UNL     1     -10.312  -9.990  -1.776  1.00  0.00     0.034 A 
BRANCH  52  66
ATOM     66  C   UNL     1      -5.511 -11.685   1.731  1.00  0.00     0.023 A 
ATOM     67  C   UNL     1      -5.359 -11.562   3.122  1.00  0.00     0.031 A 
ATOM     68  C   UNL     1      -5.050 -12.860   1.112  1.00  0.00     0.131 A 
ATOM     69  C   UNL     1      -4.736 -12.588   3.847  1.00  0.00     0.055 A 
ATOM     70  C   UNL     1      -4.485 -13.902   1.847  1.00  0.00     0.041 A 
ATOM     71  F   UNL     1      -5.149 -13.014  -0.218  1.00  0.00    -0.206 F 
ATOM     72  C   UNL     1      -4.321 -13.768   3.223  1.00  0.00     0.022 A 
BRANCH  69  73
ATOM     73  S   UNL     1      -4.414 -12.334   5.613  1.00  0.00     0.124 S 
ATOM     74  O   UNL     1      -3.463 -11.226   5.583  1.00  0.00    -0.237 OA
ATOM     75  O   UNL     1      -5.739 -12.024   6.136  1.00  0.00    -0.237 OA
ATOM     76  O   UNL     1      -3.858 -13.614   6.047  1.00  0.00    -0.744 OA
ENDBRANCH  69  73
ENDBRANCH  52  66
BRANCH  53  77
ATOM     77  C   UNL     1      -9.603  -4.235  -3.565  1.00  0.00     0.023 A 
ATOM     78  C   UNL     1     -10.819  -3.648  -3.179  1.00  0.00     0.031 A 
ATOM     79  C   UNL     1      -8.998  -3.780  -4.751  1.00  0.00     0.131 A 
ATOM     80  C   UNL     1     -11.403  -2.656  -3.984  1.00  0.00     0.055 A 
ATOM     81  C   UNL     1      -9.562  -2.765  -5.526  1.00  0.00     0.041 A 
ATOM     82  F   UNL     1      -7.838  -4.311  -5.168  1.00  0.00    -0.206 F 
ATOM     83  C   UNL     1     -10.776  -2.202  -5.147  1.00  0.00     0.022 A 
BRANCH  80  84
ATOM     84  S   UNL     1     -13.024  -1.991  -3.512  1.00  0.00     0.124 S 
ATOM     85  O   UNL     1     -13.872  -3.172  -3.619  1.00  0.00    -0.237 OA
ATOM     86  O   UNL     1     -12.770  -1.501  -2.161  1.00  0.00    -0.237 OA
ATOM     87  O   UNL     1     -13.269  -0.952  -4.511  1.00  0.00    -0.744 OA
ENDBRANCH  80  84
ENDBRANCH  53  77
BRANCH  65  88
ATOM     88  C   UNL     1     -11.523 -10.807  -2.149  1.00  0.00     0.023 A 
ATOM     89  C   UNL     1     -11.724 -11.264  -3.461  1.00  0.00     0.031 A 
ATOM     90  C   UNL     1     -12.451 -11.185  -1.162  1.00  0.00     0.131 A 
ATOM     91  C   UNL     1     -12.844 -12.055  -3.758  1.00  0.00     0.055 A 
ATOM     92  C   UNL     1     -13.534 -12.014  -1.453  1.00  0.00     0.041 A 
ATOM     93  F   UNL     1     -12.300 -10.779   0.109  1.00  0.00    -0.206 F 
ATOM     94  C   UNL     1     -13.739 -12.449  -2.759  1.00  0.00     0.022 A 
BRANCH  91  95
ATOM     95  S   UNL     1     -13.138 -12.537  -5.481  1.00  0.00     0.124 S 
ATOM     96  O   UNL     1     -13.345 -11.243  -6.125  1.00  0.00    -0.237 OA
ATOM     97  O   UNL     1     -11.902 -13.231  -5.830  1.00  0.00    -0.237 OA
ATOM     98  O   UNL     1     -14.323 -13.388  -5.403  1.00  0.00    -0.744 OA
ENDBRANCH  91  95
ENDBRANCH  65  88
ENDBRANCH  39  40
ENDBRANCH  32  34
ENDBRANCH  31  32
ENDBRANCH  30  31
ENDBRANCH  29  30
ENDBRANCH  28  29
ENDBRANCH  27  28
ENDBRANCH   1  27
TORSDOF 25
