REMARK SMILES CCOC(=O)c1c(NC(=O)/C=C/C(=O)OCCOCCOCCOCCOC(=O)c2ccc(-c3c4nc(c(-c5cc(S(=O)(=O)[O-])ccc5F)c5ccc([nH]5)c(-c5cc(S(=O)(=O)[O-])ccc5F)c5nc(c(-c6cc(S(=O)(=O)[O-])ccc6F)c6ccc3[nH]6)C=C5)C=C4)cc2)sc(C)c1-c1ccc(C)c(C)c1
REMARK SMILES IDX 20 1 19 2 18 3 17 4 16 5 15 6 13 7 14 8 12 9 11 10 9 11 8 12
REMARK SMILES IDX 10 14 7 15 6 16 96 17 93 18 94 19 95 20 4 21 5 22 3 23 2 24
REMARK SMILES IDX 1 25 97 26 98 27 104 28 99 29 102 30 100 31 103 32 101 33
REMARK SMILES IDX 21 34 22 35 23 36 24 37 25 38 26 39 27 40 28 41 29 42 30 43
REMARK SMILES IDX 31 44 92 45 32 46 91 47 33 48 34 49 35 50 85 51 36 52 90 53
REMARK SMILES IDX 84 54 86 55 37 56 89 57 83 58 82 59 38 61 70 62 50 63 69 64
REMARK SMILES IDX 51 65 54 66 68 67 87 68 52 69 53 70 67 72 88 73 55 74 39 75
REMARK SMILES IDX 40 76 48 77 41 78 47 79 49 80 46 81 42 82 43 83 44 84 45 85
REMARK SMILES IDX 71 86 72 87 80 88 73 89 79 90 81 91 78 92 74 93 75 94 76 95
REMARK SMILES IDX 77 96 56 97 57 98 65 99 58 100 64 101 66 102 63 103 59 104
REMARK SMILES IDX 60 105 61 106 62 107
REMARK H PARENT 8 13 86 60 54 71
REMARK Flexibility Score: inf
ROOT
ATOM      1  C   UNL     1       3.626  -4.876   7.093  1.00  0.00     0.188 C 
ENDROOT
BRANCH   1   2
ATOM      2  C   UNL     1       3.768  -6.298   6.523  1.00  0.00     0.188 C 
BRANCH   2   3
ATOM      3  O   UNL     1       4.274  -7.226   7.465  1.00  0.00    -0.376 OA
BRANCH   3   4
ATOM      4  C   UNL     1       5.615  -7.657   7.301  1.00  0.00     0.202 C 
BRANCH   4   5
ATOM      5  C   UNL     1       6.753  -6.627   7.154  1.00  0.00     0.261 C 
BRANCH   5   6
ATOM      6  O   UNL     1       6.498  -5.502   6.292  1.00  0.00    -0.460 OA
BRANCH   6   7
ATOM      7  C   UNL     1       6.861  -5.598   4.996  1.00  0.00     0.331 C 
ATOM      8  O   UNL     1       7.345  -6.582   4.457  1.00  0.00    -0.247 OA
BRANCH   7   9
ATOM      9  C   UNL     1       6.488  -4.390   4.220  1.00  0.00     0.099 C 
ATOM     10  C   UNL     1       5.926  -3.283   4.730  1.00  0.00     0.079 C 
BRANCH  10  11
ATOM     11  C   UNL     1       5.431  -2.186   3.864  1.00  0.00     0.249 C 
ATOM     12  N   UNL     1       4.461  -2.344   2.907  1.00  0.00    -0.313 N 
ATOM     13  H   UNL     1       4.369  -1.563   2.314  1.00  0.00     0.171 HD
ATOM     14  O   UNL     1       5.917  -1.065   4.028  1.00  0.00    -0.270 OA
BRANCH  12  15
ATOM     15  C   UNL     1       3.580  -3.372   2.598  1.00  0.00     0.111 A 
ATOM     16  C   UNL     1       2.635  -3.426   1.582  1.00  0.00     0.102 A 
ATOM     17  C   UNL     1       1.963  -4.718   1.547  1.00  0.00     0.012 A 
ATOM     18  S   UNL     1       3.450  -4.727   3.581  1.00  0.00    -0.122 S 
ATOM     19  C   UNL     1       2.390  -5.551   2.563  1.00  0.00     0.012 A 
ATOM     20  C   UNL     1       2.057  -6.969   2.897  1.00  0.00     0.057 C 
BRANCH  16  21
ATOM     21  C   UNL     1       2.380  -2.316   0.671  1.00  0.00     0.341 C 
ATOM     22  O   UNL     1       3.256  -1.609   0.217  1.00  0.00    -0.246 OA
BRANCH  21  23
ATOM     23  O   UNL     1       1.042  -2.159   0.444  1.00  0.00    -0.462 OA
BRANCH  23  24
ATOM     24  C   UNL     1       0.653  -1.164  -0.509  1.00  0.00     0.230 C 
ATOM     25  C   UNL     1       0.829   0.245   0.027  1.00  0.00     0.049 C 
ENDBRANCH  23  24
ENDBRANCH  21  23
ENDBRANCH  16  21
BRANCH  17  26
ATOM     26  C   UNL     1       0.981  -5.179   0.577  1.00  0.00    -0.016 A 
ATOM     27  C   UNL     1       1.323  -5.308  -0.768  1.00  0.00     0.009 A 
ATOM     28  C   UNL     1      -0.309  -5.513   1.001  1.00  0.00     0.012 A 
ATOM     29  C   UNL     1       0.373  -5.767  -1.680  1.00  0.00     0.004 A 
ATOM     30  C   UNL     1      -1.268  -5.994   0.098  1.00  0.00    -0.048 A 
ATOM     31  C   UNL     1      -0.924  -6.116  -1.262  1.00  0.00    -0.048 A 
ATOM     32  C   UNL     1      -2.626  -6.363   0.625  1.00  0.00     0.044 C 
ATOM     33  C   UNL     1      -1.893  -6.588  -2.311  1.00  0.00     0.044 C 
ENDBRANCH  17  26
ENDBRANCH  12  15
ENDBRANCH  10  11
ENDBRANCH   7   9
ENDBRANCH   6   7
ENDBRANCH   5   6
ENDBRANCH   4   5
ENDBRANCH   3   4
ENDBRANCH   2   3
ENDBRANCH   1   2
BRANCH   1  34
ATOM     34  O   UNL     1       4.402  -4.598   8.240  1.00  0.00    -0.377 OA
BRANCH  34  35
ATOM     35  C   UNL     1       4.075  -5.253   9.464  1.00  0.00     0.188 C 
BRANCH  35  36
ATOM     36  C   UNL     1       2.858  -6.202   9.621  1.00  0.00     0.188 C 
BRANCH  36  37
ATOM     37  O   UNL     1       1.788  -5.994   8.707  1.00  0.00    -0.376 OA
BRANCH  37  38
ATOM     38  C   UNL     1       0.591  -5.446   9.239  1.00  0.00     0.202 C 
BRANCH  38  39
ATOM     39  C   UNL     1       0.670  -3.949   9.563  1.00  0.00     0.261 C 
BRANCH  39  40
ATOM     40  O   UNL     1       1.651  -3.593  10.549  1.00  0.00    -0.460 OA
BRANCH  40  41
ATOM     41  C   UNL     1       1.488  -4.122  11.784  1.00  0.00     0.338 C 
ATOM     42  O   UNL     1       0.575  -4.834  12.159  1.00  0.00    -0.246 OA
BRANCH  41  43
ATOM     43  C   UNL     1       2.722  -3.859  12.550  1.00  0.00     0.060 A 
ATOM     44  C   UNL     1       3.430  -4.943  13.084  1.00  0.00     0.016 A 
ATOM     45  C   UNL     1       3.187  -2.553  12.718  1.00  0.00     0.016 A 
ATOM     46  C   UNL     1       4.591  -4.718  13.823  1.00  0.00     0.010 A 
ATOM     47  C   UNL     1       4.337  -2.327  13.476  1.00  0.00     0.010 A 
ATOM     48  C   UNL     1       5.023  -3.406  14.062  1.00  0.00    -0.014 A 
BRANCH  48  49
ATOM     49  C   UNL     1       6.044  -3.154  15.107  1.00  0.00     0.031 A 
ATOM     50  C   UNL     1       5.563  -2.793  16.486  1.00  0.00     0.074 A 
ATOM     51  C   UNL     1       7.359  -3.271  14.852  1.00  0.00     0.049 A 
ATOM     52  N   UNL     1       6.250  -2.495  17.558  1.00  0.00    -0.248 NA
ATOM     53  C   UNL     1       4.104  -2.759  16.675  1.00  0.00     0.031 C 
ATOM     54  C   UNL     1       7.941  -3.659  13.569  1.00  0.00     0.029 A 
ATOM     55  N   UNL     1       8.445  -3.068  15.668  1.00  0.00    -0.354 N 
ATOM     56  C   UNL     1       5.308  -2.240  18.549  1.00  0.00     0.074 A 
ATOM     57  C   UNL     1       4.004  -2.373  17.937  1.00  0.00     0.031 C 
ATOM     58  C   UNL     1       9.281  -3.660  13.683  1.00  0.00     0.029 A 
ATOM     59  C   UNL     1       9.653  -3.237  15.033  1.00  0.00     0.049 A 
ATOM     60  H   UNL     1       8.366  -2.825  16.619  1.00  0.00     0.167 HD
ATOM     61  C   UNL     1       5.511  -1.933  19.854  1.00  0.00     0.034 A 
ATOM     62  C   UNL     1      10.909  -3.047  15.486  1.00  0.00     0.034 A 
ATOM     63  C   UNL     1       6.818  -1.782  20.443  1.00  0.00     0.049 A 
ATOM     64  C   UNL     1      11.113  -2.608  16.919  1.00  0.00     0.074 A 
ATOM     65  C   UNL     1       7.143  -1.475  21.753  1.00  0.00     0.029 A 
ATOM     66  N   UNL     1       8.020  -1.909  19.756  1.00  0.00    -0.354 N 
ATOM     67  N   UNL     1      10.216  -2.378  17.852  1.00  0.00    -0.248 NA
ATOM     68  C   UNL     1      12.500  -2.411  17.361  1.00  0.00     0.031 C 
ATOM     69  C   UNL     1       8.533  -1.340  21.839  1.00  0.00     0.029 A 
ATOM     70  C   UNL     1       9.084  -1.653  20.607  1.00  0.00     0.049 A 
ATOM     71  H   UNL     1       8.103  -2.147  18.805  1.00  0.00     0.167 HD
ATOM     72  C   UNL     1      10.935  -2.047  18.999  1.00  0.00     0.074 A 
ATOM     73  C   UNL     1      12.337  -2.120  18.643  1.00  0.00     0.031 C 
ATOM     74  C   UNL     1      10.480  -1.721  20.237  1.00  0.00     0.034 A 
BRANCH  61  75
ATOM     75  C   UNL     1       4.288  -1.685  20.703  1.00  0.00     0.023 A 
ATOM     76  C   UNL     1       3.337  -2.693  20.946  1.00  0.00     0.031 A 
ATOM     77  C   UNL     1       4.045  -0.409  21.240  1.00  0.00     0.131 A 
ATOM     78  C   UNL     1       2.156  -2.388  21.638  1.00  0.00     0.055 A 
ATOM     79  C   UNL     1       2.908  -0.135  22.002  1.00  0.00     0.041 A 
ATOM     80  F   UNL     1       4.902   0.601  21.019  1.00  0.00    -0.206 F 
ATOM     81  C   UNL     1       1.947  -1.123  22.192  1.00  0.00     0.022 A 
BRANCH  78  82
ATOM     82  S   UNL     1       0.827  -3.623  21.671  1.00  0.00     0.124 S 
ATOM     83  O   UNL     1       0.578  -3.827  20.246  1.00  0.00    -0.237 OA
ATOM     84  O   UNL     1       1.448  -4.737  22.378  1.00  0.00    -0.237 OA
ATOM     85  O   UNL     1      -0.250  -2.949  22.393  1.00  0.00    -0.744 OA
ENDBRANCH  78  82
ENDBRANCH  61  75
BRANCH  62  86
ATOM     86  C   UNL     1      12.080  -3.229  14.578  1.00  0.00     0.023 A 
ATOM     87  C   UNL     1      13.060  -4.201  14.837  1.00  0.00     0.031 A 
ATOM     88  C   UNL     1      12.271  -2.384  13.470  1.00  0.00     0.131 A 
ATOM     89  C   UNL     1      14.208  -4.272  14.031  1.00  0.00     0.055 A 
ATOM     90  C   UNL     1      13.385  -2.495  12.637  1.00  0.00     0.041 A 
ATOM     91  F   UNL     1      11.369  -1.432  13.179  1.00  0.00    -0.206 F 
ATOM     92  C   UNL     1      14.370  -3.435  12.924  1.00  0.00     0.022 A 
BRANCH  89  93
ATOM     93  S   UNL     1      15.535  -5.415  14.504  1.00  0.00     0.124 S 
ATOM     94  O   UNL     1      15.869  -4.942  15.843  1.00  0.00    -0.237 OA
ATOM     95  O   UNL     1      14.863  -6.707  14.429  1.00  0.00    -0.237 OA
ATOM     96  O   UNL     1      16.560  -5.187  13.487  1.00  0.00    -0.744 OA
ENDBRANCH  89  93
ENDBRANCH  62  86
BRANCH  74  97
ATOM     97  C   UNL     1      11.513  -1.473  21.312  1.00  0.00     0.023 A 
ATOM     98  C   UNL     1      12.406  -0.389  21.254  1.00  0.00     0.031 A 
ATOM     99  C   UNL     1      11.608  -2.346  22.412  1.00  0.00     0.131 A 
ATOM    100  C   UNL     1      13.392  -0.241  22.243  1.00  0.00     0.055 A 
ATOM    101  C   UNL     1      12.546  -2.155  23.427  1.00  0.00     0.041 A 
ATOM    102  F   UNL     1      10.784  -3.401  22.520  1.00  0.00    -0.206 F 
ATOM    103  C   UNL     1      13.455  -1.105  23.338  1.00  0.00     0.022 A 
BRANCH 100 104
ATOM    104  S   UNL     1      14.661   1.038  22.025  1.00  0.00     0.124 S 
ATOM    105  O   UNL     1      15.237   0.676  20.734  1.00  0.00    -0.237 OA
ATOM    106  O   UNL     1      13.873   2.266  22.050  1.00  0.00    -0.237 OA
ATOM    107  O   UNL     1      15.543   0.845  23.174  1.00  0.00    -0.744 OA
ENDBRANCH 100 104
ENDBRANCH  74  97
ENDBRANCH  48  49
ENDBRANCH  41  43
ENDBRANCH  40  41
ENDBRANCH  39  40
ENDBRANCH  38  39
ENDBRANCH  37  38
ENDBRANCH  36  37
ENDBRANCH  35  36
ENDBRANCH  34  35
ENDBRANCH   1  34
TORSDOF 29
