REMARK SMILES N#CCSc1nnnn1-c1ccc(C(=O)OCCOCCOCCOCCOC(=O)c2ccc(-c3c4nc(c(-c5cc(S(=O)(=O)[O-])ccc5F)c5ccc([nH]5)c(-c5cc(S(=O)(=O)[O-])ccc5F)c5nc(c(-c6cc(S(=O)(=O)[O-])ccc6F)c6ccc3[nH]6)C=C5)C=C4)cc2)cc1
REMARK SMILES IDX 21 1 20 2 19 3 18 4 17 5 16 6 14 7 15 8 13 9 10 10 11 11
REMARK SMILES IDX 95 12 12 13 94 14 9 15 5 16 6 17 7 18 8 19 4 20 3 21 2 22
REMARK SMILES IDX 1 23 22 24 23 25 24 26 25 27 26 28 27 29 28 30 29 31 30 32
REMARK SMILES IDX 31 33 32 34 93 35 33 36 92 37 34 38 35 39 36 40 86 41 37 42
REMARK SMILES IDX 91 43 85 44 87 45 38 46 90 47 84 48 83 49 39 51 71 52 51 53
REMARK SMILES IDX 70 54 52 55 55 56 69 57 88 58 53 59 54 60 68 62 89 63 56 64
REMARK SMILES IDX 40 65 41 66 49 67 42 68 48 69 50 70 47 71 43 72 44 73 45 74
REMARK SMILES IDX 46 75 72 76 73 77 81 78 74 79 80 80 82 81 79 82 75 83 76 84
REMARK SMILES IDX 77 85 78 86 57 87 58 88 66 89 59 90 65 91 67 92 64 93 60 94
REMARK SMILES IDX 61 95 62 96 63 97
REMARK H PARENT 87 50 55 61
REMARK Flexibility Score: inf
ROOT
ATOM      1  C   UNL     1      -0.481   1.172  -7.638  1.00  0.00     0.188 C 
ENDROOT
BRANCH   1   2
ATOM      2  C   UNL     1      -1.724   1.241  -6.720  1.00  0.00     0.188 C 
BRANCH   2   3
ATOM      3  O   UNL     1      -2.444   2.443  -6.455  1.00  0.00    -0.376 OA
BRANCH   3   4
ATOM      4  C   UNL     1      -1.890   3.719  -6.722  1.00  0.00     0.202 C 
BRANCH   4   5
ATOM      5  C   UNL     1      -0.661   4.176  -5.928  1.00  0.00     0.261 C 
BRANCH   5   6
ATOM      6  O   UNL     1       0.219   3.129  -5.517  1.00  0.00    -0.460 OA
BRANCH   6   7
ATOM      7  C   UNL     1      -0.101   2.558  -4.334  1.00  0.00     0.338 C 
ATOM      8  O   UNL     1      -0.974   2.898  -3.556  1.00  0.00    -0.246 OA
BRANCH   7   9
ATOM      9  C   UNL     1       0.717   1.339  -4.161  1.00  0.00     0.060 A 
ATOM     10  C   UNL     1       2.220  -0.908  -3.563  1.00  0.00     0.069 A 
ATOM     11  C   UNL     1       0.835  -0.955  -3.388  1.00  0.00     0.029 A 
ATOM     12  C   UNL     1       2.834   0.198  -4.172  1.00  0.00     0.029 A 
ATOM     13  C   UNL     1       0.092   0.192  -3.649  1.00  0.00     0.018 A 
ATOM     14  C   UNL     1       2.075   1.322  -4.485  1.00  0.00     0.018 A 
BRANCH  10  15
ATOM     15  N   UNL     1       3.002  -1.886  -2.915  1.00  0.00    -0.187 N 
ATOM     16  C   UNL     1       4.055  -1.685  -2.036  1.00  0.00     0.215 A 
ATOM     17  N   UNL     1       4.386  -2.832  -1.490  1.00  0.00    -0.101 NA
ATOM     18  N   UNL     1       3.510  -3.754  -2.004  1.00  0.00    -0.022 NA
ATOM     19  N   UNL     1       2.622  -3.180  -2.807  1.00  0.00    -0.039 NA
BRANCH  16  20
ATOM     20  S   UNL     1       4.611  -0.130  -1.503  1.00  0.00    -0.069 SA
BRANCH  20  21
ATOM     21  C   UNL     1       3.782  -0.000   0.100  1.00  0.00     0.198 C 
BRANCH  21  22
ATOM     22  C   UNL     1       2.262  -0.000   0.100  1.00  0.00     0.074 C 
ATOM     23  N   UNL     1       1.001  -0.000   0.100  1.00  0.00    -0.197 NA
ENDBRANCH  21  22
ENDBRANCH  20  21
ENDBRANCH  16  20
ENDBRANCH  10  15
ENDBRANCH   7   9
ENDBRANCH   6   7
ENDBRANCH   5   6
ENDBRANCH   4   5
ENDBRANCH   3   4
ENDBRANCH   2   3
ENDBRANCH   1   2
BRANCH   1  24
ATOM     24  O   UNL     1      -0.212   2.349  -8.385  1.00  0.00    -0.377 OA
BRANCH  24  25
ATOM     25  C   UNL     1      -0.674   2.314  -9.734  1.00  0.00     0.188 C 
BRANCH  25  26
ATOM     26  C   UNL     1      -2.187   2.074  -9.926  1.00  0.00     0.188 C 
BRANCH  26  27
ATOM     27  O   UNL     1      -2.651   0.878  -9.301  1.00  0.00    -0.376 OA
BRANCH  27  28
ATOM     28  C   UNL     1      -3.109  -0.179 -10.133  1.00  0.00     0.202 C 
BRANCH  28  29
ATOM     29  C   UNL     1      -1.981  -1.108 -10.570  1.00  0.00     0.261 C 
BRANCH  29  30
ATOM     30  O   UNL     1      -0.905  -0.432 -11.204  1.00  0.00    -0.460 OA
BRANCH  30  31
ATOM     31  C   UNL     1      -1.216   0.264 -12.317  1.00  0.00     0.338 C 
ATOM     32  O   UNL     1      -2.325   0.471 -12.772  1.00  0.00    -0.246 OA
BRANCH  31  33
ATOM     33  C   UNL     1       0.032   0.676 -12.964  1.00  0.00     0.060 A 
ATOM     34  C   UNL     1      -0.109   1.310 -14.197  1.00  0.00     0.016 A 
ATOM     35  C   UNL     1       1.253   0.142 -12.521  1.00  0.00     0.016 A 
ATOM     36  C   UNL     1       0.896   1.142 -15.114  1.00  0.00     0.010 A 
ATOM     37  C   UNL     1       2.249  -0.042 -13.443  1.00  0.00     0.010 A 
ATOM     38  C   UNL     1       1.999   0.364 -14.750  1.00  0.00    -0.014 A 
BRANCH  38  39
ATOM     39  C   UNL     1       2.858  -0.085 -15.815  1.00  0.00     0.031 A 
ATOM     40  C   UNL     1       3.877   0.887 -16.222  1.00  0.00     0.074 A 
ATOM     41  C   UNL     1       2.752  -1.317 -16.338  1.00  0.00     0.049 A 
ATOM     42  N   UNL     1       3.932   1.559 -17.320  1.00  0.00    -0.248 NA
ATOM     43  C   UNL     1       4.870   1.275 -15.213  1.00  0.00     0.031 C 
ATOM     44  C   UNL     1       2.009  -2.463 -15.806  1.00  0.00     0.029 A 
ATOM     45  N   UNL     1       3.396  -1.828 -17.418  1.00  0.00    -0.354 N 
ATOM     46  C   UNL     1       5.105   2.293 -17.236  1.00  0.00     0.074 A 
ATOM     47  C   UNL     1       5.513   2.247 -15.858  1.00  0.00     0.031 C 
ATOM     48  C   UNL     1       2.422  -3.583 -16.441  1.00  0.00     0.029 A 
ATOM     49  C   UNL     1       3.349  -3.210 -17.498  1.00  0.00     0.049 A 
ATOM     50  H   UNL     1       3.856  -1.267 -18.084  1.00  0.00     0.167 HD
ATOM     51  C   UNL     1       5.780   2.668 -18.354  1.00  0.00     0.034 A 
ATOM     52  C   UNL     1       4.106  -3.988 -18.311  1.00  0.00     0.034 A 
ATOM     53  C   UNL     1       4.931   2.613 -19.523  1.00  0.00     0.049 A 
ATOM     54  C   UNL     1       4.582  -3.134 -19.430  1.00  0.00     0.074 A 
ATOM     55  C   UNL     1       3.732   3.209 -19.871  1.00  0.00     0.029 A 
ATOM     56  N   UNL     1       5.090   1.564 -20.402  1.00  0.00    -0.354 N 
ATOM     57  N   UNL     1       3.794  -2.604 -20.325  1.00  0.00    -0.248 NA
ATOM     58  C   UNL     1       5.886  -2.496 -19.311  1.00  0.00     0.031 C 
ATOM     59  C   UNL     1       3.021   2.220 -20.611  1.00  0.00     0.029 A 
ATOM     60  C   UNL     1       3.837   1.092 -20.717  1.00  0.00     0.049 A 
ATOM     61  H   UNL     1       5.945   1.216 -20.744  1.00  0.00     0.167 HD
ATOM     62  C   UNL     1       4.319  -1.345 -20.578  1.00  0.00     0.074 A 
ATOM     63  C   UNL     1       5.665  -1.383 -20.016  1.00  0.00     0.031 C 
ATOM     64  C   UNL     1       3.521  -0.305 -20.965  1.00  0.00     0.034 A 
BRANCH  51  65
ATOM     65  C   UNL     1       7.284   2.765 -18.428  1.00  0.00     0.023 A 
ATOM     66  C   UNL     1       7.840   3.217 -19.637  1.00  0.00     0.031 A 
ATOM     67  C   UNL     1       8.200   2.210 -17.502  1.00  0.00     0.131 A 
ATOM     68  C   UNL     1       9.206   3.043 -19.912  1.00  0.00     0.055 A 
ATOM     69  C   UNL     1       9.571   2.114 -17.747  1.00  0.00     0.041 A 
ATOM     70  F   UNL     1       7.821   1.639 -16.352  1.00  0.00    -0.206 F 
ATOM     71  C   UNL     1      10.079   2.504 -18.971  1.00  0.00     0.022 A 
BRANCH  68  72
ATOM     72  S   UNL     1       9.784   3.359 -21.597  1.00  0.00     0.124 S 
ATOM     73  O   UNL     1       8.832   2.584 -22.386  1.00  0.00    -0.237 OA
ATOM     74  O   UNL     1       9.666   4.810 -21.684  1.00  0.00    -0.237 OA
ATOM     75  O   UNL     1      11.150   2.842 -21.586  1.00  0.00    -0.744 OA
ENDBRANCH  68  72
ENDBRANCH  51  65
BRANCH  52  76
ATOM     76  C   UNL     1       4.703  -5.296 -17.943  1.00  0.00     0.023 A 
ATOM     77  C   UNL     1       5.126  -6.227 -18.907  1.00  0.00     0.031 A 
ATOM     78  C   UNL     1       5.065  -5.557 -16.600  1.00  0.00     0.131 A 
ATOM     79  C   UNL     1       5.865  -7.365 -18.514  1.00  0.00     0.055 A 
ATOM     80  C   UNL     1       5.777  -6.692 -16.215  1.00  0.00     0.041 A 
ATOM     81  F   UNL     1       4.808  -4.672 -15.623  1.00  0.00    -0.206 F 
ATOM     82  C   UNL     1       6.188  -7.601 -17.175  1.00  0.00     0.022 A 
BRANCH  79  83
ATOM     83  S   UNL     1       6.511  -8.508 -19.773  1.00  0.00     0.124 S 
ATOM     84  O   UNL     1       5.294  -9.129 -20.280  1.00  0.00    -0.237 OA
ATOM     85  O   UNL     1       7.208  -7.606 -20.683  1.00  0.00    -0.237 OA
ATOM     86  O   UNL     1       7.385  -9.398 -19.008  1.00  0.00    -0.744 OA
ENDBRANCH  79  83
ENDBRANCH  52  76
BRANCH  64  87
ATOM     87  C   UNL     1       2.120  -0.615 -21.458  1.00  0.00     0.023 A 
ATOM     88  C   UNL     1       1.136  -1.291 -20.704  1.00  0.00     0.031 A 
ATOM     89  C   UNL     1       1.736  -0.088 -22.705  1.00  0.00     0.131 A 
ATOM     90  C   UNL     1      -0.171  -1.429 -21.211  1.00  0.00     0.055 A 
ATOM     91  C   UNL     1       0.436  -0.211 -23.196  1.00  0.00     0.041 A 
ATOM     92  F   UNL     1       2.616   0.594 -23.457  1.00  0.00    -0.206 F 
ATOM     93  C   UNL     1      -0.522  -0.889 -22.452  1.00  0.00     0.022 A 
BRANCH  90  94
ATOM     94  S   UNL     1      -1.443  -2.324 -20.262  1.00  0.00     0.124 S 
ATOM     95  O   UNL     1      -0.764  -3.546 -19.848  1.00  0.00    -0.237 OA
ATOM     96  O   UNL     1      -1.762  -1.376 -19.197  1.00  0.00    -0.237 OA
ATOM     97  O   UNL     1      -2.516  -2.525 -21.237  1.00  0.00    -0.744 OA
ENDBRANCH  90  94
ENDBRANCH  64  87
ENDBRANCH  38  39
ENDBRANCH  31  33
ENDBRANCH  30  31
ENDBRANCH  29  30
ENDBRANCH  28  29
ENDBRANCH  27  28
ENDBRANCH  26  27
ENDBRANCH  25  26
ENDBRANCH  24  25
ENDBRANCH   1  24
TORSDOF 27
