REMARK SMILES O=C(C[C@H](c1ccsc1)n1cccc1)OCCOCCOCCOCCOC(=O)c1ccc(-c2c3nc(c(-c4cc(S(=O)(=O)[O-])ccc4F)c4ccc([nH]4)c(-c4cc(S(=O)(=O)[O-])ccc4F)c4nc(c(-c5cc(S(=O)(=O)[O-])ccc5F)c5ccc2[nH]5)C=C4)C=C3)cc1
REMARK SMILES IDX 22 1 21 2 20 3 19 4 18 5 17 6 16 7 15 8 2 9 1 10 3 11 4 12
REMARK SMILES IDX 10 13 11 14 14 15 12 16 13 17 5 18 6 19 9 20 7 21 8 22 23 23
REMARK SMILES IDX 24 24 25 25 26 26 27 27 28 28 29 29 30 30 31 31 92 32 32 33
REMARK SMILES IDX 91 34 33 35 34 36 35 37 85 38 36 39 90 40 84 41 86 42 37 43
REMARK SMILES IDX 89 44 83 45 82 46 38 48 70 49 50 50 69 51 51 52 54 53 68 54
REMARK SMILES IDX 87 55 52 56 53 57 67 59 88 60 55 61 39 62 40 63 48 64 41 65
REMARK SMILES IDX 47 66 49 67 46 68 42 69 43 70 44 71 45 72 71 73 72 74 80 75
REMARK SMILES IDX 73 76 79 77 81 78 78 79 74 80 75 81 76 82 77 83 56 84 57 85
REMARK SMILES IDX 65 86 58 87 64 88 66 89 63 90 59 91 60 92 61 93 62 94
REMARK H PARENT 86 47 54 58
REMARK Flexibility Score: inf
ROOT
ATOM      1  C   UNL     1       6.116  -0.344  -3.489  1.00  0.00     0.188 C 
ENDROOT
BRANCH   1   2
ATOM      2  O   UNL     1       6.637   0.129  -2.251  1.00  0.00    -0.377 OA
BRANCH   2   3
ATOM      3  C   UNL     1       7.191  -0.850  -1.387  1.00  0.00     0.188 C 
BRANCH   3   4
ATOM      4  C   UNL     1       6.226  -1.359  -0.309  1.00  0.00     0.188 C 
BRANCH   4   5
ATOM      5  O   UNL     1       4.857  -0.971  -0.346  1.00  0.00    -0.376 OA
BRANCH   5   6
ATOM      6  C   UNL     1       4.468   0.339  -0.732  1.00  0.00     0.202 C 
BRANCH   6   7
ATOM      7  C   UNL     1       5.266   1.530  -0.211  1.00  0.00     0.261 C 
BRANCH   7   8
ATOM      8  O   UNL     1       6.052   1.319   0.962  1.00  0.00    -0.463 OA
BRANCH   8   9
ATOM      9  C   UNL     1       5.679   0.634   2.053  1.00  0.00     0.308 C 
ATOM     10  O   UNL     1       6.550   0.244   2.834  1.00  0.00    -0.252 OA
BRANCH   9  11
ATOM     11  C   UNL     1       4.224   0.313   2.322  1.00  0.00     0.153 C 
BRANCH  11  12
ATOM     12  C   UNL     1       3.270   1.497   2.594  1.00  0.00     0.128 C 
BRANCH  12  13
ATOM     13  N   UNL     1       3.985   2.645   3.185  1.00  0.00    -0.346 N 
ATOM     14  C   UNL     1       3.955   3.970   2.856  1.00  0.00     0.086 A 
ATOM     15  C   UNL     1       4.922   2.488   4.192  1.00  0.00     0.086 A 
ATOM     16  C   UNL     1       5.070   4.572   3.401  1.00  0.00     0.019 A 
ATOM     17  C   UNL     1       5.694   3.624   4.236  1.00  0.00     0.019 A 
ENDBRANCH  12  13
BRANCH  12  18
ATOM     18  C   UNL     1       2.277   1.742   1.436  1.00  0.00    -0.014 A 
ATOM     19  C   UNL     1       2.262   2.770   0.420  1.00  0.00     0.017 A 
ATOM     20  C   UNL     1       1.242   0.849   1.165  1.00  0.00     0.070 A 
ATOM     21  C   UNL     1       1.328   2.566  -0.574  1.00  0.00     0.065 A 
ATOM     22  S   UNL     1       0.364   1.200  -0.262  1.00  0.00    -0.152 S 
ENDBRANCH  12  18
ENDBRANCH  11  12
ENDBRANCH   9  11
ENDBRANCH   8   9
ENDBRANCH   7   8
ENDBRANCH   6   7
ENDBRANCH   5   6
ENDBRANCH   4   5
ENDBRANCH   3   4
ENDBRANCH   2   3
ENDBRANCH   1   2
BRANCH   1  23
ATOM     23  C   UNL     1       5.038  -1.464  -3.465  1.00  0.00     0.188 C 
BRANCH  23  24
ATOM     24  O   UNL     1       5.279  -2.479  -2.502  1.00  0.00    -0.376 OA
BRANCH  24  25
ATOM     25  C   UNL     1       5.669  -3.793  -2.856  1.00  0.00     0.202 C 
BRANCH  25  26
ATOM     26  C   UNL     1       7.114  -3.965  -3.330  1.00  0.00     0.261 C 
BRANCH  26  27
ATOM     27  O   UNL     1       7.525  -2.946  -4.217  1.00  0.00    -0.460 OA
BRANCH  27  28
ATOM     28  C   UNL     1       6.799  -2.943  -5.351  1.00  0.00     0.338 C 
ATOM     29  O   UNL     1       5.882  -3.674  -5.659  1.00  0.00    -0.246 OA
BRANCH  28  30
ATOM     30  C   UNL     1       7.292  -1.865  -6.197  1.00  0.00     0.060 A 
ATOM     31  C   UNL     1       6.367  -1.419  -7.142  1.00  0.00     0.016 A 
ATOM     32  C   UNL     1       8.675  -1.887  -6.381  1.00  0.00     0.016 A 
ATOM     33  C   UNL     1       6.803  -1.375  -8.430  1.00  0.00     0.010 A 
ATOM     34  C   UNL     1       9.099  -1.914  -7.672  1.00  0.00     0.010 A 
ATOM     35  C   UNL     1       8.136  -1.730  -8.671  1.00  0.00    -0.014 A 
BRANCH  35  36
ATOM     36  C   UNL     1       8.568  -1.718 -10.049  1.00  0.00     0.031 A 
ATOM     37  C   UNL     1       8.990  -0.253 -10.369  1.00  0.00     0.074 A 
ATOM     38  C   UNL     1       8.421  -2.945 -10.655  1.00  0.00     0.049 A 
ATOM     39  N   UNL     1       9.080   0.369 -11.497  1.00  0.00    -0.248 NA
ATOM     40  C   UNL     1       9.288   0.706  -9.245  1.00  0.00     0.031 C 
ATOM     41  C   UNL     1       7.968  -4.222 -10.015  1.00  0.00     0.029 A 
ATOM     42  N   UNL     1       8.607  -3.387 -11.935  1.00  0.00    -0.354 N 
ATOM     43  C   UNL     1       9.710   1.614 -11.256  1.00  0.00     0.074 A 
ATOM     44  C   UNL     1       9.688   1.824  -9.848  1.00  0.00     0.031 C 
ATOM     45  C   UNL     1       7.802  -5.212 -10.931  1.00  0.00     0.029 A 
ATOM     46  C   UNL     1       8.150  -4.708 -12.243  1.00  0.00     0.049 A 
ATOM     47  H   UNL     1       9.037  -2.821 -12.617  1.00  0.00     0.167 HD
ATOM     48  C   UNL     1      10.328   2.325 -12.241  1.00  0.00     0.034 A 
ATOM     49  C   UNL     1       8.025  -5.275 -13.492  1.00  0.00     0.034 A 
ATOM     50  C   UNL     1      10.100   1.682 -13.491  1.00  0.00     0.049 A 
ATOM     51  C   UNL     1       8.618  -4.232 -14.350  1.00  0.00     0.074 A 
ATOM     52  C   UNL     1       8.964   1.608 -14.252  1.00  0.00     0.029 A 
ATOM     53  N   UNL     1      10.954   0.662 -13.844  1.00  0.00    -0.354 N 
ATOM     54  N   UNL     1       9.882  -3.940 -14.390  1.00  0.00    -0.248 NA
ATOM     55  C   UNL     1       7.716  -3.329 -15.073  1.00  0.00     0.031 C 
ATOM     56  C   UNL     1       8.929   0.243 -14.597  1.00  0.00     0.029 A 
ATOM     57  C   UNL     1      10.171  -0.354 -14.341  1.00  0.00     0.049 A 
ATOM     58  H   UNL     1      11.935   0.660 -13.757  1.00  0.00     0.167 HD
ATOM     59  C   UNL     1       9.890  -2.658 -14.876  1.00  0.00     0.074 A 
ATOM     60  C   UNL     1       8.617  -2.474 -15.548  1.00  0.00     0.031 C 
ATOM     61  C   UNL     1      10.682  -1.707 -14.309  1.00  0.00     0.034 A 
BRANCH  48  62
ATOM     62  C   UNL     1      11.269   3.491 -12.232  1.00  0.00     0.023 A 
ATOM     63  C   UNL     1      11.445   4.149 -13.472  1.00  0.00     0.031 A 
ATOM     64  C   UNL     1      12.203   3.777 -11.230  1.00  0.00     0.131 A 
ATOM     65  C   UNL     1      12.579   4.920 -13.737  1.00  0.00     0.055 A 
ATOM     66  C   UNL     1      13.309   4.606 -11.476  1.00  0.00     0.041 A 
ATOM     67  F   UNL     1      12.131   3.203 -10.020  1.00  0.00    -0.206 F 
ATOM     68  C   UNL     1      13.524   5.149 -12.744  1.00  0.00     0.022 A 
BRANCH  65  69
ATOM     69  S   UNL     1      12.861   5.448 -15.451  1.00  0.00     0.124 S 
ATOM     70  O   UNL     1      12.809   4.184 -16.178  1.00  0.00    -0.237 OA
ATOM     71  O   UNL     1      11.742   6.359 -15.675  1.00  0.00    -0.237 OA
ATOM     72  O   UNL     1      14.177   6.081 -15.397  1.00  0.00    -0.744 OA
ENDBRANCH  65  69
ENDBRANCH  48  62
BRANCH  49  73
ATOM     73  C   UNL     1       7.409  -6.462 -14.242  1.00  0.00     0.023 A 
ATOM     74  C   UNL     1       6.807  -7.619 -13.710  1.00  0.00     0.031 A 
ATOM     75  C   UNL     1       7.335  -6.378 -15.675  1.00  0.00     0.131 A 
ATOM     76  C   UNL     1       6.107  -8.529 -14.572  1.00  0.00     0.055 A 
ATOM     77  C   UNL     1       6.565  -7.206 -16.491  1.00  0.00     0.041 A 
ATOM     78  F   UNL     1       8.020  -5.462 -16.373  1.00  0.00    -0.206 F 
ATOM     79  C   UNL     1       5.924  -8.282 -15.936  1.00  0.00     0.022 A 
BRANCH  76  80
ATOM     80  S   UNL     1       5.388 -10.088 -13.953  1.00  0.00     0.124 S 
ATOM     81  O   UNL     1       6.544 -10.977 -13.954  1.00  0.00    -0.237 OA
ATOM     82  O   UNL     1       4.867  -9.708 -12.646  1.00  0.00    -0.237 OA
ATOM     83  O   UNL     1       4.363 -10.411 -14.948  1.00  0.00    -0.744 OA
ENDBRANCH  76  80
ENDBRANCH  49  73
BRANCH  61  84
ATOM     84  C   UNL     1      11.820  -2.240 -13.423  1.00  0.00     0.023 A 
ATOM     85  C   UNL     1      12.742  -3.164 -13.946  1.00  0.00     0.031 A 
ATOM     86  C   UNL     1      11.972  -1.954 -12.050  1.00  0.00     0.131 A 
ATOM     87  C   UNL     1      13.718  -3.772 -13.127  1.00  0.00     0.055 A 
ATOM     88  C   UNL     1      12.936  -2.560 -11.229  1.00  0.00     0.041 A 
ATOM     89  F   UNL     1      11.193  -1.066 -11.439  1.00  0.00    -0.206 F 
ATOM     90  C   UNL     1      13.818  -3.479 -11.768  1.00  0.00     0.022 A 
BRANCH  87  91
ATOM     91  S   UNL     1      14.891  -4.938 -13.869  1.00  0.00     0.124 S 
ATOM     92  O   UNL     1      14.047  -6.086 -14.180  1.00  0.00    -0.237 OA
ATOM     93  O   UNL     1      15.398  -4.185 -15.012  1.00  0.00    -0.237 OA
ATOM     94  O   UNL     1      15.870  -5.162 -12.804  1.00  0.00    -0.744 OA
ENDBRANCH  87  91
ENDBRANCH  61  84
ENDBRANCH  35  36
ENDBRANCH  28  30
ENDBRANCH  27  28
ENDBRANCH  26  27
ENDBRANCH  25  26
ENDBRANCH  24  25
ENDBRANCH  23  24
ENDBRANCH   1  23
TORSDOF 26
