REMARK SMILES Cc1cc(C(=O)N2[C@@H](C(=O)OCCOCCOCCOCCOC(=O)c3ccc(-c4c5nc(c(-c6cc(S(=O)(=O)[O-])ccc6F)c6ccc([nH]6)c(-c6cc(S(=O)(=O)[O-])ccc6F)c6nc(c(-c7cc(S(=O)(=O)[O-])ccc7F)c7ccc4[nH]7)C=C6)C=C5)cc3)C[C@H]3CCCC[C@H]32)c(C)s1
REMARK SMILES IDX 18 1 17 2 16 3 15 4 14 5 13 6 12 7 11 8 9 9 10 10 8 11 7 12
REMARK SMILES IDX 95 13 89 14 90 15 94 16 91 17 93 18 92 19 5 20 6 21 4 22
REMARK SMILES IDX 1 23 2 24 3 25 98 26 96 27 97 28 19 29 20 30 21 31 22 32
REMARK SMILES IDX 23 33 24 34 25 35 26 36 27 37 88 38 28 39 87 40 29 41 30 42
REMARK SMILES IDX 31 43 81 44 32 45 86 46 80 47 82 48 33 49 85 50 79 51 78 52
REMARK SMILES IDX 34 54 66 55 46 56 65 57 47 58 50 59 64 60 83 61 48 62 49 63
REMARK SMILES IDX 63 65 84 66 51 67 35 68 36 69 44 70 37 71 43 72 45 73 42 74
REMARK SMILES IDX 38 75 39 76 40 77 41 78 67 79 68 80 76 81 69 82 75 83 77 84
REMARK SMILES IDX 74 85 70 86 71 87 72 88 73 89 52 90 53 91 61 92 54 93 60 94
REMARK SMILES IDX 62 95 59 96 55 97 56 98 57 99 58 100
REMARK H PARENT 82 53 50 64
REMARK Flexibility Score: inf
ROOT
ATOM      1  C   UNL     1       3.356  -7.153  -3.852  1.00  0.00     0.188 C 
ENDROOT
BRANCH   1   2
ATOM      2  O   UNL     1       2.649  -7.021  -2.636  1.00  0.00    -0.377 OA
BRANCH   2   3
ATOM      3  C   UNL     1       1.262  -6.733  -2.675  1.00  0.00     0.188 C 
BRANCH   3   4
ATOM      4  C   UNL     1       0.507  -6.237  -3.921  1.00  0.00     0.188 C 
BRANCH   4   5
ATOM      5  O   UNL     1       1.343  -5.681  -4.908  1.00  0.00    -0.376 OA
BRANCH   5   6
ATOM      6  C   UNL     1       1.450  -4.274  -4.982  1.00  0.00     0.202 C 
BRANCH   6   7
ATOM      7  C   UNL     1       1.889  -3.457  -3.753  1.00  0.00     0.261 C 
BRANCH   7   8
ATOM      8  O   UNL     1       1.338  -3.757  -2.456  1.00  0.00    -0.462 OA
BRANCH   8   9
ATOM      9  C   UNL     1       0.021  -3.545  -2.220  1.00  0.00     0.328 C 
ATOM     10  O   UNL     1      -0.794  -3.254  -3.089  1.00  0.00    -0.250 OA
BRANCH   9  11
ATOM     11  C   UNL     1      -0.377  -3.825  -0.748  1.00  0.00     0.196 C 
ATOM     12  N   UNL     1       0.702  -3.712   0.261  1.00  0.00    -0.322 N 
ATOM     13  C   UNL     1       0.822  -4.904   1.095  1.00  0.00     0.089 C 
ATOM     14  C   UNL     1      -0.992  -5.214  -0.494  1.00  0.00     0.043 C 
ATOM     15  C   UNL     1      -0.550  -5.565   0.936  1.00  0.00     0.014 C 
ATOM     16  C   UNL     1       2.050  -5.760   0.775  1.00  0.00     0.025 C 
ATOM     17  C   UNL     1      -0.600  -7.037   1.320  1.00  0.00     0.006 C 
ATOM     18  C   UNL     1       1.921  -7.222   1.197  1.00  0.00     0.002 C 
ATOM     19  C   UNL     1       0.585  -7.854   0.830  1.00  0.00     0.000 C 
BRANCH  12  20
ATOM     20  C   UNL     1       1.342  -2.543   0.665  1.00  0.00     0.255 C 
ATOM     21  O   UNL     1       2.377  -2.560   1.323  1.00  0.00    -0.269 OA
BRANCH  20  22
ATOM     22  C   UNL     1       0.647  -1.285   0.372  1.00  0.00     0.053 A 
ATOM     23  C   UNL     1      -2.614   0.604   0.024  1.00  0.00     0.056 C 
ATOM     24  C   UNL     1      -1.204   0.141   0.119  1.00  0.00     0.003 A 
ATOM     25  C   UNL     1      -0.755  -1.062   0.605  1.00  0.00     0.029 A 
ATOM     26  S   UNL     1       0.098   1.126  -0.362  1.00  0.00    -0.145 S 
ATOM     27  C   UNL     1       1.254  -0.101  -0.017  1.00  0.00     0.014 A 
ATOM     28  C   UNL     1       2.707   0.220  -0.158  1.00  0.00     0.057 C 
ENDBRANCH  20  22
ENDBRANCH  12  20
ENDBRANCH   9  11
ENDBRANCH   8   9
ENDBRANCH   7   8
ENDBRANCH   6   7
ENDBRANCH   5   6
ENDBRANCH   4   5
ENDBRANCH   3   4
ENDBRANCH   2   3
ENDBRANCH   1   2
BRANCH   1  29
ATOM     29  C   UNL     1       2.845  -8.245  -4.806  1.00  0.00     0.188 C 
BRANCH  29  30
ATOM     30  O   UNL     1       1.551  -8.731  -4.471  1.00  0.00    -0.376 OA
BRANCH  30  31
ATOM     31  C   UNL     1       1.448 -10.007  -3.865  1.00  0.00     0.202 C 
BRANCH  31  32
ATOM     32  C   UNL     1       2.119 -10.265  -2.504  1.00  0.00     0.261 C 
BRANCH  32  33
ATOM     33  O   UNL     1       3.469  -9.821  -2.345  1.00  0.00    -0.460 OA
BRANCH  33  34
ATOM     34  C   UNL     1       4.416 -10.483  -3.050  1.00  0.00     0.338 C 
ATOM     35  O   UNL     1       4.242 -11.403  -3.814  1.00  0.00    -0.246 OA
BRANCH  34  36
ATOM     36  C   UNL     1       5.688  -9.749  -2.862  1.00  0.00     0.060 A 
ATOM     37  C   UNL     1       6.296  -9.159  -3.977  1.00  0.00     0.016 A 
ATOM     38  C   UNL     1       6.259  -9.629  -1.593  1.00  0.00     0.016 A 
ATOM     39  C   UNL     1       7.487  -8.451  -3.827  1.00  0.00     0.010 A 
ATOM     40  C   UNL     1       7.474  -8.953  -1.451  1.00  0.00     0.010 A 
ATOM     41  C   UNL     1       8.105  -8.386  -2.572  1.00  0.00    -0.014 A 
BRANCH  41  42
ATOM     42  C   UNL     1       9.513  -7.931  -2.486  1.00  0.00     0.031 A 
ATOM     43  C   UNL     1      10.589  -8.980  -2.530  1.00  0.00     0.074 A 
ATOM     44  C   UNL     1       9.830  -6.627  -2.413  1.00  0.00     0.049 A 
ATOM     45  N   UNL     1      11.886  -8.849  -2.437  1.00  0.00    -0.248 NA
ATOM     46  C   UNL     1      10.133 -10.370  -2.700  1.00  0.00     0.031 C 
ATOM     47  C   UNL     1       8.871  -5.524  -2.420  1.00  0.00     0.029 A 
ATOM     48  N   UNL     1      11.052  -6.012  -2.311  1.00  0.00    -0.354 N 
ATOM     49  C   UNL     1      12.402 -10.137  -2.532  1.00  0.00     0.074 A 
ATOM     50  C   UNL     1      11.275 -11.036  -2.653  1.00  0.00     0.031 C 
ATOM     51  C   UNL     1       9.543  -4.364  -2.312  1.00  0.00     0.029 A 
ATOM     52  C   UNL     1      10.973  -4.644  -2.186  1.00  0.00     0.049 A 
ATOM     53  H   UNL     1      11.905  -6.503  -2.327  1.00  0.00     0.167 HD
ATOM     54  C   UNL     1      13.698 -10.530  -2.523  1.00  0.00     0.034 A 
ATOM     55  C   UNL     1      11.943  -3.733  -1.962  1.00  0.00     0.034 A 
ATOM     56  C   UNL     1      14.805  -9.618  -2.379  1.00  0.00     0.049 A 
ATOM     57  C   UNL     1      13.376  -4.205  -1.854  1.00  0.00     0.074 A 
ATOM     58  C   UNL     1      16.159  -9.902  -2.367  1.00  0.00     0.029 A 
ATOM     59  N   UNL     1      14.686  -8.245  -2.201  1.00  0.00    -0.354 N 
ATOM     60  N   UNL     1      13.857  -5.424  -1.956  1.00  0.00    -0.248 NA
ATOM     61  C   UNL     1      14.396  -3.178  -1.608  1.00  0.00     0.031 C 
ATOM     62  C   UNL     1      16.851  -8.718  -2.092  1.00  0.00     0.029 A 
ATOM     63  C   UNL     1      15.939  -7.676  -2.034  1.00  0.00     0.049 A 
ATOM     64  H   UNL     1      13.836  -7.748  -2.193  1.00  0.00     0.167 HD
ATOM     65  C   UNL     1      15.239  -5.302  -1.821  1.00  0.00     0.074 A 
ATOM     66  C   UNL     1      15.513  -3.890  -1.645  1.00  0.00     0.031 C 
ATOM     67  C   UNL     1      16.196  -6.266  -1.848  1.00  0.00     0.034 A 
BRANCH  54  68
ATOM     68  C   UNL     1      13.973 -12.013  -2.603  1.00  0.00     0.023 A 
ATOM     69  C   UNL     1      13.607 -12.780  -3.724  1.00  0.00     0.031 A 
ATOM     70  C   UNL     1      14.575 -12.678  -1.520  1.00  0.00     0.131 A 
ATOM     71  C   UNL     1      13.778 -14.172  -3.706  1.00  0.00     0.055 A 
ATOM     72  C   UNL     1      14.822 -14.052  -1.544  1.00  0.00     0.041 A 
ATOM     73  F   UNL     1      14.919 -12.006  -0.410  1.00  0.00    -0.206 F 
ATOM     74  C   UNL     1      14.409 -14.810  -2.635  1.00  0.00     0.022 A 
BRANCH  71  75
ATOM     75  S   UNL     1      13.024 -15.157  -5.029  1.00  0.00     0.124 S 
ATOM     76  O   UNL     1      11.617 -14.778  -4.915  1.00  0.00    -0.237 OA
ATOM     77  O   UNL     1      13.720 -14.676  -6.217  1.00  0.00    -0.237 OA
ATOM     78  O   UNL     1      13.323 -16.535  -4.645  1.00  0.00    -0.744 OA
ENDBRANCH  71  75
ENDBRANCH  54  68
BRANCH  55  79
ATOM     79  C   UNL     1      11.600  -2.293  -1.770  1.00  0.00     0.023 A 
ATOM     80  C   UNL     1      12.087  -1.302  -2.638  1.00  0.00     0.031 A 
ATOM     81  C   UNL     1      10.825  -1.880  -0.671  1.00  0.00     0.131 A 
ATOM     82  C   UNL     1      11.834   0.053  -2.366  1.00  0.00     0.055 A 
ATOM     83  C   UNL     1      10.525  -0.536  -0.439  1.00  0.00     0.041 A 
ATOM     84  F   UNL     1      10.342  -2.783   0.197  1.00  0.00    -0.206 F 
ATOM     85  C   UNL     1      11.043   0.441  -1.282  1.00  0.00     0.022 A 
BRANCH  82  86
ATOM     86  S   UNL     1      12.637   1.312  -3.397  1.00  0.00     0.124 S 
ATOM     87  O   UNL     1      14.047   0.992  -3.211  1.00  0.00    -0.237 OA
ATOM     88  O   UNL     1      12.081   1.024  -4.715  1.00  0.00    -0.237 OA
ATOM     89  O   UNL     1      12.198   2.572  -2.799  1.00  0.00    -0.744 OA
ENDBRANCH  82  86
ENDBRANCH  55  79
BRANCH  67  90
ATOM     90  C   UNL     1      17.636  -5.817  -1.737  1.00  0.00     0.023 A 
ATOM     91  C   UNL     1      18.142  -5.215  -0.573  1.00  0.00     0.031 A 
ATOM     92  C   UNL     1      18.515  -5.998  -2.821  1.00  0.00     0.131 A 
ATOM     93  C   UNL     1      19.471  -4.763  -0.540  1.00  0.00     0.055 A 
ATOM     94  C   UNL     1      19.854  -5.612  -2.757  1.00  0.00     0.041 A 
ATOM     95  F   UNL     1      18.087  -6.564  -3.962  1.00  0.00    -0.206 F 
ATOM     96  C   UNL     1      20.336  -4.978  -1.617  1.00  0.00     0.022 A 
BRANCH  93  97
ATOM     97  S   UNL     1      20.029  -3.796   0.889  1.00  0.00     0.124 S 
ATOM     98  O   UNL     1      19.085  -2.683   0.889  1.00  0.00    -0.237 OA
ATOM     99  O   UNL     1      19.891  -4.750   1.985  1.00  0.00    -0.237 OA
ATOM    100  O   UNL     1      21.405  -3.441   0.547  1.00  0.00    -0.744 OA
ENDBRANCH  93  97
ENDBRANCH  67  90
ENDBRANCH  41  42
ENDBRANCH  34  36
ENDBRANCH  33  34
ENDBRANCH  32  33
ENDBRANCH  31  32
ENDBRANCH  30  31
ENDBRANCH  29  30
ENDBRANCH   1  29
TORSDOF 25
