REMARK SMILES C[C@H]1CCCN(C(=O)NC[C@H]2CC[C@H](C(=O)OCCOCCOCCOCCOC(=O)c3ccc(-c4c5nc(c(-c6cc(S(=O)(=O)[O-])ccc6F)c6ccc([nH]6)c(-c6cc(S(=O)(=O)[O-])ccc6F)c6nc(c(-c7cc(S(=O)(=O)[O-])ccc7F)c7ccc4[nH]7)C=C6)C=C5)cc3)O2)CC1
REMARK SMILES IDX 21 1 20 2 19 3 18 4 17 5 15 6 16 7 14 8 11 9 12 10 95 11
REMARK SMILES IDX 13 12 10 13 9 14 7 15 8 16 6 18 96 19 97 20 2 21 1 22 3 23
REMARK SMILES IDX 5 25 4 26 22 28 23 29 24 30 25 31 26 32 27 33 28 34 29 35
REMARK SMILES IDX 30 36 31 37 32 38 33 39 94 40 34 41 93 42 35 43 36 44 37 45
REMARK SMILES IDX 87 46 38 47 92 48 86 49 88 50 39 51 91 52 85 53 84 54 40 56
REMARK SMILES IDX 72 57 52 58 71 59 53 60 56 61 70 62 89 63 54 64 55 65 69 67
REMARK SMILES IDX 90 68 57 69 41 70 42 71 50 72 43 73 49 74 51 75 48 76 44 77
REMARK SMILES IDX 45 78 46 79 47 80 73 81 74 82 82 83 75 84 81 85 83 86 80 87
REMARK SMILES IDX 76 88 77 89 78 90 79 91 58 92 59 93 67 94 60 95 66 96 68 97
REMARK SMILES IDX 65 98 61 99 62 100 63 101 64 102
REMARK H PARENT 9 17 88 55 56 66
REMARK Flexibility Score: 80.00
ROOT
ATOM      1  C   UNL     1       5.365 -12.244  -0.216  1.00  0.00     0.188 C 
ENDROOT
BRANCH   1   2
ATOM      2  O   UNL     1       6.751 -11.953  -0.164  1.00  0.00    -0.376 OA
BRANCH   2   3
ATOM      3  C   UNL     1       7.319 -10.712   0.193  1.00  0.00     0.202 C 
BRANCH   3   4
ATOM      4  C   UNL     1       6.909  -9.360  -0.416  1.00  0.00     0.261 C 
BRANCH   4   5
ATOM      5  O   UNL     1       5.515  -9.096  -0.611  1.00  0.00    -0.461 OA
BRANCH   5   6
ATOM      6  C   UNL     1       5.020  -9.456  -1.826  1.00  0.00     0.335 C 
ATOM      7  O   UNL     1       5.674 -10.033  -2.689  1.00  0.00    -0.249 OA
BRANCH   6   8
ATOM      8  C   UNL     1       3.565  -9.024  -2.036  1.00  0.00     0.228 C 
ATOM      9  C   UNL     1       2.550  -6.975  -1.555  1.00  0.00     0.138 C 
ATOM     10  C   UNL     1       2.415  -7.837  -0.317  1.00  0.00     0.037 C 
ATOM     11  O   UNL     1       3.566  -7.618  -2.346  1.00  0.00    -0.361 OA
ATOM     12  C   UNL     1       2.541  -9.207  -0.920  1.00  0.00     0.047 C 
BRANCH   9  13
ATOM     13  C   UNL     1       1.224  -6.871  -2.352  1.00  0.00     0.149 C 
BRANCH  13  14
ATOM     14  N   UNL     1       1.364  -7.226  -3.762  1.00  0.00    -0.335 N 
ATOM     15  C   UNL     1       1.051  -8.178  -4.647  1.00  0.00     0.317 C 
ATOM     16  O   UNL     1       1.505  -7.968  -5.780  1.00  0.00    -0.249 OA
ATOM     17  H   UNL     1       1.864  -6.514  -4.222  1.00  0.00     0.165 HD
BRANCH  15  18
ATOM     18  N   UNL     1       0.309  -9.297  -4.385  1.00  0.00    -0.325 N 
BRANCH  18  19
ATOM     19  C   UNL     1       0.151 -10.239  -5.501  1.00  0.00     0.121 C 
BRANCH  19  20
ATOM     20  C   UNL     1      -1.064  -9.891  -6.365  1.00  0.00     0.025 C 
BRANCH  20  21
ATOM     21  C   UNL     1      -2.435 -10.198  -5.738  1.00  0.00    -0.012 C 
ATOM     22  C   UNL     1      -2.757 -11.696  -5.806  1.00  0.00     0.008 C 
BRANCH  21  23
ATOM     23  C   UNL     1      -2.612  -9.633  -4.317  1.00  0.00     0.005 CG0
ATOM     24  G   UNL     1      -1.734 -10.298  -3.261  1.00  0.00     0.000 G0
ENDBRANCH  21  23
ENDBRANCH  20  21
ENDBRANCH  19  20
ENDBRANCH  18  19
BRANCH  18  25
ATOM     25  C   UNL     1      -0.337  -9.691  -3.145  1.00  0.00     0.121 C 
BRANCH  25  26
ATOM     26  C   UNL     1      -1.734 -10.298  -3.261  1.00  0.00     0.022 CG0
ATOM     27  G   UNL     1      -2.612  -9.633  -4.317  1.00  0.00     0.000 G0
ENDBRANCH  25  26
ENDBRANCH  18  25
ENDBRANCH  15  18
ENDBRANCH  13  14
ENDBRANCH   9  13
ENDBRANCH   6   8
ENDBRANCH   5   6
ENDBRANCH   4   5
ENDBRANCH   3   4
ENDBRANCH   2   3
ENDBRANCH   1   2
BRANCH   1  28
ATOM     28  C   UNL     1       4.321 -11.518   0.638  1.00  0.00     0.188 C 
BRANCH  28  29
ATOM     29  O   UNL     1       4.132 -11.717   2.018  1.00  0.00    -0.377 OA
BRANCH  29  30
ATOM     30  C   UNL     1       5.283 -11.511   2.811  1.00  0.00     0.188 C 
BRANCH  30  31
ATOM     31  C   UNL     1       6.027 -12.832   2.989  1.00  0.00     0.188 C 
BRANCH  31  32
ATOM     32  O   UNL     1       5.426 -13.884   2.247  1.00  0.00    -0.376 OA
BRANCH  32  33
ATOM     33  C   UNL     1       4.284 -14.556   2.770  1.00  0.00     0.202 C 
BRANCH  33  34
ATOM     34  C   UNL     1       3.108 -13.867   3.511  1.00  0.00     0.261 C 
BRANCH  34  35
ATOM     35  O   UNL     1       3.389 -12.855   4.489  1.00  0.00    -0.460 OA
BRANCH  35  36
ATOM     36  C   UNL     1       4.116 -13.202   5.567  1.00  0.00     0.338 C 
ATOM     37  O   UNL     1       4.536 -14.318   5.830  1.00  0.00    -0.246 OA
BRANCH  36  38
ATOM     38  C   UNL     1       4.523 -11.953   6.254  1.00  0.00     0.060 A 
ATOM     39  C   UNL     1       5.891 -11.718   6.444  1.00  0.00     0.016 A 
ATOM     40  C   UNL     1       3.582 -11.007   6.679  1.00  0.00     0.016 A 
ATOM     41  C   UNL     1       6.320 -10.577   7.114  1.00  0.00     0.010 A 
ATOM     42  C   UNL     1       4.013  -9.872   7.379  1.00  0.00     0.010 A 
ATOM     43  C   UNL     1       5.381  -9.685   7.646  1.00  0.00    -0.014 A 
BRANCH  43  44
ATOM     44  C   UNL     1       5.841  -8.755   8.709  1.00  0.00     0.031 A 
ATOM     45  C   UNL     1       5.659  -9.184  10.141  1.00  0.00     0.074 A 
ATOM     46  C   UNL     1       6.500  -7.620   8.420  1.00  0.00     0.049 A 
ATOM     47  N   UNL     1       6.045  -8.601  11.246  1.00  0.00    -0.248 NA
ATOM     48  C   UNL     1       4.937 -10.448  10.348  1.00  0.00     0.031 C 
ATOM     49  C   UNL     1       6.772  -7.122   7.074  1.00  0.00     0.029 A 
ATOM     50  N   UNL     1       7.068  -6.686   9.249  1.00  0.00    -0.354 N 
ATOM     51  C   UNL     1       5.611  -9.427  12.279  1.00  0.00     0.074 A 
ATOM     52  C   UNL     1       4.883 -10.517  11.667  1.00  0.00     0.031 C 
ATOM     53  C   UNL     1       7.454  -5.967   7.169  1.00  0.00     0.029 A 
ATOM     54  C   UNL     1       7.641  -5.631   8.580  1.00  0.00     0.049 A 
ATOM     55  H   UNL     1       7.065  -6.764  10.230  1.00  0.00     0.167 HD
ATOM     56  C   UNL     1       5.815  -9.299  13.613  1.00  0.00     0.034 A 
ATOM     57  C   UNL     1       8.234  -4.516   9.054  1.00  0.00     0.034 A 
ATOM     58  C   UNL     1       6.525  -8.190  14.205  1.00  0.00     0.049 A 
ATOM     59  C   UNL     1       8.393  -4.350  10.546  1.00  0.00     0.074 A 
ATOM     60  C   UNL     1       6.803  -7.957  15.540  1.00  0.00     0.029 A 
ATOM     61  N   UNL     1       7.051  -7.114  13.498  1.00  0.00    -0.354 N 
ATOM     62  N   UNL     1       8.002  -5.146  11.515  1.00  0.00    -0.248 NA
ATOM     63  C   UNL     1       9.095  -3.146  11.003  1.00  0.00     0.031 C 
ATOM     64  C   UNL     1       7.410  -6.701  15.648  1.00  0.00     0.029 A 
ATOM     65  C   UNL     1       7.613  -6.195  14.373  1.00  0.00     0.049 A 
ATOM     66  H   UNL     1       7.028  -7.018  12.519  1.00  0.00     0.167 HD
ATOM     67  C   UNL     1       8.439  -4.552  12.698  1.00  0.00     0.074 A 
ATOM     68  C   UNL     1       9.136  -3.341  12.313  1.00  0.00     0.031 C 
ATOM     69  C   UNL     1       8.286  -4.974  13.982  1.00  0.00     0.034 A 
BRANCH  56  70
ATOM     70  C   UNL     1       5.188 -10.348  14.506  1.00  0.00     0.023 A 
ATOM     71  C   UNL     1       5.509 -11.713  14.393  1.00  0.00     0.031 A 
ATOM     72  C   UNL     1       4.185  -9.987  15.424  1.00  0.00     0.131 A 
ATOM     73  C   UNL     1       4.759 -12.671  15.095  1.00  0.00     0.055 A 
ATOM     74  C   UNL     1       3.516 -10.937  16.198  1.00  0.00     0.041 A 
ATOM     75  F   UNL     1       3.812  -8.705  15.561  1.00  0.00    -0.206 F 
ATOM     76  C   UNL     1       3.784 -12.290  16.018  1.00  0.00     0.022 A 
BRANCH  73  77
ATOM     77  S   UNL     1       4.927 -14.416  14.624  1.00  0.00     0.124 S 
ATOM     78  O   UNL     1       4.637 -14.364  13.192  1.00  0.00    -0.237 OA
ATOM     79  O   UNL     1       6.308 -14.709  14.987  1.00  0.00    -0.237 OA
ATOM     80  O   UNL     1       3.911 -15.088  15.431  1.00  0.00    -0.744 OA
ENDBRANCH  73  77
ENDBRANCH  56  70
BRANCH  57  81
ATOM     81  C   UNL     1       8.681  -3.455   8.106  1.00  0.00     0.023 A 
ATOM     82  C   UNL     1      10.036  -3.122   7.946  1.00  0.00     0.031 A 
ATOM     83  C   UNL     1       7.733  -2.743   7.347  1.00  0.00     0.131 A 
ATOM     84  C   UNL     1      10.401  -2.089   7.066  1.00  0.00     0.055 A 
ATOM     85  C   UNL     1       8.105  -1.752   6.438  1.00  0.00     0.041 A 
ATOM     86  F   UNL     1       6.425  -3.021   7.463  1.00  0.00    -0.206 F 
ATOM     87  C   UNL     1       9.447  -1.415   6.300  1.00  0.00     0.022 A 
BRANCH  84  88
ATOM     88  S   UNL     1      12.145  -1.597   6.969  1.00  0.00     0.124 S 
ATOM     89  O   UNL     1      12.409  -1.165   8.336  1.00  0.00    -0.237 OA
ATOM     90  O   UNL     1      12.787  -2.840   6.552  1.00  0.00    -0.237 OA
ATOM     91  O   UNL     1      12.143  -0.534   5.966  1.00  0.00    -0.744 OA
ENDBRANCH  84  88
ENDBRANCH  57  81
BRANCH  69  92
ATOM     92  C   UNL     1       8.933  -4.136  15.065  1.00  0.00     0.023 A 
ATOM     93  C   UNL     1       8.556  -2.802  15.303  1.00  0.00     0.031 A 
ATOM     94  C   UNL     1       9.972  -4.673  15.849  1.00  0.00     0.131 A 
ATOM     95  C   UNL     1       9.268  -2.028  16.233  1.00  0.00     0.055 A 
ATOM     96  C   UNL     1      10.619  -3.923  16.832  1.00  0.00     0.041 A 
ATOM     97  F   UNL     1      10.382  -5.939  15.668  1.00  0.00    -0.206 F 
ATOM     98  C   UNL     1      10.283  -2.586  17.014  1.00  0.00     0.022 A 
BRANCH  95  99
ATOM     99  S   UNL     1       8.954  -0.242  16.298  1.00  0.00     0.124 S 
ATOM    100  O   UNL     1       9.157   0.150  14.907  1.00  0.00    -0.237 OA
ATOM    101  O   UNL     1       7.579  -0.185  16.782  1.00  0.00    -0.237 OA
ATOM    102  O   UNL     1       9.963   0.249  17.234  1.00  0.00    -0.744 OA
ENDBRANCH  95  99
ENDBRANCH  69  92
ENDBRANCH  43  44
ENDBRANCH  36  38
ENDBRANCH  35  36
ENDBRANCH  34  35
ENDBRANCH  33  34
ENDBRANCH  32  33
ENDBRANCH  31  32
ENDBRANCH  30  31
ENDBRANCH  29  30
ENDBRANCH  28  29
ENDBRANCH   1  28
TORSDOF 26
