REMARK SMILES Cc1cc(C(=O)OCCOCCOCCOCCOC(=O)c2ccc(-c3c4nc(c(-c5cc(S(=O)(=O)[O-])ccc5F)c5ccc([nH]5)c(-c5cc(S(=O)(=O)[O-])ccc5F)c5nc(c(-c6cc(S(=O)(=O)[O-])ccc6F)c6ccc3[nH]6)C=C5)C=C4)cc2)ccc1NS(=O)(=O)c1c(F)cccc1F
REMARK SMILES IDX 13 1 12 2 11 3 10 4 9 5 8 6 7 7 5 8 6 9 4 10 1 11 2 12 3 13
REMARK SMILES IDX 87 14 86 15 85 16 88 17 89 19 90 20 91 21 92 22 93 23 98 24
REMARK SMILES IDX 94 25 95 26 97 27 99 28 96 29 14 30 15 31 16 32 17 33 18 34
REMARK SMILES IDX 19 35 20 36 21 37 22 38 23 39 84 40 24 41 83 42 25 43 26 44
REMARK SMILES IDX 27 45 77 46 28 47 82 48 76 49 78 50 29 51 81 52 75 53 74 54
REMARK SMILES IDX 30 56 62 57 42 58 61 59 43 60 46 61 60 62 79 63 44 64 45 65
REMARK SMILES IDX 59 67 80 68 47 69 31 70 32 71 40 72 33 73 39 74 41 75 38 76
REMARK SMILES IDX 34 77 35 78 36 79 37 80 63 81 64 82 72 83 65 84 71 85 73 86
REMARK SMILES IDX 70 87 66 88 67 89 68 90 69 91 48 92 49 93 57 94 50 95 56 96
REMARK SMILES IDX 58 97 55 98 51 99 52 100 53 101 54 102
REMARK H PARENT 88 18 78 55 46 66
REMARK Flexibility Score: inf
ROOT
ATOM      1  O   UNL     1      -1.940  -1.349  -2.281  1.00  0.00    -0.377 OA
ENDROOT
BRANCH   1   2
ATOM      2  C   UNL     1      -0.615  -1.425  -2.764  1.00  0.00     0.188 C 
BRANCH   2   3
ATOM      3  C   UNL     1       0.353  -2.361  -2.025  1.00  0.00     0.188 C 
BRANCH   3   4
ATOM      4  O   UNL     1       0.083  -3.754  -1.980  1.00  0.00    -0.376 OA
BRANCH   4   5
ATOM      5  C   UNL     1      -0.861  -4.148  -0.992  1.00  0.00     0.202 C 
BRANCH   5   6
ATOM      6  C   UNL     1      -0.457  -4.004   0.464  1.00  0.00     0.261 C 
BRANCH   6   7
ATOM      7  O   UNL     1      -0.539  -2.648   0.890  1.00  0.00    -0.460 OA
BRANCH   7   8
ATOM      8  C   UNL     1       0.495  -2.247   1.637  1.00  0.00     0.338 C 
ATOM      9  O   UNL     1       1.411  -2.939   2.097  1.00  0.00    -0.246 OA
BRANCH   8  10
ATOM     10  C   UNL     1       0.614  -0.810   1.437  1.00  0.00     0.060 A 
ATOM     11  C   UNL     1       3.288   1.118  -0.344  1.00  0.00     0.046 C 
ATOM     12  C   UNL     1       1.979   0.867   0.344  1.00  0.00    -0.026 A 
ATOM     13  C   UNL     1       1.826  -0.409   0.883  1.00  0.00     0.021 A 
ATOM     14  C   UNL     1       0.898   1.768   0.402  1.00  0.00     0.052 A 
ATOM     15  C   UNL     1      -0.273   1.388   1.081  1.00  0.00     0.028 A 
ATOM     16  C   UNL     1      -0.442   0.085   1.556  1.00  0.00     0.018 A 
BRANCH  14  17
ATOM     17  N   UNL     1       0.956   2.937  -0.413  1.00  0.00    -0.279 N 
ATOM     18  H   UNL     1       1.544   2.892  -1.201  1.00  0.00     0.180 HD
BRANCH  17  19
ATOM     19  S   UNL     1       0.139   4.369  -0.180  1.00  0.00     0.267 S 
ATOM     20  O   UNL     1       0.361   4.751   1.199  1.00  0.00    -0.201 OA
ATOM     21  O   UNL     1       0.575   5.234  -1.260  1.00  0.00    -0.201 OA
BRANCH  19  22
ATOM     22  C   UNL     1      -1.574   4.107  -0.408  1.00  0.00     0.158 A 
ATOM     23  C   UNL     1      -2.447   4.969   0.246  1.00  0.00     0.146 A 
ATOM     24  C   UNL     1      -2.082   3.003  -1.078  1.00  0.00     0.146 A 
ATOM     25  F   UNL     1      -2.005   6.097   0.821  1.00  0.00    -0.205 F 
ATOM     26  C   UNL     1      -3.808   4.686   0.320  1.00  0.00     0.041 A 
ATOM     27  C   UNL     1      -3.439   2.693  -0.988  1.00  0.00     0.041 A 
ATOM     28  F   UNL     1      -1.284   2.185  -1.776  1.00  0.00    -0.205 F 
ATOM     29  C   UNL     1      -4.302   3.524  -0.270  1.00  0.00     0.006 A 
ENDBRANCH  19  22
ENDBRANCH  17  19
ENDBRANCH  14  17
ENDBRANCH   8  10
ENDBRANCH   7   8
ENDBRANCH   6   7
ENDBRANCH   5   6
ENDBRANCH   4   5
ENDBRANCH   3   4
ENDBRANCH   2   3
ENDBRANCH   1   2
BRANCH   1  30
ATOM     30  C   UNL     1      -2.969  -2.050  -2.981  1.00  0.00     0.188 C 
BRANCH  30  31
ATOM     31  C   UNL     1      -2.769  -2.511  -4.417  1.00  0.00     0.188 C 
BRANCH  31  32
ATOM     32  O   UNL     1      -1.814  -3.578  -4.424  1.00  0.00    -0.376 OA
BRANCH  32  33
ATOM     33  C   UNL     1      -1.155  -3.779  -5.666  1.00  0.00     0.202 C 
BRANCH  33  34
ATOM     34  C   UNL     1      -2.108  -4.145  -6.812  1.00  0.00     0.261 C 
BRANCH  34  35
ATOM     35  O   UNL     1      -2.721  -5.424  -6.549  1.00  0.00    -0.460 OA
BRANCH  35  36
ATOM     36  C   UNL     1      -4.046  -5.382  -6.233  1.00  0.00     0.338 C 
ATOM     37  O   UNL     1      -4.924  -4.941  -6.956  1.00  0.00    -0.246 OA
BRANCH  36  38
ATOM     38  C   UNL     1      -4.247  -5.825  -4.823  1.00  0.00     0.060 A 
ATOM     39  C   UNL     1      -5.461  -5.596  -4.154  1.00  0.00     0.016 A 
ATOM     40  C   UNL     1      -3.139  -6.230  -4.096  1.00  0.00     0.016 A 
ATOM     41  C   UNL     1      -5.502  -5.582  -2.745  1.00  0.00     0.010 A 
ATOM     42  C   UNL     1      -3.174  -6.132  -2.723  1.00  0.00     0.010 A 
ATOM     43  C   UNL     1      -4.323  -5.743  -2.020  1.00  0.00    -0.014 A 
BRANCH  43  44
ATOM     44  C   UNL     1      -4.111  -5.361  -0.601  1.00  0.00     0.031 A 
ATOM     45  C   UNL     1      -3.349  -6.291   0.308  1.00  0.00     0.074 A 
ATOM     46  C   UNL     1      -4.247  -4.045  -0.272  1.00  0.00     0.049 A 
ATOM     47  N   UNL     1      -3.016  -6.039   1.527  1.00  0.00    -0.248 NA
ATOM     48  C   UNL     1      -2.841  -7.603  -0.102  1.00  0.00     0.031 C 
ATOM     49  C   UNL     1      -3.584  -3.309   0.810  1.00  0.00     0.029 A 
ATOM     50  N   UNL     1      -4.948  -3.023  -0.885  1.00  0.00    -0.354 N 
ATOM     51  C   UNL     1      -1.972  -6.877   1.895  1.00  0.00     0.074 A 
ATOM     52  C   UNL     1      -1.990  -7.905   0.888  1.00  0.00     0.031 C 
ATOM     53  C   UNL     1      -3.975  -2.024   0.846  1.00  0.00     0.029 A 
ATOM     54  C   UNL     1      -5.123  -1.940  -0.020  1.00  0.00     0.049 A 
ATOM     55  H   UNL     1      -5.280  -3.055  -1.811  1.00  0.00     0.167 HD
ATOM     56  C   UNL     1      -1.138  -6.499   2.920  1.00  0.00     0.034 A 
ATOM     57  C   UNL     1      -6.368  -1.619   0.448  1.00  0.00     0.034 A 
ATOM     58  C   UNL     1      -1.643  -5.280   3.590  1.00  0.00     0.049 A 
ATOM     59  C   UNL     1      -6.457  -2.090   1.915  1.00  0.00     0.074 A 
ATOM     60  C   UNL     1      -1.101  -4.059   3.952  1.00  0.00     0.029 A 
ATOM     61  N   UNL     1      -3.009  -5.166   3.851  1.00  0.00    -0.354 N 
ATOM     62  N   UNL     1      -5.747  -3.091   2.398  1.00  0.00    -0.248 NA
ATOM     63  C   UNL     1      -7.085  -1.313   2.986  1.00  0.00     0.031 C 
ATOM     64  C   UNL     1      -2.180  -3.163   4.227  1.00  0.00     0.029 A 
ATOM     65  C   UNL     1      -3.373  -3.870   4.137  1.00  0.00     0.049 A 
ATOM     66  H   UNL     1      -3.638  -5.923   3.832  1.00  0.00     0.167 HD
ATOM     67  C   UNL     1      -5.639  -2.968   3.760  1.00  0.00     0.074 A 
ATOM     68  C   UNL     1      -6.564  -1.889   4.087  1.00  0.00     0.031 C 
ATOM     69  C   UNL     1      -4.728  -3.591   4.577  1.00  0.00     0.034 A 
BRANCH  56  70
ATOM     70  C   UNL     1       0.252  -7.075   3.252  1.00  0.00     0.023 A 
ATOM     71  C   UNL     1       0.942  -6.606   4.402  1.00  0.00     0.031 A 
ATOM     72  C   UNL     1       0.994  -7.986   2.468  1.00  0.00     0.131 A 
ATOM     73  C   UNL     1       2.265  -7.003   4.709  1.00  0.00     0.055 A 
ATOM     74  C   UNL     1       2.287  -8.430   2.806  1.00  0.00     0.041 A 
ATOM     75  F   UNL     1       0.538  -8.469   1.308  1.00  0.00    -0.206 F 
ATOM     76  C   UNL     1       2.934  -7.934   3.925  1.00  0.00     0.022 A 
BRANCH  73  77
ATOM     77  S   UNL     1       3.119  -6.283   6.146  1.00  0.00     0.124 S 
ATOM     78  O   UNL     1       3.342  -4.905   5.720  1.00  0.00    -0.237 OA
ATOM     79  O   UNL     1       2.153  -6.480   7.220  1.00  0.00    -0.237 OA
ATOM     80  O   UNL     1       4.333  -7.093   6.261  1.00  0.00    -0.744 OA
ENDBRANCH  73  77
ENDBRANCH  56  70
BRANCH  57  81
ATOM     81  C   UNL     1      -7.333  -1.602  -0.708  1.00  0.00     0.023 A 
ATOM     82  C   UNL     1      -7.047  -0.596  -1.678  1.00  0.00     0.031 A 
ATOM     83  C   UNL     1      -7.922  -2.786  -1.180  1.00  0.00     0.131 A 
ATOM     84  C   UNL     1      -7.085  -0.892  -3.055  1.00  0.00     0.055 A 
ATOM     85  C   UNL     1      -8.006  -3.054  -2.561  1.00  0.00     0.041 A 
ATOM     86  F   UNL     1      -8.209  -3.789  -0.337  1.00  0.00    -0.206 F 
ATOM     87  C   UNL     1      -7.518  -2.140  -3.498  1.00  0.00     0.022 A 
BRANCH  84  88
ATOM     88  S   UNL     1      -6.286   0.250  -4.239  1.00  0.00     0.124 S 
ATOM     89  O   UNL     1      -7.368   1.181  -4.534  1.00  0.00    -0.237 OA
ATOM     90  O   UNL     1      -5.176   0.797  -3.466  1.00  0.00    -0.237 OA
ATOM     91  O   UNL     1      -5.885  -0.631  -5.333  1.00  0.00    -0.744 OA
ENDBRANCH  84  88
ENDBRANCH  57  81
BRANCH  69  92
ATOM     92  C   UNL     1      -5.093  -4.053   5.966  1.00  0.00     0.023 A 
ATOM     93  C   UNL     1      -6.416  -4.015   6.400  1.00  0.00     0.031 A 
ATOM     94  C   UNL     1      -4.176  -4.716   6.824  1.00  0.00     0.131 A 
ATOM     95  C   UNL     1      -6.776  -4.508   7.655  1.00  0.00     0.055 A 
ATOM     96  C   UNL     1      -4.561  -5.310   8.027  1.00  0.00     0.041 A 
ATOM     97  F   UNL     1      -2.876  -4.848   6.526  1.00  0.00    -0.206 F 
ATOM     98  C   UNL     1      -5.870  -5.189   8.462  1.00  0.00     0.022 A 
BRANCH  95  99
ATOM     99  S   UNL     1      -8.440  -4.114   8.220  1.00  0.00     0.124 S 
ATOM    100  O   UNL     1      -8.407  -2.653   8.224  1.00  0.00    -0.237 OA
ATOM    101  O   UNL     1      -9.275  -4.723   7.189  1.00  0.00    -0.237 OA
ATOM    102  O   UNL     1      -8.512  -4.741   9.536  1.00  0.00    -0.744 OA
ENDBRANCH  95  99
ENDBRANCH  69  92
ENDBRANCH  43  44
ENDBRANCH  36  38
ENDBRANCH  35  36
ENDBRANCH  34  35
ENDBRANCH  33  34
ENDBRANCH  32  33
ENDBRANCH  31  32
ENDBRANCH  30  31
ENDBRANCH   1  30
TORSDOF 26
