REMARK SMILES C[C@@H]1[C@@H](C(=O)OCCOCCOCCOCCOC(=O)c2ccc(-c3c4nc(c(-c5cc(S(=O)(=O)[O-])ccc5F)c5ccc([nH]5)c(-c5cc(S(=O)(=O)[O-])ccc5F)c5nc(c(-c6cc(S(=O)(=O)[O-])ccc6F)c6ccc3[nH]6)C=C5)C=C4)cc2)CCN1C(=O)[C@]1([NH3+])CCOC1
REMARK SMILES IDX 12 1 11 2 10 3 9 4 8 5 7 6 6 7 4 8 5 9 3 10 1 11 2 12 86 13
REMARK SMILES IDX 84 14 85 15 87 16 88 17 89 18 91 19 94 20 92 21 93 22 90 23
REMARK SMILES IDX 13 27 14 28 15 29 16 30 17 31 18 32 19 33 20 34 21 35 22 36
REMARK SMILES IDX 83 37 23 38 82 39 24 40 25 41 26 42 76 43 27 44 81 45 75 46
REMARK SMILES IDX 77 47 28 48 80 49 74 50 73 51 29 53 61 54 41 55 60 56 42 57
REMARK SMILES IDX 45 58 59 59 78 60 43 61 44 62 58 64 79 65 46 66 30 67 31 68
REMARK SMILES IDX 39 69 32 70 38 71 40 72 37 73 33 74 34 75 35 76 36 77 62 78
REMARK SMILES IDX 63 79 71 80 64 81 70 82 72 83 69 84 65 85 66 86 67 87 68 88
REMARK SMILES IDX 47 89 48 90 56 91 49 92 55 93 57 94 54 95 50 96 51 97 52 98
REMARK SMILES IDX 53 99
REMARK H PARENT 90 24 90 25 90 26 77 52 45 63
REMARK Flexibility Score: inf
ROOT
ATOM      1  O   UNL     1       7.218  -7.825  -0.449  1.00  0.00    -0.377 OA
ENDROOT
BRANCH   1   2
ATOM      2  C   UNL     1       7.194  -6.494  -0.912  1.00  0.00     0.188 C 
BRANCH   2   3
ATOM      3  C   UNL     1       6.571  -5.503   0.087  1.00  0.00     0.188 C 
BRANCH   3   4
ATOM      4  O   UNL     1       6.441  -5.794   1.471  1.00  0.00    -0.376 OA
BRANCH   4   5
ATOM      5  C   UNL     1       5.986  -7.031   1.998  1.00  0.00     0.202 C 
BRANCH   5   6
ATOM      6  C   UNL     1       4.824  -7.861   1.431  1.00  0.00     0.261 C 
BRANCH   6   7
ATOM      7  O   UNL     1       4.618  -7.772   0.026  1.00  0.00    -0.463 OA
BRANCH   7   8
ATOM      8  C   UNL     1       3.752  -6.805  -0.345  1.00  0.00     0.311 C 
ATOM      9  O   UNL     1       3.097  -6.120   0.428  1.00  0.00    -0.252 OA
BRANCH   8  10
ATOM     10  C   UNL     1       3.756  -6.651  -1.855  1.00  0.00     0.123 C 
ATOM     11  C   UNL     1       3.797  -4.856  -3.635  1.00  0.00     0.032 C 
ATOM     12  C   UNL     1       3.332  -5.224  -2.223  1.00  0.00     0.096 C 
ATOM     13  N   UNL     1       1.874  -5.298  -2.119  1.00  0.00    -0.334 N 
ATOM     14  C   UNL     1       2.683  -7.519  -2.483  1.00  0.00     0.039 C 
ATOM     15  C   UNL     1       1.428  -6.691  -2.258  1.00  0.00     0.121 C 
BRANCH  13  16
ATOM     16  C   UNL     1       0.991  -4.404  -1.552  1.00  0.00     0.286 C 
ATOM     17  O   UNL     1      -0.184  -4.772  -1.368  1.00  0.00    -0.267 OA
BRANCH  16  18
ATOM     18  C   UNL     1       1.357  -2.922  -1.156  1.00  0.00     0.199 C 
ATOM     19  C   UNL     1       1.808  -2.074  -2.329  1.00  0.00     0.110 C 
ATOM     20  C   UNL     1       2.459  -2.751  -0.110  1.00  0.00     0.239 C 
ATOM     21  C   UNL     1       3.256  -1.736  -2.059  1.00  0.00     0.167 C 
ATOM     22  O   UNL     1       3.560  -2.041  -0.703  1.00  0.00    -0.374 OA
BRANCH  18  23
ATOM     23  N   UNL     1       0.086  -2.313  -0.625  1.00  0.00    -0.343 N 
ATOM     24  H   UNL     1       0.261  -1.347  -0.350  1.00  0.00     0.345 HD
ATOM     25  H   UNL     1      -0.233  -2.845   0.185  1.00  0.00     0.345 HD
ATOM     26  H   UNL     1      -0.631  -2.336  -1.351  1.00  0.00     0.345 HD
ENDBRANCH  18  23
ENDBRANCH  16  18
ENDBRANCH  13  16
ENDBRANCH   8  10
ENDBRANCH   7   8
ENDBRANCH   6   7
ENDBRANCH   5   6
ENDBRANCH   4   5
ENDBRANCH   3   4
ENDBRANCH   2   3
ENDBRANCH   1   2
BRANCH   1  27
ATOM     27  C   UNL     1       8.444  -8.277   0.117  1.00  0.00     0.188 C 
BRANCH  27  28
ATOM     28  C   UNL     1       9.290  -7.289   0.957  1.00  0.00     0.188 C 
BRANCH  28  29
ATOM     29  O   UNL     1       9.471  -6.012   0.357  1.00  0.00    -0.376 OA
BRANCH  29  30
ATOM     30  C   UNL     1      10.715  -5.735  -0.267  1.00  0.00     0.202 C 
BRANCH  30  31
ATOM     31  C   UNL     1      11.038  -6.513  -1.553  1.00  0.00     0.261 C 
BRANCH  31  32
ATOM     32  O   UNL     1      11.028  -7.945  -1.446  1.00  0.00    -0.460 OA
BRANCH  32  33
ATOM     33  C   UNL     1      11.904  -8.506  -0.585  1.00  0.00     0.338 C 
ATOM     34  O   UNL     1      12.743  -7.920   0.081  1.00  0.00    -0.246 OA
BRANCH  33  35
ATOM     35  C   UNL     1      11.535  -9.928  -0.419  1.00  0.00     0.060 A 
ATOM     36  C   UNL     1      11.221 -10.401   0.863  1.00  0.00     0.016 A 
ATOM     37  C   UNL     1      11.490 -10.787  -1.519  1.00  0.00     0.016 A 
ATOM     38  C   UNL     1      10.902 -11.746   1.053  1.00  0.00     0.010 A 
ATOM     39  C   UNL     1      11.193 -12.139  -1.323  1.00  0.00     0.010 A 
ATOM     40  C   UNL     1      10.934 -12.632  -0.031  1.00  0.00    -0.014 A 
BRANCH  40  41
ATOM     41  C   UNL     1      10.916 -14.096   0.217  1.00  0.00     0.031 A 
ATOM     42  C   UNL     1      12.233 -14.826   0.237  1.00  0.00     0.074 A 
ATOM     43  C   UNL     1       9.770 -14.760   0.450  1.00  0.00     0.049 A 
ATOM     44  N   UNL     1      12.476 -16.103   0.370  1.00  0.00    -0.248 NA
ATOM     45  C   UNL     1      13.437 -13.995   0.080  1.00  0.00     0.031 C 
ATOM     46  C   UNL     1       8.441 -14.154   0.516  1.00  0.00     0.029 A 
ATOM     47  N   UNL     1       9.542 -16.096   0.669  1.00  0.00    -0.354 N 
ATOM     48  C   UNL     1      13.860 -16.232   0.306  1.00  0.00     0.074 A 
ATOM     49  C   UNL     1      14.396 -14.907   0.081  1.00  0.00     0.031 C 
ATOM     50  C   UNL     1       7.534 -15.120   0.750  1.00  0.00     0.029 A 
ATOM     51  C   UNL     1       8.210 -16.416   0.805  1.00  0.00     0.049 A 
ATOM     52  H   UNL     1      10.263 -16.764   0.724  1.00  0.00     0.167 HD
ATOM     53  C   UNL     1      14.614 -17.352   0.432  1.00  0.00     0.034 A 
ATOM     54  C   UNL     1       7.609 -17.617   0.928  1.00  0.00     0.034 A 
ATOM     55  C   UNL     1      14.063 -18.667   0.643  1.00  0.00     0.049 A 
ATOM     56  C   UNL     1       8.463 -18.866   0.960  1.00  0.00     0.074 A 
ATOM     57  C   UNL     1      14.734 -19.868   0.791  1.00  0.00     0.029 A 
ATOM     58  N   UNL     1      12.707 -18.959   0.719  1.00  0.00    -0.354 N 
ATOM     59  N   UNL     1       9.771 -18.976   0.899  1.00  0.00    -0.248 NA
ATOM     60  C   UNL     1       7.760 -20.149   1.083  1.00  0.00     0.031 C 
ATOM     61  C   UNL     1      13.786 -20.893   0.870  1.00  0.00     0.029 A 
ATOM     62  C   UNL     1      12.522 -20.325   0.872  1.00  0.00     0.049 A 
ATOM     63  H   UNL     1      11.983 -18.294   0.671  1.00  0.00     0.167 HD
ATOM     64  C   UNL     1      10.045 -20.339   1.016  1.00  0.00     0.074 A 
ATOM     65  C   UNL     1       8.768 -21.005   1.163  1.00  0.00     0.031 C 
ATOM     66  C   UNL     1      11.242 -20.980   1.011  1.00  0.00     0.034 A 
BRANCH  53  67
ATOM     67  C   UNL     1      16.110 -17.202   0.285  1.00  0.00     0.023 A 
ATOM     68  C   UNL     1      16.871 -16.430   1.180  1.00  0.00     0.031 A 
ATOM     69  C   UNL     1      16.781 -17.819  -0.786  1.00  0.00     0.131 A 
ATOM     70  C   UNL     1      18.241 -16.236   0.947  1.00  0.00     0.055 A 
ATOM     71  C   UNL     1      18.160 -17.694  -0.962  1.00  0.00     0.041 A 
ATOM     72  F   UNL     1      16.104 -18.545  -1.689  1.00  0.00    -0.206 F 
ATOM     73  C   UNL     1      18.896 -16.886  -0.101  1.00  0.00     0.022 A 
BRANCH  70  74
ATOM     74  S   UNL     1      19.123 -15.001   1.941  1.00  0.00     0.124 S 
ATOM     75  O   UNL     1      18.350 -13.793   1.663  1.00  0.00    -0.237 OA
ATOM     76  O   UNL     1      19.005 -15.539   3.290  1.00  0.00    -0.237 OA
ATOM     77  O   UNL     1      20.473 -15.010   1.379  1.00  0.00    -0.744 OA
ENDBRANCH  70  74
ENDBRANCH  53  67
BRANCH  54  78
ATOM     78  C   UNL     1       6.120 -17.721   0.985  1.00  0.00     0.023 A 
ATOM     79  C   UNL     1       5.470 -18.272   2.101  1.00  0.00     0.031 A 
ATOM     80  C   UNL     1       5.327 -17.334  -0.111  1.00  0.00     0.131 A 
ATOM     81  C   UNL     1       4.080 -18.470   2.075  1.00  0.00     0.055 A 
ATOM     82  C   UNL     1       3.938 -17.475  -0.107  1.00  0.00     0.041 A 
ATOM     83  F   UNL     1       5.895 -16.809  -1.209  1.00  0.00    -0.206 F 
ATOM     84  C   UNL     1       3.308 -18.060   0.986  1.00  0.00     0.022 A 
BRANCH  81  85
ATOM     85  S   UNL     1       3.306 -19.372   3.446  1.00  0.00     0.124 S 
ATOM     86  O   UNL     1       4.026 -20.640   3.409  1.00  0.00    -0.237 OA
ATOM     87  O   UNL     1       3.595 -18.502   4.581  1.00  0.00    -0.237 OA
ATOM     88  O   UNL     1       1.899 -19.439   3.057  1.00  0.00    -0.744 OA
ENDBRANCH  81  85
ENDBRANCH  54  78
BRANCH  66  89
ATOM     89  C   UNL     1      11.229 -22.477   1.227  1.00  0.00     0.023 A 
ATOM     90  C   UNL     1      10.643 -23.360   0.304  1.00  0.00     0.031 A 
ATOM     91  C   UNL     1      11.816 -23.026   2.383  1.00  0.00     0.131 A 
ATOM     92  C   UNL     1      10.602 -24.736   0.581  1.00  0.00     0.055 A 
ATOM     93  C   UNL     1      11.835 -24.401   2.618  1.00  0.00     0.041 A 
ATOM     94  F   UNL     1      12.387 -22.233   3.303  1.00  0.00    -0.206 F 
ATOM     95  C   UNL     1      11.212 -25.264   1.721  1.00  0.00     0.022 A 
BRANCH  92  96
ATOM     96  S   UNL     1       9.646 -25.817  -0.517  1.00  0.00     0.124 S 
ATOM     97  O   UNL     1       8.318 -25.215  -0.453  1.00  0.00    -0.237 OA
ATOM     98  O   UNL     1      10.350 -25.674  -1.788  1.00  0.00    -0.237 OA
ATOM     99  O   UNL     1       9.761 -27.133   0.110  1.00  0.00    -0.744 OA
ENDBRANCH  92  96
ENDBRANCH  66  89
ENDBRANCH  40  41
ENDBRANCH  33  35
ENDBRANCH  32  33
ENDBRANCH  31  32
ENDBRANCH  30  31
ENDBRANCH  29  30
ENDBRANCH  28  29
ENDBRANCH  27  28
ENDBRANCH   1  27
TORSDOF 26
