REMARK SMILES C[C@@H](C(=O)OCCOCCOCCOCCOC(=O)c1ccc(-c2c3nc(c(-c4cc(S(=O)(=O)[O-])ccc4F)c4ccc([nH]4)c(-c4cc(S(=O)(=O)[O-])ccc4F)c4nc(c(-c5cc(S(=O)(=O)[O-])ccc5F)c5ccc2[nH]5)C=C4)C=C3)cc1)c1ccccc1-c1ccn(C(F)F)c(=O)c1
REMARK SMILES IDX 11 1 10 2 9 3 8 4 7 5 6 6 5 7 3 8 4 9 2 10 1 11 83 12 84 13
REMARK SMILES IDX 88 14 85 15 87 16 86 17 89 18 90 19 98 20 91 21 96 22 92 23
REMARK SMILES IDX 97 24 93 25 94 26 95 27 12 28 13 29 14 30 15 31 16 32 17 33
REMARK SMILES IDX 18 34 19 35 20 36 21 37 82 38 22 39 81 40 23 41 24 42 25 43
REMARK SMILES IDX 75 44 26 45 80 46 74 47 76 48 27 49 79 50 73 51 72 52 28 54
REMARK SMILES IDX 60 55 40 56 59 57 41 58 44 59 58 60 77 61 42 62 43 63 57 65
REMARK SMILES IDX 78 66 45 67 29 68 30 69 38 70 31 71 37 72 39 73 36 74 32 75
REMARK SMILES IDX 33 76 34 77 35 78 61 79 62 80 70 81 63 82 69 83 71 84 68 85
REMARK SMILES IDX 64 86 65 87 66 88 67 89 46 90 47 91 55 92 48 93 54 94 56 95
REMARK SMILES IDX 53 96 49 97 50 98 51 99 52 100
REMARK H PARENT 76 53 44 64
REMARK Flexibility Score: inf
ROOT
ATOM      1  O   UNL     1       2.557   2.013   2.355  1.00  0.00    -0.377 OA
ENDROOT
BRANCH   1   2
ATOM      2  C   UNL     1       1.169   1.964   2.119  1.00  0.00     0.188 C 
BRANCH   2   3
ATOM      3  C   UNL     1       0.307   1.610   3.343  1.00  0.00     0.188 C 
BRANCH   3   4
ATOM      4  O   UNL     1       0.889   1.395   4.617  1.00  0.00    -0.376 OA
BRANCH   4   5
ATOM      5  C   UNL     1       2.171   0.805   4.761  1.00  0.00     0.202 C 
BRANCH   5   6
ATOM      6  C   UNL     1       2.603  -0.472   4.008  1.00  0.00     0.261 C 
BRANCH   6   7
ATOM      7  O   UNL     1       2.184  -0.636   2.640  1.00  0.00    -0.463 OA
BRANCH   7   8
ATOM      8  C   UNL     1       1.029  -1.320   2.474  1.00  0.00     0.313 C 
ATOM      9  O   UNL     1       0.402  -1.795   3.418  1.00  0.00    -0.252 OA
BRANCH   8  10
ATOM     10  C   UNL     1       0.574  -1.472   1.000  1.00  0.00     0.127 C 
ATOM     11  C   UNL     1       1.296  -0.700  -0.112  1.00  0.00     0.025 C 
BRANCH  10  12
ATOM     12  C   UNL     1      -0.965  -1.368   0.946  1.00  0.00    -0.026 A 
ATOM     13  C   UNL     1      -1.608  -0.116   0.880  1.00  0.00     0.005 A 
ATOM     14  C   UNL     1      -1.769  -2.519   1.136  1.00  0.00    -0.014 A 
ATOM     15  C   UNL     1      -2.986   0.001   1.071  1.00  0.00     0.000 A 
ATOM     16  C   UNL     1      -3.152  -2.390   1.328  1.00  0.00     0.009 A 
ATOM     17  C   UNL     1      -3.754  -1.132   1.313  1.00  0.00     0.001 A 
BRANCH  14  18
ATOM     18  C   UNL     1      -1.159  -3.861   1.064  1.00  0.00    -0.011 A 
ATOM     19  C   UNL     1      -0.349  -4.434   2.120  1.00  0.00     0.027 A 
ATOM     20  C   UNL     1      -1.152  -4.425  -0.155  1.00  0.00     0.080 A 
ATOM     21  C   UNL     1       0.570  -5.361   1.826  1.00  0.00     0.095 A 
ATOM     22  C   UNL     1      -0.240  -5.559  -0.454  1.00  0.00     0.255 A 
ATOM     23  N   UNL     1       0.662  -5.883   0.549  1.00  0.00    -0.258 N 
ATOM     24  O   UNL     1      -0.299  -6.077  -1.564  1.00  0.00    -0.269 OA
BRANCH  23  25
ATOM     25  C   UNL     1       1.682  -6.843   0.224  1.00  0.00     0.451 C 
ATOM     26  F   UNL     1       1.140  -8.065   0.010  1.00  0.00    -0.185 F 
ATOM     27  F   UNL     1       2.355  -6.480  -0.896  1.00  0.00    -0.185 F 
ENDBRANCH  23  25
ENDBRANCH  14  18
ENDBRANCH  10  12
ENDBRANCH   8  10
ENDBRANCH   7   8
ENDBRANCH   6   7
ENDBRANCH   5   6
ENDBRANCH   4   5
ENDBRANCH   3   4
ENDBRANCH   2   3
ENDBRANCH   1   2
BRANCH   1  28
ATOM     28  C   UNL     1       3.110   3.284   2.649  1.00  0.00     0.188 C 
BRANCH  28  29
ATOM     29  C   UNL     1       2.246   4.273   3.454  1.00  0.00     0.188 C 
BRANCH  29  30
ATOM     30  O   UNL     1       0.931   4.455   2.935  1.00  0.00    -0.376 OA
BRANCH  30  31
ATOM     31  C   UNL     1       0.677   5.564   2.085  1.00  0.00     0.202 C 
BRANCH  31  32
ATOM     32  C   UNL     1       1.321   5.558   0.687  1.00  0.00     0.261 C 
BRANCH  32  33
ATOM     33  O   UNL     1       2.753   5.497   0.635  1.00  0.00    -0.460 OA
BRANCH  33  34
ATOM     34  C   UNL     1       3.451   6.444   1.299  1.00  0.00     0.338 C 
ATOM     35  O   UNL     1       2.989   7.406   1.891  1.00  0.00    -0.246 OA
BRANCH  34  36
ATOM     36  C   UNL     1       4.858   5.995   1.382  1.00  0.00     0.060 A 
ATOM     37  C   UNL     1       5.442   5.830   2.645  1.00  0.00     0.016 A 
ATOM     38  C   UNL     1       5.588   5.711   0.225  1.00  0.00     0.016 A 
ATOM     39  C   UNL     1       6.769   5.416   2.755  1.00  0.00     0.010 A 
ATOM     40  C   UNL     1       6.927   5.324   0.336  1.00  0.00     0.010 A 
ATOM     41  C   UNL     1       7.533   5.210   1.600  1.00  0.00    -0.014 A 
BRANCH  41  42
ATOM     42  C   UNL     1       9.010   5.108   1.710  1.00  0.00     0.031 A 
ATOM     43  C   UNL     1       9.819   6.357   1.485  1.00  0.00     0.074 A 
ATOM     44  C   UNL     1       9.618   3.953   2.035  1.00  0.00     0.049 A 
ATOM     45  N   UNL     1      11.116   6.520   1.468  1.00  0.00    -0.248 NA
ATOM     46  C   UNL     1       9.054   7.591   1.241  1.00  0.00     0.031 C 
ATOM     47  C   UNL     1       8.938   2.696   2.339  1.00  0.00     0.029 A 
ATOM     48  N   UNL     1      10.953   3.653   2.158  1.00  0.00    -0.354 N 
ATOM     49  C   UNL     1      11.323   7.870   1.202  1.00  0.00     0.074 A 
ATOM     50  C   UNL     1      10.018   8.471   1.030  1.00  0.00     0.031 C 
ATOM     51  C   UNL     1       9.863   1.755   2.605  1.00  0.00     0.029 A 
ATOM     52  C   UNL     1      11.198   2.330   2.446  1.00  0.00     0.049 A 
ATOM     53  H   UNL     1      11.667   4.322   2.050  1.00  0.00     0.167 HD
ATOM     54  C   UNL     1      12.494   8.546   1.118  1.00  0.00     0.034 A 
ATOM     55  C   UNL     1      12.365   1.660   2.539  1.00  0.00     0.034 A 
ATOM     56  C   UNL     1      13.786   7.927   1.279  1.00  0.00     0.049 A 
ATOM     57  C   UNL     1      13.661   2.414   2.334  1.00  0.00     0.074 A 
ATOM     58  C   UNL     1      15.036   8.518   1.223  1.00  0.00     0.029 A 
ATOM     59  N   UNL     1      13.997   6.574   1.510  1.00  0.00    -0.354 N 
ATOM     60  N   UNL     1      13.847   3.691   2.086  1.00  0.00    -0.248 NA
ATOM     61  C   UNL     1      14.904   1.636   2.426  1.00  0.00     0.031 C 
ATOM     62  C   UNL     1      16.001   7.512   1.332  1.00  0.00     0.029 A 
ATOM     63  C   UNL     1      15.356   6.305   1.557  1.00  0.00     0.049 A 
ATOM     64  H   UNL     1      13.285   5.903   1.625  1.00  0.00     0.167 HD
ATOM     65  C   UNL     1      15.228   3.872   2.033  1.00  0.00     0.074 A 
ATOM     66  C   UNL     1      15.825   2.578   2.286  1.00  0.00     0.031 C 
ATOM     67  C   UNL     1      15.940   5.007   1.804  1.00  0.00     0.034 A 
BRANCH  54  68
ATOM     68  C   UNL     1      12.425  10.015   0.774  1.00  0.00     0.023 A 
ATOM     69  C   UNL     1      11.799  10.949   1.618  1.00  0.00     0.031 A 
ATOM     70  C   UNL     1      12.968  10.483  -0.436  1.00  0.00     0.131 A 
ATOM     71  C   UNL     1      11.668  12.284   1.209  1.00  0.00     0.055 A 
ATOM     72  C   UNL     1      12.912  11.830  -0.797  1.00  0.00     0.041 A 
ATOM     73  F   UNL     1      13.552   9.634  -1.296  1.00  0.00    -0.206 F 
ATOM     74  C   UNL     1      12.245  12.738   0.021  1.00  0.00     0.022 A 
BRANCH  71  75
ATOM     75  S   UNL     1      10.601  13.387   2.177  1.00  0.00     0.124 S 
ATOM     76  O   UNL     1       9.325  12.678   2.130  1.00  0.00    -0.237 OA
ATOM     77  O   UNL     1      11.269  13.415   3.473  1.00  0.00    -0.237 OA
ATOM     78  O   UNL     1      10.636  14.642   1.428  1.00  0.00    -0.744 OA
ENDBRANCH  71  75
ENDBRANCH  54  68
BRANCH  55  79
ATOM     79  C   UNL     1      12.381   0.189   2.794  1.00  0.00     0.023 A 
ATOM     80  C   UNL     1      13.003  -0.347   3.933  1.00  0.00     0.031 A 
ATOM     81  C   UNL     1      11.835  -0.712   1.861  1.00  0.00     0.131 A 
ATOM     82  C   UNL     1      13.110  -1.739   4.085  1.00  0.00     0.055 A 
ATOM     83  C   UNL     1      11.889  -2.095   2.047  1.00  0.00     0.041 A 
ATOM     84  F   UNL     1      11.235  -0.258   0.749  1.00  0.00    -0.206 F 
ATOM     85  C   UNL     1      12.543  -2.616   3.158  1.00  0.00     0.022 A 
BRANCH  82  86
ATOM     86  S   UNL     1      14.095  -2.389   5.463  1.00  0.00     0.124 S 
ATOM     87  O   UNL     1      15.396  -1.783   5.209  1.00  0.00    -0.237 OA
ATOM     88  O   UNL     1      13.365  -1.884   6.621  1.00  0.00    -0.237 OA
ATOM     89  O   UNL     1      14.031  -3.837   5.273  1.00  0.00    -0.744 OA
ENDBRANCH  82  86
ENDBRANCH  55  79
BRANCH  67  90
ATOM     90  C   UNL     1      17.447   4.908   1.875  1.00  0.00     0.023 A 
ATOM     91  C   UNL     1      18.189   4.145   0.958  1.00  0.00     0.031 A 
ATOM     92  C   UNL     1      18.150   5.593   2.884  1.00  0.00     0.131 A 
ATOM     93  C   UNL     1      19.581   4.037   1.102  1.00  0.00     0.055 A 
ATOM     94  C   UNL     1      19.541   5.540   2.979  1.00  0.00     0.041 A 
ATOM     95  F   UNL     1      17.495   6.334   3.792  1.00  0.00    -0.206 F 
ATOM     96  C   UNL     1      20.264   4.747   2.094  1.00  0.00     0.022 A 
BRANCH  93  97
ATOM     97  S   UNL     1      20.480   2.872   0.041  1.00  0.00     0.124 S 
ATOM     98  O   UNL     1      19.811   1.611   0.342  1.00  0.00    -0.237 OA
ATOM     99  O   UNL     1      20.244   3.417  -1.291  1.00  0.00    -0.237 OA
ATOM    100  O   UNL     1      21.860   2.971   0.515  1.00  0.00    -0.744 OA
ENDBRANCH  93  97
ENDBRANCH  67  90
ENDBRANCH  41  42
ENDBRANCH  34  36
ENDBRANCH  33  34
ENDBRANCH  32  33
ENDBRANCH  31  32
ENDBRANCH  30  31
ENDBRANCH  29  30
ENDBRANCH  28  29
ENDBRANCH   1  28
TORSDOF 26
