REMARK SMILES Cc1nc2nc(CNC(=O)OC(C)(C)C)nn2c(C)c1CCC(=O)OCCOCCOCCOCCOC(=O)c1ccc(-c2c3nc(c(-c4cc(S(=O)(=O)[O-])ccc4F)c4ccc([nH]4)c(-c4cc(S(=O)(=O)[O-])ccc4F)c4nc(c(-c5cc(S(=O)(=O)[O-])ccc5F)c5ccc2[nH]5)C=C4)C=C3)cc1
REMARK SMILES IDX 29 1 28 2 27 3 26 4 25 5 23 6 24 7 22 8 21 9 20 10 1 11 2 12
REMARK SMILES IDX 3 13 4 14 18 15 5 16 17 17 19 18 6 19 16 20 7 21 8 22 9 23
REMARK SMILES IDX 10 25 11 26 12 27 13 28 14 29 15 30 30 31 31 32 32 33 33 34
REMARK SMILES IDX 34 35 35 36 36 37 37 38 38 39 39 40 40 41 41 42 102 43 42 44
REMARK SMILES IDX 101 45 43 46 44 47 45 48 95 49 46 50 100 51 94 52 96 53
REMARK SMILES IDX 47 54 99 55 93 56 92 57 48 59 80 60 60 61 79 62 61 63 64 64
REMARK SMILES IDX 78 65 97 66 62 67 63 68 77 70 98 71 65 72 49 73 50 74 58 75
REMARK SMILES IDX 51 76 57 77 59 78 56 79 52 80 53 81 54 82 55 83 81 84 82 85
REMARK SMILES IDX 90 86 83 87 89 88 91 89 88 90 84 91 85 92 86 93 87 94 66 95
REMARK SMILES IDX 67 96 75 97 68 98 74 99 76 100 73 101 69 102 70 103 71 104
REMARK SMILES IDX 72 105
REMARK H PARENT 8 24 96 58 64 69
REMARK Flexibility Score: inf
ROOT
ATOM      1  C   UNL     1       3.186  -6.203   1.742  1.00  0.00     0.188 C 
ENDROOT
BRANCH   1   2
ATOM      2  O   UNL     1       2.498  -7.326   1.242  1.00  0.00    -0.376 OA
BRANCH   2   3
ATOM      3  C   UNL     1       1.085  -7.385   1.109  1.00  0.00     0.202 C 
BRANCH   3   4
ATOM      4  C   UNL     1       0.131  -6.600   2.027  1.00  0.00     0.261 C 
BRANCH   4   5
ATOM      5  O   UNL     1       0.138  -5.169   1.798  1.00  0.00    -0.463 OA
BRANCH   5   6
ATOM      6  C   UNL     1       0.480  -4.343   2.804  1.00  0.00     0.306 C 
ATOM      7  O   UNL     1       0.735  -4.736   3.938  1.00  0.00    -0.252 OA
BRANCH   6   8
ATOM      8  C   UNL     1       0.431  -2.853   2.465  1.00  0.00     0.127 C 
BRANCH   8   9
ATOM      9  C   UNL     1       0.943  -2.191   1.157  1.00  0.00     0.051 C 
BRANCH   9  10
ATOM     10  C   UNL     1       0.133  -2.252  -0.124  1.00  0.00    -0.005 A 
ATOM     11  C   UNL     1       0.386   0.316  -0.517  1.00  0.00     0.067 C 
ATOM     12  C   UNL     1      -0.216  -1.003  -0.956  1.00  0.00     0.046 A 
ATOM     13  N   UNL     1      -0.877  -0.983  -2.087  1.00  0.00    -0.216 NA
ATOM     14  C   UNL     1      -1.244  -2.188  -2.616  1.00  0.00     0.252 A 
ATOM     15  C   UNL     1      -0.123  -3.365  -0.832  1.00  0.00     0.048 A 
ATOM     16  N   UNL     1      -1.688  -2.540  -3.815  1.00  0.00    -0.192 NA
ATOM     17  N   UNL     1      -0.935  -3.345  -1.940  1.00  0.00    -0.201 N 
ATOM     18  C   UNL     1       0.565  -4.664  -0.732  1.00  0.00     0.067 C 
ATOM     19  C   UNL     1      -1.687  -3.917  -3.767  1.00  0.00     0.172 A 
ATOM     20  N   UNL     1      -1.406  -4.424  -2.575  1.00  0.00    -0.148 NA
BRANCH  19  21
ATOM     21  C   UNL     1      -1.975  -4.867  -4.865  1.00  0.00     0.199 C 
BRANCH  21  22
ATOM     22  N   UNL     1      -3.277  -5.450  -4.613  1.00  0.00    -0.314 N 
ATOM     23  C   UNL     1      -4.169  -5.725  -5.583  1.00  0.00     0.408 C 
ATOM     24  H   UNL     1      -3.523  -5.656  -3.683  1.00  0.00     0.167 HD
ATOM     25  O   UNL     1      -5.332  -6.045  -5.329  1.00  0.00    -0.225 OA
BRANCH  23  26
ATOM     26  O   UNL     1      -3.623  -5.574  -6.799  1.00  0.00    -0.444 OA
BRANCH  26  27
ATOM     27  C   UNL     1      -4.422  -5.509  -7.995  1.00  0.00     0.106 C 
ATOM     28  C   UNL     1      -5.203  -6.803  -8.223  1.00  0.00     0.056 C 
ATOM     29  C   UNL     1      -5.323  -4.274  -7.937  1.00  0.00     0.056 C 
ATOM     30  C   UNL     1      -3.393  -5.333  -9.120  1.00  0.00     0.056 C 
ENDBRANCH  26  27
ENDBRANCH  23  26
ENDBRANCH  21  22
ENDBRANCH  19  21
ENDBRANCH   9  10
ENDBRANCH   8   9
ENDBRANCH   6   8
ENDBRANCH   5   6
ENDBRANCH   4   5
ENDBRANCH   3   4
ENDBRANCH   2   3
ENDBRANCH   1   2
BRANCH   1  31
ATOM     31  C   UNL     1       3.586  -5.049   0.815  1.00  0.00     0.188 C 
BRANCH  31  32
ATOM     32  O   UNL     1       3.781  -5.150  -0.578  1.00  0.00    -0.377 OA
BRANCH  32  33
ATOM     33  C   UNL     1       3.335  -6.243  -1.348  1.00  0.00     0.188 C 
BRANCH  33  34
ATOM     34  C   UNL     1       4.226  -7.487  -1.451  1.00  0.00     0.188 C 
BRANCH  34  35
ATOM     35  O   UNL     1       5.626  -7.486  -1.214  1.00  0.00    -0.376 OA
BRANCH  35  36
ATOM     36  C   UNL     1       6.301  -6.339  -0.740  1.00  0.00     0.202 C 
BRANCH  36  37
ATOM     37  C   UNL     1       6.602  -5.213  -1.731  1.00  0.00     0.261 C 
BRANCH  37  38
ATOM     38  O   UNL     1       5.557  -4.891  -2.635  1.00  0.00    -0.460 OA
BRANCH  38  39
ATOM     39  C   UNL     1       5.484  -5.724  -3.695  1.00  0.00     0.338 C 
ATOM     40  O   UNL     1       6.045  -6.797  -3.832  1.00  0.00    -0.246 OA
BRANCH  39  41
ATOM     41  C   UNL     1       4.744  -5.066  -4.777  1.00  0.00     0.060 A 
ATOM     42  C   UNL     1       4.659  -5.803  -5.956  1.00  0.00     0.016 A 
ATOM     43  C   UNL     1       4.572  -3.673  -4.747  1.00  0.00     0.016 A 
ATOM     44  C   UNL     1       4.747  -5.113  -7.138  1.00  0.00     0.010 A 
ATOM     45  C   UNL     1       4.654  -2.985  -5.935  1.00  0.00     0.010 A 
ATOM     46  C   UNL     1       4.867  -3.717  -7.097  1.00  0.00    -0.014 A 
BRANCH  46  47
ATOM     47  C   UNL     1       5.131  -3.043  -8.348  1.00  0.00     0.031 A 
ATOM     48  C   UNL     1       3.969  -3.117  -9.250  1.00  0.00     0.074 A 
ATOM     49  C   UNL     1       6.290  -2.424  -8.644  1.00  0.00     0.049 A 
ATOM     50  N   UNL     1       3.831  -3.902 -10.264  1.00  0.00    -0.248 NA
ATOM     51  C   UNL     1       2.733  -2.442  -8.832  1.00  0.00     0.031 C 
ATOM     52  C   UNL     1       7.430  -2.131  -7.776  1.00  0.00     0.029 A 
ATOM     53  N   UNL     1       6.660  -1.863  -9.826  1.00  0.00    -0.354 N 
ATOM     54  C   UNL     1       2.574  -3.618 -10.773  1.00  0.00     0.074 A 
ATOM     55  C   UNL     1       1.873  -2.916  -9.733  1.00  0.00     0.031 C 
ATOM     56  C   UNL     1       8.259  -1.260  -8.403  1.00  0.00     0.029 A 
ATOM     57  C   UNL     1       7.783  -1.043  -9.761  1.00  0.00     0.049 A 
ATOM     58  H   UNL     1       6.170  -2.025 -10.665  1.00  0.00     0.167 HD
ATOM     59  C   UNL     1       2.339  -3.723 -12.107  1.00  0.00     0.034 A 
ATOM     60  C   UNL     1       8.250  -0.231 -10.752  1.00  0.00     0.034 A 
ATOM     61  C   UNL     1       3.320  -4.580 -12.741  1.00  0.00     0.049 A 
ATOM     62  C   UNL     1       7.752  -0.811 -12.026  1.00  0.00     0.074 A 
ATOM     63  C   UNL     1       3.708  -5.896 -12.566  1.00  0.00     0.029 A 
ATOM     64  N   UNL     1       4.353  -3.984 -13.431  1.00  0.00    -0.354 N 
ATOM     65  N   UNL     1       8.127  -1.981 -12.469  1.00  0.00    -0.248 NA
ATOM     66  C   UNL     1       6.478  -0.330 -12.541  1.00  0.00     0.031 C 
ATOM     67  C   UNL     1       5.128  -5.889 -12.711  1.00  0.00     0.029 A 
ATOM     68  C   UNL     1       5.524  -4.593 -13.044  1.00  0.00     0.049 A 
ATOM     69  H   UNL     1       4.268  -3.253 -14.085  1.00  0.00     0.167 HD
ATOM     70  C   UNL     1       6.968  -2.566 -12.957  1.00  0.00     0.074 A 
ATOM     71  C   UNL     1       6.002  -1.470 -13.051  1.00  0.00     0.031 C 
ATOM     72  C   UNL     1       6.809  -3.922 -12.970  1.00  0.00     0.034 A 
BRANCH  59  73
ATOM     73  C   UNL     1       1.501  -2.726 -12.874  1.00  0.00     0.023 A 
ATOM     74  C   UNL     1       1.363  -2.938 -14.255  1.00  0.00     0.031 A 
ATOM     75  C   UNL     1       1.083  -1.457 -12.402  1.00  0.00     0.131 A 
ATOM     76  C   UNL     1       0.937  -1.902 -15.104  1.00  0.00     0.055 A 
ATOM     77  C   UNL     1       0.607  -0.450 -13.243  1.00  0.00     0.041 A 
ATOM     78  F   UNL     1       1.188  -1.075 -11.125  1.00  0.00    -0.206 F 
ATOM     79  C   UNL     1       0.563  -0.656 -14.607  1.00  0.00     0.022 A 
BRANCH  76  80
ATOM     80  S   UNL     1       1.029  -2.168 -16.889  1.00  0.00     0.124 S 
ATOM     81  O   UNL     1       2.436  -2.509 -17.063  1.00  0.00    -0.237 OA
ATOM     82  O   UNL     1       0.073  -3.254 -17.077  1.00  0.00    -0.237 OA
ATOM     83  O   UNL     1       0.623  -0.878 -17.444  1.00  0.00    -0.744 OA
ENDBRANCH  76  80
ENDBRANCH  59  73
BRANCH  60  84
ATOM     84  C   UNL     1       8.732   1.180 -10.638  1.00  0.00     0.023 A 
ATOM     85  C   UNL     1       9.304   1.873 -11.734  1.00  0.00     0.031 A 
ATOM     86  C   UNL     1       8.383   1.966  -9.518  1.00  0.00     0.131 A 
ATOM     87  C   UNL     1       9.483   3.278 -11.684  1.00  0.00     0.055 A 
ATOM     88  C   UNL     1       8.558   3.352  -9.476  1.00  0.00     0.041 A 
ATOM     89  F   UNL     1       7.771   1.429  -8.451  1.00  0.00    -0.206 F 
ATOM     90  C   UNL     1       9.095   4.017 -10.566  1.00  0.00     0.022 A 
BRANCH  87  91
ATOM     91  S   UNL     1      10.114   4.198 -13.129  1.00  0.00     0.124 S 
ATOM     92  O   UNL     1      11.548   3.938 -13.054  1.00  0.00    -0.237 OA
ATOM     93  O   UNL     1       9.401   3.581 -14.241  1.00  0.00    -0.237 OA
ATOM     94  O   UNL     1       9.726   5.581 -12.847  1.00  0.00    -0.744 OA
ENDBRANCH  87  91
ENDBRANCH  60  84
BRANCH  72  95
ATOM     95  C   UNL     1       8.023  -4.793 -12.711  1.00  0.00     0.023 A 
ATOM     96  C   UNL     1       8.759  -4.835 -11.502  1.00  0.00     0.031 A 
ATOM     97  C   UNL     1       8.357  -5.725 -13.710  1.00  0.00     0.131 A 
ATOM     98  C   UNL     1       9.786  -5.790 -11.336  1.00  0.00     0.055 A 
ATOM     99  C   UNL     1       9.356  -6.679 -13.533  1.00  0.00     0.041 A 
ATOM    100  F   UNL     1       7.676  -5.750 -14.868  1.00  0.00    -0.206 F 
ATOM    101  C   UNL     1      10.076  -6.715 -12.345  1.00  0.00     0.022 A 
BRANCH  98 102
ATOM    102  S   UNL     1      10.751  -5.868  -9.789  1.00  0.00     0.124 S 
ATOM    103  O   UNL     1      11.326  -4.531  -9.685  1.00  0.00    -0.237 OA
ATOM    104  O   UNL     1       9.739  -6.210  -8.795  1.00  0.00    -0.237 OA
ATOM    105  O   UNL     1      11.728  -6.929 -10.046  1.00  0.00    -0.744 OA
ENDBRANCH  98 102
ENDBRANCH  72  95
ENDBRANCH  46  47
ENDBRANCH  39  41
ENDBRANCH  38  39
ENDBRANCH  37  38
ENDBRANCH  36  37
ENDBRANCH  35  36
ENDBRANCH  34  35
ENDBRANCH  33  34
ENDBRANCH  32  33
ENDBRANCH  31  32
ENDBRANCH   1  31
TORSDOF 29
