REMARK SMILES Cc1nc(-c2ccc(C(F)(F)F)cc2)nc(SCC(=O)OCCOCCOCCOCCOC(=O)c2ccc(-c3c4nc(c(-c5cc(S(=O)(=O)[O-])ccc5F)c5ccc([nH]5)c(-c5cc(S(=O)(=O)[O-])ccc5F)c5nc(c(-c6cc(S(=O)(=O)[O-])ccc6F)c6ccc3[nH]6)C=C5)C=C4)cc2)c1C
REMARK SMILES IDX 26 1 25 2 24 3 23 4 22 5 21 6 19 7 20 8 18 9 17 10 16 11
REMARK SMILES IDX 1 12 2 13 3 14 99 15 4 16 100 17 15 18 5 19 6 20 14 21 7 22
REMARK SMILES IDX 13 23 8 24 9 25 10 26 11 27 12 28 27 29 28 30 29 31 30 32
REMARK SMILES IDX 31 33 32 34 33 35 34 36 35 37 36 38 37 39 98 40 38 41 97 42
REMARK SMILES IDX 39 43 40 44 41 45 91 46 42 47 96 48 90 49 92 50 43 51 95 52
REMARK SMILES IDX 89 53 88 54 44 56 76 57 56 58 75 59 57 60 60 61 74 62 93 63
REMARK SMILES IDX 58 64 59 65 73 67 94 68 61 69 45 70 46 71 54 72 47 73 53 74
REMARK SMILES IDX 55 75 52 76 48 77 49 78 50 79 51 80 77 81 78 82 86 83 79 84
REMARK SMILES IDX 85 85 87 86 84 87 80 88 81 89 82 90 83 91 62 92 63 93 71 94
REMARK SMILES IDX 64 95 70 96 72 97 69 98 65 99 66 100 67 101 68 102
REMARK H PARENT 92 55 60 66
REMARK Flexibility Score: inf
ROOT
ATOM      1  C   UNL     1      -1.069   3.249  -0.182  1.00  0.00     0.188 C 
ENDROOT
BRANCH   1   2
ATOM      2  C   UNL     1      -0.504   3.069   1.236  1.00  0.00     0.188 C 
BRANCH   2   3
ATOM      3  O   UNL     1      -1.136   3.693   2.334  1.00  0.00    -0.376 OA
BRANCH   3   4
ATOM      4  C   UNL     1      -1.491   5.062   2.293  1.00  0.00     0.202 C 
BRANCH   4   5
ATOM      5  C   UNL     1      -0.600   6.151   1.662  1.00  0.00     0.261 C 
BRANCH   5   6
ATOM      6  O   UNL     1      -0.066   5.931   0.333  1.00  0.00    -0.463 OA
BRANCH   6   7
ATOM      7  C   UNL     1       1.258   5.635   0.241  1.00  0.00     0.316 C 
ATOM      8  O   UNL     1       1.982   5.505   1.228  1.00  0.00    -0.251 OA
BRANCH   7   9
ATOM      9  C   UNL     1       1.850   5.595  -1.162  1.00  0.00     0.199 C 
BRANCH   9  10
ATOM     10  S   UNL     1       0.980   4.779  -2.541  1.00  0.00    -0.094 SA
BRANCH  10  11
ATOM     11  C   UNL     1       1.270   2.991  -2.645  1.00  0.00     0.104 A 
ATOM     12  C   UNL     1       1.944  -0.228  -0.801  1.00  0.00     0.067 C 
ATOM     13  C   UNL     1       1.591   0.790  -1.852  1.00  0.00     0.045 A 
ATOM     14  N   UNL     1       0.873   0.288  -2.874  1.00  0.00    -0.233 NA
ATOM     15  C   UNL     1       1.898   2.151  -1.722  1.00  0.00     0.003 A 
ATOM     16  C   UNL     1       0.427   1.147  -3.798  1.00  0.00     0.160 A 
ATOM     17  C   UNL     1       2.803   2.610  -0.626  1.00  0.00     0.049 C 
ATOM     18  N   UNL     1       0.594   2.478  -3.719  1.00  0.00    -0.221 NA
BRANCH  16  19
ATOM     19  C   UNL     1      -0.340   0.542  -4.907  1.00  0.00     0.019 A 
ATOM     20  C   UNL     1      -1.479  -0.241  -4.644  1.00  0.00     0.012 A 
ATOM     21  C   UNL     1       0.072   0.612  -6.245  1.00  0.00     0.012 A 
ATOM     22  C   UNL     1      -2.174  -0.933  -5.641  1.00  0.00     0.014 A 
ATOM     23  C   UNL     1      -0.608  -0.098  -7.257  1.00  0.00     0.014 A 
ATOM     24  C   UNL     1      -1.732  -0.885  -6.963  1.00  0.00     0.056 A 
BRANCH  24  25
ATOM     25  C   UNL     1      -2.461  -1.686  -8.016  1.00  0.00     0.416 C 
ATOM     26  F   UNL     1      -2.544  -3.010  -7.698  1.00  0.00    -0.166 F 
ATOM     27  F   UNL     1      -3.743  -1.269  -8.205  1.00  0.00    -0.166 F 
ATOM     28  F   UNL     1      -1.868  -1.642  -9.242  1.00  0.00    -0.166 F 
ENDBRANCH  24  25
ENDBRANCH  16  19
ENDBRANCH  10  11
ENDBRANCH   9  10
ENDBRANCH   7   9
ENDBRANCH   6   7
ENDBRANCH   5   6
ENDBRANCH   4   5
ENDBRANCH   3   4
ENDBRANCH   2   3
ENDBRANCH   1   2
BRANCH   1  29
ATOM     29  O   UNL     1      -2.310   2.752  -0.613  1.00  0.00    -0.377 OA
BRANCH  29  30
ATOM     30  C   UNL     1      -3.401   2.935   0.253  1.00  0.00     0.188 C 
BRANCH  30  31
ATOM     31  C   UNL     1      -3.586   1.713   1.150  1.00  0.00     0.188 C 
BRANCH  31  32
ATOM     32  O   UNL     1      -2.413   0.918   1.236  1.00  0.00    -0.376 OA
BRANCH  32  33
ATOM     33  C   UNL     1      -2.237  -0.137   0.296  1.00  0.00     0.202 C 
BRANCH  33  34
ATOM     34  C   UNL     1      -2.494   0.015  -1.214  1.00  0.00     0.261 C 
BRANCH  34  35
ATOM     35  O   UNL     1      -3.637   0.750  -1.661  1.00  0.00    -0.460 OA
BRANCH  35  36
ATOM     36  C   UNL     1      -4.858   0.198  -1.576  1.00  0.00     0.338 C 
ATOM     37  O   UNL     1      -5.130  -0.927  -1.200  1.00  0.00    -0.246 OA
BRANCH  36  38
ATOM     38  C   UNL     1      -5.807   1.312  -1.798  1.00  0.00     0.060 A 
ATOM     39  C   UNL     1      -6.587   1.728  -0.712  1.00  0.00     0.016 A 
ATOM     40  C   UNL     1      -5.842   2.017  -3.009  1.00  0.00     0.016 A 
ATOM     41  C   UNL     1      -7.396   2.852  -0.828  1.00  0.00     0.010 A 
ATOM     42  C   UNL     1      -6.703   3.112  -3.144  1.00  0.00     0.010 A 
ATOM     43  C   UNL     1      -7.498   3.515  -2.059  1.00  0.00    -0.014 A 
BRANCH  43  44
ATOM     44  C   UNL     1      -8.666   4.404  -2.252  1.00  0.00     0.031 A 
ATOM     45  C   UNL     1      -9.949   3.745  -2.680  1.00  0.00     0.074 A 
ATOM     46  C   UNL     1      -8.628   5.707  -1.925  1.00  0.00     0.049 A 
ATOM     47  N   UNL     1     -11.140   4.259  -2.825  1.00  0.00    -0.248 NA
ATOM     48  C   UNL     1      -9.878   2.299  -2.955  1.00  0.00     0.031 C 
ATOM     49  C   UNL     1      -7.458   6.417  -1.410  1.00  0.00     0.029 A 
ATOM     50  N   UNL     1      -9.617   6.658  -1.946  1.00  0.00    -0.354 N 
ATOM     51  C   UNL     1     -11.963   3.194  -3.174  1.00  0.00     0.074 A 
ATOM     52  C   UNL     1     -11.131   2.017  -3.267  1.00  0.00     0.031 C 
ATOM     53  C   UNL     1      -7.805   7.690  -1.142  1.00  0.00     0.029 A 
ATOM     54  C   UNL     1      -9.210   7.891  -1.494  1.00  0.00     0.049 A 
ATOM     55  H   UNL     1     -10.533   6.474  -2.256  1.00  0.00     0.167 HD
ATOM     56  C   UNL     1     -13.300   3.194  -3.379  1.00  0.00     0.034 A 
ATOM     57  C   UNL     1      -9.900   9.045  -1.383  1.00  0.00     0.034 A 
ATOM     58  C   UNL     1     -14.106   4.381  -3.321  1.00  0.00     0.049 A 
ATOM     59  C   UNL     1     -11.357   9.057  -1.776  1.00  0.00     0.074 A 
ATOM     60  C   UNL     1     -15.458   4.518  -3.574  1.00  0.00     0.029 A 
ATOM     61  N   UNL     1     -13.627   5.644  -2.995  1.00  0.00    -0.354 N 
ATOM     62  N   UNL     1     -12.117   8.055  -2.159  1.00  0.00    -0.248 NA
ATOM     63  C   UNL     1     -12.050  10.352  -1.727  1.00  0.00     0.031 C 
ATOM     64  C   UNL     1     -15.783   5.873  -3.462  1.00  0.00     0.029 A 
ATOM     65  C   UNL     1     -14.651   6.571  -3.068  1.00  0.00     0.049 A 
ATOM     66  H   UNL     1     -12.696   5.848  -2.749  1.00  0.00     0.167 HD
ATOM     67  C   UNL     1     -13.381   8.595  -2.375  1.00  0.00     0.074 A 
ATOM     68  C   UNL     1     -13.284  10.010  -2.074  1.00  0.00     0.031 C 
ATOM     69  C   UNL     1     -14.521   7.979  -2.778  1.00  0.00     0.034 A 
BRANCH  56  70
ATOM     70  C   UNL     1     -13.942   1.879  -3.729  1.00  0.00     0.023 A 
ATOM     71  C   UNL     1     -14.020   0.832  -2.794  1.00  0.00     0.031 A 
ATOM     72  C   UNL     1     -14.454   1.658  -5.018  1.00  0.00     0.131 A 
ATOM     73  C   UNL     1     -14.556  -0.406  -3.177  1.00  0.00     0.055 A 
ATOM     74  C   UNL     1     -15.045   0.445  -5.373  1.00  0.00     0.041 A 
ATOM     75  F   UNL     1     -14.376   2.614  -5.957  1.00  0.00    -0.206 F 
ATOM     76  C   UNL     1     -15.091  -0.599  -4.453  1.00  0.00     0.022 A 
BRANCH  73  77
ATOM     77  S   UNL     1     -14.459  -1.794  -2.014  1.00  0.00     0.124 S 
ATOM     78  O   UNL     1     -13.014  -1.975  -1.891  1.00  0.00    -0.237 OA
ATOM     79  O   UNL     1     -15.139  -1.269  -0.835  1.00  0.00    -0.237 OA
ATOM     80  O   UNL     1     -15.159  -2.873  -2.708  1.00  0.00    -0.744 OA
ENDBRANCH  73  77
ENDBRANCH  56  70
BRANCH  57  81
ATOM     81  C   UNL     1      -9.225  10.282  -0.897  1.00  0.00     0.023 A 
ATOM     82  C   UNL     1      -9.581  10.872   0.326  1.00  0.00     0.031 A 
ATOM     83  C   UNL     1      -8.213  10.898  -1.656  1.00  0.00     0.131 A 
ATOM     84  C   UNL     1      -8.938  12.047   0.750  1.00  0.00     0.055 A 
ATOM     85  C   UNL     1      -7.553  12.046  -1.214  1.00  0.00     0.041 A 
ATOM     86  F   UNL     1      -7.836  10.376  -2.834  1.00  0.00    -0.206 F 
ATOM     87  C   UNL     1      -7.918  12.630  -0.006  1.00  0.00     0.022 A 
BRANCH  84  88
ATOM     88  S   UNL     1      -9.466  12.821   2.304  1.00  0.00     0.124 S 
ATOM     89  O   UNL     1     -10.842  13.196   1.997  1.00  0.00    -0.237 OA
ATOM     90  O   UNL     1      -9.293  11.732   3.260  1.00  0.00    -0.237 OA
ATOM     91  O   UNL     1      -8.535  13.936   2.462  1.00  0.00    -0.744 OA
ENDBRANCH  84  88
ENDBRANCH  57  81
BRANCH  69  92
ATOM     92  C   UNL     1     -15.762   8.822  -2.903  1.00  0.00     0.023 A 
ATOM     93  C   UNL     1     -15.905   9.762  -3.935  1.00  0.00     0.031 A 
ATOM     94  C   UNL     1     -16.839   8.632  -2.018  1.00  0.00     0.131 A 
ATOM     95  C   UNL     1     -17.092  10.500  -4.043  1.00  0.00     0.055 A 
ATOM     96  C   UNL     1     -18.036   9.331  -2.162  1.00  0.00     0.041 A 
ATOM     97  F   UNL     1     -16.752   7.738  -1.019  1.00  0.00    -0.206 F 
ATOM     98  C   UNL     1     -18.166  10.276  -3.176  1.00  0.00     0.022 A 
BRANCH  95  99
ATOM     99  S   UNL     1     -17.203  11.787  -5.314  1.00  0.00     0.124 S 
ATOM    100  O   UNL     1     -16.165  12.721  -4.890  1.00  0.00    -0.237 OA
ATOM    101  O   UNL     1     -16.930  11.044  -6.540  1.00  0.00    -0.237 OA
ATOM    102  O   UNL     1     -18.573  12.281  -5.184  1.00  0.00    -0.744 OA
ENDBRANCH  95  99
ENDBRANCH  69  92
ENDBRANCH  43  44
ENDBRANCH  36  38
ENDBRANCH  35  36
ENDBRANCH  34  35
ENDBRANCH  33  34
ENDBRANCH  32  33
ENDBRANCH  31  32
ENDBRANCH  30  31
ENDBRANCH  29  30
ENDBRANCH   1  29
TORSDOF 27
