REMARK SMILES C[NH2+][C@@]1(C(=O)OCCOCCOCCOCCOC(=O)c2ccc(-c3c4nc(c(-c5cc(S(=O)(=O)[O-])ccc5F)c5ccc([nH]5)c(-c5cc(S(=O)(=O)[O-])ccc5F)c5nc(c(-c6cc(S(=O)(=O)[O-])ccc6F)c6ccc3[nH]6)C=C5)C=C4)cc2)CCC[C@H]1CCSc1nccs1
REMARK SMILES IDX 11 1 10 2 9 3 8 4 7 5 6 6 4 7 5 8 3 9 84 10 87 11 85 12
REMARK SMILES IDX 86 13 2 14 1 15 88 18 89 19 90 20 91 21 92 22 95 23 93 24
REMARK SMILES IDX 94 25 12 26 13 27 14 28 15 29 16 30 17 31 18 32 19 33 20 34
REMARK SMILES IDX 21 35 22 36 83 37 23 38 82 39 24 40 25 41 26 42 76 43 27 44
REMARK SMILES IDX 81 45 75 46 77 47 28 48 80 49 74 50 73 51 29 53 61 54 41 55
REMARK SMILES IDX 60 56 42 57 45 58 59 59 78 60 43 61 44 62 58 64 79 65 46 66
REMARK SMILES IDX 30 67 31 68 39 69 32 70 38 71 40 72 37 73 33 74 34 75 35 76
REMARK SMILES IDX 36 77 62 78 63 79 71 80 64 81 70 82 72 83 69 84 65 85 66 86
REMARK SMILES IDX 67 87 68 88 47 89 48 90 56 91 49 92 55 93 57 94 54 95 50 96
REMARK SMILES IDX 51 97 52 98 53 99
REMARK H PARENT 2 16 2 17 77 52 45 63
REMARK Flexibility Score: inf
ROOT
ATOM      1  C   UNL     1      -1.204  -1.088   4.212  1.00  0.00     0.188 C 
ENDROOT
BRANCH   1   2
ATOM      2  C   UNL     1      -0.662   0.058   5.077  1.00  0.00     0.188 C 
BRANCH   2   3
ATOM      3  O   UNL     1      -1.518   0.963   5.760  1.00  0.00    -0.376 OA
BRANCH   3   4
ATOM      4  C   UNL     1      -2.828   1.234   5.284  1.00  0.00     0.202 C 
BRANCH   4   5
ATOM      5  C   UNL     1      -2.968   1.930   3.926  1.00  0.00     0.261 C 
BRANCH   5   6
ATOM      6  O   UNL     1      -2.483   1.176   2.794  1.00  0.00    -0.459 OA
BRANCH   6   7
ATOM      7  C   UNL     1      -1.491   1.769   2.081  1.00  0.00     0.368 C 
ATOM      8  O   UNL     1      -0.950   2.821   2.425  1.00  0.00    -0.245 OA
BRANCH   7   9
ATOM      9  C   UNL     1      -1.109   1.045   0.721  1.00  0.00     0.197 C 
ATOM     10  C   UNL     1      -1.782   1.918  -0.358  1.00  0.00     0.081 C 
ATOM     11  C   UNL     1      -1.720  -0.353   0.383  1.00  0.00     0.063 C 
ATOM     12  C   UNL     1      -3.234   1.428  -0.374  1.00  0.00     0.008 C 
ATOM     13  C   UNL     1      -3.205  -0.024   0.108  1.00  0.00     0.011 C 
BRANCH   9  14
ATOM     14  N   UNL     1       0.353   0.995   0.764  1.00  0.00    -0.334 N 
ATOM     15  C   UNL     1       1.134   1.629  -0.258  1.00  0.00     0.331 C 
ATOM     16  H   UNL     1       0.634   1.417   1.650  1.00  0.00     0.347 HD
ATOM     17  H   UNL     1       0.553   0.005   0.625  1.00  0.00     0.347 HD
ENDBRANCH   9  14
BRANCH  11  18
ATOM     18  C   UNL     1      -1.186  -1.092  -0.901  1.00  0.00     0.022 C 
BRANCH  18  19
ATOM     19  C   UNL     1       0.276  -1.556  -0.920  1.00  0.00     0.078 C 
BRANCH  19  20
ATOM     20  S   UNL     1       0.482  -3.323  -1.363  1.00  0.00    -0.096 SA
BRANCH  20  21
ATOM     21  C   UNL     1       0.249  -3.915   0.262  1.00  0.00     0.149 A 
ATOM     22  N   UNL     1      -0.952  -3.909   0.788  1.00  0.00    -0.238 NA
ATOM     23  S   UNL     1       1.553  -4.197   1.336  1.00  0.00    -0.116 S 
ATOM     24  C   UNL     1      -0.840  -4.012   2.152  1.00  0.00     0.124 A 
ATOM     25  C   UNL     1       0.446  -4.131   2.638  1.00  0.00     0.087 A 
ENDBRANCH  20  21
ENDBRANCH  19  20
ENDBRANCH  18  19
ENDBRANCH  11  18
ENDBRANCH   7   9
ENDBRANCH   6   7
ENDBRANCH   5   6
ENDBRANCH   4   5
ENDBRANCH   3   4
ENDBRANCH   2   3
ENDBRANCH   1   2
BRANCH   1  26
ATOM     26  O   UNL     1      -2.572  -1.380   4.378  1.00  0.00    -0.377 OA
BRANCH  26  27
ATOM     27  C   UNL     1      -2.973  -2.536   5.098  1.00  0.00     0.188 C 
BRANCH  27  28
ATOM     28  C   UNL     1      -2.029  -3.091   6.166  1.00  0.00     0.188 C 
BRANCH  28  29
ATOM     29  O   UNL     1      -0.959  -3.832   5.557  1.00  0.00    -0.376 OA
BRANCH  29  30
ATOM     30  C   UNL     1      -0.893  -5.209   5.938  1.00  0.00     0.202 C 
BRANCH  30  31
ATOM     31  C   UNL     1      -1.571  -6.141   4.917  1.00  0.00     0.261 C 
BRANCH  31  32
ATOM     32  O   UNL     1      -2.941  -5.806   4.659  1.00  0.00    -0.460 OA
BRANCH  32  33
ATOM     33  C   UNL     1      -3.764  -6.042   5.702  1.00  0.00     0.338 C 
ATOM     34  O   UNL     1      -3.437  -6.518   6.782  1.00  0.00    -0.246 OA
BRANCH  33  35
ATOM     35  C   UNL     1      -5.096  -5.480   5.437  1.00  0.00     0.060 A 
ATOM     36  C   UNL     1      -5.679  -4.722   6.458  1.00  0.00     0.016 A 
ATOM     37  C   UNL     1      -5.800  -5.763   4.261  1.00  0.00     0.016 A 
ATOM     38  C   UNL     1      -7.005  -4.319   6.347  1.00  0.00     0.010 A 
ATOM     39  C   UNL     1      -7.136  -5.366   4.158  1.00  0.00     0.010 A 
ATOM     40  C   UNL     1      -7.755  -4.695   5.226  1.00  0.00    -0.014 A 
BRANCH  40  41
ATOM     41  C   UNL     1      -9.231  -4.592   5.306  1.00  0.00     0.031 A 
ATOM     42  C   UNL     1     -10.003  -5.808   5.746  1.00  0.00     0.074 A 
ATOM     43  C   UNL     1      -9.855  -3.424   5.080  1.00  0.00     0.049 A 
ATOM     44  N   UNL     1     -11.288  -5.957   5.930  1.00  0.00    -0.248 NA
ATOM     45  C   UNL     1      -9.211  -7.018   6.021  1.00  0.00     0.031 C 
ATOM     46  C   UNL     1      -9.195  -2.174   4.708  1.00  0.00     0.029 A 
ATOM     47  N   UNL     1     -11.186  -3.100   5.140  1.00  0.00    -0.354 N 
ATOM     48  C   UNL     1     -11.460  -7.273   6.348  1.00  0.00     0.074 A 
ATOM     49  C   UNL     1     -10.152  -7.890   6.348  1.00  0.00     0.031 C 
ATOM     50  C   UNL     1     -10.128  -1.216   4.568  1.00  0.00     0.029 A 
ATOM     51  C   UNL     1     -11.450  -1.792   4.808  1.00  0.00     0.049 A 
ATOM     52  H   UNL     1     -11.886  -3.742   5.397  1.00  0.00     0.167 HD
ATOM     53  C   UNL     1     -12.603  -7.904   6.710  1.00  0.00     0.034 A 
ATOM     54  C   UNL     1     -12.627  -1.147   4.694  1.00  0.00     0.034 A 
ATOM     55  C   UNL     1     -13.901  -7.276   6.681  1.00  0.00     0.049 A 
ATOM     56  C   UNL     1     -13.900  -1.898   5.005  1.00  0.00     0.074 A 
ATOM     57  C   UNL     1     -15.130  -7.816   7.015  1.00  0.00     0.029 A 
ATOM     58  N   UNL     1     -14.138  -5.968   6.276  1.00  0.00    -0.354 N 
ATOM     59  N   UNL     1     -14.051  -3.142   5.404  1.00  0.00    -0.248 NA
ATOM     60  C   UNL     1     -15.159  -1.157   4.861  1.00  0.00     0.031 C 
ATOM     61  C   UNL     1     -16.115  -6.859   6.746  1.00  0.00     0.029 A 
ATOM     62  C   UNL     1     -15.496  -5.694   6.319  1.00  0.00     0.049 A 
ATOM     63  H   UNL     1     -13.443  -5.328   5.999  1.00  0.00     0.167 HD
ATOM     64  C   UNL     1     -15.420  -3.320   5.585  1.00  0.00     0.074 A 
ATOM     65  C   UNL     1     -16.047  -2.053   5.266  1.00  0.00     0.031 C 
ATOM     66  C   UNL     1     -16.101  -4.426   5.984  1.00  0.00     0.034 A 
BRANCH  53  67
ATOM     67  C   UNL     1     -12.495  -9.357   7.104  1.00  0.00     0.023 A 
ATOM     68  C   UNL     1     -11.772  -9.766   8.240  1.00  0.00     0.031 A 
ATOM     69  C   UNL     1     -13.083 -10.353   6.306  1.00  0.00     0.131 A 
ATOM     70  C   UNL     1     -11.598 -11.134   8.504  1.00  0.00     0.055 A 
ATOM     71  C   UNL     1     -12.971 -11.710   6.618  1.00  0.00     0.041 A 
ATOM     72  F   UNL     1     -13.761 -10.026   5.195  1.00  0.00    -0.206 F 
ATOM     73  C   UNL     1     -12.213 -12.108   7.714  1.00  0.00     0.022 A 
BRANCH  70  74
ATOM     74  S   UNL     1     -10.436 -11.626   9.809  1.00  0.00     0.124 S 
ATOM     75  O   UNL     1      -9.193 -11.017   9.342  1.00  0.00    -0.237 OA
ATOM     76  O   UNL     1     -11.031 -11.034  11.001  1.00  0.00    -0.237 OA
ATOM     77  O   UNL     1     -10.462 -13.087   9.758  1.00  0.00    -0.744 OA
ENDBRANCH  70  74
ENDBRANCH  53  67
BRANCH  54  78
ATOM     78  C   UNL     1     -12.671   0.269   4.225  1.00  0.00     0.023 A 
ATOM     79  C   UNL     1     -13.163   1.296   5.044  1.00  0.00     0.031 A 
ATOM     80  C   UNL     1     -12.264   0.603   2.920  1.00  0.00     0.131 A 
ATOM     81  C   UNL     1     -13.278   2.601   4.537  1.00  0.00     0.055 A 
ATOM     82  C   UNL     1     -12.332   1.911   2.438  1.00  0.00     0.041 A 
ATOM     83  F   UNL     1     -11.787  -0.341   2.094  1.00  0.00    -0.206 F 
ATOM     84  C   UNL     1     -12.854   2.917   3.244  1.00  0.00     0.022 A 
BRANCH  81  85
ATOM     85  S   UNL     1     -14.070   3.868   5.565  1.00  0.00     0.124 S 
ATOM     86  O   UNL     1     -15.380   3.275   5.810  1.00  0.00    -0.237 OA
ATOM     87  O   UNL     1     -13.169   3.933   6.711  1.00  0.00    -0.237 OA
ATOM     88  O   UNL     1     -14.070   5.051   4.707  1.00  0.00    -0.744 OA
ENDBRANCH  81  85
ENDBRANCH  54  78
BRANCH  66  89
ATOM     89  C   UNL     1     -17.596  -4.292   6.137  1.00  0.00     0.023 A 
ATOM     90  C   UNL     1     -18.438  -4.088   5.030  1.00  0.00     0.031 A 
ATOM     91  C   UNL     1     -18.184  -4.365   7.412  1.00  0.00     0.131 A 
ATOM     92  C   UNL     1     -19.816  -3.910   5.224  1.00  0.00     0.055 A 
ATOM     93  C   UNL     1     -19.563  -4.248   7.593  1.00  0.00     0.041 A 
ATOM     94  F   UNL     1     -17.427  -4.559   8.504  1.00  0.00    -0.206 F 
ATOM     95  C   UNL     1     -20.385  -4.006   6.497  1.00  0.00     0.022 A 
BRANCH  92  96
ATOM     96  S   UNL     1     -20.846  -3.461   3.801  1.00  0.00     0.124 S 
ATOM     97  O   UNL     1     -20.220  -2.220   3.353  1.00  0.00    -0.237 OA
ATOM     98  O   UNL     1     -20.680  -4.612   2.920  1.00  0.00    -0.237 OA
ATOM     99  O   UNL     1     -22.180  -3.309   4.377  1.00  0.00    -0.744 OA
ENDBRANCH  92  96
ENDBRANCH  66  89
ENDBRANCH  40  41
ENDBRANCH  33  35
ENDBRANCH  32  33
ENDBRANCH  31  32
ENDBRANCH  30  31
ENDBRANCH  29  30
ENDBRANCH  28  29
ENDBRANCH  27  28
ENDBRANCH  26  27
ENDBRANCH   1  26
TORSDOF 28
