REMARK SMILES C[C@@]1(C(=O)OCCOCCOCCOCCOC(=O)c2ccc(-c3c4nc(c(-c5cc(S(=O)(=O)[O-])ccc5F)c5ccc([nH]5)c(-c5cc(S(=O)(=O)[O-])ccc5F)c5nc(c(-c6cc(S(=O)(=O)[O-])ccc6F)c6ccc3[nH]6)C=C5)C=C4)cc2)CCCN1c1ncnc2c1CCCCC2
REMARK SMILES IDX 10 1 9 2 8 3 7 4 6 5 5 6 3 7 4 8 2 9 1 10 83 11 86 12 84 13
REMARK SMILES IDX 85 14 87 15 88 16 92 17 89 18 91 19 90 20 93 21 94 22 95 23
REMARK SMILES IDX 97 25 96 26 11 28 12 29 13 30 14 31 15 32 16 33 17 34 18 35
REMARK SMILES IDX 19 36 20 37 21 38 82 39 22 40 81 41 23 42 24 43 25 44 75 45
REMARK SMILES IDX 26 46 80 47 74 48 76 49 27 50 79 51 73 52 72 53 28 55 60 56
REMARK SMILES IDX 40 57 59 58 41 59 44 60 58 61 77 62 42 63 43 64 57 66 78 67
REMARK SMILES IDX 45 68 29 69 30 70 38 71 31 72 37 73 39 74 36 75 32 76 33 77
REMARK SMILES IDX 34 78 35 79 61 80 62 81 70 82 63 83 69 84 71 85 68 86 64 87
REMARK SMILES IDX 65 88 66 89 67 90 46 91 47 92 55 93 48 94 54 95 56 96 53 97
REMARK SMILES IDX 49 98 50 99 51 100 52 101
REMARK H PARENT 76 54 44 65
REMARK Flexibility Score: 80.00
ROOT
ATOM      1  C   UNL     1      -2.055   1.458   1.661  1.00  0.00     0.188 C 
ENDROOT
BRANCH   1   2
ATOM      2  C   UNL     1      -2.692   1.147   0.310  1.00  0.00     0.188 C 
BRANCH   2   3
ATOM      3  O   UNL     1      -3.937   0.466   0.271  1.00  0.00    -0.376 OA
BRANCH   3   4
ATOM      4  C   UNL     1      -4.090  -0.784   0.943  1.00  0.00     0.202 C 
BRANCH   4   5
ATOM      5  C   UNL     1      -3.070  -1.922   0.751  1.00  0.00     0.261 C 
BRANCH   5   6
ATOM      6  O   UNL     1      -1.738  -1.695   1.275  1.00  0.00    -0.461 OA
BRANCH   6   7
ATOM      7  C   UNL     1      -0.767  -1.547   0.341  1.00  0.00     0.331 C 
ATOM      8  O   UNL     1      -1.014  -1.543  -0.869  1.00  0.00    -0.249 OA
BRANCH   7   9
ATOM      9  C   UNL     1       0.705  -1.470   0.852  1.00  0.00     0.136 C 
ATOM     10  C   UNL     1       1.362  -0.363   0.005  1.00  0.00     0.047 C 
ATOM     11  C   UNL     1       1.295  -2.858   0.512  1.00  0.00     0.042 C 
ATOM     12  N   UNL     1       0.922  -1.363   2.361  1.00  0.00    -0.340 N 
ATOM     13  C   UNL     1       0.983  -3.668   1.760  1.00  0.00     0.025 C 
ATOM     14  C   UNL     1       1.312  -2.691   2.878  1.00  0.00     0.119 C 
BRANCH  12  15
ATOM     15  C   UNL     1       1.782  -0.392   2.899  1.00  0.00     0.136 A 
ATOM     16  N   UNL     1       2.987  -0.242   2.313  1.00  0.00    -0.219 NA
ATOM     17  C   UNL     1       1.422   0.429   3.980  1.00  0.00     0.016 A 
ATOM     18  C   UNL     1       3.768   0.798   2.661  1.00  0.00     0.224 A 
ATOM     19  C   UNL     1       2.327   1.684   4.182  1.00  0.00     0.049 A 
ATOM     20  N   UNL     1       3.490   1.789   3.516  1.00  0.00    -0.241 NA
BRANCH  17  21
ATOM     21  C   UNL     1      -0.148  -0.020   4.741  1.00  0.00     0.041 C 
BRANCH  21  22
ATOM     22  C   UNL     1      -1.108   0.888   6.111  1.00  0.00     0.005 C 
BRANCH  22  23
ATOM     23  C   UNL     1      -0.797   2.693   6.726  1.00  0.00     0.001 CG0
ATOM     24  G   UNL     1       0.796   3.641   6.373  1.00  0.00     0.000 G0
ENDBRANCH  22  23
ENDBRANCH  21  22
ENDBRANCH  17  21
BRANCH  19  25
ATOM     25  C   UNL     1       2.128   3.155   5.154  1.00  0.00     0.057 C 
BRANCH  25  26
ATOM     26  C   UNL     1       0.796   3.641   6.373  1.00  0.00     0.006 CG0
ATOM     27  G   UNL     1      -0.797   2.693   6.726  1.00  0.00     0.000 G0
ENDBRANCH  25  26
ENDBRANCH  19  25
ENDBRANCH  12  15
ENDBRANCH   7   9
ENDBRANCH   6   7
ENDBRANCH   5   6
ENDBRANCH   4   5
ENDBRANCH   3   4
ENDBRANCH   2   3
ENDBRANCH   1   2
BRANCH   1  28
ATOM     28  O   UNL     1      -2.341   0.500   2.646  1.00  0.00    -0.377 OA
BRANCH  28  29
ATOM     29  C   UNL     1      -3.121   0.899   3.752  1.00  0.00     0.188 C 
BRANCH  29  30
ATOM     30  C   UNL     1      -2.760   2.235   4.401  1.00  0.00     0.188 C 
BRANCH  30  31
ATOM     31  O   UNL     1      -1.441   2.760   4.441  1.00  0.00    -0.376 OA
BRANCH  31  32
ATOM     32  C   UNL     1      -0.066   2.247   4.693  1.00  0.00     0.202 C 
BRANCH  32  33
ATOM     33  C   UNL     1       0.977   1.359   6.243  1.00  0.00     0.261 C 
BRANCH  33  34
ATOM     34  O   UNL     1       0.904   1.607   7.814  1.00  0.00    -0.460 OA
BRANCH  34  35
ATOM     35  C   UNL     1       0.348   1.168   8.978  1.00  0.00     0.338 C 
ATOM     36  O   UNL     1       0.620   1.750  10.027  1.00  0.00    -0.246 OA
BRANCH  35  37
ATOM     37  C   UNL     1      -0.640   0.058   9.100  1.00  0.00     0.060 A 
ATOM     38  C   UNL     1      -2.031   0.299   9.007  1.00  0.00     0.016 A 
ATOM     39  C   UNL     1      -0.202  -1.192   9.539  1.00  0.00     0.016 A 
ATOM     40  C   UNL     1      -2.966  -0.696   9.331  1.00  0.00     0.010 A 
ATOM     41  C   UNL     1      -1.136  -2.168   9.925  1.00  0.00     0.010 A 
ATOM     42  C   UNL     1      -2.520  -1.904   9.877  1.00  0.00    -0.014 A 
BRANCH  42  43
ATOM     43  C   UNL     1      -3.428  -2.668  10.785  1.00  0.00     0.031 A 
ATOM     44  C   UNL     1      -3.446  -2.236  12.234  1.00  0.00     0.074 A 
ATOM     45  C   UNL     1      -4.185  -3.705  10.383  1.00  0.00     0.049 A 
ATOM     46  N   UNL     1      -4.021  -2.785  13.272  1.00  0.00    -0.248 NA
ATOM     47  C   UNL     1      -2.683  -1.017  12.546  1.00  0.00     0.031 C 
ATOM     48  C   UNL     1      -4.302  -4.189   9.010  1.00  0.00     0.029 A 
ATOM     49  N   UNL     1      -4.987  -4.554  11.109  1.00  0.00    -0.354 N 
ATOM     50  C   UNL     1      -3.670  -1.988  14.361  1.00  0.00     0.074 A 
ATOM     51  C   UNL     1      -2.809  -0.943  13.858  1.00  0.00     0.031 C 
ATOM     52  C   UNL     1      -5.100  -5.273   8.998  1.00  0.00     0.029 A 
ATOM     53  C   UNL     1      -5.521  -5.581  10.366  1.00  0.00     0.049 A 
ATOM     54  H   UNL     1      -5.162  -4.438  12.071  1.00  0.00     0.167 HD
ATOM     55  C   UNL     1      -4.024  -2.114  15.664  1.00  0.00     0.034 A 
ATOM     56  C   UNL     1      -6.233  -6.662  10.751  1.00  0.00     0.034 A 
ATOM     57  C   UNL     1      -4.851  -3.188  16.156  1.00  0.00     0.049 A 
ATOM     58  C   UNL     1      -6.578  -6.829  12.214  1.00  0.00     0.074 A 
ATOM     59  C   UNL     1      -5.269  -3.436  17.450  1.00  0.00     0.029 A 
ATOM     60  N   UNL     1      -5.373  -4.208  15.367  1.00  0.00    -0.354 N 
ATOM     61  N   UNL     1      -6.238  -6.075  13.237  1.00  0.00    -0.248 NA
ATOM     62  C   UNL     1      -7.414  -7.982  12.571  1.00  0.00     0.031 C 
ATOM     63  C   UNL     1      -5.982  -4.641  17.455  1.00  0.00     0.029 A 
ATOM     64  C   UNL     1      -6.087  -5.101  16.151  1.00  0.00     0.049 A 
ATOM     65  H   UNL     1      -5.253  -4.284  14.393  1.00  0.00     0.167 HD
ATOM     66  C   UNL     1      -6.842  -6.650  14.354  1.00  0.00     0.074 A 
ATOM     67  C   UNL     1      -7.577  -7.803  13.874  1.00  0.00     0.031 C 
ATOM     68  C   UNL     1      -6.801  -6.258  15.656  1.00  0.00     0.034 A 
BRANCH  55  69
ATOM     69  C   UNL     1      -3.433  -1.110  16.631  1.00  0.00     0.023 A 
ATOM     70  C   UNL     1      -3.672   0.272  16.507  1.00  0.00     0.031 A 
ATOM     71  C   UNL     1      -2.531  -1.530  17.624  1.00  0.00     0.131 A 
ATOM     72  C   UNL     1      -2.937   1.184  17.281  1.00  0.00     0.055 A 
ATOM     73  C   UNL     1      -1.875  -0.620  18.458  1.00  0.00     0.041 A 
ATOM     74  F   UNL     1      -2.239  -2.831  17.779  1.00  0.00    -0.206 F 
ATOM     75  C   UNL     1      -2.057   0.747  18.273  1.00  0.00     0.022 A 
BRANCH  72  76
ATOM     76  S   UNL     1      -2.994   2.944  16.835  1.00  0.00     0.124 S 
ATOM     77  O   UNL     1      -2.591   2.908  15.432  1.00  0.00    -0.237 OA
ATOM     78  O   UNL     1      -4.391   3.286  17.089  1.00  0.00    -0.237 OA
ATOM     79  O   UNL     1      -2.027   3.559  17.740  1.00  0.00    -0.744 OA
ENDBRANCH  72  76
ENDBRANCH  55  69
BRANCH  56  80
ATOM     80  C   UNL     1      -6.624  -7.698   9.748  1.00  0.00     0.023 A 
ATOM     81  C   UNL     1      -7.966  -7.923   9.399  1.00  0.00     0.031 A 
ATOM     82  C   UNL     1      -5.642  -8.490   9.123  1.00  0.00     0.131 A 
ATOM     83  C   UNL     1      -8.289  -8.921   8.463  1.00  0.00     0.055 A 
ATOM     84  C   UNL     1      -5.965  -9.453   8.165  1.00  0.00     0.041 A 
ATOM     85  F   UNL     1      -4.344  -8.320   9.422  1.00  0.00    -0.206 F 
ATOM     86  C   UNL     1      -7.297  -9.676   7.834  1.00  0.00     0.022 A 
BRANCH  83  87
ATOM     87  S   UNL     1     -10.037  -9.244   8.093  1.00  0.00     0.124 S 
ATOM     88  O   UNL     1     -10.544  -9.670   9.392  1.00  0.00    -0.237 OA
ATOM     89  O   UNL     1     -10.493  -7.941   7.620  1.00  0.00    -0.237 OA
ATOM     90  O   UNL     1      -9.982 -10.288   7.071  1.00  0.00    -0.744 OA
ENDBRANCH  83  87
ENDBRANCH  56  80
BRANCH  68  91
ATOM     91  C   UNL     1      -7.619  -7.059  16.642  1.00  0.00     0.023 A 
ATOM     92  C   UNL     1      -7.326  -8.403  16.935  1.00  0.00     0.031 A 
ATOM     93  C   UNL     1      -8.725  -6.471  17.283  1.00  0.00     0.131 A 
ATOM     94  C   UNL     1      -8.170  -9.133  17.786  1.00  0.00     0.055 A 
ATOM     95  C   UNL     1      -9.519  -7.182  18.183  1.00  0.00     0.041 A 
ATOM     96  F   UNL     1      -9.053  -5.191  17.042  1.00  0.00    -0.206 F 
ATOM     97  C   UNL     1      -9.254  -8.526  18.425  1.00  0.00     0.022 A 
BRANCH  94  98
ATOM     98  S   UNL     1      -7.908 -10.921  17.948  1.00  0.00     0.124 S 
ATOM     99  O   UNL     1      -7.954 -11.360  16.557  1.00  0.00    -0.237 OA
ATOM    100  O   UNL     1      -6.602 -10.987  18.595  1.00  0.00    -0.237 OA
ATOM    101  O   UNL     1      -9.032 -11.358  18.773  1.00  0.00    -0.744 OA
ENDBRANCH  94  98
ENDBRANCH  68  91
ENDBRANCH  42  43
ENDBRANCH  35  37
ENDBRANCH  34  35
ENDBRANCH  33  34
ENDBRANCH  32  33
ENDBRANCH  31  32
ENDBRANCH  30  31
ENDBRANCH  29  30
ENDBRANCH  28  29
ENDBRANCH   1  28
TORSDOF 24
