REMARK SMILES CCc1ccc(OCC(=O)Nc2cc(C)c(O)c(C(=O)OCCOCCOCCOCCOC(=O)c3ccc(-c4c5nc(c(-c6cc(S(=O)(=O)[O-])ccc6F)c6ccc([nH]6)c(-c6cc(S(=O)(=O)[O-])ccc6F)c6nc(c(-c7cc(S(=O)(=O)[O-])ccc7F)c7ccc4[nH]7)C=C6)C=C5)cc3)c2)cc1
REMARK SMILES IDX 26 1 25 2 24 3 23 4 22 5 21 6 19 7 20 8 18 9 12 10 13 11
REMARK SMILES IDX 99 12 14 13 15 14 16 15 11 16 9 17 10 18 8 20 7 21 6 22 3 23
REMARK SMILES IDX 4 24 101 25 5 26 100 27 2 28 1 29 17 30 27 32 28 33 29 34
REMARK SMILES IDX 30 35 31 36 32 37 33 38 34 39 35 40 36 41 37 42 98 43 38 44
REMARK SMILES IDX 97 45 39 46 40 47 41 48 91 49 42 50 96 51 90 52 92 53 43 54
REMARK SMILES IDX 95 55 89 56 88 57 44 59 76 60 56 61 75 62 57 63 60 64 74 65
REMARK SMILES IDX 93 66 58 67 59 68 73 70 94 71 61 72 45 73 46 74 54 75 47 76
REMARK SMILES IDX 53 77 55 78 52 79 48 80 49 81 50 82 51 83 77 84 78 85 86 86
REMARK SMILES IDX 79 87 85 88 87 89 84 90 80 91 81 92 82 93 83 94 62 95 63 96
REMARK SMILES IDX 71 97 64 98 70 99 72 100 69 101 65 102 66 103 67 104 68 105
REMARK H PARENT 11 19 17 31 92 58 60 69
REMARK Flexibility Score: inf
ROOT
ATOM      1  C   UNL     1      -2.133  -4.185  -4.731  1.00  0.00     0.188 C 
ENDROOT
BRANCH   1   2
ATOM      2  C   UNL     1      -2.212  -5.729  -4.630  1.00  0.00     0.188 C 
BRANCH   2   3
ATOM      3  O   UNL     1      -1.675  -6.262  -3.433  1.00  0.00    -0.376 OA
BRANCH   3   4
ATOM      4  C   UNL     1      -0.437  -6.938  -3.409  1.00  0.00     0.202 C 
BRANCH   4   5
ATOM      5  C   UNL     1       0.822  -6.182  -3.840  1.00  0.00     0.261 C 
BRANCH   5   6
ATOM      6  O   UNL     1       0.707  -5.402  -5.033  1.00  0.00    -0.460 OA
BRANCH   6   7
ATOM      7  C   UNL     1       0.568  -6.037  -6.216  1.00  0.00     0.342 C 
ATOM      8  O   UNL     1       0.515  -7.240  -6.410  1.00  0.00    -0.246 OA
BRANCH   7   9
ATOM      9  C   UNL     1       0.222  -5.025  -7.243  1.00  0.00     0.104 A 
ATOM     10  C   UNL     1       0.425  -2.739  -8.041  1.00  0.00     0.042 A 
ATOM     11  C   UNL     1      -0.613  -2.995  -8.946  1.00  0.00     0.033 A 
ATOM     12  C   UNL     1       0.805  -3.754  -7.177  1.00  0.00     0.045 A 
ATOM     13  C   UNL     1      -1.222  -4.263  -9.029  1.00  0.00    -0.006 A 
ATOM     14  C   UNL     1      -2.306  -4.487 -10.045  1.00  0.00     0.048 C 
ATOM     15  C   UNL     1      -0.769  -5.290  -8.192  1.00  0.00     0.133 A 
BRANCH  10  16
ATOM     16  N   UNL     1       0.991  -1.454  -8.053  1.00  0.00    -0.323 N 
ATOM     17  C   UNL     1       2.145  -0.931  -7.542  1.00  0.00     0.262 C 
ATOM     18  O   UNL     1       2.357   0.270  -7.758  1.00  0.00    -0.271 OA
ATOM     19  H   UNL     1       0.441  -0.791  -8.530  1.00  0.00     0.170 HD
BRANCH  17  20
ATOM     20  C   UNL     1       3.220  -1.786  -6.842  1.00  0.00     0.329 C 
BRANCH  20  21
ATOM     21  O   UNL     1       3.026  -2.289  -5.530  1.00  0.00    -0.484 OA
BRANCH  21  22
ATOM     22  C   UNL     1       2.460  -1.427  -4.637  1.00  0.00     0.120 A 
ATOM     23  C   UNL     1       1.194   0.191  -2.742  1.00  0.00    -0.048 A 
ATOM     24  C   UNL     1       0.927  -1.183  -2.787  1.00  0.00     0.007 A 
ATOM     25  C   UNL     1       2.109   0.740  -3.645  1.00  0.00     0.007 A 
ATOM     26  C   UNL     1       1.571  -1.990  -3.722  1.00  0.00     0.047 A 
ATOM     27  C   UNL     1       2.748  -0.067  -4.582  1.00  0.00     0.047 A 
BRANCH  23  28
ATOM     28  C   UNL     1       0.571   1.063  -1.686  1.00  0.00     0.032 C 
ATOM     29  C   UNL     1       1.135   0.712  -0.325  1.00  0.00     0.009 C 
ENDBRANCH  23  28
ENDBRANCH  21  22
ENDBRANCH  20  21
ENDBRANCH  17  20
ENDBRANCH  10  16
BRANCH  15  30
ATOM     30  O   UNL     1      -1.360  -6.521  -8.297  1.00  0.00    -0.507 OA
ATOM     31  H   UNL     1      -2.022  -6.669  -8.944  1.00  0.00     0.293 HD
ENDBRANCH  15  30
ENDBRANCH   7   9
ENDBRANCH   6   7
ENDBRANCH   5   6
ENDBRANCH   4   5
ENDBRANCH   3   4
ENDBRANCH   2   3
ENDBRANCH   1   2
BRANCH   1  32
ATOM     32  O   UNL     1      -2.255  -3.331  -3.594  1.00  0.00    -0.377 OA
BRANCH  32  33
ATOM     33  C   UNL     1      -2.062  -3.887  -2.301  1.00  0.00     0.188 C 
BRANCH  33  34
ATOM     34  C   UNL     1      -3.269  -4.708  -1.806  1.00  0.00     0.188 C 
BRANCH  34  35
ATOM     35  O   UNL     1      -4.209  -4.978  -2.837  1.00  0.00    -0.376 OA
BRANCH  35  36
ATOM     36  C   UNL     1      -5.317  -4.108  -2.996  1.00  0.00     0.202 C 
BRANCH  36  37
ATOM     37  C   UNL     1      -5.146  -2.577  -3.045  1.00  0.00     0.261 C 
BRANCH  37  38
ATOM     38  O   UNL     1      -4.300  -1.964  -2.063  1.00  0.00    -0.460 OA
BRANCH  38  39
ATOM     39  C   UNL     1      -4.688  -2.030  -0.777  1.00  0.00     0.338 C 
ATOM     40  O   UNL     1      -5.710  -2.552  -0.348  1.00  0.00    -0.246 OA
BRANCH  39  41
ATOM     41  C   UNL     1      -3.571  -1.543   0.060  1.00  0.00     0.060 A 
ATOM     42  C   UNL     1      -3.009  -2.400   1.017  1.00  0.00     0.016 A 
ATOM     43  C   UNL     1      -3.090  -0.242  -0.090  1.00  0.00     0.016 A 
ATOM     44  C   UNL     1      -2.007  -1.940   1.873  1.00  0.00     0.010 A 
ATOM     45  C   UNL     1      -2.104   0.223   0.786  1.00  0.00     0.010 A 
ATOM     46  C   UNL     1      -1.591  -0.608   1.804  1.00  0.00    -0.014 A 
BRANCH  46  47
ATOM     47  C   UNL     1      -0.830  -0.007   2.932  1.00  0.00     0.031 A 
ATOM     48  C   UNL     1      -1.585   0.892   3.879  1.00  0.00     0.074 A 
ATOM     49  C   UNL     1       0.479  -0.248   3.138  1.00  0.00     0.049 A 
ATOM     50  N   UNL     1      -1.150   1.588   4.896  1.00  0.00    -0.248 NA
ATOM     51  C   UNL     1      -3.035   1.008   3.647  1.00  0.00     0.031 C 
ATOM     52  C   UNL     1       1.312  -1.165   2.363  1.00  0.00     0.029 A 
ATOM     53  N   UNL     1       1.353   0.308   4.041  1.00  0.00    -0.354 N 
ATOM     54  C   UNL     1      -2.275   2.196   5.442  1.00  0.00     0.074 A 
ATOM     55  C   UNL     1      -3.393   1.867   4.586  1.00  0.00     0.031 C 
ATOM     56  C   UNL     1       2.593  -1.028   2.748  1.00  0.00     0.029 A 
ATOM     57  C   UNL     1       2.666  -0.038   3.818  1.00  0.00     0.049 A 
ATOM     58  H   UNL     1       1.067   0.896   4.777  1.00  0.00     0.167 HD
ATOM     59  C   UNL     1      -2.377   2.924   6.581  1.00  0.00     0.034 A 
ATOM     60  C   UNL     1       3.797   0.405   4.400  1.00  0.00     0.034 A 
ATOM     61  C   UNL     1      -1.250   3.261   7.413  1.00  0.00     0.049 A 
ATOM     62  C   UNL     1       3.691   1.346   5.573  1.00  0.00     0.074 A 
ATOM     63  C   UNL     1      -1.236   3.975   8.598  1.00  0.00     0.029 A 
ATOM     64  N   UNL     1       0.069   2.922   7.138  1.00  0.00    -0.354 N 
ATOM     65  N   UNL     1       2.618   1.883   6.109  1.00  0.00    -0.248 NA
ATOM     66  C   UNL     1       4.942   1.691   6.257  1.00  0.00     0.031 C 
ATOM     67  C   UNL     1       0.096   4.140   8.993  1.00  0.00     0.029 A 
ATOM     68  C   UNL     1       0.908   3.445   8.111  1.00  0.00     0.049 A 
ATOM     69  H   UNL     1       0.365   2.389   6.365  1.00  0.00     0.167 HD
ATOM     70  C   UNL     1       3.061   2.566   7.239  1.00  0.00     0.074 A 
ATOM     71  C   UNL     1       4.496   2.380   7.296  1.00  0.00     0.031 C 
ATOM     72  C   UNL     1       2.340   3.258   8.160  1.00  0.00     0.034 A 
BRANCH  59  73
ATOM     73  C   UNL     1      -3.753   3.419   6.960  1.00  0.00     0.023 A 
ATOM     74  C   UNL     1      -4.810   2.529   7.230  1.00  0.00     0.031 A 
ATOM     75  C   UNL     1      -4.027   4.796   7.011  1.00  0.00     0.131 A 
ATOM     76  C   UNL     1      -6.103   3.022   7.455  1.00  0.00     0.055 A 
ATOM     77  C   UNL     1      -5.298   5.283   7.325  1.00  0.00     0.041 A 
ATOM     78  F   UNL     1      -3.069   5.695   6.736  1.00  0.00    -0.206 F 
ATOM     79  C   UNL     1      -6.349   4.394   7.533  1.00  0.00     0.022 A 
BRANCH  76  80
ATOM     80  S   UNL     1      -7.487   1.849   7.482  1.00  0.00     0.124 S 
ATOM     81  O   UNL     1      -7.371   1.226   6.166  1.00  0.00    -0.237 OA
ATOM     82  O   UNL     1      -7.159   1.000   8.622  1.00  0.00    -0.237 OA
ATOM     83  O   UNL     1      -8.658   2.705   7.657  1.00  0.00    -0.744 OA
ENDBRANCH  76  80
ENDBRANCH  59  73
BRANCH  60  84
ATOM     84  C   UNL     1       5.130  -0.043   3.904  1.00  0.00     0.023 A 
ATOM     85  C   UNL     1       5.967  -0.844   4.694  1.00  0.00     0.031 A 
ATOM     86  C   UNL     1       5.607   0.374   2.648  1.00  0.00     0.131 A 
ATOM     87  C   UNL     1       7.260  -1.160   4.247  1.00  0.00     0.055 A 
ATOM     88  C   UNL     1       6.876   0.018   2.187  1.00  0.00     0.041 A 
ATOM     89  F   UNL     1       4.844   1.140   1.852  1.00  0.00    -0.206 F 
ATOM     90  C   UNL     1       7.716  -0.743   2.995  1.00  0.00     0.022 A 
BRANCH  87  91
ATOM     91  S   UNL     1       8.368  -2.056   5.369  1.00  0.00     0.124 S 
ATOM     92  O   UNL     1       8.403  -1.167   6.524  1.00  0.00    -0.237 OA
ATOM     93  O   UNL     1       7.657  -3.317   5.551  1.00  0.00    -0.237 OA
ATOM     94  O   UNL     1       9.615  -2.150   4.612  1.00  0.00    -0.744 OA
ENDBRANCH  87  91
ENDBRANCH  60  84
BRANCH  72  95
ATOM     95  C   UNL     1       3.090   3.796   9.357  1.00  0.00     0.023 A 
ATOM     96  C   UNL     1       4.107   4.757   9.233  1.00  0.00     0.031 A 
ATOM     97  C   UNL     1       2.805   3.303  10.644  1.00  0.00     0.131 A 
ATOM     98  C   UNL     1       4.858   5.130  10.358  1.00  0.00     0.055 A 
ATOM     99  C   UNL     1       3.498   3.740  11.773  1.00  0.00     0.041 A 
ATOM    100  F   UNL     1       1.847   2.379  10.827  1.00  0.00    -0.206 F 
ATOM    101  C   UNL     1       4.546   4.644  11.630  1.00  0.00     0.022 A 
BRANCH  98 102
ATOM    102  S   UNL     1       6.340   6.146  10.113  1.00  0.00     0.124 S 
ATOM    103  O   UNL     1       7.098   5.348   9.154  1.00  0.00    -0.237 OA
ATOM    104  O   UNL     1       5.781   7.393   9.602  1.00  0.00    -0.237 OA
ATOM    105  O   UNL     1       6.924   6.229  11.450  1.00  0.00    -0.744 OA
ENDBRANCH  98 102
ENDBRANCH  72  95
ENDBRANCH  46  47
ENDBRANCH  39  41
ENDBRANCH  38  39
ENDBRANCH  37  38
ENDBRANCH  36  37
ENDBRANCH  35  36
ENDBRANCH  34  35
ENDBRANCH  33  34
ENDBRANCH  32  33
ENDBRANCH   1  32
TORSDOF 29
