REMARK SMILES CC(C)[C@H](C)CNC(=O)N1CC(n2cc(C(=O)OCCOCCOCCOCCOC(=O)c3ccc(-c4c5nc(c(-c6cc(S(=O)(=O)[O-])ccc6F)c6ccc([nH]6)c(-c6cc(S(=O)(=O)[O-])ccc6F)c6nc(c(-c7cc(S(=O)(=O)[O-])ccc7F)c7ccc4[nH]7)C=C6)C=C5)cc3)nn2)C1
REMARK SMILES IDX 23 1 22 2 21 3 20 4 19 5 18 6 16 7 17 8 15 9 13 10 14 11
REMARK SMILES IDX 97 12 96 13 12 14 7 15 8 16 9 18 10 19 11 20 98 21 6 22 4 23
REMARK SMILES IDX 5 24 2 25 1 26 3 27 24 28 25 29 26 30 27 31 28 32 29 33
REMARK SMILES IDX 30 34 31 35 32 36 33 37 34 38 95 39 35 40 94 41 36 42 37 43
REMARK SMILES IDX 38 44 88 45 39 46 93 47 87 48 89 49 40 50 92 51 86 52 85 53
REMARK SMILES IDX 41 55 73 56 53 57 72 58 54 59 57 60 71 61 90 62 55 63 56 64
REMARK SMILES IDX 70 66 91 67 58 68 42 69 43 70 51 71 44 72 50 73 52 74 49 75
REMARK SMILES IDX 45 76 46 77 47 78 48 79 74 80 75 81 83 82 76 83 82 84 84 85
REMARK SMILES IDX 81 86 77 87 78 88 79 89 80 90 59 91 60 92 68 93 61 94 67 95
REMARK SMILES IDX 69 96 66 97 62 98 63 99 64 100 65 101
REMARK H PARENT 7 17 89 54 57 65
REMARK Flexibility Score: inf
ROOT
ATOM      1  C   UNL     1     -10.787   3.270  -5.087  1.00  0.00     0.188 C 
ENDROOT
BRANCH   1   2
ATOM      2  C   UNL     1     -11.571   2.492  -4.004  1.00  0.00     0.188 C 
BRANCH   2   3
ATOM      3  O   UNL     1     -12.453   3.128  -3.084  1.00  0.00    -0.376 OA
BRANCH   3   4
ATOM      4  C   UNL     1     -12.226   4.432  -2.579  1.00  0.00     0.202 C 
BRANCH   4   5
ATOM      5  C   UNL     1     -10.898   4.822  -1.916  1.00  0.00     0.261 C 
BRANCH   5   6
ATOM      6  O   UNL     1      -9.729   4.185  -2.434  1.00  0.00    -0.458 OA
BRANCH   6   7
ATOM      7  C   UNL     1      -9.376   3.031  -1.803  1.00  0.00     0.360 C 
ATOM      8  O   UNL     1      -9.891   2.619  -0.771  1.00  0.00    -0.244 OA
BRANCH   7   9
ATOM      9  C   UNL     1      -8.369   2.290  -2.546  1.00  0.00     0.190 A 
ATOM     10  N   UNL     1      -6.762   1.621  -3.833  1.00  0.00    -0.245 N 
ATOM     11  C   UNL     1      -7.478   2.739  -3.503  1.00  0.00     0.147 A 
ATOM     12  N   UNL     1      -7.232   0.538  -3.198  1.00  0.00    -0.066 NA
ATOM     13  N   UNL     1      -8.212   0.933  -2.401  1.00  0.00    -0.123 NA
BRANCH  10  14
ATOM     14  C   UNL     1      -5.533   1.651  -4.564  1.00  0.00     0.148 C 
ATOM     15  N   UNL     1      -1.402   1.469  -3.607  1.00  0.00    -0.338 N 
ATOM     16  C   UNL     1      -2.323   0.788  -4.336  1.00  0.00     0.317 C 
ATOM     17  H   UNL     1      -0.517   1.549  -4.032  1.00  0.00     0.165 HD
ATOM     18  O   UNL     1      -1.920   0.006  -5.196  1.00  0.00    -0.249 OA
ATOM     19  N   UNL     1      -3.640   0.987  -4.104  1.00  0.00    -0.320 N 
ATOM     20  C   UNL     1      -4.788   0.318  -4.706  1.00  0.00     0.150 C 
ATOM     21  C   UNL     1      -4.404   2.116  -3.626  1.00  0.00     0.150 C 
BRANCH  15  22
ATOM     22  C   UNL     1      -1.511   2.101  -2.299  1.00  0.00     0.121 C 
BRANCH  22  23
ATOM     23  C   UNL     1      -1.124   1.129  -1.161  1.00  0.00     0.008 C 
ATOM     24  C   UNL     1       0.363   0.752  -1.277  1.00  0.00     0.010 C 
BRANCH  23  25
ATOM     25  C   UNL     1      -1.488   1.627   0.272  1.00  0.00    -0.013 C 
ATOM     26  C   UNL     1      -0.484   2.611   0.878  1.00  0.00     0.008 C 
ATOM     27  C   UNL     1      -2.900   2.214   0.364  1.00  0.00     0.008 C 
ENDBRANCH  23  25
ENDBRANCH  22  23
ENDBRANCH  15  22
ENDBRANCH  10  14
ENDBRANCH   7   9
ENDBRANCH   6   7
ENDBRANCH   5   6
ENDBRANCH   4   5
ENDBRANCH   3   4
ENDBRANCH   2   3
ENDBRANCH   1   2
BRANCH   1  28
ATOM     28  O   UNL     1     -10.847   4.680  -4.958  1.00  0.00    -0.377 OA
BRANCH  28  29
ATOM     29  C   UNL     1     -11.791   5.336  -5.807  1.00  0.00     0.188 C 
BRANCH  29  30
ATOM     30  C   UNL     1     -13.222   4.743  -5.907  1.00  0.00     0.188 C 
BRANCH  30  31
ATOM     31  O   UNL     1     -13.258   3.323  -5.994  1.00  0.00    -0.376 OA
BRANCH  31  32
ATOM     32  C   UNL     1     -13.636   2.673  -7.196  1.00  0.00     0.202 C 
BRANCH  32  33
ATOM     33  C   UNL     1     -12.646   2.737  -8.355  1.00  0.00     0.261 C 
BRANCH  33  34
ATOM     34  O   UNL     1     -12.065   4.013  -8.534  1.00  0.00    -0.460 OA
BRANCH  34  35
ATOM     35  C   UNL     1     -12.906   4.967  -8.967  1.00  0.00     0.338 C 
ATOM     36  O   UNL     1     -14.130   4.906  -9.013  1.00  0.00    -0.246 OA
BRANCH  35  37
ATOM     37  C   UNL     1     -12.104   6.073  -9.480  1.00  0.00     0.060 A 
ATOM     38  C   UNL     1     -12.812   7.160  -9.986  1.00  0.00     0.016 A 
ATOM     39  C   UNL     1     -10.751   5.838  -9.784  1.00  0.00     0.016 A 
ATOM     40  C   UNL     1     -12.257   7.830 -11.045  1.00  0.00     0.010 A 
ATOM     41  C   UNL     1     -10.208   6.494 -10.853  1.00  0.00     0.010 A 
ATOM     42  C   UNL     1     -11.019   7.394 -11.532  1.00  0.00    -0.014 A 
BRANCH  42  43
ATOM     43  C   UNL     1     -10.556   7.955 -12.774  1.00  0.00     0.031 A 
ATOM     44  C   UNL     1     -10.066   9.332 -12.603  1.00  0.00     0.074 A 
ATOM     45  C   UNL     1     -10.528   7.248 -13.917  1.00  0.00     0.049 A 
ATOM     46  N   UNL     1     -10.649  10.419 -12.973  1.00  0.00    -0.248 NA
ATOM     47  C   UNL     1      -8.920   9.536 -11.702  1.00  0.00     0.031 C 
ATOM     48  C   UNL     1     -10.746   5.814 -14.117  1.00  0.00     0.029 A 
ATOM     49  N   UNL     1     -10.193   7.679 -15.157  1.00  0.00    -0.354 N 
ATOM     50  C   UNL     1      -9.799  11.439 -12.575  1.00  0.00     0.074 A 
ATOM     51  C   UNL     1      -8.916  10.864 -11.598  1.00  0.00     0.031 C 
ATOM     52  C   UNL     1     -10.300   5.467 -15.349  1.00  0.00     0.029 A 
ATOM     53  C   UNL     1      -9.889   6.669 -16.060  1.00  0.00     0.049 A 
ATOM     54  H   UNL     1     -10.166   8.633 -15.399  1.00  0.00     0.167 HD
ATOM     55  C   UNL     1      -9.707  12.585 -13.297  1.00  0.00     0.034 A 
ATOM     56  C   UNL     1      -9.256   6.827 -17.255  1.00  0.00     0.034 A 
ATOM     57  C   UNL     1     -10.862  12.750 -14.154  1.00  0.00     0.049 A 
ATOM     58  C   UNL     1      -9.434   8.256 -17.640  1.00  0.00     0.074 A 
ATOM     59  C   UNL     1     -12.224  12.819 -13.920  1.00  0.00     0.029 A 
ATOM     60  N   UNL     1     -10.735  12.442 -15.492  1.00  0.00    -0.354 N 
ATOM     61  N   UNL     1     -10.600   8.781 -17.915  1.00  0.00    -0.248 NA
ATOM     62  C   UNL     1      -8.421   9.212 -17.208  1.00  0.00     0.031 C 
ATOM     63  C   UNL     1     -12.818  12.060 -14.971  1.00  0.00     0.029 A 
ATOM     64  C   UNL     1     -11.803  11.646 -15.838  1.00  0.00     0.049 A 
ATOM     65  H   UNL     1     -10.012  12.737 -16.091  1.00  0.00     0.167 HD
ATOM     66  C   UNL     1     -10.599  10.022 -17.293  1.00  0.00     0.074 A 
ATOM     67  C   UNL     1      -9.199  10.267 -16.943  1.00  0.00     0.031 C 
ATOM     68  C   UNL     1     -11.756  10.604 -16.852  1.00  0.00     0.034 A 
BRANCH  55  69
ATOM     69  C   UNL     1      -8.415  13.340 -13.499  1.00  0.00     0.023 A 
ATOM     70  C   UNL     1      -8.477  14.518 -14.261  1.00  0.00     0.031 A 
ATOM     71  C   UNL     1      -7.113  12.847 -13.235  1.00  0.00     0.131 A 
ATOM     72  C   UNL     1      -7.312  15.091 -14.796  1.00  0.00     0.055 A 
ATOM     73  C   UNL     1      -5.953  13.461 -13.709  1.00  0.00     0.041 A 
ATOM     74  F   UNL     1      -6.879  11.699 -12.589  1.00  0.00    -0.206 F 
ATOM     75  C   UNL     1      -6.049  14.573 -14.523  1.00  0.00     0.022 A 
BRANCH  72  76
ATOM     76  S   UNL     1      -7.495  16.422 -16.005  1.00  0.00     0.124 S 
ATOM     77  O   UNL     1      -8.400  15.815 -16.975  1.00  0.00    -0.237 OA
ATOM     78  O   UNL     1      -8.052  17.493 -15.185  1.00  0.00    -0.237 OA
ATOM     79  O   UNL     1      -6.129  16.641 -16.475  1.00  0.00    -0.744 OA
ENDBRANCH  72  76
ENDBRANCH  55  69
BRANCH  56  80
ATOM     80  C   UNL     1      -8.193   5.937 -17.812  1.00  0.00     0.023 A 
ATOM     81  C   UNL     1      -7.802   5.955 -19.169  1.00  0.00     0.031 A 
ATOM     82  C   UNL     1      -7.372   5.192 -16.933  1.00  0.00     0.131 A 
ATOM     83  C   UNL     1      -6.650   5.244 -19.591  1.00  0.00     0.055 A 
ATOM     84  C   UNL     1      -6.241   4.490 -17.355  1.00  0.00     0.041 A 
ATOM     85  F   UNL     1      -7.591   5.188 -15.609  1.00  0.00    -0.206 F 
ATOM     86  C   UNL     1      -5.870   4.519 -18.687  1.00  0.00     0.022 A 
BRANCH  83  87
ATOM     87  S   UNL     1      -6.092   5.315 -21.326  1.00  0.00     0.124 S 
ATOM     88  O   UNL     1      -7.155   4.602 -22.024  1.00  0.00    -0.237 OA
ATOM     89  O   UNL     1      -6.004   6.751 -21.568  1.00  0.00    -0.237 OA
ATOM     90  O   UNL     1      -4.803   4.621 -21.301  1.00  0.00    -0.744 OA
ENDBRANCH  83  87
ENDBRANCH  56  80
BRANCH  68  91
ATOM     91  C   UNL     1     -13.085  10.004 -17.281  1.00  0.00     0.023 A 
ATOM     92  C   UNL     1     -13.490   8.668 -17.048  1.00  0.00     0.031 A 
ATOM     93  C   UNL     1     -14.036  10.880 -17.837  1.00  0.00     0.131 A 
ATOM     94  C   UNL     1     -14.800   8.258 -17.378  1.00  0.00     0.055 A 
ATOM     95  C   UNL     1     -15.336  10.477 -18.140  1.00  0.00     0.041 A 
ATOM     96  F   UNL     1     -13.725  12.168 -18.061  1.00  0.00    -0.206 F 
ATOM     97  C   UNL     1     -15.722   9.162 -17.916  1.00  0.00     0.022 A 
BRANCH  94  98
ATOM     98  S   UNL     1     -15.332   6.531 -17.129  1.00  0.00     0.124 S 
ATOM     99  O   UNL     1     -14.243   5.752 -17.705  1.00  0.00    -0.237 OA
ATOM    100  O   UNL     1     -15.478   6.452 -15.678  1.00  0.00    -0.237 OA
ATOM    101  O   UNL     1     -16.594   6.454 -17.869  1.00  0.00    -0.744 OA
ENDBRANCH  94  98
ENDBRANCH  68  91
ENDBRANCH  42  43
ENDBRANCH  35  37
ENDBRANCH  34  35
ENDBRANCH  33  34
ENDBRANCH  32  33
ENDBRANCH  31  32
ENDBRANCH  30  31
ENDBRANCH  29  30
ENDBRANCH  28  29
ENDBRANCH   1  28
TORSDOF 27
