REMARK SMILES O=C(OCCOCCOCCOCCOC(=O)[C@@H](Cc1ccccc1)N1C(=O)/C(=C/c2ccncc2)SC1=S)c1ccc(-c2c3nc(c(-c4cc(S(=O)(=O)[O-])ccc4F)c4ccc([nH]4)c(-c4cc(S(=O)(=O)[O-])ccc4F)c4nc(c(-c5cc(S(=O)(=O)[O-])ccc5F)c5ccc2[nH]5)C=C4)C=C3)cc1
REMARK SMILES IDX 8 1 7 2 6 3 5 4 4 5 3 6 2 7 1 8 40 9 41 10 102 11 42 12
REMARK SMILES IDX 101 13 43 14 44 15 45 16 95 17 46 18 100 19 94 20 96 21
REMARK SMILES IDX 47 22 99 23 93 24 92 25 48 27 80 28 60 29 79 30 61 31 64 32
REMARK SMILES IDX 78 33 97 34 62 35 63 36 77 38 98 39 65 40 49 41 50 42 58 43
REMARK SMILES IDX 51 44 57 45 59 46 56 47 52 48 53 49 54 50 55 51 81 52 82 53
REMARK SMILES IDX 90 54 83 55 89 56 91 57 88 58 84 59 85 60 86 61 87 62 66 63
REMARK SMILES IDX 67 64 75 65 68 66 74 67 76 68 73 69 69 70 70 71 71 72 72 73
REMARK SMILES IDX 9 74 10 75 11 76 12 77 13 78 14 79 15 80 16 81 17 82 18 83
REMARK SMILES IDX 19 84 20 85 21 86 25 87 22 88 24 89 23 90 26 91 27 92 38 93
REMARK SMILES IDX 28 94 29 95 37 96 39 97 30 98 31 99 32 100 36 101 33 102
REMARK SMILES IDX 35 103 34 104
REMARK H PARENT 96 26 64 37
REMARK Flexibility Score: inf
ROOT
ATOM      1  C   UNL     1       2.712   2.626   0.338  1.00  0.00     0.188 C 
ENDROOT
BRANCH   1   2
ATOM      2  C   UNL     1       2.777   1.348  -0.474  1.00  0.00     0.188 C 
BRANCH   2   3
ATOM      3  O   UNL     1       4.052   0.775  -0.243  1.00  0.00    -0.376 OA
BRANCH   3   4
ATOM      4  C   UNL     1       4.688   0.196  -1.371  1.00  0.00     0.202 C 
BRANCH   4   5
ATOM      5  C   UNL     1       4.223  -1.236  -1.636  1.00  0.00     0.261 C 
BRANCH   5   6
ATOM      6  O   UNL     1       2.834  -1.439  -1.312  1.00  0.00    -0.460 OA
BRANCH   6   7
ATOM      7  C   UNL     1       2.311  -1.946  -0.163  1.00  0.00     0.338 C 
ATOM      8  O   UNL     1       1.113  -2.230  -0.153  1.00  0.00    -0.246 OA
BRANCH   7   9
ATOM      9  C   UNL     1       3.080  -2.137   1.112  1.00  0.00     0.060 A 
ATOM     10  C   UNL     1       4.274  -1.495   1.428  1.00  0.00     0.016 A 
ATOM     11  C   UNL     1       2.521  -2.969   2.100  1.00  0.00     0.016 A 
ATOM     12  C   UNL     1       4.904  -1.650   2.646  1.00  0.00     0.010 A 
ATOM     13  C   UNL     1       3.163  -3.162   3.334  1.00  0.00     0.010 A 
ATOM     14  C   UNL     1       4.372  -2.509   3.595  1.00  0.00    -0.014 A 
BRANCH  14  15
ATOM     15  C   UNL     1       5.287  -2.865   4.693  1.00  0.00     0.031 A 
ATOM     16  C   UNL     1       6.065  -4.138   4.538  1.00  0.00     0.074 A 
ATOM     17  C   UNL     1       5.609  -1.942   5.617  1.00  0.00     0.049 A 
ATOM     18  N   UNL     1       6.949  -4.675   5.330  1.00  0.00    -0.248 NA
ATOM     19  C   UNL     1       5.835  -4.894   3.292  1.00  0.00     0.031 C 
ATOM     20  C   UNL     1       5.048  -0.587   5.683  1.00  0.00     0.029 A 
ATOM     21  N   UNL     1       6.525  -1.971   6.633  1.00  0.00    -0.354 N 
ATOM     22  C   UNL     1       7.368  -5.836   4.689  1.00  0.00     0.074 A 
ATOM     23  C   UNL     1       6.631  -5.936   3.451  1.00  0.00     0.031 C 
ATOM     24  C   UNL     1       5.645   0.086   6.681  1.00  0.00     0.029 A 
ATOM     25  C   UNL     1       6.564  -0.810   7.372  1.00  0.00     0.049 A 
ATOM     26  H   UNL     1       7.100  -2.748   6.819  1.00  0.00     0.167 HD
ATOM     27  C   UNL     1       8.287  -6.736   5.110  1.00  0.00     0.034 A 
ATOM     28  C   UNL     1       7.236  -0.537   8.508  1.00  0.00     0.034 A 
ATOM     29  C   UNL     1       8.972  -6.599   6.368  1.00  0.00     0.049 A 
ATOM     30  C   UNL     1       8.127  -1.630   9.051  1.00  0.00     0.074 A 
ATOM     31  C   UNL     1       9.796  -7.497   7.017  1.00  0.00     0.029 A 
ATOM     32  N   UNL     1       8.899  -5.465   7.173  1.00  0.00    -0.354 N 
ATOM     33  N   UNL     1       8.406  -2.805   8.525  1.00  0.00    -0.248 NA
ATOM     34  C   UNL     1       8.784  -1.375  10.335  1.00  0.00     0.031 C 
ATOM     35  C   UNL     1      10.176  -6.927   8.239  1.00  0.00     0.029 A 
ATOM     36  C   UNL     1       9.651  -5.644   8.319  1.00  0.00     0.049 A 
ATOM     37  H   UNL     1       8.386  -4.653   6.957  1.00  0.00     0.167 HD
ATOM     38  C   UNL     1       9.282  -3.422   9.410  1.00  0.00     0.074 A 
ATOM     39  C   UNL     1       9.512  -2.471  10.482  1.00  0.00     0.031 C 
ATOM     40  C   UNL     1       9.841  -4.660   9.360  1.00  0.00     0.034 A 
BRANCH  27  41
ATOM     41  C   UNL     1       8.474  -7.962   4.252  1.00  0.00     0.023 A 
ATOM     42  C   UNL     1       9.002  -7.884   2.949  1.00  0.00     0.031 A 
ATOM     43  C   UNL     1       7.992  -9.207   4.693  1.00  0.00     0.131 A 
ATOM     44  C   UNL     1       8.953  -9.007   2.107  1.00  0.00     0.055 A 
ATOM     45  C   UNL     1       8.022 -10.340   3.877  1.00  0.00     0.041 A 
ATOM     46  F   UNL     1       7.441  -9.333   5.911  1.00  0.00    -0.206 F 
ATOM     47  C   UNL     1       8.488 -10.240   2.570  1.00  0.00     0.022 A 
BRANCH  44  48
ATOM     48  S   UNL     1       9.348  -8.795   0.347  1.00  0.00     0.124 S 
ATOM     49  O   UNL     1       8.312  -7.854  -0.075  1.00  0.00    -0.237 OA
ATOM     50  O   UNL     1      10.707  -8.271   0.387  1.00  0.00    -0.237 OA
ATOM     51  O   UNL     1       9.214 -10.143  -0.200  1.00  0.00    -0.744 OA
ENDBRANCH  44  48
ENDBRANCH  27  41
BRANCH  28  52
ATOM     52  C   UNL     1       7.013   0.740   9.256  1.00  0.00     0.023 A 
ATOM     53  C   UNL     1       8.072   1.593   9.605  1.00  0.00     0.031 A 
ATOM     54  C   UNL     1       5.724   1.085   9.713  1.00  0.00     0.131 A 
ATOM     55  C   UNL     1       7.835   2.710  10.427  1.00  0.00     0.055 A 
ATOM     56  C   UNL     1       5.483   2.232  10.472  1.00  0.00     0.041 A 
ATOM     57  F   UNL     1       4.668   0.305   9.431  1.00  0.00    -0.206 F 
ATOM     58  C   UNL     1       6.546   3.042  10.850  1.00  0.00     0.022 A 
BRANCH  55  59
ATOM     59  S   UNL     1       9.254   3.656  11.047  1.00  0.00     0.124 S 
ATOM     60  O   UNL     1      10.067   2.610  11.656  1.00  0.00    -0.237 OA
ATOM     61  O   UNL     1       9.781   4.247   9.822  1.00  0.00    -0.237 OA
ATOM     62  O   UNL     1       8.650   4.602  11.984  1.00  0.00    -0.744 OA
ENDBRANCH  55  59
ENDBRANCH  28  52
BRANCH  40  63
ATOM     63  C   UNL     1      10.776  -5.014  10.485  1.00  0.00     0.023 A 
ATOM     64  C   UNL     1      10.310  -5.175  11.800  1.00  0.00     0.031 A 
ATOM     65  C   UNL     1      12.149  -5.175  10.237  1.00  0.00     0.131 A 
ATOM     66  C   UNL     1      11.223  -5.421  12.833  1.00  0.00     0.055 A 
ATOM     67  C   UNL     1      13.043  -5.489  11.258  1.00  0.00     0.041 A 
ATOM     68  F   UNL     1      12.641  -5.031   8.996  1.00  0.00    -0.206 F 
ATOM     69  C   UNL     1      12.584  -5.597  12.568  1.00  0.00     0.022 A 
BRANCH  66  70
ATOM     70  S   UNL     1      10.620  -5.397  14.542  1.00  0.00     0.124 S 
ATOM     71  O   UNL     1      10.046  -4.059  14.642  1.00  0.00    -0.237 OA
ATOM     72  O   UNL     1       9.666  -6.502  14.551  1.00  0.00    -0.237 OA
ATOM     73  O   UNL     1      11.829  -5.616  15.334  1.00  0.00    -0.744 OA
ENDBRANCH  66  70
ENDBRANCH  40  63
ENDBRANCH  14  15
ENDBRANCH   7   9
ENDBRANCH   6   7
ENDBRANCH   5   6
ENDBRANCH   4   5
ENDBRANCH   3   4
ENDBRANCH   2   3
ENDBRANCH   1   2
BRANCH   1  74
ATOM     74  O   UNL     1       3.747   3.549  -0.013  1.00  0.00    -0.377 OA
BRANCH  74  75
ATOM     75  C   UNL     1       5.082   3.303   0.422  1.00  0.00     0.188 C 
BRANCH  75  76
ATOM     76  C   UNL     1       5.381   3.381   1.925  1.00  0.00     0.188 C 
BRANCH  76  77
ATOM     77  O   UNL     1       4.295   3.003   2.737  1.00  0.00    -0.376 OA
BRANCH  77  78
ATOM     78  C   UNL     1       3.497   4.016   3.336  1.00  0.00     0.202 C 
BRANCH  78  79
ATOM     79  C   UNL     1       3.345   5.443   2.764  1.00  0.00     0.261 C 
BRANCH  79  80
ATOM     80  O   UNL     1       3.411   5.607   1.334  1.00  0.00    -0.462 OA
BRANCH  80  81
ATOM     81  C   UNL     1       4.453   6.342   0.883  1.00  0.00     0.329 C 
ATOM     82  O   UNL     1       5.288   6.855   1.634  1.00  0.00    -0.250 OA
BRANCH  81  83
ATOM     83  C   UNL     1       4.528   6.651  -0.626  1.00  0.00     0.206 C 
BRANCH  83  84
ATOM     84  C   UNL     1       3.999   5.877  -1.869  1.00  0.00     0.073 C 
BRANCH  84  85
ATOM     85  C   UNL     1       2.547   5.581  -2.179  1.00  0.00    -0.045 A 
ATOM     86  C   UNL     1       1.572   6.559  -2.361  1.00  0.00     0.004 A 
ATOM     87  C   UNL     1       2.155   4.255  -2.410  1.00  0.00     0.004 A 
ATOM     88  C   UNL     1       0.224   6.219  -2.520  1.00  0.00     0.000 A 
ATOM     89  C   UNL     1       0.814   3.898  -2.572  1.00  0.00     0.000 A 
ATOM     90  C   UNL     1      -0.161   4.885  -2.582  1.00  0.00     0.000 A 
ENDBRANCH  84  85
ENDBRANCH  83  84
BRANCH  83  91
ATOM     91  N   UNL     1       4.322   8.099  -0.715  1.00  0.00    -0.278 N 
ATOM     92  C   UNL     1       3.069   8.572  -0.405  1.00  0.00     0.267 C 
ATOM     93  C   UNL     1       5.283   9.052  -0.974  1.00  0.00     0.149 C 
ATOM     94  O   UNL     1       2.163   7.971   0.145  1.00  0.00    -0.268 OA
ATOM     95  C   UNL     1       2.961   9.971  -0.839  1.00  0.00     0.081 C 
ATOM     96  S   UNL     1       4.521  10.645  -1.017  1.00  0.00    -0.054 SA
ATOM     97  S   UNL     1       6.907   8.846  -1.286  1.00  0.00    -0.052 S 
ATOM     98  C   UNL     1       1.747  10.466  -1.093  1.00  0.00     0.029 C 
BRANCH  98  99
ATOM     99  C   UNL     1       1.432  11.832  -1.483  1.00  0.00    -0.021 A 
ATOM    100  C   UNL     1       2.078  12.504  -2.517  1.00  0.00     0.028 A 
ATOM    101  C   UNL     1       0.430  12.479  -0.764  1.00  0.00     0.028 A 
ATOM    102  C   UNL     1       1.738  13.825  -2.740  1.00  0.00     0.111 A 
ATOM    103  C   UNL     1       0.157  13.796  -1.069  1.00  0.00     0.111 A 
ATOM    104  N   UNL     1       0.793  14.488  -2.039  1.00  0.00    -0.265 NA
ENDBRANCH  98  99
ENDBRANCH  83  91
ENDBRANCH  81  83
ENDBRANCH  80  81
ENDBRANCH  79  80
ENDBRANCH  78  79
ENDBRANCH  77  78
ENDBRANCH  76  77
ENDBRANCH  75  76
ENDBRANCH  74  75
ENDBRANCH   1  74
TORSDOF 27
