REMARK SMILES COc1ccc2c(c1)c(CC(=O)OCCOCCOCCOCCOC(=O)c1ccc(-c3c4nc(c(-c5cc(S(=O)(=O)[O-])ccc5F)c5ccc([nH]5)c(-c5cc(S(=O)(=O)[O-])ccc5F)c5nc(c(-c6cc(S(=O)(=O)[O-])ccc6F)c6ccc3[nH]6)C=C5)C=C4)cc1)c(C)n2C(=O)c1ccc(Cl)cc1
REMARK SMILES IDX 19 1 18 2 17 3 16 4 15 5 14 6 13 7 11 8 12 9 10 10 9 11 3 12
REMARK SMILES IDX 4 13 8 14 5 15 7 16 6 17 93 18 91 19 92 20 2 21 1 22 94 23
REMARK SMILES IDX 95 24 96 25 97 26 102 27 98 28 101 29 99 30 100 31 20 32
REMARK SMILES IDX 21 33 22 34 23 35 24 36 25 37 26 38 27 39 28 40 29 41 90 42
REMARK SMILES IDX 30 43 89 44 31 45 32 46 33 47 83 48 34 49 88 50 82 51 84 52
REMARK SMILES IDX 35 53 87 54 81 55 80 56 36 58 68 59 48 60 67 61 49 62 52 63
REMARK SMILES IDX 66 64 85 65 50 66 51 67 65 69 86 70 53 71 37 72 38 73 46 74
REMARK SMILES IDX 39 75 45 76 47 77 44 78 40 79 41 80 42 81 43 82 69 83 70 84
REMARK SMILES IDX 78 85 71 86 77 87 79 88 76 89 72 90 73 91 74 92 75 93 54 94
REMARK SMILES IDX 55 95 63 96 56 97 62 98 64 99 61 100 57 101 58 102 59 103
REMARK SMILES IDX 60 104
REMARK H PARENT 84 57 52 68
REMARK Flexibility Score: inf
ROOT
ATOM      1  O   UNL     1       0.226   1.478   4.026  1.00  0.00    -0.377 OA
ENDROOT
BRANCH   1   2
ATOM      2  C   UNL     1      -0.867   0.619   4.184  1.00  0.00     0.188 C 
BRANCH   2   3
ATOM      3  C   UNL     1      -2.259   0.972   3.664  1.00  0.00     0.188 C 
BRANCH   3   4
ATOM      4  O   UNL     1      -3.312   1.068   4.624  1.00  0.00    -0.376 OA
BRANCH   4   5
ATOM      5  C   UNL     1      -3.125   1.978   5.698  1.00  0.00     0.202 C 
BRANCH   5   6
ATOM      6  C   UNL     1      -2.711   1.284   7.014  1.00  0.00     0.261 C 
BRANCH   6   7
ATOM      7  O   UNL     1      -2.051   0.003   6.827  1.00  0.00    -0.463 OA
BRANCH   7   8
ATOM      8  C   UNL     1      -2.859  -1.050   6.546  1.00  0.00     0.310 C 
ATOM      9  O   UNL     1      -4.082  -1.014   6.688  1.00  0.00    -0.252 OA
BRANCH   8  10
ATOM     10  C   UNL     1      -2.190  -2.314   6.006  1.00  0.00     0.160 C 
BRANCH  10  11
ATOM     11  C   UNL     1      -0.695  -2.418   5.735  1.00  0.00    -0.008 A 
ATOM     12  C   UNL     1       0.365  -2.161   2.043  1.00  0.00     0.119 A 
ATOM     13  C   UNL     1       1.726  -2.204   2.271  1.00  0.00     0.048 A 
ATOM     14  C   UNL     1      -0.523  -2.412   3.104  1.00  0.00     0.057 A 
ATOM     15  C   UNL     1       2.217  -2.410   3.560  1.00  0.00     0.031 A 
ATOM     16  C   UNL     1      -0.050  -2.480   4.448  1.00  0.00     0.008 A 
ATOM     17  C   UNL     1       1.335  -2.507   4.661  1.00  0.00     0.057 A 
ATOM     18  N   UNL     1       1.562  -2.661   6.042  1.00  0.00    -0.280 N 
ATOM     19  C   UNL     1       0.310  -2.600   6.684  1.00  0.00     0.028 A 
ATOM     20  C   UNL     1       0.099  -2.699   8.164  1.00  0.00     0.065 C 
BRANCH  12  21
ATOM     21  O   UNL     1      -0.206  -1.827   0.843  1.00  0.00    -0.497 OA
ATOM     22  C   UNL     1       0.575  -1.007  -0.032  1.00  0.00     0.278 C 
ENDBRANCH  12  21
BRANCH  18  23
ATOM     23  C   UNL     1       2.837  -2.881   6.653  1.00  0.00     0.262 C 
ATOM     24  O   UNL     1       2.901  -3.175   7.845  1.00  0.00    -0.268 OA
BRANCH  23  25
ATOM     25  C   UNL     1       4.135  -2.857   5.955  1.00  0.00     0.040 A 
ATOM     26  C   UNL     1       4.750  -1.637   5.647  1.00  0.00     0.015 A 
ATOM     27  C   UNL     1       4.729  -4.071   5.585  1.00  0.00     0.015 A 
ATOM     28  C   UNL     1       5.933  -1.635   4.900  1.00  0.00     0.021 A 
ATOM     29  C   UNL     1       5.913  -4.062   4.844  1.00  0.00     0.021 A 
ATOM     30  C   UNL     1       6.501  -2.845   4.493  1.00  0.00     0.041 A 
ATOM     31  Cl  UNL     1       7.928  -2.839   3.530  1.00  0.00    -0.084 Cl
ENDBRANCH  23  25
ENDBRANCH  18  23
ENDBRANCH  10  11
ENDBRANCH   8  10
ENDBRANCH   7   8
ENDBRANCH   6   7
ENDBRANCH   5   6
ENDBRANCH   4   5
ENDBRANCH   3   4
ENDBRANCH   2   3
ENDBRANCH   1   2
BRANCH   1  32
ATOM     32  C   UNL     1       0.057   2.800   4.423  1.00  0.00     0.188 C 
BRANCH  32  33
ATOM     33  C   UNL     1      -0.242   3.742   3.256  1.00  0.00     0.188 C 
BRANCH  33  34
ATOM     34  O   UNL     1      -0.068   3.337   1.900  1.00  0.00    -0.376 OA
BRANCH  34  35
ATOM     35  C   UNL     1       0.803   2.273   1.550  1.00  0.00     0.202 C 
BRANCH  35  36
ATOM     36  C   UNL     1       2.311   2.346   1.876  1.00  0.00     0.261 C 
BRANCH  36  37
ATOM     37  O   UNL     1       2.616   2.864   3.171  1.00  0.00    -0.460 OA
BRANCH  37  38
ATOM     38  C   UNL     1       3.507   3.897   3.249  1.00  0.00     0.338 C 
ATOM     39  O   UNL     1       4.268   4.284   2.413  1.00  0.00    -0.246 OA
BRANCH  38  40
ATOM     40  C   UNL     1       3.092   4.629   4.473  1.00  0.00     0.060 A 
ATOM     41  C   UNL     1       3.068   3.989   5.718  1.00  0.00     0.016 A 
ATOM     42  C   UNL     1       2.355   5.796   4.243  1.00  0.00     0.016 A 
ATOM     43  C   UNL     1       2.161   4.433   6.679  1.00  0.00     0.010 A 
ATOM     44  C   UNL     1       1.418   6.204   5.186  1.00  0.00     0.010 A 
ATOM     45  C   UNL     1       1.276   5.484   6.376  1.00  0.00    -0.014 A 
BRANCH  45  46
ATOM     46  C   UNL     1       0.385   5.969   7.434  1.00  0.00     0.031 A 
ATOM     47  C   UNL     1       1.147   6.731   8.449  1.00  0.00     0.074 A 
ATOM     48  C   UNL     1      -0.963   5.941   7.460  1.00  0.00     0.049 A 
ATOM     49  N   UNL     1       1.367   6.424   9.684  1.00  0.00    -0.248 NA
ATOM     50  C   UNL     1       1.939   7.867   7.948  1.00  0.00     0.031 C 
ATOM     51  C   UNL     1      -1.862   5.563   6.372  1.00  0.00     0.029 A 
ATOM     52  N   UNL     1      -1.827   6.380   8.430  1.00  0.00    -0.354 N 
ATOM     53  C   UNL     1       2.176   7.450  10.162  1.00  0.00     0.074 A 
ATOM     54  C   UNL     1       2.702   8.124   9.005  1.00  0.00     0.031 C 
ATOM     55  C   UNL     1      -3.112   5.991   6.653  1.00  0.00     0.029 A 
ATOM     56  C   UNL     1      -3.118   6.616   7.966  1.00  0.00     0.049 A 
ATOM     57  H   UNL     1      -1.559   6.515   9.367  1.00  0.00     0.167 HD
ATOM     58  C   UNL     1       2.133   7.864  11.458  1.00  0.00     0.034 A 
ATOM     59  C   UNL     1      -4.069   7.406   8.534  1.00  0.00     0.034 A 
ATOM     60  C   UNL     1       1.482   6.899  12.299  1.00  0.00     0.049 A 
ATOM     61  C   UNL     1      -3.707   7.640   9.953  1.00  0.00     0.074 A 
ATOM     62  C   UNL     1       1.705   5.569  12.595  1.00  0.00     0.029 A 
ATOM     63  N   UNL     1       0.201   7.172  12.712  1.00  0.00    -0.354 N 
ATOM     64  N   UNL     1      -3.740   6.731  10.885  1.00  0.00    -0.248 NA
ATOM     65  C   UNL     1      -2.889   8.808  10.247  1.00  0.00     0.031 C 
ATOM     66  C   UNL     1       0.412   5.001  12.755  1.00  0.00     0.029 A 
ATOM     67  C   UNL     1      -0.529   6.020  12.596  1.00  0.00     0.049 A 
ATOM     68  H   UNL     1      -0.132   8.041  13.034  1.00  0.00     0.167 HD
ATOM     69  C   UNL     1      -2.608   6.981  11.645  1.00  0.00     0.074 A 
ATOM     70  C   UNL     1      -2.186   8.328  11.274  1.00  0.00     0.031 C 
ATOM     71  C   UNL     1      -1.943   5.974  12.282  1.00  0.00     0.034 A 
BRANCH  58  72
ATOM     72  C   UNL     1       2.360   9.301  11.862  1.00  0.00     0.023 A 
ATOM     73  C   UNL     1       2.371  10.364  10.938  1.00  0.00     0.031 A 
ATOM     74  C   UNL     1       2.365   9.674  13.216  1.00  0.00     0.131 A 
ATOM     75  C   UNL     1       2.442  11.701  11.338  1.00  0.00     0.055 A 
ATOM     76  C   UNL     1       2.348  11.015  13.624  1.00  0.00     0.041 A 
ATOM     77  F   UNL     1       2.325   8.748  14.187  1.00  0.00    -0.206 F 
ATOM     78  C   UNL     1       2.396  12.038  12.682  1.00  0.00     0.022 A 
BRANCH  75  79
ATOM     79  S   UNL     1       2.599  13.010  10.092  1.00  0.00     0.124 S 
ATOM     80  O   UNL     1       1.369  13.766  10.296  1.00  0.00    -0.237 OA
ATOM     81  O   UNL     1       3.831  13.672  10.512  1.00  0.00    -0.237 OA
ATOM     82  O   UNL     1       2.694  12.275   8.833  1.00  0.00    -0.744 OA
ENDBRANCH  75  79
ENDBRANCH  58  72
BRANCH  59  83
ATOM     83  C   UNL     1      -4.958   8.346   7.794  1.00  0.00     0.023 A 
ATOM     84  C   UNL     1      -4.577   8.810   6.522  1.00  0.00     0.031 A 
ATOM     85  C   UNL     1      -6.023   9.018   8.419  1.00  0.00     0.131 A 
ATOM     86  C   UNL     1      -5.205   9.911   5.929  1.00  0.00     0.055 A 
ATOM     87  C   UNL     1      -6.662  10.117   7.822  1.00  0.00     0.041 A 
ATOM     88  F   UNL     1      -6.422   8.667   9.651  1.00  0.00    -0.206 F 
ATOM     89  C   UNL     1      -6.247  10.574   6.572  1.00  0.00     0.022 A 
BRANCH  86  90
ATOM     90  S   UNL     1      -4.609  10.517   4.328  1.00  0.00     0.124 S 
ATOM     91  O   UNL     1      -5.849  10.873   3.642  1.00  0.00    -0.237 OA
ATOM     92  O   UNL     1      -3.765  11.635   4.731  1.00  0.00    -0.237 OA
ATOM     93  O   UNL     1      -3.910   9.361   3.772  1.00  0.00    -0.744 OA
ENDBRANCH  86  90
ENDBRANCH  59  83
BRANCH  71  94
ATOM     94  C   UNL     1      -2.603   4.625  12.445  1.00  0.00     0.023 A 
ATOM     95  C   UNL     1      -2.528   4.047  13.726  1.00  0.00     0.031 A 
ATOM     96  C   UNL     1      -3.047   3.812  11.386  1.00  0.00     0.131 A 
ATOM     97  C   UNL     1      -2.821   2.693  13.912  1.00  0.00     0.055 A 
ATOM     98  C   UNL     1      -3.417   2.478  11.592  1.00  0.00     0.041 A 
ATOM     99  F   UNL     1      -3.042   4.242  10.116  1.00  0.00    -0.206 F 
ATOM    100  C   UNL     1      -3.282   1.906  12.854  1.00  0.00     0.022 A 
BRANCH  97 101
ATOM    101  S   UNL     1      -2.423   1.887  15.485  1.00  0.00     0.124 S 
ATOM    102  O   UNL     1      -3.746   1.555  16.005  1.00  0.00    -0.237 OA
ATOM    103  O   UNL     1      -1.613   0.748  15.055  1.00  0.00    -0.237 OA
ATOM    104  O   UNL     1      -1.696   2.910  16.232  1.00  0.00    -0.744 OA
ENDBRANCH  97 101
ENDBRANCH  71  94
ENDBRANCH  45  46
ENDBRANCH  38  40
ENDBRANCH  37  38
ENDBRANCH  36  37
ENDBRANCH  35  36
ENDBRANCH  34  35
ENDBRANCH  33  34
ENDBRANCH  32  33
ENDBRANCH   1  32
TORSDOF 27
