REMARK SMILES CC(C)C[C@@H](NC(=O)Cn1nc(O)ccc1=O)C(=O)OCCOCCOCCOCCOC(=O)c1ccc(-c2c3nc(c(-c4cc(S(=O)(=O)[O-])ccc4F)c4ccc([nH]4)c(-c4cc(S(=O)(=O)[O-])ccc4F)c4nc(c(-c5cc(S(=O)(=O)[O-])ccc5F)c5ccc2[nH]5)C=C4)C=C3)cc1
REMARK SMILES IDX 25 1 24 2 23 3 22 4 21 5 20 6 18 7 19 8 5 9 4 10 2 11 1 12
REMARK SMILES IDX 3 13 6 14 7 15 8 17 9 18 10 19 11 20 16 21 12 22 15 23 17 24
REMARK SMILES IDX 14 25 13 26 26 28 27 29 28 30 29 31 30 32 31 33 32 34 33 35
REMARK SMILES IDX 34 36 35 37 36 38 97 39 37 40 96 41 38 42 39 43 40 44 90 45
REMARK SMILES IDX 41 46 95 47 89 48 91 49 42 50 94 51 88 52 87 53 43 55 75 56
REMARK SMILES IDX 55 57 74 58 56 59 59 60 73 61 92 62 57 63 58 64 72 66 93 67
REMARK SMILES IDX 60 68 44 69 45 70 53 71 46 72 52 73 54 74 51 75 47 76 48 77
REMARK SMILES IDX 49 78 50 79 76 80 77 81 85 82 78 83 84 84 86 85 83 86 79 87
REMARK SMILES IDX 80 88 81 89 82 90 61 91 62 92 70 93 63 94 69 95 71 96 68 97
REMARK SMILES IDX 64 98 65 99 66 100 67 101
REMARK H PARENT 6 16 13 27 91 54 59 65
REMARK Flexibility Score: inf
ROOT
ATOM      1  C   UNL     1      -3.484  -1.475  -1.025  1.00  0.00     0.188 C 
ENDROOT
BRANCH   1   2
ATOM      2  C   UNL     1      -3.898  -1.071   0.392  1.00  0.00     0.188 C 
BRANCH   2   3
ATOM      3  O   UNL     1      -5.256  -0.762   0.661  1.00  0.00    -0.376 OA
BRANCH   3   4
ATOM      4  C   UNL     1      -5.709   0.590   0.545  1.00  0.00     0.202 C 
BRANCH   4   5
ATOM      5  C   UNL     1      -4.932   1.683   1.274  1.00  0.00     0.261 C 
BRANCH   5   6
ATOM      6  O   UNL     1      -3.624   1.831   0.693  1.00  0.00    -0.462 OA
BRANCH   6   7
ATOM      7  C   UNL     1      -2.600   2.065   1.546  1.00  0.00     0.328 C 
ATOM      8  O   UNL     1      -2.727   2.170   2.762  1.00  0.00    -0.250 OA
BRANCH   7   9
ATOM      9  C   UNL     1      -1.251   2.264   0.829  1.00  0.00     0.192 C 
BRANCH   9  10
ATOM     10  C   UNL     1      -0.951   1.436  -0.437  1.00  0.00     0.040 C 
BRANCH  10  11
ATOM     11  C   UNL     1       0.552   1.138  -0.696  1.00  0.00    -0.015 C 
ATOM     12  C   UNL     1       1.158   0.170   0.327  1.00  0.00     0.007 C 
ATOM     13  C   UNL     1       0.747   0.534  -2.095  1.00  0.00     0.007 C 
ENDBRANCH  10  11
ENDBRANCH   9  10
BRANCH   9  14
ATOM     14  N   UNL     1      -0.803   3.654   0.762  1.00  0.00    -0.341 N 
ATOM     15  C   UNL     1      -1.322   4.784   0.205  1.00  0.00     0.242 C 
ATOM     16  H   UNL     1       0.058   3.806   1.216  1.00  0.00     0.164 HD
ATOM     17  O   UNL     1      -0.550   5.749   0.158  1.00  0.00    -0.273 OA
BRANCH  15  18
ATOM     18  C   UNL     1      -2.774   4.908  -0.264  1.00  0.00     0.248 C 
BRANCH  18  19
ATOM     19  N   UNL     1      -3.009   4.369  -1.595  1.00  0.00    -0.217 N 
ATOM     20  N   UNL     1      -3.495   3.080  -1.662  1.00  0.00    -0.131 NA
ATOM     21  C   UNL     1      -2.858   5.183  -2.720  1.00  0.00     0.267 A 
ATOM     22  C   UNL     1      -3.656   2.614  -2.843  1.00  0.00     0.229 A 
ATOM     23  C   UNL     1      -3.003   4.507  -4.034  1.00  0.00     0.079 A 
ATOM     24  O   UNL     1      -2.588   6.378  -2.691  1.00  0.00    -0.268 OA
ATOM     25  C   UNL     1      -3.357   3.227  -4.112  1.00  0.00     0.075 A 
BRANCH  22  26
ATOM     26  O   UNL     1      -4.147   1.397  -3.032  1.00  0.00    -0.492 OA
ATOM     27  H   UNL     1      -4.391   0.871  -2.296  1.00  0.00     0.295 HD
ENDBRANCH  22  26
ENDBRANCH  18  19
ENDBRANCH  15  18
ENDBRANCH   9  14
ENDBRANCH   7   9
ENDBRANCH   6   7
ENDBRANCH   5   6
ENDBRANCH   4   5
ENDBRANCH   3   4
ENDBRANCH   2   3
ENDBRANCH   1   2
BRANCH   1  28
ATOM     28  O   UNL     1      -4.177  -0.929  -2.121  1.00  0.00    -0.377 OA
BRANCH  28  29
ATOM     29  C   UNL     1      -5.566  -1.162  -2.309  1.00  0.00     0.188 C 
BRANCH  29  30
ATOM     30  C   UNL     1      -6.237  -2.476  -1.915  1.00  0.00     0.188 C 
BRANCH  30  31
ATOM     31  O   UNL     1      -5.364  -3.409  -1.314  1.00  0.00    -0.376 OA
BRANCH  31  32
ATOM     32  C   UNL     1      -4.933  -4.470  -2.154  1.00  0.00     0.202 C 
BRANCH  32  33
ATOM     33  C   UNL     1      -4.062  -4.148  -3.386  1.00  0.00     0.261 C 
BRANCH  33  34
ATOM     34  O   UNL     1      -4.456  -3.071  -4.254  1.00  0.00    -0.460 OA
BRANCH  34  35
ATOM     35  C   UNL     1      -5.530  -3.229  -5.059  1.00  0.00     0.338 C 
ATOM     36  O   UNL     1      -6.296  -4.179  -5.061  1.00  0.00    -0.246 OA
BRANCH  35  37
ATOM     37  C   UNL     1      -5.702  -1.971  -5.835  1.00  0.00     0.060 A 
ATOM     38  C   UNL     1      -4.689  -1.514  -6.683  1.00  0.00     0.016 A 
ATOM     39  C   UNL     1      -6.869  -1.211  -5.679  1.00  0.00     0.016 A 
ATOM     40  C   UNL     1      -4.847  -0.303  -7.376  1.00  0.00     0.010 A 
ATOM     41  C   UNL     1      -7.013   0.013  -6.351  1.00  0.00     0.010 A 
ATOM     42  C   UNL     1      -6.012   0.473  -7.221  1.00  0.00    -0.014 A 
BRANCH  42  43
ATOM     43  C   UNL     1      -6.283   1.613  -8.145  1.00  0.00     0.031 A 
ATOM     44  C   UNL     1      -6.133   3.055  -7.760  1.00  0.00     0.074 A 
ATOM     45  C   UNL     1      -6.742   1.317  -9.375  1.00  0.00     0.049 A 
ATOM     46  N   UNL     1      -6.165   4.116  -8.528  1.00  0.00    -0.248 NA
ATOM     47  C   UNL     1      -5.928   3.352  -6.340  1.00  0.00     0.031 C 
ATOM     48  C   UNL     1      -7.005  -0.039  -9.851  1.00  0.00     0.029 A 
ATOM     49  N   UNL     1      -7.087   2.122 -10.433  1.00  0.00    -0.354 N 
ATOM     50  C   UNL     1      -5.936   5.206  -7.696  1.00  0.00     0.074 A 
ATOM     51  C   UNL     1      -5.813   4.677  -6.354  1.00  0.00     0.031 C 
ATOM     52  C   UNL     1      -7.469   0.024 -11.105  1.00  0.00     0.029 A 
ATOM     53  C   UNL     1      -7.564   1.425 -11.516  1.00  0.00     0.049 A 
ATOM     54  H   UNL     1      -7.000   3.102 -10.416  1.00  0.00     0.167 HD
ATOM     55  C   UNL     1      -5.843   6.519  -8.025  1.00  0.00     0.034 A 
ATOM     56  C   UNL     1      -8.034   1.850 -12.707  1.00  0.00     0.034 A 
ATOM     57  C   UNL     1      -6.084   7.035  -9.351  1.00  0.00     0.049 A 
ATOM     58  C   UNL     1      -7.994   3.316 -13.040  1.00  0.00     0.074 A 
ATOM     59  C   UNL     1      -5.941   8.339  -9.796  1.00  0.00     0.029 A 
ATOM     60  N   UNL     1      -6.584   6.305 -10.419  1.00  0.00    -0.354 N 
ATOM     61  N   UNL     1      -7.557   4.311 -12.305  1.00  0.00    -0.248 NA
ATOM     62  C   UNL     1      -8.488   3.723 -14.363  1.00  0.00     0.031 C 
ATOM     63  C   UNL     1      -6.475   8.421 -11.082  1.00  0.00     0.029 A 
ATOM     64  C   UNL     1      -6.835   7.146 -11.492  1.00  0.00     0.049 A 
ATOM     65  H   UNL     1      -6.738   5.333 -10.416  1.00  0.00     0.167 HD
ATOM     66  C   UNL     1      -7.699   5.457 -13.083  1.00  0.00     0.074 A 
ATOM     67  C   UNL     1      -8.253   5.031 -14.351  1.00  0.00     0.031 C 
ATOM     68  C   UNL     1      -7.388   6.739 -12.765  1.00  0.00     0.034 A 
BRANCH  55  69
ATOM     69  C   UNL     1      -5.472   7.524  -6.957  1.00  0.00     0.023 A 
ATOM     70  C   UNL     1      -6.345   8.584  -6.645  1.00  0.00     0.031 A 
ATOM     71  C   UNL     1      -4.189   7.535  -6.382  1.00  0.00     0.131 A 
ATOM     72  C   UNL     1      -5.913   9.626  -5.811  1.00  0.00     0.055 A 
ATOM     73  C   UNL     1      -3.781   8.547  -5.510  1.00  0.00     0.041 A 
ATOM     74  F   UNL     1      -3.305   6.568  -6.678  1.00  0.00    -0.206 F 
ATOM     75  C   UNL     1      -4.640   9.607  -5.234  1.00  0.00     0.022 A 
BRANCH  72  76
ATOM     76  S   UNL     1      -6.956  11.082  -5.516  1.00  0.00     0.124 S 
ATOM     77  O   UNL     1      -7.146  11.027  -4.068  1.00  0.00    -0.237 OA
ATOM     78  O   UNL     1      -6.108  12.171  -5.993  1.00  0.00    -0.237 OA
ATOM     79  O   UNL     1      -8.153  10.822  -6.307  1.00  0.00    -0.744 OA
ENDBRANCH  72  76
ENDBRANCH  55  69
BRANCH  56  80
ATOM     80  C   UNL     1      -8.508   0.818 -13.672  1.00  0.00     0.023 A 
ATOM     81  C   UNL     1      -9.595  -0.013 -13.342  1.00  0.00     0.031 A 
ATOM     82  C   UNL     1      -7.763   0.516 -14.822  1.00  0.00     0.131 A 
ATOM     83  C   UNL     1      -9.833  -1.172 -14.089  1.00  0.00     0.055 A 
ATOM     84  C   UNL     1      -8.058  -0.596 -15.613  1.00  0.00     0.041 A 
ATOM     85  F   UNL     1      -6.710   1.273 -15.165  1.00  0.00    -0.206 F 
ATOM     86  C   UNL     1      -9.081  -1.461 -15.232  1.00  0.00     0.022 A 
BRANCH  83  87
ATOM     87  S   UNL     1     -10.998  -2.430 -13.495  1.00  0.00     0.124 S 
ATOM     88  O   UNL     1     -11.895  -2.580 -14.636  1.00  0.00    -0.237 OA
ATOM     89  O   UNL     1     -10.106  -3.559 -13.240  1.00  0.00    -0.237 OA
ATOM     90  O   UNL     1     -11.586  -1.823 -12.306  1.00  0.00    -0.744 OA
ENDBRANCH  83  87
ENDBRANCH  56  80
BRANCH  68  91
ATOM     91  C   UNL     1      -7.628   7.836 -13.778  1.00  0.00     0.023 A 
ATOM     92  C   UNL     1      -6.545   8.622 -14.222  1.00  0.00     0.031 A 
ATOM     93  C   UNL     1      -8.926   8.239 -14.132  1.00  0.00     0.131 A 
ATOM     94  C   UNL     1      -6.783   9.811 -14.922  1.00  0.00     0.055 A 
ATOM     95  C   UNL     1      -9.155   9.394 -14.884  1.00  0.00     0.041 A 
ATOM     96  F   UNL     1      -9.994   7.530 -13.731  1.00  0.00    -0.206 F 
ATOM     97  C   UNL     1      -8.083  10.198 -15.262  1.00  0.00     0.022 A 
BRANCH  94  98
ATOM     98  S   UNL     1      -5.428  10.955 -15.307  1.00  0.00     0.124 S 
ATOM     99  O   UNL     1      -5.532  11.069 -16.760  1.00  0.00    -0.237 OA
ATOM    100  O   UNL     1      -5.813  12.149 -14.559  1.00  0.00    -0.237 OA
ATOM    101  O   UNL     1      -4.237  10.266 -14.823  1.00  0.00    -0.744 OA
ENDBRANCH  94  98
ENDBRANCH  68  91
ENDBRANCH  42  43
ENDBRANCH  35  37
ENDBRANCH  34  35
ENDBRANCH  33  34
ENDBRANCH  32  33
ENDBRANCH  31  32
ENDBRANCH  30  31
ENDBRANCH  29  30
ENDBRANCH  28  29
ENDBRANCH   1  28
TORSDOF 29
