REMARK SMILES Cc1ccc(NC(=O)NC2(C(=O)OCCOCCOCCOCCOC(=O)c3ccc(-c4c5nc(c(-c6cc(S(=O)(=O)[O-])ccc6F)c6ccc([nH]6)c(-c6cc(S(=O)(=O)[O-])ccc6F)c6nc(c(-c7cc(S(=O)(=O)[O-])ccc7F)c7ccc4[nH]7)C=C6)C=C5)cc3)CC2)c(C)n1
REMARK SMILES IDX 20 1 19 2 18 3 17 4 16 5 15 6 14 7 13 8 11 9 12 10 10 11
REMARK SMILES IDX 91 12 92 13 9 14 6 15 7 16 8 18 5 20 1 21 2 22 3 23 95 24
REMARK SMILES IDX 4 25 93 26 94 27 21 28 22 29 23 30 24 31 25 32 26 33 27 34
REMARK SMILES IDX 28 35 29 36 90 37 30 38 89 39 31 40 32 41 33 42 83 43 34 44
REMARK SMILES IDX 88 45 82 46 84 47 35 48 87 49 81 50 80 51 36 53 68 54 48 55
REMARK SMILES IDX 67 56 49 57 52 58 66 59 85 60 50 61 51 62 65 64 86 65 53 66
REMARK SMILES IDX 37 67 38 68 46 69 39 70 45 71 47 72 44 73 40 74 41 75 42 76
REMARK SMILES IDX 43 77 69 78 70 79 78 80 71 81 77 82 79 83 76 84 72 85 73 86
REMARK SMILES IDX 74 87 75 88 54 89 55 90 63 91 56 92 62 93 64 94 61 95 57 96
REMARK SMILES IDX 58 97 59 98 60 99
REMARK H PARENT 6 17 9 19 84 52 52 63
REMARK Flexibility Score: inf
ROOT
ATOM      1  C   UNL     1       0.115  -1.796   3.157  1.00  0.00     0.188 C 
ENDROOT
BRANCH   1   2
ATOM      2  O   UNL     1       1.136  -0.872   2.846  1.00  0.00    -0.377 OA
BRANCH   2   3
ATOM      3  C   UNL     1       2.331  -1.306   2.239  1.00  0.00     0.188 C 
BRANCH   3   4
ATOM      4  C   UNL     1       3.597  -1.137   3.081  1.00  0.00     0.188 C 
BRANCH   4   5
ATOM      5  O   UNL     1       3.520  -0.452   4.324  1.00  0.00    -0.376 OA
BRANCH   5   6
ATOM      6  C   UNL     1       2.731   0.731   4.408  1.00  0.00     0.202 C 
BRANCH   6   7
ATOM      7  C   UNL     1       3.050   1.873   3.427  1.00  0.00     0.261 C 
BRANCH   7   8
ATOM      8  O   UNL     1       2.891   1.525   2.034  1.00  0.00    -0.461 OA
BRANCH   8   9
ATOM      9  C   UNL     1       3.726   2.109   1.133  1.00  0.00     0.331 C 
ATOM     10  O   UNL     1       4.682   2.810   1.439  1.00  0.00    -0.249 OA
BRANCH   9  11
ATOM     11  C   UNL     1       3.475   1.706  -0.347  1.00  0.00     0.139 C 
ATOM     12  C   UNL     1       4.059   2.848  -1.230  1.00  0.00     0.043 C 
ATOM     13  C   UNL     1       2.683   2.394  -1.466  1.00  0.00     0.043 C 
BRANCH  11  14
ATOM     14  N   UNL     1       3.835   0.356  -0.655  1.00  0.00    -0.322 N 
ATOM     15  N   UNL     1       1.832  -0.957  -1.000  1.00  0.00    -0.306 N 
ATOM     16  C   UNL     1       3.148  -0.743  -0.957  1.00  0.00     0.320 C 
ATOM     17  H   UNL     1       1.716  -1.907  -1.233  1.00  0.00     0.171 HD
ATOM     18  O   UNL     1       3.841  -1.743  -1.213  1.00  0.00    -0.248 OA
ATOM     19  H   UNL     1       4.808   0.207  -0.641  1.00  0.00     0.166 HD
BRANCH  15  20
ATOM     20  C   UNL     1       0.524  -0.424  -0.860  1.00  0.00     0.064 A 
ATOM     21  C   UNL     1      -3.579   0.647  -0.378  1.00  0.00     0.067 C 
ATOM     22  C   UNL     1      -2.203   0.211  -0.761  1.00  0.00     0.038 A 
ATOM     23  C   UNL     1      -1.842  -1.104  -0.934  1.00  0.00     0.025 A 
ATOM     24  N   UNL     1      -1.280   1.178  -0.705  1.00  0.00    -0.256 NA
ATOM     25  C   UNL     1      -0.482  -1.393  -1.080  1.00  0.00     0.030 A 
ATOM     26  C   UNL     1       0.016   0.824  -0.493  1.00  0.00     0.061 A 
ATOM     27  C   UNL     1       0.478   1.639   0.668  1.00  0.00     0.069 C 
ENDBRANCH  15  20
ENDBRANCH  11  14
ENDBRANCH   9  11
ENDBRANCH   8   9
ENDBRANCH   7   8
ENDBRANCH   6   7
ENDBRANCH   5   6
ENDBRANCH   4   5
ENDBRANCH   3   4
ENDBRANCH   2   3
ENDBRANCH   1   2
BRANCH   1  28
ATOM     28  C   UNL     1       0.599  -3.122   3.737  1.00  0.00     0.188 C 
BRANCH  28  29
ATOM     29  O   UNL     1       1.195  -4.052   2.828  1.00  0.00    -0.376 OA
BRANCH  29  30
ATOM     30  C   UNL     1       0.670  -4.167   1.506  1.00  0.00     0.202 C 
BRANCH  30  31
ATOM     31  C   UNL     1      -0.607  -4.983   1.355  1.00  0.00     0.261 C 
BRANCH  31  32
ATOM     32  O   UNL     1      -1.749  -4.201   1.740  1.00  0.00    -0.460 OA
BRANCH  32  33
ATOM     33  C   UNL     1      -2.268  -4.524   2.944  1.00  0.00     0.338 C 
ATOM     34  O   UNL     1      -1.917  -5.443   3.672  1.00  0.00    -0.246 OA
BRANCH  33  35
ATOM     35  C   UNL     1      -3.214  -3.482   3.370  1.00  0.00     0.060 A 
ATOM     36  C   UNL     1      -3.098  -3.010   4.683  1.00  0.00     0.016 A 
ATOM     37  C   UNL     1      -4.242  -3.033   2.536  1.00  0.00     0.016 A 
ATOM     38  C   UNL     1      -4.052  -2.141   5.194  1.00  0.00     0.010 A 
ATOM     39  C   UNL     1      -5.208  -2.167   3.055  1.00  0.00     0.010 A 
ATOM     40  C   UNL     1      -5.141  -1.762   4.400  1.00  0.00    -0.014 A 
BRANCH  40  41
ATOM     41  C   UNL     1      -6.303  -1.126   5.059  1.00  0.00     0.031 A 
ATOM     42  C   UNL     1      -7.477  -1.992   5.428  1.00  0.00     0.074 A 
ATOM     43  C   UNL     1      -6.272   0.173   5.398  1.00  0.00     0.049 A 
ATOM     44  N   UNL     1      -8.603  -1.665   6.004  1.00  0.00    -0.248 NA
ATOM     45  C   UNL     1      -7.359  -3.423   5.105  1.00  0.00     0.031 C 
ATOM     46  C   UNL     1      -5.149   1.079   5.156  1.00  0.00     0.029 A 
ATOM     47  N   UNL     1      -7.206   0.953   6.028  1.00  0.00    -0.354 N 
ATOM     48  C   UNL     1      -9.330  -2.846   6.111  1.00  0.00     0.074 A 
ATOM     49  C   UNL     1      -8.533  -3.889   5.501  1.00  0.00     0.031 C 
ATOM     50  C   UNL     1      -5.463   2.295   5.634  1.00  0.00     0.029 A 
ATOM     51  C   UNL     1      -6.822   2.264   6.171  1.00  0.00     0.049 A 
ATOM     52  H   UNL     1      -8.070   0.606   6.348  1.00  0.00     0.167 HD
ATOM     53  C   UNL     1     -10.546  -3.042   6.677  1.00  0.00     0.034 A 
ATOM     54  C   UNL     1      -7.505   3.321   6.655  1.00  0.00     0.034 A 
ATOM     55  C   UNL     1     -11.326  -1.982   7.268  1.00  0.00     0.049 A 
ATOM     56  C   UNL     1      -8.906   3.099   7.175  1.00  0.00     0.074 A 
ATOM     57  C   UNL     1     -12.572  -2.058   7.864  1.00  0.00     0.029 A 
ATOM     58  N   UNL     1     -10.940  -0.648   7.326  1.00  0.00    -0.354 N 
ATOM     59  N   UNL     1      -9.591   1.981   7.261  1.00  0.00    -0.248 NA
ATOM     60  C   UNL     1      -9.620   4.281   7.672  1.00  0.00     0.031 C 
ATOM     61  C   UNL     1     -12.974  -0.763   8.203  1.00  0.00     0.029 A 
ATOM     62  C   UNL     1     -11.940   0.113   7.910  1.00  0.00     0.049 A 
ATOM     63  H   UNL     1     -10.081  -0.295   7.000  1.00  0.00     0.167 HD
ATOM     64  C   UNL     1     -10.805   2.323   7.853  1.00  0.00     0.074 A 
ATOM     65  C   UNL     1     -10.746   3.746   8.119  1.00  0.00     0.031 C 
ATOM     66  C   UNL     1     -11.870   1.536   8.155  1.00  0.00     0.034 A 
BRANCH  53  67
ATOM     67  C   UNL     1     -11.124  -4.436   6.620  1.00  0.00     0.023 A 
ATOM     68  C   UNL     1     -10.508  -5.525   7.262  1.00  0.00     0.031 A 
ATOM     69  C   UNL     1     -12.295  -4.686   5.882  1.00  0.00     0.131 A 
ATOM     70  C   UNL     1     -11.024  -6.820   7.095  1.00  0.00     0.055 A 
ATOM     71  C   UNL     1     -12.852  -5.963   5.792  1.00  0.00     0.041 A 
ATOM     72  F   UNL     1     -12.912  -3.693   5.222  1.00  0.00    -0.206 F 
ATOM     73  C   UNL     1     -12.207  -7.042   6.388  1.00  0.00     0.022 A 
BRANCH  70  74
ATOM     74  S   UNL     1     -10.042  -8.227   7.683  1.00  0.00     0.124 S 
ATOM     75  O   UNL     1      -8.793  -8.043   6.947  1.00  0.00    -0.237 OA
ATOM     76  O   UNL     1      -9.979  -7.990   9.120  1.00  0.00    -0.237 OA
ATOM     77  O   UNL     1     -10.830  -9.389   7.275  1.00  0.00    -0.744 OA
ENDBRANCH  70  74
ENDBRANCH  53  67
BRANCH  54  78
ATOM     78  C   UNL     1      -6.905   4.685   6.631  1.00  0.00     0.023 A 
ATOM     79  C   UNL     1      -6.692   5.408   7.816  1.00  0.00     0.031 A 
ATOM     80  C   UNL     1      -6.589   5.313   5.412  1.00  0.00     0.131 A 
ATOM     81  C   UNL     1      -6.229   6.731   7.754  1.00  0.00     0.055 A 
ATOM     82  C   UNL     1      -6.069   6.607   5.359  1.00  0.00     0.041 A 
ATOM     83  F   UNL     1      -6.778   4.671   4.248  1.00  0.00    -0.206 F 
ATOM     84  C   UNL     1      -5.901   7.330   6.535  1.00  0.00     0.022 A 
BRANCH  81  85
ATOM     85  S   UNL     1      -6.161   7.698   9.287  1.00  0.00     0.124 S 
ATOM     86  O   UNL     1      -7.545   7.633   9.740  1.00  0.00    -0.237 OA
ATOM     87  O   UNL     1      -5.190   6.946  10.075  1.00  0.00    -0.237 OA
ATOM     88  O   UNL     1      -5.711   9.014   8.838  1.00  0.00    -0.744 OA
ENDBRANCH  81  85
ENDBRANCH  54  78
BRANCH  66  89
ATOM     89  C   UNL     1     -13.038   2.196   8.851  1.00  0.00     0.023 A 
ATOM     90  C   UNL     1     -13.806   3.194   8.227  1.00  0.00     0.031 A 
ATOM     91  C   UNL     1     -13.376   1.830  10.167  1.00  0.00     0.131 A 
ATOM     92  C   UNL     1     -14.826   3.840   8.941  1.00  0.00     0.055 A 
ATOM     93  C   UNL     1     -14.441   2.423  10.845  1.00  0.00     0.041 A 
ATOM     94  F   UNL     1     -12.676   0.886  10.816  1.00  0.00    -0.206 F 
ATOM     95  C   UNL     1     -15.163   3.446  10.238  1.00  0.00     0.022 A 
BRANCH  92  96
ATOM     96  S   UNL     1     -15.629   5.284   8.193  1.00  0.00     0.124 S 
ATOM     97  O   UNL     1     -14.493   6.166   7.945  1.00  0.00    -0.237 OA
ATOM     98  O   UNL     1     -16.262   4.711   7.009  1.00  0.00    -0.237 OA
ATOM     99  O   UNL     1     -16.553   5.738   9.231  1.00  0.00    -0.744 OA
ENDBRANCH  92  96
ENDBRANCH  66  89
ENDBRANCH  40  41
ENDBRANCH  33  35
ENDBRANCH  32  33
ENDBRANCH  31  32
ENDBRANCH  30  31
ENDBRANCH  29  30
ENDBRANCH  28  29
ENDBRANCH   1  28
TORSDOF 25
