REMARK SMILES O=C(OCCOCCOCCOCCOC(=O)c1ccc(-n2cc(CSc3nc4ccccc4c(=O)n3-c3ccccc3)nn2)cc1)c1ccc(-c2c3nc(c(-c4cc(S(=O)(=O)[O-])ccc4F)c4ccc([nH]4)c(-c4cc(S(=O)(=O)[O-])ccc4F)c4nc(c(-c5cc(S(=O)(=O)[O-])ccc5F)c5ccc2[nH]5)C=C4)C=C3)cc1
REMARK SMILES IDX 10 1 9 2 8 3 7 4 6 5 5 6 4 7 3 8 2 9 1 10 48 11 49 12 110 13
REMARK SMILES IDX 50 14 109 15 51 16 52 17 53 18 103 19 54 20 108 21 102 22
REMARK SMILES IDX 104 23 55 24 107 25 101 26 100 27 56 29 88 30 68 31 87 32
REMARK SMILES IDX 69 33 72 34 86 35 105 36 70 37 71 38 85 40 106 41 73 42
REMARK SMILES IDX 57 43 58 44 66 45 59 46 65 47 67 48 64 49 60 50 61 51 62 52
REMARK SMILES IDX 63 53 89 54 90 55 98 56 91 57 97 58 99 59 96 60 92 61 93 62
REMARK SMILES IDX 94 63 95 64 74 65 75 66 83 67 76 68 82 69 84 70 81 71 77 72
REMARK SMILES IDX 78 73 79 74 80 75 11 76 12 77 13 78 14 79 15 80 16 81 17 82
REMARK SMILES IDX 18 83 19 84 47 85 20 86 46 87 21 88 22 89 23 90 45 91 24 92
REMARK SMILES IDX 44 93 25 94 26 95 27 96 28 97 37 98 29 99 35 100 30 101
REMARK SMILES IDX 34 102 36 103 31 104 33 105 32 106 38 107 39 108 43 109
REMARK SMILES IDX 40 110 42 111 41 112
REMARK H PARENT 104 28 72 39
REMARK Flexibility Score: inf
ROOT
ATOM      1  C   UNL     1       4.011  -3.219  -0.420  1.00  0.00     0.188 C 
ENDROOT
BRANCH   1   2
ATOM      2  O   UNL     1       2.678  -3.042  -0.845  1.00  0.00    -0.377 OA
BRANCH   2   3
ATOM      3  C   UNL     1       2.191  -1.728  -0.635  1.00  0.00     0.188 C 
BRANCH   3   4
ATOM      4  C   UNL     1       2.919  -0.586  -1.369  1.00  0.00     0.188 C 
BRANCH   4   5
ATOM      5  O   UNL     1       4.277  -0.234  -1.165  1.00  0.00    -0.376 OA
BRANCH   5   6
ATOM      6  C   UNL     1       5.017  -0.101   0.030  1.00  0.00     0.202 C 
BRANCH   6   7
ATOM      7  C   UNL     1       4.473   0.269   1.411  1.00  0.00     0.261 C 
BRANCH   7   8
ATOM      8  O   UNL     1       3.105  -0.016   1.651  1.00  0.00    -0.460 OA
BRANCH   8   9
ATOM      9  C   UNL     1       2.017   0.730   1.377  1.00  0.00     0.338 C 
ATOM     10  O   UNL     1       0.918   0.259   1.673  1.00  0.00    -0.246 OA
BRANCH   9  11
ATOM     11  C   UNL     1       2.045   2.036   0.663  1.00  0.00     0.060 A 
ATOM     12  C   UNL     1       3.173   2.801   0.363  1.00  0.00     0.016 A 
ATOM     13  C   UNL     1       0.777   2.531   0.298  1.00  0.00     0.016 A 
ATOM     14  C   UNL     1       3.030   4.100  -0.086  1.00  0.00     0.010 A 
ATOM     15  C   UNL     1       0.628   3.817  -0.183  1.00  0.00     0.010 A 
ATOM     16  C   UNL     1       1.755   4.617  -0.285  1.00  0.00    -0.014 A 
BRANCH  16  17
ATOM     17  C   UNL     1       1.659   6.023  -0.613  1.00  0.00     0.031 A 
ATOM     18  C   UNL     1       2.213   6.392  -1.932  1.00  0.00     0.074 A 
ATOM     19  C   UNL     1       1.097   6.910   0.227  1.00  0.00     0.049 A 
ATOM     20  N   UNL     1       3.287   7.068  -2.170  1.00  0.00    -0.248 NA
ATOM     21  C   UNL     1       1.592   5.809  -3.128  1.00  0.00     0.031 C 
ATOM     22  C   UNL     1       0.328   6.638   1.443  1.00  0.00     0.029 A 
ATOM     23  N   UNL     1       1.019   8.261   0.105  1.00  0.00    -0.354 N 
ATOM     24  C   UNL     1       3.351   7.203  -3.551  1.00  0.00     0.074 A 
ATOM     25  C   UNL     1       2.405   6.259  -4.085  1.00  0.00     0.031 C 
ATOM     26  C   UNL     1      -0.331   7.760   1.808  1.00  0.00     0.029 A 
ATOM     27  C   UNL     1       0.076   8.851   0.937  1.00  0.00     0.049 A 
ATOM     28  H   UNL     1       1.582   8.777  -0.517  1.00  0.00     0.167 HD
ATOM     29  C   UNL     1       4.009   8.247  -4.124  1.00  0.00     0.034 A 
ATOM     30  C   UNL     1      -0.392  10.124   0.858  1.00  0.00     0.034 A 
ATOM     31  C   UNL     1       4.914   8.872  -3.185  1.00  0.00     0.049 A 
ATOM     32  C   UNL     1       0.641  10.922   0.147  1.00  0.00     0.074 A 
ATOM     33  C   UNL     1       5.994   8.430  -2.444  1.00  0.00     0.029 A 
ATOM     34  N   UNL     1       4.537  10.066  -2.611  1.00  0.00    -0.354 N 
ATOM     35  N   UNL     1       1.824  11.162   0.644  1.00  0.00    -0.248 NA
ATOM     36  C   UNL     1       0.549  11.041  -1.301  1.00  0.00     0.031 C 
ATOM     37  C   UNL     1       5.881   9.101  -1.192  1.00  0.00     0.029 A 
ATOM     38  C   UNL     1       4.789   9.970  -1.264  1.00  0.00     0.049 A 
ATOM     39  H   UNL     1       4.157  10.844  -3.079  1.00  0.00     0.167 HD
ATOM     40  C   UNL     1       2.699  11.021  -0.423  1.00  0.00     0.074 A 
ATOM     41  C   UNL     1       1.849  11.052  -1.612  1.00  0.00     0.031 C 
ATOM     42  C   UNL     1       3.989  10.610  -0.236  1.00  0.00     0.034 A 
BRANCH  29  43
ATOM     43  C   UNL     1       3.580   8.935  -5.400  1.00  0.00     0.023 A 
ATOM     44  C   UNL     1       4.378  10.002  -5.854  1.00  0.00     0.031 A 
ATOM     45  C   UNL     1       2.311   8.813  -6.010  1.00  0.00     0.131 A 
ATOM     46  C   UNL     1       3.873  10.944  -6.766  1.00  0.00     0.055 A 
ATOM     47  C   UNL     1       1.842   9.711  -6.973  1.00  0.00     0.041 A 
ATOM     48  F   UNL     1       1.415   7.889  -5.646  1.00  0.00    -0.206 F 
ATOM     49  C   UNL     1       2.609  10.805  -7.330  1.00  0.00     0.022 A 
BRANCH  46  50
ATOM     50  S   UNL     1       4.825  12.458  -7.046  1.00  0.00     0.124 S 
ATOM     51  O   UNL     1       4.969  12.967  -5.687  1.00  0.00    -0.237 OA
ATOM     52  O   UNL     1       6.037  11.938  -7.673  1.00  0.00    -0.237 OA
ATOM     53  O   UNL     1       3.959  13.245  -7.921  1.00  0.00    -0.744 OA
ENDBRANCH  46  50
ENDBRANCH  29  43
BRANCH  30  54
ATOM     54  C   UNL     1      -1.800  10.561   1.062  1.00  0.00     0.023 A 
ATOM     55  C   UNL     1      -2.155  11.906   1.286  1.00  0.00     0.031 A 
ATOM     56  C   UNL     1      -2.861   9.660   0.809  1.00  0.00     0.131 A 
ATOM     57  C   UNL     1      -3.515  12.298   1.254  1.00  0.00     0.055 A 
ATOM     58  C   UNL     1      -4.201  10.050   0.791  1.00  0.00     0.041 A 
ATOM     59  F   UNL     1      -2.628   8.379   0.483  1.00  0.00    -0.206 F 
ATOM     60  C   UNL     1      -4.534  11.376   1.005  1.00  0.00     0.022 A 
BRANCH  57  61
ATOM     61  S   UNL     1      -3.974  14.051   1.440  1.00  0.00     0.124 S 
ATOM     62  O   UNL     1      -3.681  14.302   2.846  1.00  0.00    -0.237 OA
ATOM     63  O   UNL     1      -3.107  14.707   0.468  1.00  0.00    -0.237 OA
ATOM     64  O   UNL     1      -5.397  14.069   1.096  1.00  0.00    -0.744 OA
ENDBRANCH  57  61
ENDBRANCH  30  54
BRANCH  42  65
ATOM     65  C   UNL     1       4.558  10.611   1.168  1.00  0.00     0.023 A 
ATOM     66  C   UNL     1       4.011   9.906   2.264  1.00  0.00     0.031 A 
ATOM     67  C   UNL     1       5.789  11.263   1.363  1.00  0.00     0.131 A 
ATOM     68  C   UNL     1       4.692   9.883   3.498  1.00  0.00     0.055 A 
ATOM     69  C   UNL     1       6.470  11.222   2.579  1.00  0.00     0.041 A 
ATOM     70  F   UNL     1       6.377  11.926   0.352  1.00  0.00    -0.206 F 
ATOM     71  C   UNL     1       5.919  10.536   3.654  1.00  0.00     0.022 A 
BRANCH  68  72
ATOM     72  S   UNL     1       3.988   9.011   4.934  1.00  0.00     0.124 S 
ATOM     73  O   UNL     1       2.595   9.439   4.948  1.00  0.00    -0.237 OA
ATOM     74  O   UNL     1       4.224   7.609   4.597  1.00  0.00    -0.237 OA
ATOM     75  O   UNL     1       4.788   9.506   6.057  1.00  0.00    -0.744 OA
ENDBRANCH  68  72
ENDBRANCH  42  65
ENDBRANCH  16  17
ENDBRANCH   9  11
ENDBRANCH   8   9
ENDBRANCH   7   8
ENDBRANCH   6   7
ENDBRANCH   5   6
ENDBRANCH   4   5
ENDBRANCH   3   4
ENDBRANCH   2   3
ENDBRANCH   1   2
BRANCH   1  76
ATOM     76  C   UNL     1       5.027  -3.220  -1.579  1.00  0.00     0.188 C 
BRANCH  76  77
ATOM     77  O   UNL     1       4.612  -3.129  -2.933  1.00  0.00    -0.376 OA
BRANCH  77  78
ATOM     78  C   UNL     1       3.421  -3.770  -3.357  1.00  0.00     0.202 C 
BRANCH  78  79
ATOM     79  C   UNL     1       3.179  -5.261  -3.053  1.00  0.00     0.261 C 
BRANCH  79  80
ATOM     80  O   UNL     1       3.592  -5.726  -1.758  1.00  0.00    -0.460 OA
BRANCH  80  81
ATOM     81  C   UNL     1       4.714  -6.474  -1.710  1.00  0.00     0.338 C 
ATOM     82  O   UNL     1       5.385  -6.883  -2.655  1.00  0.00    -0.246 OA
BRANCH  81  83
ATOM     83  C   UNL     1       5.130  -6.620  -0.303  1.00  0.00     0.060 A 
ATOM     84  C   UNL     1       6.285  -5.951   0.135  1.00  0.00     0.018 A 
ATOM     85  C   UNL     1       4.392  -7.410   0.581  1.00  0.00     0.018 A 
ATOM     86  C   UNL     1       6.687  -6.019   1.463  1.00  0.00     0.029 A 
ATOM     87  C   UNL     1       4.864  -7.585   1.884  1.00  0.00     0.029 A 
ATOM     88  C   UNL     1       6.012  -6.892   2.313  1.00  0.00     0.066 A 
BRANCH  88  89
ATOM     89  N   UNL     1       6.684  -7.288   3.482  1.00  0.00    -0.220 N 
ATOM     90  C   UNL     1       7.020  -8.586   3.752  1.00  0.00     0.141 A 
ATOM     91  N   UNL     1       7.372  -6.463   4.299  1.00  0.00    -0.062 NA
ATOM     92  C   UNL     1       7.978  -8.523   4.735  1.00  0.00     0.093 A 
ATOM     93  N   UNL     1       8.111  -7.212   5.115  1.00  0.00    -0.134 NA
BRANCH  92  94
ATOM     94  C   UNL     1       8.606  -9.638   5.472  1.00  0.00     0.138 C 
BRANCH  94  95
ATOM     95  S   UNL     1      10.200 -10.343   5.061  1.00  0.00    -0.081 SA
BRANCH  95  96
ATOM     96  C   UNL     1      10.776  -9.938   3.466  1.00  0.00     0.176 A 
ATOM     97  N   UNL     1      12.069  -9.775   3.448  1.00  0.00    -0.223 NA
ATOM     98  N   UNL     1      10.014  -9.822   2.313  1.00  0.00    -0.255 N 
ATOM     99  C   UNL     1      12.678  -9.366   2.256  1.00  0.00     0.079 A 
ATOM    100  C   UNL     1      10.467  -8.835   1.427  1.00  0.00     0.266 A 
ATOM    101  C   UNL     1      14.056  -9.487   2.069  1.00  0.00     0.029 A 
ATOM    102  C   UNL     1      11.926  -8.745   1.271  1.00  0.00     0.066 A 
ATOM    103  O   UNL     1       9.766  -8.052   0.790  1.00  0.00    -0.268 OA
ATOM    104  C   UNL     1      14.666  -8.937   0.934  1.00  0.00     0.002 A 
ATOM    105  C   UNL     1      12.523  -8.146   0.158  1.00  0.00     0.016 A 
ATOM    106  C   UNL     1      13.904  -8.238  -0.004  1.00  0.00     0.001 A 
BRANCH  98 107
ATOM    107  C   UNL     1       8.844 -10.596   1.940  1.00  0.00     0.051 A 
ATOM    108  C   UNL     1       8.276 -10.447   0.657  1.00  0.00     0.027 A 
ATOM    109  C   UNL     1       8.228 -11.548   2.762  1.00  0.00     0.027 A 
ATOM    110  C   UNL     1       7.058 -11.034   0.301  1.00  0.00     0.002 A 
ATOM    111  C   UNL     1       6.978 -12.100   2.437  1.00  0.00     0.002 A 
ATOM    112  C   UNL     1       6.376 -11.814   1.219  1.00  0.00     0.000 A 
ENDBRANCH  98 107
ENDBRANCH  95  96
ENDBRANCH  94  95
ENDBRANCH  92  94
ENDBRANCH  88  89
ENDBRANCH  81  83
ENDBRANCH  80  81
ENDBRANCH  79  80
ENDBRANCH  78  79
ENDBRANCH  77  78
ENDBRANCH  76  77
ENDBRANCH   1  76
TORSDOF 28
