REMARK SMILES CCN(C)C(=O)Cn1ccc2c(C(=O)OCCOCCOCCOCCOC(=O)c3ccc(-c4c5nc(c(-c6cc(S(=O)(=O)[O-])ccc6F)c6ccc([nH]6)c(-c6cc(S(=O)(=O)[O-])ccc6F)c6nc(c(-c7cc(S(=O)(=O)[O-])ccc7F)c7ccc4[nH]7)C=C6)C=C5)cc3)cccc21
REMARK SMILES IDX 20 1 19 2 18 3 17 4 16 5 15 6 13 7 14 8 12 9 8 10 9 11 96 12
REMARK SMILES IDX 10 13 11 14 95 15 94 16 93 17 7 18 5 19 6 20 3 21 4 22 2 23
REMARK SMILES IDX 1 24 21 25 22 26 23 27 24 28 25 29 26 30 27 31 28 32 29 33
REMARK SMILES IDX 30 34 31 35 92 36 32 37 91 38 33 39 34 40 35 41 85 42 36 43
REMARK SMILES IDX 90 44 84 45 86 46 37 47 89 48 83 49 82 50 38 52 70 53 50 54
REMARK SMILES IDX 69 55 51 56 54 57 68 58 87 59 52 60 53 61 67 63 88 64 55 65
REMARK SMILES IDX 39 66 40 67 48 68 41 69 47 70 49 71 46 72 42 73 43 74 44 75
REMARK SMILES IDX 45 76 71 77 72 78 80 79 73 80 79 81 81 82 78 83 74 84 75 85
REMARK SMILES IDX 76 86 77 87 56 88 57 89 65 90 58 91 64 92 66 93 63 94 59 95
REMARK SMILES IDX 60 96 61 97 62 98
REMARK H PARENT 86 51 54 62
REMARK Flexibility Score: inf
ROOT
ATOM      1  C   UNL     1       2.849   7.136   1.157  1.00  0.00     0.188 C 
ENDROOT
BRANCH   1   2
ATOM      2  C   UNL     1       1.312   7.275   1.168  1.00  0.00     0.188 C 
BRANCH   2   3
ATOM      3  O   UNL     1       0.786   8.577   1.073  1.00  0.00    -0.376 OA
BRANCH   3   4
ATOM      4  C   UNL     1       0.299   9.271   2.207  1.00  0.00     0.202 C 
BRANCH   4   5
ATOM      5  C   UNL     1       1.195   9.578   3.419  1.00  0.00     0.261 C 
BRANCH   5   6
ATOM      6  O   UNL     1       2.086   8.529   3.801  1.00  0.00    -0.460 OA
BRANCH   6   7
ATOM      7  C   UNL     1       1.537   7.506   4.488  1.00  0.00     0.338 C 
ATOM      8  O   UNL     1       0.365   7.384   4.817  1.00  0.00    -0.246 OA
BRANCH   7   9
ATOM      9  C   UNL     1       2.541   6.429   4.556  1.00  0.00     0.069 A 
ATOM     10  N   UNL     1       2.596   3.094   3.315  1.00  0.00    -0.338 N 
ATOM     11  C   UNL     1       1.492   3.530   2.633  1.00  0.00     0.087 A 
ATOM     12  C   UNL     1       3.199   4.183   3.922  1.00  0.00     0.049 A 
ATOM     13  C   UNL     1       1.098   4.690   3.248  1.00  0.00     0.029 A 
ATOM     14  C   UNL     1       2.224   5.186   3.962  1.00  0.00     0.014 A 
ATOM     15  C   UNL     1       4.484   4.378   4.453  1.00  0.00     0.027 A 
ATOM     16  C   UNL     1       4.798   5.645   4.965  1.00  0.00     0.003 A 
ATOM     17  C   UNL     1       3.845   6.662   5.018  1.00  0.00     0.016 A 
BRANCH  10  18
ATOM     18  C   UNL     1       2.915   1.699   3.600  1.00  0.00     0.222 C 
BRANCH  18  19
ATOM     19  C   UNL     1       2.449   0.699   2.558  1.00  0.00     0.242 C 
ATOM     20  O   UNL     1       3.288   0.151   1.835  1.00  0.00    -0.273 OA
BRANCH  19  21
ATOM     21  N   UNL     1       1.088   0.394   2.454  1.00  0.00    -0.344 N 
ATOM     22  C   UNL     1       0.096   0.731   3.477  1.00  0.00     0.146 C 
BRANCH  21  23
ATOM     23  C   UNL     1       0.658  -0.490   1.368  1.00  0.00     0.115 C 
ATOM     24  C   UNL     1       0.928   0.080  -0.021  1.00  0.00     0.027 C 
ENDBRANCH  21  23
ENDBRANCH  19  21
ENDBRANCH  18  19
ENDBRANCH  10  18
ENDBRANCH   7   9
ENDBRANCH   6   7
ENDBRANCH   5   6
ENDBRANCH   4   5
ENDBRANCH   3   4
ENDBRANCH   2   3
ENDBRANCH   1   2
BRANCH   1  25
ATOM     25  O   UNL     1       3.660   8.069   0.472  1.00  0.00    -0.377 OA
BRANCH  25  26
ATOM     26  C   UNL     1       3.126   9.367   0.328  1.00  0.00     0.188 C 
BRANCH  26  27
ATOM     27  C   UNL     1       2.271   9.533  -0.947  1.00  0.00     0.188 C 
BRANCH  27  28
ATOM     28  O   UNL     1       2.209   8.444  -1.853  1.00  0.00    -0.376 OA
BRANCH  28  29
ATOM     29  C   UNL     1       3.435   7.877  -2.292  1.00  0.00     0.202 C 
BRANCH  29  30
ATOM     30  C   UNL     1       4.762   8.681  -2.461  1.00  0.00     0.261 C 
BRANCH  30  31
ATOM     31  O   UNL     1       4.934   9.882  -1.685  1.00  0.00    -0.460 OA
BRANCH  31  32
ATOM     32  C   UNL     1       4.921  11.096  -2.303  1.00  0.00     0.338 C 
ATOM     33  O   UNL     1       5.057  11.296  -3.496  1.00  0.00    -0.246 OA
BRANCH  32  34
ATOM     34  C   UNL     1       4.355  12.087  -1.326  1.00  0.00     0.060 A 
ATOM     35  C   UNL     1       4.824  12.192  -0.013  1.00  0.00     0.016 A 
ATOM     36  C   UNL     1       3.103  12.639  -1.655  1.00  0.00     0.016 A 
ATOM     37  C   UNL     1       3.968  12.698   0.979  1.00  0.00     0.010 A 
ATOM     38  C   UNL     1       2.239  13.110  -0.655  1.00  0.00     0.010 A 
ATOM     39  C   UNL     1       2.646  13.110   0.679  1.00  0.00    -0.014 A 
BRANCH  39  40
ATOM     40  C   UNL     1       1.904  13.869   1.719  1.00  0.00     0.031 A 
ATOM     41  C   UNL     1       2.638  15.129   2.013  1.00  0.00     0.074 A 
ATOM     42  C   UNL     1       0.672  13.696   2.260  1.00  0.00     0.049 A 
ATOM     43  N   UNL     1       3.288  15.451   3.082  1.00  0.00    -0.248 NA
ATOM     44  C   UNL     1       2.862  16.028   0.867  1.00  0.00     0.031 C 
ATOM     45  C   UNL     1      -0.374  12.789   1.800  1.00  0.00     0.029 A 
ATOM     46  N   UNL     1       0.051  14.354   3.305  1.00  0.00    -0.354 N 
ATOM     47  C   UNL     1       3.826  16.706   2.808  1.00  0.00     0.074 A 
ATOM     48  C   UNL     1       3.743  16.880   1.383  1.00  0.00     0.031 C 
ATOM     49  C   UNL     1      -1.527  13.027   2.466  1.00  0.00     0.029 A 
ATOM     50  C   UNL     1      -1.319  14.096   3.428  1.00  0.00     0.049 A 
ATOM     51  H   UNL     1       0.535  14.957   3.915  1.00  0.00     0.167 HD
ATOM     52  C   UNL     1       4.040  17.620   3.793  1.00  0.00     0.034 A 
ATOM     53  C   UNL     1      -2.257  14.756   4.169  1.00  0.00     0.034 A 
ATOM     54  C   UNL     1       4.045  16.988   5.085  1.00  0.00     0.049 A 
ATOM     55  C   UNL     1      -1.575  15.600   5.168  1.00  0.00     0.074 A 
ATOM     56  C   UNL     1       4.820  16.029   5.705  1.00  0.00     0.029 A 
ATOM     57  N   UNL     1       2.896  17.088   5.825  1.00  0.00    -0.354 N 
ATOM     58  N   UNL     1      -0.960  15.149   6.219  1.00  0.00    -0.248 NA
ATOM     59  C   UNL     1      -1.228  16.950   4.760  1.00  0.00     0.031 C 
ATOM     60  C   UNL     1       3.924  15.305   6.542  1.00  0.00     0.029 A 
ATOM     61  C   UNL     1       2.662  15.893   6.445  1.00  0.00     0.049 A 
ATOM     62  H   UNL     1       2.330  17.891   5.898  1.00  0.00     0.167 HD
ATOM     63  C   UNL     1       0.183  15.925   6.286  1.00  0.00     0.074 A 
ATOM     64  C   UNL     1      -0.089  17.084   5.439  1.00  0.00     0.031 C 
ATOM     65  C   UNL     1       1.341  15.405   6.783  1.00  0.00     0.034 A 
BRANCH  52  66
ATOM     66  C   UNL     1       3.811  19.107   3.597  1.00  0.00     0.023 A 
ATOM     67  C   UNL     1       3.271  19.667   2.423  1.00  0.00     0.031 A 
ATOM     68  C   UNL     1       3.917  19.989   4.691  1.00  0.00     0.131 A 
ATOM     69  C   UNL     1       2.869  21.006   2.349  1.00  0.00     0.055 A 
ATOM     70  C   UNL     1       3.450  21.309   4.644  1.00  0.00     0.041 A 
ATOM     71  F   UNL     1       4.413  19.576   5.867  1.00  0.00    -0.206 F 
ATOM     72  C   UNL     1       2.920  21.825   3.468  1.00  0.00     0.022 A 
BRANCH  69  73
ATOM     73  S   UNL     1       2.249  21.689   0.786  1.00  0.00     0.124 S 
ATOM     74  O   UNL     1       0.933  22.187   1.172  1.00  0.00    -0.237 OA
ATOM     75  O   UNL     1       3.253  22.708   0.494  1.00  0.00    -0.237 OA
ATOM     76  O   UNL     1       2.253  20.541  -0.117  1.00  0.00    -0.744 OA
ENDBRANCH  69  73
ENDBRANCH  52  66
BRANCH  53  77
ATOM     77  C   UNL     1      -3.676  15.052   3.810  1.00  0.00     0.023 A 
ATOM     78  C   UNL     1      -4.040  15.101   2.456  1.00  0.00     0.031 A 
ATOM     79  C   UNL     1      -4.579  15.625   4.732  1.00  0.00     0.131 A 
ATOM     80  C   UNL     1      -5.209  15.757   2.047  1.00  0.00     0.055 A 
ATOM     81  C   UNL     1      -5.761  16.262   4.323  1.00  0.00     0.041 A 
ATOM     82  F   UNL     1      -4.293  15.655   6.043  1.00  0.00    -0.206 F 
ATOM     83  C   UNL     1      -6.072  16.346   2.970  1.00  0.00     0.022 A 
BRANCH  80  84
ATOM     84  S   UNL     1      -5.554  15.947   0.278  1.00  0.00     0.124 S 
ATOM     85  O   UNL     1      -6.981  15.642   0.204  1.00  0.00    -0.237 OA
ATOM     86  O   UNL     1      -5.194  17.343   0.058  1.00  0.00    -0.237 OA
ATOM     87  O   UNL     1      -4.679  14.957  -0.344  1.00  0.00    -0.744 OA
ENDBRANCH  80  84
ENDBRANCH  53  77
BRANCH  65  88
ATOM     88  C   UNL     1       1.280  14.114   7.566  1.00  0.00     0.023 A 
ATOM     89  C   UNL     1       1.948  14.109   8.802  1.00  0.00     0.031 A 
ATOM     90  C   UNL     1       0.791  12.884   7.083  1.00  0.00     0.131 A 
ATOM     91  C   UNL     1       2.169  12.912   9.485  1.00  0.00     0.055 A 
ATOM     92  C   UNL     1       0.940  11.698   7.813  1.00  0.00     0.041 A 
ATOM     93  F   UNL     1       0.237  12.773   5.867  1.00  0.00    -0.206 F 
ATOM     94  C   UNL     1       1.651  11.705   9.010  1.00  0.00     0.022 A 
BRANCH  91  95
ATOM     95  S   UNL     1       3.289  12.880  10.907  1.00  0.00     0.124 S 
ATOM     96  O   UNL     1       2.390  12.533  12.003  1.00  0.00    -0.237 OA
ATOM     97  O   UNL     1       4.245  11.842  10.525  1.00  0.00    -0.237 OA
ATOM     98  O   UNL     1       3.839  14.232  10.954  1.00  0.00    -0.744 OA
ENDBRANCH  91  95
ENDBRANCH  65  88
ENDBRANCH  39  40
ENDBRANCH  32  34
ENDBRANCH  31  32
ENDBRANCH  30  31
ENDBRANCH  29  30
ENDBRANCH  28  29
ENDBRANCH  27  28
ENDBRANCH  26  27
ENDBRANCH  25  26
ENDBRANCH   1  25
TORSDOF 27
