REMARK SMILES O=C(OCCOCCOCCOCCOC(=O)[C@@H]1CC2(CC[NH+](C(=O)C3(c4ccccc4F)CC3)CC2)C[NH2+]1)c1ccc(-c2c3nc(c(-c4cc(S(=O)(=O)[O-])ccc4F)c4ccc([nH]4)c(-c4cc(S(=O)(=O)[O-])ccc4F)c4nc(c(-c5cc(S(=O)(=O)[O-])ccc5F)c5ccc2[nH]5)C=C4)C=C3)cc1
REMARK SMILES IDX 9 1 8 2 7 3 6 4 5 5 4 6 3 7 2 8 1 9 40 10 41 11 102 12 42 13
REMARK SMILES IDX 101 14 43 15 44 16 45 17 95 18 46 19 100 20 94 21 96 22
REMARK SMILES IDX 47 23 99 24 93 25 92 26 48 28 80 29 60 30 79 31 61 32 64 33
REMARK SMILES IDX 78 34 97 35 62 36 63 37 77 39 98 40 65 41 49 42 50 43 58 44
REMARK SMILES IDX 51 45 57 46 59 47 56 48 52 49 53 50 54 51 55 52 81 53 82 54
REMARK SMILES IDX 90 55 83 56 89 57 91 58 88 59 84 60 85 61 86 62 87 63 66 64
REMARK SMILES IDX 67 65 75 66 68 67 74 68 76 69 73 70 69 71 70 72 71 73 72 74
REMARK SMILES IDX 10 75 11 76 12 77 13 78 14 79 15 80 16 81 17 82 18 83 19 84
REMARK SMILES IDX 39 85 20 86 38 87 21 90 37 91 22 92 36 93 23 94 24 96 25 97
REMARK SMILES IDX 26 98 34 99 35 100 27 101 28 102 32 103 29 104 31 105 33 106
REMARK SMILES IDX 30 107
REMARK H PARENT 96 27 64 38 39 88 39 89 23 95
REMARK Flexibility Score: inf
ROOT
ATOM      1  O   UNL     1       2.393   3.696   0.995  1.00  0.00    -0.377 OA
ENDROOT
BRANCH   1   2
ATOM      2  C   UNL     1       1.750   2.429   1.027  1.00  0.00     0.188 C 
BRANCH   2   3
ATOM      3  C   UNL     1       2.303   1.406   0.038  1.00  0.00     0.188 C 
BRANCH   3   4
ATOM      4  O   UNL     1       3.662   1.107   0.319  1.00  0.00    -0.376 OA
BRANCH   4   5
ATOM      5  C   UNL     1       4.548   0.750  -0.734  1.00  0.00     0.202 C 
BRANCH   5   6
ATOM      6  C   UNL     1       4.142  -0.429  -1.622  1.00  0.00     0.261 C 
BRANCH   6   7
ATOM      7  O   UNL     1       2.769  -0.848  -1.498  1.00  0.00    -0.460 OA
BRANCH   7   8
ATOM      8  C   UNL     1       2.212  -1.719  -0.617  1.00  0.00     0.338 C 
ATOM      9  O   UNL     1       1.024  -2.010  -0.739  1.00  0.00    -0.246 OA
BRANCH   8  10
ATOM     10  C   UNL     1       2.975  -2.333   0.502  1.00  0.00     0.060 A 
ATOM     11  C   UNL     1       4.001  -1.690   1.177  1.00  0.00     0.016 A 
ATOM     12  C   UNL     1       2.591  -3.597   0.963  1.00  0.00     0.016 A 
ATOM     13  C   UNL     1       4.784  -2.327   2.106  1.00  0.00     0.010 A 
ATOM     14  C   UNL     1       3.296  -4.215   2.003  1.00  0.00     0.010 A 
ATOM     15  C   UNL     1       4.437  -3.596   2.532  1.00  0.00    -0.014 A 
BRANCH  15  16
ATOM     16  C   UNL     1       5.415  -4.272   3.396  1.00  0.00     0.031 A 
ATOM     17  C   UNL     1       6.203  -5.393   2.793  1.00  0.00     0.074 A 
ATOM     18  C   UNL     1       5.742  -3.723   4.582  1.00  0.00     0.049 A 
ATOM     19  N   UNL     1       7.106  -6.153   3.341  1.00  0.00    -0.248 NA
ATOM     20  C   UNL     1       5.950  -5.686   1.369  1.00  0.00     0.031 C 
ATOM     21  C   UNL     1       5.152  -2.496   5.136  1.00  0.00     0.029 A 
ATOM     22  N   UNL     1       6.693  -4.070   5.500  1.00  0.00    -0.354 N 
ATOM     23  C   UNL     1       7.493  -7.043   2.347  1.00  0.00     0.074 A 
ATOM     24  C   UNL     1       6.727  -6.736   1.163  1.00  0.00     0.031 C 
ATOM     25  C   UNL     1       5.800  -2.164   6.262  1.00  0.00     0.029 A 
ATOM     26  C   UNL     1       6.764  -3.210   6.571  1.00  0.00     0.049 A 
ATOM     27  H   UNL     1       7.273  -4.860   5.403  1.00  0.00     0.167 HD
ATOM     28  C   UNL     1       8.406  -8.035   2.438  1.00  0.00     0.034 A 
ATOM     29  C   UNL     1       7.494  -3.294   7.699  1.00  0.00     0.034 A 
ATOM     30  C   UNL     1       9.148  -8.285   3.643  1.00  0.00     0.049 A 
ATOM     31  C   UNL     1       8.390  -4.493   7.842  1.00  0.00     0.074 A 
ATOM     32  C   UNL     1      10.034  -9.306   3.917  1.00  0.00     0.029 A 
ATOM     33  N   UNL     1       9.081  -7.487   4.782  1.00  0.00    -0.354 N 
ATOM     34  N   UNL     1       8.639  -5.437   6.961  1.00  0.00    -0.248 NA
ATOM     35  C   UNL     1       9.076  -4.666   9.126  1.00  0.00     0.031 C 
ATOM     36  C   UNL     1      10.446  -9.168   5.246  1.00  0.00     0.029 A 
ATOM     37  C   UNL     1       9.884  -8.012   5.775  1.00  0.00     0.049 A 
ATOM     38  H   UNL     1       8.540  -6.669   4.867  1.00  0.00     0.167 HD
ATOM     39  C   UNL     1       9.521  -6.312   7.577  1.00  0.00     0.074 A 
ATOM     40  C   UNL     1       9.761  -5.783   8.908  1.00  0.00     0.031 C 
ATOM     41  C   UNL     1      10.086  -7.445   7.089  1.00  0.00     0.034 A 
BRANCH  28  42
ATOM     42  C   UNL     1       8.530  -8.960   1.258  1.00  0.00     0.023 A 
ATOM     43  C   UNL     1       9.033  -8.532   0.017  1.00  0.00     0.031 A 
ATOM     44  C   UNL     1       8.042 -10.275   1.356  1.00  0.00     0.131 A 
ATOM     45  C   UNL     1       8.973  -9.390  -1.092  1.00  0.00     0.055 A 
ATOM     46  C   UNL     1       8.053 -11.148   0.268  1.00  0.00     0.041 A 
ATOM     47  F   UNL     1       7.512 -10.722   2.506  1.00  0.00    -0.206 F 
ATOM     48  C   UNL     1       8.509 -10.703  -0.969  1.00  0.00     0.022 A 
BRANCH  45  49
ATOM     49  S   UNL     1       9.384  -8.729  -2.731  1.00  0.00     0.124 S 
ATOM     50  O   UNL     1       8.334  -7.729  -2.917  1.00  0.00    -0.237 OA
ATOM     51  O   UNL     1      10.732  -8.208  -2.536  1.00  0.00    -0.237 OA
ATOM     52  O   UNL     1       9.288  -9.895  -3.607  1.00  0.00    -0.744 OA
ENDBRANCH  45  49
ENDBRANCH  28  42
BRANCH  29  53
ATOM     53  C   UNL     1       7.316  -2.284   8.780  1.00  0.00     0.023 A 
ATOM     54  C   UNL     1       8.347  -1.408   9.151  1.00  0.00     0.031 A 
ATOM     55  C   UNL     1       6.074  -2.153   9.434  1.00  0.00     0.131 A 
ATOM     56  C   UNL     1       8.117  -0.441  10.146  1.00  0.00     0.055 A 
ATOM     57  C   UNL     1       5.839  -1.166  10.392  1.00  0.00     0.041 A 
ATOM     58  F   UNL     1       5.051  -2.963   9.117  1.00  0.00    -0.206 F 
ATOM     59  C   UNL     1       6.866  -0.304  10.756  1.00  0.00     0.022 A 
BRANCH  56  60
ATOM     60  S   UNL     1       9.481   0.643  10.653  1.00  0.00     0.124 S 
ATOM     61  O   UNL     1      10.415  -0.312  11.239  1.00  0.00    -0.237 OA
ATOM     62  O   UNL     1       9.883   1.243   9.386  1.00  0.00    -0.237 OA
ATOM     63  O   UNL     1       8.853   1.561  11.601  1.00  0.00    -0.744 OA
ENDBRANCH  56  60
ENDBRANCH  29  53
BRANCH  41  64
ATOM     64  C   UNL     1      11.051  -8.170   7.981  1.00  0.00     0.023 A 
ATOM     65  C   UNL     1      10.605  -8.947   9.060  1.00  0.00     0.031 A 
ATOM     66  C   UNL     1      12.420  -8.174   7.663  1.00  0.00     0.131 A 
ATOM     67  C   UNL     1      11.530  -9.700   9.793  1.00  0.00     0.055 A 
ATOM     68  C   UNL     1      13.328  -8.961   8.367  1.00  0.00     0.041 A 
ATOM     69  F   UNL     1      12.883  -7.450   6.631  1.00  0.00    -0.206 F 
ATOM     70  C   UNL     1      12.883  -9.731   9.439  1.00  0.00     0.022 A 
BRANCH  67  71
ATOM     71  S   UNL     1      10.943 -10.647  11.222  1.00  0.00     0.124 S 
ATOM     72  O   UNL     1      10.530  -9.586  12.136  1.00  0.00    -0.237 OA
ATOM     73  O   UNL     1       9.867 -11.450  10.651  1.00  0.00    -0.237 OA
ATOM     74  O   UNL     1      12.123 -11.402  11.640  1.00  0.00    -0.744 OA
ENDBRANCH  67  71
ENDBRANCH  41  64
ENDBRANCH  15  16
ENDBRANCH   8  10
ENDBRANCH   7   8
ENDBRANCH   6   7
ENDBRANCH   5   6
ENDBRANCH   4   5
ENDBRANCH   3   4
ENDBRANCH   2   3
ENDBRANCH   1   2
BRANCH   1  75
ATOM     75  C   UNL     1       3.817   3.667   0.982  1.00  0.00     0.188 C 
BRANCH  75  76
ATOM     76  C   UNL     1       4.581   2.949   2.136  1.00  0.00     0.188 C 
BRANCH  76  77
ATOM     77  O   UNL     1       3.752   2.222   3.029  1.00  0.00    -0.376 OA
BRANCH  77  78
ATOM     78  C   UNL     1       3.554   2.834   4.301  1.00  0.00     0.202 C 
BRANCH  78  79
ATOM     79  C   UNL     1       2.876   4.215   4.290  1.00  0.00     0.261 C 
BRANCH  79  80
ATOM     80  O   UNL     1       3.418   5.149   3.329  1.00  0.00    -0.459 OA
BRANCH  80  81
ATOM     81  C   UNL     1       4.523   5.867   3.651  1.00  0.00     0.364 C 
ATOM     82  O   UNL     1       5.040   5.862   4.764  1.00  0.00    -0.245 OA
BRANCH  81  83
ATOM     83  C   UNL     1       5.022   6.686   2.420  1.00  0.00     0.294 C 
ATOM     84  C   UNL     1       6.111   6.061   1.540  1.00  0.00     0.090 C 
ATOM     85  N   UNL     1       5.713   7.924   2.838  1.00  0.00    -0.334 N 
ATOM     86  C   UNL     1       7.449   6.364   2.230  1.00  0.00     0.036 C 
ATOM     87  C   UNL     1       7.080   7.510   3.192  1.00  0.00     0.268 C 
ATOM     88  H   UNL     1       5.245   8.338   3.644  1.00  0.00     0.347 HD
ATOM     89  H   UNL     1       5.710   8.627   2.099  1.00  0.00     0.347 HD
ATOM     90  C   UNL     1       8.521   6.811   1.211  1.00  0.00     0.075 C 
ATOM     91  C   UNL     1       7.970   5.125   2.998  1.00  0.00     0.075 C 
ATOM     92  C   UNL     1       9.077   5.668   0.355  1.00  0.00     0.271 C 
ATOM     93  C   UNL     1       8.495   4.031   2.064  1.00  0.00     0.271 C 
ATOM     94  N   UNL     1       9.539   4.569   1.187  1.00  0.00    -0.271 N 
ATOM     95  H   UNL     1       8.673   4.989   0.983  1.00  0.00     0.356 HD
BRANCH  94  96
ATOM     96  C   UNL     1      10.819   4.020   1.340  1.00  0.00     0.322 C 
ATOM     97  O   UNL     1      10.987   3.167   2.215  1.00  0.00    -0.230 OA
BRANCH  96  98
ATOM     98  C   UNL     1      12.066   4.381   0.521  1.00  0.00     0.113 C 
ATOM     99  C   UNL     1      12.164   5.220  -0.747  1.00  0.00     0.028 C 
ATOM    100  C   UNL     1      12.500   5.846   0.570  1.00  0.00     0.028 C 
BRANCH  98 101
ATOM    101  C   UNL     1      13.152   3.279   0.605  1.00  0.00     0.007 A 
ATOM    102  C   UNL     1      13.283   2.306  -0.405  1.00  0.00     0.008 A 
ATOM    103  C   UNL     1      13.948   3.119   1.752  1.00  0.00     0.127 A 
ATOM    104  C   UNL     1      14.133   1.207  -0.250  1.00  0.00     0.001 A 
ATOM    105  C   UNL     1      14.781   2.015   1.925  1.00  0.00     0.039 A 
ATOM    106  F   UNL     1      13.885   4.032   2.734  1.00  0.00    -0.207 F 
ATOM    107  C   UNL     1      14.866   1.051   0.924  1.00  0.00     0.003 A 
ENDBRANCH  98 101
ENDBRANCH  96  98
ENDBRANCH  94  96
ENDBRANCH  81  83
ENDBRANCH  80  81
ENDBRANCH  79  80
ENDBRANCH  78  79
ENDBRANCH  77  78
ENDBRANCH  76  77
ENDBRANCH  75  76
ENDBRANCH   1  75
TORSDOF 26
