REMARK SMILES CCOC(=O)c1ccc(-c2ccc(C(=O)OCCOCCOCCOCCOC(=O)c3ccc(-c4c5nc(c(-c6cc(S(=O)(=O)[O-])ccc6F)c6ccc([nH]6)c(-c6cc(S(=O)(=O)[O-])ccc6F)c6nc(c(-c7cc(S(=O)(=O)[O-])ccc7F)c7ccc4[nH]7)C=C6)C=C5)cc3)o2)cc1
REMARK SMILES IDX 21 1 20 2 19 3 18 4 17 5 16 6 14 7 15 8 13 9 10 10 11 11
REMARK SMILES IDX 94 12 12 13 9 14 6 15 7 16 96 17 8 18 95 19 4 20 5 21 3 22
REMARK SMILES IDX 2 23 1 24 22 25 23 26 24 27 25 28 26 29 27 30 28 31 29 32
REMARK SMILES IDX 30 33 31 34 32 35 93 36 33 37 92 38 34 39 35 40 36 41 86 42
REMARK SMILES IDX 37 43 91 44 85 45 87 46 38 47 90 48 84 49 83 50 39 52 71 53
REMARK SMILES IDX 51 54 70 55 52 56 55 57 69 58 88 59 53 60 54 61 68 63 89 64
REMARK SMILES IDX 56 65 40 66 41 67 49 68 42 69 48 70 50 71 47 72 43 73 44 74
REMARK SMILES IDX 45 75 46 76 72 77 73 78 81 79 74 80 80 81 82 82 79 83 75 84
REMARK SMILES IDX 76 85 77 86 78 87 57 88 58 89 66 90 59 91 65 92 67 93 64 94
REMARK SMILES IDX 60 95 61 96 62 97 63 98
REMARK H PARENT 87 51 55 62
REMARK Flexibility Score: inf
ROOT
ATOM      1  C   UNL     1       7.735   5.331   8.703  1.00  0.00     0.188 C 
ENDROOT
BRANCH   1   2
ATOM      2  C   UNL     1       6.864   6.461   8.116  1.00  0.00     0.188 C 
BRANCH   2   3
ATOM      3  O   UNL     1       6.530   7.651   8.826  1.00  0.00    -0.376 OA
BRANCH   3   4
ATOM      4  C   UNL     1       6.619   7.733  10.239  1.00  0.00     0.202 C 
BRANCH   4   5
ATOM      5  C   UNL     1       5.646   6.902  11.087  1.00  0.00     0.261 C 
BRANCH   5   6
ATOM      6  O   UNL     1       5.433   5.564  10.629  1.00  0.00    -0.457 OA
BRANCH   6   7
ATOM      7  C   UNL     1       4.337   5.366   9.842  1.00  0.00     0.374 C 
ATOM      8  O   UNL     1       3.490   6.212   9.585  1.00  0.00    -0.242 OA
BRANCH   7   9
ATOM      9  C   UNL     1       4.400   4.034   9.286  1.00  0.00     0.212 A 
ATOM     10  C   UNL     1       4.134   2.541   7.693  1.00  0.00     0.135 A 
ATOM     11  C   UNL     1       4.873   1.921   8.676  1.00  0.00     0.052 A 
ATOM     12  O   UNL     1       3.818   3.810   8.063  1.00  0.00    -0.449 OA
ATOM     13  C   UNL     1       5.044   2.880   9.701  1.00  0.00     0.059 A 
BRANCH  10  14
ATOM     14  C   UNL     1       3.659   2.114   6.394  1.00  0.00     0.017 A 
ATOM     15  C   UNL     1       2.839   1.069   3.927  1.00  0.00     0.060 A 
ATOM     16  C   UNL     1       4.034   1.792   4.018  1.00  0.00     0.016 A 
ATOM     17  C   UNL     1       2.039   0.895   5.063  1.00  0.00     0.016 A 
ATOM     18  C   UNL     1       4.438   2.321   5.248  1.00  0.00     0.013 A 
ATOM     19  C   UNL     1       2.452   1.415   6.292  1.00  0.00     0.013 A 
BRANCH  15  20
ATOM     20  C   UNL     1       2.496   0.413   2.643  1.00  0.00     0.338 C 
ATOM     21  O   UNL     1       3.331   0.020   1.845  1.00  0.00    -0.246 OA
BRANCH  20  22
ATOM     22  O   UNL     1       1.150   0.310   2.522  1.00  0.00    -0.462 OA
BRANCH  22  23
ATOM     23  C   UNL     1       0.676  -0.477   1.420  1.00  0.00     0.230 C 
ATOM     24  C   UNL     1       0.803   0.249   0.093  1.00  0.00     0.049 C 
ENDBRANCH  22  23
ENDBRANCH  20  22
ENDBRANCH  15  20
ENDBRANCH  10  14
ENDBRANCH   7   9
ENDBRANCH   6   7
ENDBRANCH   5   6
ENDBRANCH   4   5
ENDBRANCH   3   4
ENDBRANCH   2   3
ENDBRANCH   1   2
BRANCH   1  25
ATOM     25  O   UNL     1       8.348   5.623   9.944  1.00  0.00    -0.377 OA
BRANCH  25  26
ATOM     26  C   UNL     1       9.743   5.907   9.881  1.00  0.00     0.188 C 
BRANCH  26  27
ATOM     27  C   UNL     1      10.133   7.045   8.928  1.00  0.00     0.188 C 
BRANCH  27  28
ATOM     28  O   UNL     1       9.960   6.683   7.553  1.00  0.00    -0.376 OA
BRANCH  28  29
ATOM     29  C   UNL     1      11.162   6.398   6.838  1.00  0.00     0.202 C 
BRANCH  29  30
ATOM     30  C   UNL     1      11.676   4.966   7.047  1.00  0.00     0.261 C 
BRANCH  30  31
ATOM     31  O   UNL     1      12.134   4.678   8.379  1.00  0.00    -0.460 OA
BRANCH  31  32
ATOM     32  C   UNL     1      13.163   5.424   8.839  1.00  0.00     0.338 C 
ATOM     33  O   UNL     1      13.789   6.263   8.218  1.00  0.00    -0.246 OA
BRANCH  32  34
ATOM     34  C   UNL     1      13.287   5.193  10.293  1.00  0.00     0.060 A 
ATOM     35  C   UNL     1      13.318   6.305  11.142  1.00  0.00     0.016 A 
ATOM     36  C   UNL     1      13.399   3.899  10.810  1.00  0.00     0.016 A 
ATOM     37  C   UNL     1      13.512   6.128  12.512  1.00  0.00     0.010 A 
ATOM     38  C   UNL     1      13.606   3.724  12.181  1.00  0.00     0.010 A 
ATOM     39  C   UNL     1      13.701   4.839  13.031  1.00  0.00    -0.014 A 
BRANCH  39  40
ATOM     40  C   UNL     1      14.201   4.674  14.417  1.00  0.00     0.031 A 
ATOM     41  C   UNL     1      15.686   4.547  14.627  1.00  0.00     0.074 A 
ATOM     42  C   UNL     1      13.360   4.650  15.466  1.00  0.00     0.049 A 
ATOM     43  N   UNL     1      16.359   4.380  15.735  1.00  0.00    -0.248 NA
ATOM     44  C   UNL     1      16.521   4.615  13.418  1.00  0.00     0.031 C 
ATOM     45  C   UNL     1      11.907   4.789  15.387  1.00  0.00     0.029 A 
ATOM     46  N   UNL     1      13.613   4.492  16.805  1.00  0.00    -0.354 N 
ATOM     47  C   UNL     1      17.697   4.331  15.360  1.00  0.00     0.074 A 
ATOM     48  C   UNL     1      17.734   4.441  13.917  1.00  0.00     0.031 C 
ATOM     49  C   UNL     1      11.395   4.697  16.628  1.00  0.00     0.029 A 
ATOM     50  C   UNL     1      12.479   4.468  17.582  1.00  0.00     0.049 A 
ATOM     51  H   UNL     1      14.521   4.404  17.175  1.00  0.00     0.167 HD
ATOM     52  C   UNL     1      18.796   4.217  16.145  1.00  0.00     0.034 A 
ATOM     53  C   UNL     1      12.336   4.265  18.907  1.00  0.00     0.034 A 
ATOM     54  C   UNL     1      18.745   4.079  17.579  1.00  0.00     0.049 A 
ATOM     55  C   UNL     1      13.568   4.055  19.755  1.00  0.00     0.074 A 
ATOM     56  C   UNL     1      19.794   3.961  18.474  1.00  0.00     0.029 A 
ATOM     57  N   UNL     1      17.576   4.022  18.328  1.00  0.00    -0.354 N 
ATOM     58  N   UNL     1      14.831   4.034  19.391  1.00  0.00    -0.248 NA
ATOM     59  C   UNL     1      13.355   3.850  21.194  1.00  0.00     0.031 C 
ATOM     60  C   UNL     1      19.259   3.768  19.753  1.00  0.00     0.029 A 
ATOM     61  C   UNL     1      17.878   3.838  19.669  1.00  0.00     0.049 A 
ATOM     62  H   UNL     1      16.667   4.101  17.961  1.00  0.00     0.167 HD
ATOM     63  C   UNL     1      15.561   3.845  20.562  1.00  0.00     0.074 A 
ATOM     64  C   UNL     1      14.600   3.769  21.643  1.00  0.00     0.031 C 
ATOM     65  C   UNL     1      16.905   3.751  20.732  1.00  0.00     0.034 A 
BRANCH  52  66
ATOM     66  C   UNL     1      20.134   4.187  15.450  1.00  0.00     0.023 A 
ATOM     67  C   UNL     1      20.618   5.297  14.736  1.00  0.00     0.031 A 
ATOM     68  C   UNL     1      20.914   3.017  15.460  1.00  0.00     0.131 A 
ATOM     69  C   UNL     1      21.808   5.191  14.000  1.00  0.00     0.055 A 
ATOM     70  C   UNL     1      22.135   2.943  14.788  1.00  0.00     0.041 A 
ATOM     71  F   UNL     1      20.490   1.919  16.104  1.00  0.00    -0.206 F 
ATOM     72  C   UNL     1      22.582   4.029  14.040  1.00  0.00     0.022 A 
BRANCH  69  73
ATOM     73  S   UNL     1      22.256   6.542  12.875  1.00  0.00     0.124 S 
ATOM     74  O   UNL     1      21.095   6.584  11.989  1.00  0.00    -0.237 OA
ATOM     75  O   UNL     1      22.407   7.672  13.784  1.00  0.00    -0.237 OA
ATOM     76  O   UNL     1      23.491   6.072  12.251  1.00  0.00    -0.744 OA
ENDBRANCH  69  73
ENDBRANCH  52  66
BRANCH  53  77
ATOM     77  C   UNL     1      10.979   4.210  19.522  1.00  0.00     0.023 A 
ATOM     78  C   UNL     1      10.566   5.169  20.461  1.00  0.00     0.031 A 
ATOM     79  C   UNL     1      10.097   3.156  19.223  1.00  0.00     0.131 A 
ATOM     80  C   UNL     1       9.325   5.030  21.102  1.00  0.00     0.055 A 
ATOM     81  C   UNL     1       8.844   3.049  19.828  1.00  0.00     0.041 A 
ATOM     82  F   UNL     1      10.444   2.214  18.332  1.00  0.00    -0.206 F 
ATOM     83  C   UNL     1       8.457   3.983  20.784  1.00  0.00     0.022 A 
BRANCH  80  84
ATOM     84  S   UNL     1       8.891   6.199  22.420  1.00  0.00     0.124 S 
ATOM     85  O   UNL     1       9.984   6.000  23.365  1.00  0.00    -0.237 OA
ATOM     86  O   UNL     1       8.884   7.471  21.705  1.00  0.00    -0.237 OA
ATOM     87  O   UNL     1       7.582   5.732  22.871  1.00  0.00    -0.744 OA
ENDBRANCH  80  84
ENDBRANCH  53  77
BRANCH  65  88
ATOM     88  C   UNL     1      17.409   3.600  22.147  1.00  0.00     0.023 A 
ATOM     89  C   UNL     1      17.177   2.433  22.896  1.00  0.00     0.031 A 
ATOM     90  C   UNL     1      18.124   4.647  22.756  1.00  0.00     0.131 A 
ATOM     91  C   UNL     1      17.612   2.361  24.228  1.00  0.00     0.055 A 
ATOM     92  C   UNL     1      18.602   4.548  24.063  1.00  0.00     0.041 A 
ATOM     93  F   UNL     1      18.373   5.784  22.086  1.00  0.00    -0.206 F 
ATOM     94  C   UNL     1      18.336   3.405  24.811  1.00  0.00     0.022 A 
BRANCH  91  95
ATOM     95  S   UNL     1      17.146   0.916  25.220  1.00  0.00     0.124 S 
ATOM     96  O   UNL     1      15.689   0.954  25.147  1.00  0.00    -0.237 OA
ATOM     97  O   UNL     1      17.792  -0.178  24.502  1.00  0.00    -0.237 OA
ATOM     98  O   UNL     1      17.708   1.208  26.538  1.00  0.00    -0.744 OA
ENDBRANCH  91  95
ENDBRANCH  65  88
ENDBRANCH  39  40
ENDBRANCH  32  34
ENDBRANCH  31  32
ENDBRANCH  30  31
ENDBRANCH  29  30
ENDBRANCH  28  29
ENDBRANCH  27  28
ENDBRANCH  26  27
ENDBRANCH  25  26
ENDBRANCH   1  25
TORSDOF 27
