REMARK SMILES COc1ccccc1OC1CCN(c2cccc(C(=O)OCCOCCOCCOCCOC(=O)c3ccc(-c4c5nc(c(-c6cc(S(=O)(=O)[O-])ccc6F)c6ccc([nH]6)c(-c6cc(S(=O)(=O)[O-])ccc6F)c6nc(c(-c7cc(S(=O)(=O)[O-])ccc7F)c7ccc4[nH]7)C=C6)C=C5)cc3)n2)CC1
REMARK SMILES IDX 26 1 25 2 24 3 23 4 22 5 21 6 19 7 20 8 18 9 14 10 15 11
REMARK SMILES IDX 99 12 16 13 17 14 13 15 10 16 11 17 101 18 12 19 100 20 9 21
REMARK SMILES IDX 8 22 3 23 4 24 5 25 7 26 6 27 2 28 1 29 27 30 28 31 29 32
REMARK SMILES IDX 30 33 31 34 32 35 33 36 34 37 35 38 36 39 37 40 98 41 38 42
REMARK SMILES IDX 97 43 39 44 40 45 41 46 91 47 42 48 96 49 90 50 92 51 43 52
REMARK SMILES IDX 95 53 89 54 88 55 44 57 76 58 56 59 75 60 57 61 60 62 74 63
REMARK SMILES IDX 93 64 58 65 59 66 73 68 94 69 61 70 45 71 46 72 54 73 47 74
REMARK SMILES IDX 53 75 55 76 52 77 48 78 49 79 50 80 51 81 77 82 78 83 86 84
REMARK SMILES IDX 79 85 85 86 87 87 84 88 80 89 81 90 82 91 83 92 62 93 63 94
REMARK SMILES IDX 71 95 64 96 70 97 72 98 69 99 65 100 66 101 67 102 68 103
REMARK H PARENT 92 56 60 67
REMARK Flexibility Score: inf
ROOT
ATOM      1  C   UNL     1      -2.568   1.786  -4.760  1.00  0.00     0.188 C 
ENDROOT
BRANCH   1   2
ATOM      2  C   UNL     1      -1.454   0.842  -5.284  1.00  0.00     0.188 C 
BRANCH   2   3
ATOM      3  O   UNL     1      -1.454   0.305  -6.589  1.00  0.00    -0.376 OA
BRANCH   3   4
ATOM      4  C   UNL     1      -2.318  -0.717  -7.045  1.00  0.00     0.202 C 
BRANCH   4   5
ATOM      5  C   UNL     1      -3.271  -1.526  -6.147  1.00  0.00     0.261 C 
BRANCH   5   6
ATOM      6  O   UNL     1      -3.517  -1.037  -4.821  1.00  0.00    -0.459 OA
BRANCH   6   7
ATOM      7  C   UNL     1      -2.688  -1.503  -3.844  1.00  0.00     0.357 C 
ATOM      8  O   UNL     1      -1.807  -2.335  -4.005  1.00  0.00    -0.244 OA
BRANCH   7   9
ATOM      9  C   UNL     1      -2.868  -0.691  -2.586  1.00  0.00     0.150 A 
ATOM     10  C   UNL     1      -1.819   0.405  -0.802  1.00  0.00     0.129 A 
ATOM     11  C   UNL     1      -3.058   0.677  -0.239  1.00  0.00     0.047 A 
ATOM     12  N   UNL     1      -1.717  -0.291  -1.957  1.00  0.00    -0.224 NA
ATOM     13  C   UNL     1      -4.221   0.343  -0.933  1.00  0.00     0.006 A 
ATOM     14  C   UNL     1      -4.130  -0.333  -2.145  1.00  0.00     0.036 A 
BRANCH  10  15
ATOM     15  N   UNL     1      -0.669   0.785  -0.104  1.00  0.00    -0.356 N 
ATOM     16  C   UNL     1       3.026   0.129   0.532  1.00  0.00     0.177 C 
ATOM     17  C   UNL     1       2.457   1.350  -0.871  1.00  0.00     0.066 C 
ATOM     18  C   UNL     1       1.652  -0.949   1.388  1.00  0.00     0.066 C 
ATOM     19  C   UNL     1       0.572   1.825  -0.992  1.00  0.00     0.122 C 
ATOM     20  C   UNL     1      -0.206  -0.404   1.223  1.00  0.00     0.122 C 
BRANCH  16  21
ATOM     21  O   UNL     1       3.611   0.953   1.583  1.00  0.00    -0.486 OA
BRANCH  21  22
ATOM     22  C   UNL     1       2.631   1.786   2.085  1.00  0.00     0.161 A 
ATOM     23  C   UNL     1       1.333   1.725   1.553  1.00  0.00     0.160 A 
ATOM     24  C   UNL     1       0.349   2.565   2.067  1.00  0.00     0.050 A 
ATOM     25  C   UNL     1       0.666   3.452   3.103  1.00  0.00     0.004 A 
ATOM     26  C   UNL     1       2.954   2.666   3.112  1.00  0.00     0.050 A 
ATOM     27  C   UNL     1       1.963   3.503   3.623  1.00  0.00     0.004 A 
BRANCH  23  28
ATOM     28  O   UNL     1       1.240   0.780   0.554  1.00  0.00    -0.493 OA
ATOM     29  C   UNL     1       1.044  -0.479  -0.798  1.00  0.00     0.278 C 
ENDBRANCH  23  28
ENDBRANCH  21  22
ENDBRANCH  16  21
ENDBRANCH  10  15
ENDBRANCH   7   9
ENDBRANCH   6   7
ENDBRANCH   5   6
ENDBRANCH   4   5
ENDBRANCH   3   4
ENDBRANCH   2   3
ENDBRANCH   1   2
BRANCH   1  30
ATOM     30  O   UNL     1      -3.832   1.890  -5.360  1.00  0.00    -0.377 OA
BRANCH  30  31
ATOM     31  C   UNL     1      -3.940   1.909  -6.763  1.00  0.00     0.188 C 
BRANCH  31  32
ATOM     32  C   UNL     1      -2.840   2.471  -7.708  1.00  0.00     0.188 C 
BRANCH  32  33
ATOM     33  O   UNL     1      -1.568   2.851  -7.244  1.00  0.00    -0.376 OA
BRANCH  33  34
ATOM     34  C   UNL     1      -1.336   4.045  -6.529  1.00  0.00     0.202 C 
BRANCH  34  35
ATOM     35  C   UNL     1      -2.416   5.093  -6.182  1.00  0.00     0.261 C 
BRANCH  35  36
ATOM     36  O   UNL     1      -3.773   4.851  -6.582  1.00  0.00    -0.460 OA
BRANCH  36  37
ATOM     37  C   UNL     1      -4.091   5.226  -7.850  1.00  0.00     0.338 C 
ATOM     38  O   UNL     1      -3.335   5.742  -8.654  1.00  0.00    -0.246 OA
BRANCH  37  39
ATOM     39  C   UNL     1      -5.439   4.708  -8.207  1.00  0.00     0.060 A 
ATOM     40  C   UNL     1      -5.595   3.688  -9.168  1.00  0.00     0.016 A 
ATOM     41  C   UNL     1      -6.561   5.281  -7.620  1.00  0.00     0.016 A 
ATOM     42  C   UNL     1      -6.864   3.272  -9.569  1.00  0.00     0.010 A 
ATOM     43  C   UNL     1      -7.831   4.894  -8.055  1.00  0.00     0.010 A 
ATOM     44  C   UNL     1      -7.991   3.917  -9.056  1.00  0.00    -0.014 A 
BRANCH  44  45
ATOM     45  C   UNL     1      -9.331   3.672  -9.642  1.00  0.00     0.031 A 
ATOM     46  C   UNL     1      -9.972   4.751 -10.472  1.00  0.00     0.074 A 
ATOM     47  C   UNL     1      -9.971   2.507  -9.435  1.00  0.00     0.049 A 
ATOM     48  N   UNL     1     -11.164   4.777 -11.008  1.00  0.00    -0.248 NA
ATOM     49  C   UNL     1      -9.173   5.963 -10.720  1.00  0.00     0.031 C 
ATOM     50  C   UNL     1      -9.426   1.373  -8.692  1.00  0.00     0.029 A 
ATOM     51  N   UNL     1     -11.220   2.087  -9.820  1.00  0.00    -0.354 N 
ATOM     52  C   UNL     1     -11.268   6.010 -11.639  1.00  0.00     0.074 A 
ATOM     53  C   UNL     1     -10.031   6.718 -11.389  1.00  0.00     0.031 C 
ATOM     54  C   UNL     1     -10.330   0.380  -8.686  1.00  0.00     0.029 A 
ATOM     55  C   UNL     1     -11.542   0.828  -9.367  1.00  0.00     0.049 A 
ATOM     56  H   UNL     1     -11.827   2.634 -10.369  1.00  0.00     0.167 HD
ATOM     57  C   UNL     1     -12.305   6.500 -12.359  1.00  0.00     0.034 A 
ATOM     58  C   UNL     1     -12.691   0.127  -9.460  1.00  0.00     0.034 A 
ATOM     59  C   UNL     1     -13.538   5.787 -12.576  1.00  0.00     0.049 A 
ATOM     60  C   UNL     1     -13.870   0.747 -10.169  1.00  0.00     0.074 A 
ATOM     61  C   UNL     1     -14.637   6.192 -13.312  1.00  0.00     0.029 A 
ATOM     62  N   UNL     1     -13.852   4.547 -12.039  1.00  0.00    -0.354 N 
ATOM     63  N   UNL     1     -13.948   1.911 -10.772  1.00  0.00    -0.248 NA
ATOM     64  C   UNL     1     -15.112  -0.037 -10.214  1.00  0.00     0.031 C 
ATOM     65  C   UNL     1     -15.656   5.260 -13.120  1.00  0.00     0.029 A 
ATOM     66  C   UNL     1     -15.151   4.205 -12.380  1.00  0.00     0.049 A 
ATOM     67  H   UNL     1     -13.244   3.994 -11.497  1.00  0.00     0.167 HD
ATOM     68  C   UNL     1     -15.233   1.975 -11.305  1.00  0.00     0.074 A 
ATOM     69  C   UNL     1     -15.890   0.732 -10.960  1.00  0.00     0.031 C 
ATOM     70  C   UNL     1     -15.807   2.970 -12.026  1.00  0.00     0.034 A 
BRANCH  57  71
ATOM     71  C   UNL     1     -12.188   7.900 -12.904  1.00  0.00     0.023 A 
ATOM     72  C   UNL     1     -11.207   8.258 -13.842  1.00  0.00     0.031 A 
ATOM     73  C   UNL     1     -13.087   8.894 -12.475  1.00  0.00     0.131 A 
ATOM     74  C   UNL     1     -11.105   9.591 -14.264  1.00  0.00     0.055 A 
ATOM     75  C   UNL     1     -13.046  10.192 -12.980  1.00  0.00     0.041 A 
ATOM     76  F   UNL     1     -14.024   8.617 -11.554  1.00  0.00    -0.206 F 
ATOM     77  C   UNL     1     -12.040  10.551 -13.870  1.00  0.00     0.022 A 
BRANCH  74  78
ATOM     78  S   UNL     1      -9.624  10.093 -15.182  1.00  0.00     0.124 S 
ATOM     79  O   UNL     1      -8.561   9.694 -14.262  1.00  0.00    -0.237 OA
ATOM     80  O   UNL     1      -9.732   9.315 -16.410  1.00  0.00    -0.237 OA
ATOM     81  O   UNL     1      -9.792  11.537 -15.337  1.00  0.00    -0.744 OA
ENDBRANCH  74  78
ENDBRANCH  57  71
BRANCH  58  82
ATOM     82  C   UNL     1     -12.812  -1.222  -8.836  1.00  0.00     0.023 A 
ATOM     83  C   UNL     1     -13.140  -2.346  -9.608  1.00  0.00     0.031 A 
ATOM     84  C   UNL     1     -12.687  -1.393  -7.445  1.00  0.00     0.131 A 
ATOM     85  C   UNL     1     -13.405  -3.571  -8.979  1.00  0.00     0.055 A 
ATOM     86  C   UNL     1     -12.859  -2.636  -6.835  1.00  0.00     0.041 A 
ATOM     87  F   UNL     1     -12.396  -0.348  -6.654  1.00  0.00    -0.206 F 
ATOM     88  C   UNL     1     -13.239  -3.731  -7.602  1.00  0.00     0.022 A 
BRANCH  85  89
ATOM     89  S   UNL     1     -14.145  -4.904  -9.963  1.00  0.00     0.124 S 
ATOM     90  O   UNL     1     -15.351  -4.257 -10.466  1.00  0.00    -0.237 OA
ATOM     91  O   UNL     1     -13.101  -5.173 -10.946  1.00  0.00    -0.237 OA
ATOM     92  O   UNL     1     -14.366  -5.965  -8.982  1.00  0.00    -0.744 OA
ENDBRANCH  85  89
ENDBRANCH  58  82
BRANCH  70  93
ATOM     93  C   UNL     1     -17.201   2.737 -12.557  1.00  0.00     0.023 A 
ATOM     94  C   UNL     1     -18.301   2.542 -11.708  1.00  0.00     0.031 A 
ATOM     95  C   UNL     1     -17.426   2.710 -13.947  1.00  0.00     0.131 A 
ATOM     96  C   UNL     1     -19.558   2.248 -12.256  1.00  0.00     0.055 A 
ATOM     97  C   UNL     1     -18.698   2.523 -14.484  1.00  0.00     0.041 A 
ATOM     98  F   UNL     1     -16.410   2.875 -14.809  1.00  0.00    -0.206 F 
ATOM     99  C   UNL     1     -19.771   2.272 -13.636  1.00  0.00     0.022 A 
BRANCH  96 100
ATOM    100  S   UNL     1     -20.869   1.668 -11.146  1.00  0.00     0.124 S 
ATOM    101  O   UNL     1     -20.237   0.512 -10.518  1.00  0.00    -0.237 OA
ATOM    102  O   UNL     1     -21.085   2.824 -10.282  1.00  0.00    -0.237 OA
ATOM    103  O   UNL     1     -21.971   1.356 -12.054  1.00  0.00    -0.744 OA
ENDBRANCH  96 100
ENDBRANCH  70  93
ENDBRANCH  44  45
ENDBRANCH  37  39
ENDBRANCH  36  37
ENDBRANCH  35  36
ENDBRANCH  34  35
ENDBRANCH  33  34
ENDBRANCH  32  33
ENDBRANCH  31  32
ENDBRANCH  30  31
ENDBRANCH   1  30
TORSDOF 27
