REMARK SMILES Cc1ccc(/C=C(\NC(=O)c2cccc(C)c2)C(=O)OCCOCCOCCOCCOC(=O)c2ccc(-c3c4nc(c(-c5cc(S(=O)(=O)[O-])ccc5F)c5ccc([nH]5)c(-c5cc(S(=O)(=O)[O-])ccc5F)c5nc(c(-c6cc(S(=O)(=O)[O-])ccc6F)c6ccc3[nH]6)C=C5)C=C4)cc2)cc1
REMARK SMILES IDX 27 1 26 2 25 3 24 4 23 5 22 6 21 7 20 8 18 9 19 10 7 11 6 12
REMARK SMILES IDX 5 13 1 14 2 15 3 16 99 17 4 18 98 19 8 20 9 21 10 23 11 24
REMARK SMILES IDX 12 25 17 26 13 27 15 28 14 29 16 30 28 31 29 32 30 33 31 34
REMARK SMILES IDX 32 35 33 36 34 37 35 38 36 39 97 40 37 41 96 42 38 43 39 44
REMARK SMILES IDX 40 45 90 46 41 47 95 48 89 49 91 50 42 51 94 52 88 53 87 54
REMARK SMILES IDX 43 56 75 57 55 58 74 59 56 60 59 61 73 62 92 63 57 64 58 65
REMARK SMILES IDX 72 67 93 68 60 69 44 70 45 71 53 72 46 73 52 74 54 75 51 76
REMARK SMILES IDX 47 77 48 78 49 79 50 80 76 81 77 82 85 83 78 84 84 85 86 86
REMARK SMILES IDX 83 87 79 88 80 89 81 90 82 91 61 92 62 93 70 94 63 95 69 96
REMARK SMILES IDX 71 97 68 98 64 99 65 100 66 101 67 102
REMARK H PARENT 8 22 91 55 59 66
REMARK Flexibility Score: inf
ROOT
ATOM      1  C   UNL     1      -4.755  -2.457   3.974  1.00  0.00     0.188 C 
ENDROOT
BRANCH   1   2
ATOM      2  O   UNL     1      -4.633  -1.480   2.944  1.00  0.00    -0.377 OA
BRANCH   2   3
ATOM      3  C   UNL     1      -3.695  -0.451   3.192  1.00  0.00     0.188 C 
BRANCH   3   4
ATOM      4  C   UNL     1      -3.772   0.650   2.125  1.00  0.00     0.188 C 
BRANCH   4   5
ATOM      5  O   UNL     1      -4.825   1.603   2.297  1.00  0.00    -0.376 OA
BRANCH   5   6
ATOM      6  C   UNL     1      -6.007   1.241   1.582  1.00  0.00     0.202 C 
BRANCH   6   7
ATOM      7  C   UNL     1      -6.147   1.838   0.179  1.00  0.00     0.261 C 
BRANCH   7   8
ATOM      8  O   UNL     1      -5.722   0.888  -0.789  1.00  0.00    -0.459 OA
BRANCH   8   9
ATOM      9  C   UNL     1      -4.549   0.972  -1.395  1.00  0.00     0.354 C 
ATOM     10  O   UNL     1      -3.989   2.052  -1.593  1.00  0.00    -0.244 OA
BRANCH   9  11
ATOM     11  C   UNL     1      -3.833  -0.417  -1.545  1.00  0.00     0.128 C 
ATOM     12  C   UNL     1      -2.568  -0.155  -1.069  1.00  0.00     0.042 C 
BRANCH  12  13
ATOM     13  C   UNL     1      -1.139  -0.316  -0.617  1.00  0.00    -0.023 A 
ATOM     14  C   UNL     1       3.141  -0.093   0.177  1.00  0.00     0.044 C 
ATOM     15  C   UNL     1       1.644  -0.170   0.088  1.00  0.00    -0.051 A 
ATOM     16  C   UNL     1       0.957  -1.395  -0.003  1.00  0.00     0.004 A 
ATOM     17  C   UNL     1       0.907   0.997  -0.013  1.00  0.00     0.004 A 
ATOM     18  C   UNL     1      -0.424  -1.470  -0.338  1.00  0.00     0.008 A 
ATOM     19  C   UNL     1      -0.444   0.916  -0.356  1.00  0.00     0.008 A 
ENDBRANCH  12  13
BRANCH  11  20
ATOM     20  N   UNL     1      -4.573  -1.627  -1.964  1.00  0.00    -0.316 N 
ATOM     21  C   UNL     1      -5.798  -2.048  -1.178  1.00  0.00     0.255 C 
ATOM     22  H   UNL     1      -4.275  -2.150  -2.743  1.00  0.00     0.170 HD
ATOM     23  O   UNL     1      -5.806  -1.225  -0.246  1.00  0.00    -0.269 OA
BRANCH  21  24
ATOM     24  C   UNL     1      -6.908  -3.620  -1.048  1.00  0.00     0.040 A 
ATOM     25  C   UNL     1      -6.426  -5.616  -0.976  1.00  0.00     0.014 A 
ATOM     26  C   UNL     1      -7.843  -3.092  -2.398  1.00  0.00     0.017 A 
ATOM     27  C   UNL     1      -7.033  -6.602  -2.406  1.00  0.00     0.001 A 
ATOM     28  C   UNL     1      -8.431  -4.132  -3.550  1.00  0.00    -0.050 A 
ATOM     29  C   UNL     1      -8.074  -5.808  -3.567  1.00  0.00     0.003 A 
ATOM     30  C   UNL     1      -9.463  -3.392  -4.375  1.00  0.00     0.044 C 
ENDBRANCH  21  24
ENDBRANCH  11  20
ENDBRANCH   9  11
ENDBRANCH   8   9
ENDBRANCH   7   8
ENDBRANCH   6   7
ENDBRANCH   5   6
ENDBRANCH   4   5
ENDBRANCH   3   4
ENDBRANCH   2   3
ENDBRANCH   1   2
BRANCH   1  31
ATOM     31  C   UNL     1      -5.979  -2.161   4.815  1.00  0.00     0.188 C 
BRANCH  31  32
ATOM     32  O   UNL     1      -6.322  -0.787   4.718  1.00  0.00    -0.376 OA
BRANCH  32  33
ATOM     33  C   UNL     1      -6.219   0.031   5.856  1.00  0.00     0.202 C 
BRANCH  33  34
ATOM     34  C   UNL     1      -7.111  -0.442   7.004  1.00  0.00     0.261 C 
BRANCH  34  35
ATOM     35  O   UNL     1      -8.501  -0.376   6.609  1.00  0.00    -0.460 OA
BRANCH  35  36
ATOM     36  C   UNL     1      -9.074  -1.576   6.291  1.00  0.00     0.338 C 
ATOM     37  O   UNL     1      -9.153  -2.518   7.064  1.00  0.00    -0.246 OA
BRANCH  36  38
ATOM     38  C   UNL     1      -9.376  -1.635   4.824  1.00  0.00     0.060 A 
ATOM     39  C   UNL     1      -9.578  -2.863   4.202  1.00  0.00     0.016 A 
ATOM     40  C   UNL     1      -8.998  -0.576   4.027  1.00  0.00     0.016 A 
ATOM     41  C   UNL     1      -8.999  -3.096   2.931  1.00  0.00     0.010 A 
ATOM     42  C   UNL     1      -8.346  -0.877   2.831  1.00  0.00     0.010 A 
ATOM     43  C   UNL     1      -8.168  -2.171   2.317  1.00  0.00    -0.014 A 
BRANCH  43  44
ATOM     44  C   UNL     1      -7.280  -2.342   1.055  1.00  0.00     0.031 A 
ATOM     45  C   UNL     1      -8.146  -1.131  -0.084  1.00  0.00     0.074 A 
ATOM     46  C   UNL     1      -5.864  -3.098   1.159  1.00  0.00     0.049 A 
ATOM     47  N   UNL     1      -7.836  -0.613  -1.270  1.00  0.00    -0.248 NA
ATOM     48  C   UNL     1      -9.460  -0.477   0.253  1.00  0.00     0.031 C 
ATOM     49  C   UNL     1      -4.245  -2.964   0.558  1.00  0.00     0.029 A 
ATOM     50  N   UNL     1      -5.634  -4.348   0.478  1.00  0.00    -0.354 N 
ATOM     51  C   UNL     1      -8.558   0.543  -1.613  1.00  0.00     0.074 A 
ATOM     52  C   UNL     1      -9.585   0.560  -0.605  1.00  0.00     0.031 C 
ATOM     53  C   UNL     1      -3.828  -3.659  -0.617  1.00  0.00     0.029 A 
ATOM     54  C   UNL     1      -5.000  -4.298  -1.192  1.00  0.00     0.049 A 
ATOM     55  H   UNL     1      -5.822  -5.207   0.921  1.00  0.00     0.167 HD
ATOM     56  C   UNL     1      -8.128   1.438  -2.594  1.00  0.00     0.034 A 
ATOM     57  C   UNL     1      -6.220  -4.609  -2.448  1.00  0.00     0.034 A 
ATOM     58  C   UNL     1      -7.200   0.865  -3.559  1.00  0.00     0.049 A 
ATOM     59  C   UNL     1      -5.864  -4.143  -3.900  1.00  0.00     0.074 A 
ATOM     60  C   UNL     1      -5.911   1.184  -3.961  1.00  0.00     0.029 A 
ATOM     61  N   UNL     1      -7.640  -0.091  -4.442  1.00  0.00    -0.354 N 
ATOM     62  N   UNL     1      -5.651  -2.900  -4.244  1.00  0.00    -0.248 NA
ATOM     63  C   UNL     1      -5.919  -5.028  -5.087  1.00  0.00     0.031 C 
ATOM     64  C   UNL     1      -5.487   0.231  -4.901  1.00  0.00     0.029 A 
ATOM     65  C   UNL     1      -6.581  -0.552  -5.189  1.00  0.00     0.049 A 
ATOM     66  H   UNL     1      -8.571  -0.399  -4.527  1.00  0.00     0.167 HD
ATOM     67  C   UNL     1      -6.100  -2.806  -5.563  1.00  0.00     0.074 A 
ATOM     68  C   UNL     1      -6.065  -4.149  -6.084  1.00  0.00     0.031 C 
ATOM     69  C   UNL     1      -6.753  -1.698  -6.029  1.00  0.00     0.034 A 
BRANCH  56  70
ATOM     70  C   UNL     1      -8.282   2.999  -2.736  1.00  0.00     0.023 A 
ATOM     71  C   UNL     1      -7.650   3.664  -3.850  1.00  0.00     0.031 A 
ATOM     72  C   UNL     1      -8.734   3.876  -1.741  1.00  0.00     0.131 A 
ATOM     73  C   UNL     1      -7.356   5.047  -3.872  1.00  0.00     0.055 A 
ATOM     74  C   UNL     1      -8.523   5.279  -1.807  1.00  0.00     0.041 A 
ATOM     75  F   UNL     1      -9.351   3.420  -0.643  1.00  0.00    -0.206 F 
ATOM     76  C   UNL     1      -7.805   5.865  -2.851  1.00  0.00     0.022 A 
BRANCH  73  77
ATOM     77  S   UNL     1      -6.292   5.747  -5.192  1.00  0.00     0.124 S 
ATOM     78  O   UNL     1      -4.987   5.165  -4.898  1.00  0.00    -0.237 OA
ATOM     79  O   UNL     1      -6.943   5.286  -6.413  1.00  0.00    -0.237 OA
ATOM     80  O   UNL     1      -6.376   7.192  -4.969  1.00  0.00    -0.744 OA
ENDBRANCH  73  77
ENDBRANCH  56  70
BRANCH  57  81
ATOM     81  C   UNL     1      -8.144  -5.103  -1.476  1.00  0.00     0.023 A 
ATOM     82  C   UNL     1      -8.164  -6.159  -0.079  1.00  0.00     0.031 A 
ATOM     83  C   UNL     1      -9.510  -4.613  -1.185  1.00  0.00     0.131 A 
ATOM     84  C   UNL     1      -8.813  -6.277   1.155  1.00  0.00     0.055 A 
ATOM     85  C   UNL     1     -10.373  -4.960   0.018  1.00  0.00     0.041 A 
ATOM     86  F   UNL     1     -10.195  -3.738  -1.940  1.00  0.00    -0.206 F 
ATOM     87  C   UNL     1     -10.030  -5.712   1.177  1.00  0.00     0.022 A 
BRANCH  84  88
ATOM     88  S   UNL     1      -7.765  -6.764   2.655  1.00  0.00     0.124 S 
ATOM     89  O   UNL     1      -7.843  -8.220   2.630  1.00  0.00    -0.237 OA
ATOM     90  O   UNL     1      -6.426  -6.237   2.373  1.00  0.00    -0.237 OA
ATOM     91  O   UNL     1      -8.439  -6.120   3.778  1.00  0.00    -0.744 OA
ENDBRANCH  84  88
ENDBRANCH  57  81
BRANCH  69  92
ATOM     92  C   UNL     1      -7.698  -1.645  -7.212  1.00  0.00     0.023 A 
ATOM     93  C   UNL     1      -8.358  -2.784  -7.690  1.00  0.00     0.031 A 
ATOM     94  C   UNL     1      -8.076  -0.430  -7.823  1.00  0.00     0.131 A 
ATOM     95  C   UNL     1      -9.240  -2.739  -8.776  1.00  0.00     0.055 A 
ATOM     96  C   UNL     1      -9.003  -0.369  -8.877  1.00  0.00     0.041 A 
ATOM     97  F   UNL     1      -7.574   0.742  -7.408  1.00  0.00    -0.206 F 
ATOM     98  C   UNL     1      -9.570  -1.535  -9.383  1.00  0.00     0.022 A 
BRANCH  95  99
ATOM     99  S   UNL     1      -9.819  -4.327  -9.423  1.00  0.00     0.124 S 
ATOM    100  O   UNL     1      -8.574  -5.088  -9.510  1.00  0.00    -0.237 OA
ATOM    101  O   UNL     1     -10.750  -4.764  -8.387  1.00  0.00    -0.237 OA
ATOM    102  O   UNL     1     -10.421  -3.977 -10.706  1.00  0.00    -0.744 OA
ENDBRANCH  95  99
ENDBRANCH  69  92
ENDBRANCH  43  44
ENDBRANCH  36  38
ENDBRANCH  35  36
ENDBRANCH  34  35
ENDBRANCH  33  34
ENDBRANCH  32  33
ENDBRANCH  31  32
ENDBRANCH   1  31
TORSDOF 26
