REMARK SMILES O=C(CCCCCN1C(=O)[C@@H]2CC=CC[C@H]2C1=O)OCCOCCOCCOCCOC(=O)c1ccc(-c2c3nc(c(-c4cc(S(=O)(=O)[O-])ccc4F)c4ccc([nH]4)c(-c4cc(S(=O)(=O)[O-])ccc4F)c4nc(c(-c5cc(S(=O)(=O)[O-])ccc5F)c5ccc2[nH]5)C=C4)C=C3)cc1
REMARK SMILES IDX 24 1 23 2 22 3 21 4 20 5 19 6 2 7 1 8 3 9 4 10 5 11 6 12
REMARK SMILES IDX 7 13 8 14 9 15 17 16 10 17 11 18 16 19 18 20 12 21 15 22
REMARK SMILES IDX 13 23 14 24 25 25 26 26 27 27 28 28 29 29 30 30 31 31 32 32
REMARK SMILES IDX 33 33 34 34 35 35 96 36 36 37 95 38 37 39 38 40 39 41 89 42
REMARK SMILES IDX 40 43 94 44 88 45 90 46 41 47 93 48 87 49 86 50 42 52 74 53
REMARK SMILES IDX 54 54 73 55 55 56 58 57 72 58 91 59 56 60 57 61 71 63 92 64
REMARK SMILES IDX 59 65 43 66 44 67 52 68 45 69 51 70 53 71 50 72 46 73 47 74
REMARK SMILES IDX 48 75 49 76 75 77 76 78 84 79 77 80 83 81 85 82 82 83 78 84
REMARK SMILES IDX 79 85 80 86 81 87 60 88 61 89 69 90 62 91 68 92 70 93 67 94
REMARK SMILES IDX 63 95 64 96 65 97 66 98
REMARK H PARENT 90 51 58 62
REMARK Flexibility Score: inf
ROOT
ATOM      1  C   UNL     1       2.048   2.392   1.802  1.00  0.00     0.188 C 
ENDROOT
BRANCH   1   2
ATOM      2  C   UNL     1       2.221   0.941   1.365  1.00  0.00     0.188 C 
BRANCH   2   3
ATOM      3  O   UNL     1       3.268   0.685   0.431  1.00  0.00    -0.376 OA
BRANCH   3   4
ATOM      4  C   UNL     1       3.385   1.550  -0.676  1.00  0.00     0.202 C 
BRANCH   4   5
ATOM      5  C   UNL     1       3.352   0.799  -1.994  1.00  0.00     0.261 C 
BRANCH   5   6
ATOM      6  O   UNL     1       2.416  -0.292  -2.169  1.00  0.00    -0.463 OA
BRANCH   6   7
ATOM      7  C   UNL     1       1.870  -1.100  -1.242  1.00  0.00     0.305 C 
ATOM      8  O   UNL     1       0.642  -1.198  -1.183  1.00  0.00    -0.252 OA
BRANCH   7   9
ATOM      9  C   UNL     1       2.724  -1.981  -0.340  1.00  0.00     0.123 C 
BRANCH   9  10
ATOM     10  C   UNL     1       3.919  -2.730  -0.904  1.00  0.00     0.012 C 
BRANCH  10  11
ATOM     11  C   UNL     1       5.182  -1.920  -1.150  1.00  0.00     0.002 C 
BRANCH  11  12
ATOM     12  C   UNL     1       5.791  -1.171   0.051  1.00  0.00     0.022 C 
BRANCH  12  13
ATOM     13  C   UNL     1       6.832  -1.945   0.873  1.00  0.00     0.128 C 
BRANCH  13  14
ATOM     14  N   UNL     1       7.768  -2.628   0.011  1.00  0.00    -0.282 N 
ATOM     15  C   UNL     1       8.654  -1.969  -0.818  1.00  0.00     0.233 C 
ATOM     16  C   UNL     1       7.669  -3.973  -0.272  1.00  0.00     0.233 C 
ATOM     17  O   UNL     1       8.857  -0.776  -0.893  1.00  0.00    -0.274 OA
ATOM     18  C   UNL     1       9.354  -3.035  -1.611  1.00  0.00     0.095 C 
ATOM     19  C   UNL     1       8.303  -4.136  -1.615  1.00  0.00     0.095 C 
ATOM     20  O   UNL     1       7.038  -4.825   0.331  1.00  0.00    -0.274 OA
ATOM     21  C   UNL     1       9.734  -2.725  -3.047  1.00  0.00     0.041 C 
ATOM     22  C   UNL     1       8.905  -5.455  -2.026  1.00  0.00     0.041 C 
ATOM     23  C   UNL     1      10.024  -4.022  -3.778  1.00  0.00    -0.030 C 
ATOM     24  C   UNL     1       9.686  -5.241  -3.307  1.00  0.00    -0.030 C 
ENDBRANCH  13  14
ENDBRANCH  12  13
ENDBRANCH  11  12
ENDBRANCH  10  11
ENDBRANCH   9  10
ENDBRANCH   7   9
ENDBRANCH   6   7
ENDBRANCH   5   6
ENDBRANCH   4   5
ENDBRANCH   3   4
ENDBRANCH   2   3
ENDBRANCH   1   2
BRANCH   1  25
ATOM     25  O   UNL     1       3.103   2.996   2.534  1.00  0.00    -0.377 OA
BRANCH  25  26
ATOM     26  C   UNL     1       4.445   2.585   2.356  1.00  0.00     0.188 C 
BRANCH  26  27
ATOM     27  C   UNL     1       5.132   2.173   3.665  1.00  0.00     0.188 C 
BRANCH  27  28
ATOM     28  O   UNL     1       4.394   1.349   4.560  1.00  0.00    -0.376 OA
BRANCH  28  29
ATOM     29  C   UNL     1       3.158   1.850   5.073  1.00  0.00     0.202 C 
BRANCH  29  30
ATOM     30  C   UNL     1       3.084   3.271   5.678  1.00  0.00     0.261 C 
BRANCH  30  31
ATOM     31  O   UNL     1       3.289   4.350   4.743  1.00  0.00    -0.460 OA
BRANCH  31  32
ATOM     32  C   UNL     1       4.432   5.066   4.878  1.00  0.00     0.338 C 
ATOM     33  O   UNL     1       5.264   4.942   5.762  1.00  0.00    -0.246 OA
BRANCH  32  34
ATOM     34  C   UNL     1       4.656   5.907   3.677  1.00  0.00     0.060 A 
ATOM     35  C   UNL     1       5.862   5.770   2.970  1.00  0.00     0.016 A 
ATOM     36  C   UNL     1       3.729   6.875   3.295  1.00  0.00     0.016 A 
ATOM     37  C   UNL     1       6.155   6.612   1.891  1.00  0.00     0.010 A 
ATOM     38  C   UNL     1       4.041   7.745   2.242  1.00  0.00     0.010 A 
ATOM     39  C   UNL     1       5.268   7.641   1.557  1.00  0.00    -0.014 A 
BRANCH  39  40
ATOM     40  C   UNL     1       5.711   8.779   0.708  1.00  0.00     0.031 A 
ATOM     41  C   UNL     1       6.256   9.993   1.411  1.00  0.00     0.074 A 
ATOM     42  C   UNL     1       5.588   8.777  -0.631  1.00  0.00     0.049 A 
ATOM     43  N   UNL     1       6.512  11.187   0.945  1.00  0.00    -0.248 NA
ATOM     44  C   UNL     1       6.526   9.831   2.847  1.00  0.00     0.031 C 
ATOM     45  C   UNL     1       5.144   7.645  -1.438  1.00  0.00     0.029 A 
ATOM     46  N   UNL     1       5.799   9.783  -1.544  1.00  0.00    -0.354 N 
ATOM     47  C   UNL     1       6.945  11.930   2.039  1.00  0.00     0.074 A 
ATOM     48  C   UNL     1       6.889  11.055   3.190  1.00  0.00     0.031 C 
ATOM     49  C   UNL     1       5.077   8.031  -2.725  1.00  0.00     0.029 A 
ATOM     50  C   UNL     1       5.421   9.450  -2.824  1.00  0.00     0.049 A 
ATOM     51  H   UNL     1       6.184  10.657  -1.305  1.00  0.00     0.167 HD
ATOM     52  C   UNL     1       7.345  13.226   2.080  1.00  0.00     0.034 A 
ATOM     53  C   UNL     1       5.313  10.215  -3.933  1.00  0.00     0.034 A 
ATOM     54  C   UNL     1       7.363  14.089   0.926  1.00  0.00     0.049 A 
ATOM     55  C   UNL     1       5.661  11.685  -3.855  1.00  0.00     0.074 A 
ATOM     56  C   UNL     1       7.755  15.414   0.846  1.00  0.00     0.029 A 
ATOM     57  N   UNL     1       6.948  13.721  -0.349  1.00  0.00    -0.354 N 
ATOM     58  N   UNL     1       6.058  12.388  -2.818  1.00  0.00    -0.248 NA
ATOM     59  C   UNL     1       5.548  12.465  -5.096  1.00  0.00     0.031 C 
ATOM     60  C   UNL     1       7.491  15.870  -0.449  1.00  0.00     0.029 A 
ATOM     61  C   UNL     1       7.037  14.804  -1.210  1.00  0.00     0.049 A 
ATOM     62  H   UNL     1       6.637  12.822  -0.603  1.00  0.00     0.167 HD
ATOM     63  C   UNL     1       6.279  13.681  -3.292  1.00  0.00     0.074 A 
ATOM     64  C   UNL     1       5.965  13.662  -4.705  1.00  0.00     0.031 C 
ATOM     65  C   UNL     1       6.719  14.777  -2.621  1.00  0.00     0.034 A 
BRANCH  52  66
ATOM     66  C   UNL     1       7.706  13.790   3.435  1.00  0.00     0.023 A 
ATOM     67  C   UNL     1       8.749  13.252   4.210  1.00  0.00     0.031 A 
ATOM     68  C   UNL     1       6.942  14.829   3.997  1.00  0.00     0.131 A 
ATOM     69  C   UNL     1       8.927  13.677   5.535  1.00  0.00     0.055 A 
ATOM     70  C   UNL     1       7.193  15.319   5.280  1.00  0.00     0.041 A 
ATOM     71  F   UNL     1       5.916  15.367   3.320  1.00  0.00    -0.206 F 
ATOM     72  C   UNL     1       8.175  14.726   6.067  1.00  0.00     0.022 A 
BRANCH  69  73
ATOM     73  S   UNL     1      10.011  12.699   6.615  1.00  0.00     0.124 S 
ATOM     74  O   UNL     1       9.420  11.368   6.498  1.00  0.00    -0.237 OA
ATOM     75  O   UNL     1      11.317  12.875   5.992  1.00  0.00    -0.237 OA
ATOM     76  O   UNL     1       9.851  13.331   7.923  1.00  0.00    -0.744 OA
ENDBRANCH  69  73
ENDBRANCH  52  66
BRANCH  53  77
ATOM     77  C   UNL     1       4.794   9.622  -5.200  1.00  0.00     0.023 A 
ATOM     78  C   UNL     1       5.601   9.515  -6.344  1.00  0.00     0.031 A 
ATOM     79  C   UNL     1       3.464   9.168  -5.289  1.00  0.00     0.131 A 
ATOM     80  C   UNL     1       5.065   8.990  -7.532  1.00  0.00     0.055 A 
ATOM     81  C   UNL     1       2.952   8.601  -6.457  1.00  0.00     0.041 A 
ATOM     82  F   UNL     1       2.647   9.252  -4.227  1.00  0.00    -0.206 F 
ATOM     83  C   UNL     1       3.752   8.516  -7.591  1.00  0.00     0.022 A 
BRANCH  80  84
ATOM     84  S   UNL     1       6.094   8.984  -9.027  1.00  0.00     0.124 S 
ATOM     85  O   UNL     1       6.347  10.408  -9.218  1.00  0.00    -0.237 OA
ATOM     86  O   UNL     1       7.236   8.179  -8.606  1.00  0.00    -0.237 OA
ATOM     87  O   UNL     1       5.233   8.362 -10.030  1.00  0.00    -0.744 OA
ENDBRANCH  80  84
ENDBRANCH  53  77
BRANCH  65  88
ATOM     88  C   UNL     1       6.970  16.039  -3.416  1.00  0.00     0.023 A 
ATOM     89  C   UNL     1       5.932  16.778  -4.010  1.00  0.00     0.031 A 
ATOM     90  C   UNL     1       8.284  16.529  -3.543  1.00  0.00     0.131 A 
ATOM     91  C   UNL     1       6.231  17.946  -4.732  1.00  0.00     0.055 A 
ATOM     92  C   UNL     1       8.567  17.723  -4.208  1.00  0.00     0.041 A 
ATOM     93  F   UNL     1       9.317  15.863  -3.002  1.00  0.00    -0.206 F 
ATOM     94  C   UNL     1       7.538  18.434  -4.815  1.00  0.00     0.022 A 
BRANCH  91  95
ATOM     95  S   UNL     1       4.899  18.788  -5.632  1.00  0.00     0.124 S 
ATOM     96  O   UNL     1       4.428  17.737  -6.528  1.00  0.00    -0.237 OA
ATOM     97  O   UNL     1       3.986  19.166  -4.558  1.00  0.00    -0.237 OA
ATOM     98  O   UNL     1       5.578  19.903  -6.288  1.00  0.00    -0.744 OA
ENDBRANCH  91  95
ENDBRANCH  65  88
ENDBRANCH  39  40
ENDBRANCH  32  34
ENDBRANCH  31  32
ENDBRANCH  30  31
ENDBRANCH  29  30
ENDBRANCH  28  29
ENDBRANCH  27  28
ENDBRANCH  26  27
ENDBRANCH  25  26
ENDBRANCH   1  25
TORSDOF 28
