REMARK SMILES CC[NH2+][C@]1(C(=O)OCCOCCOCCOCCOC(=O)c2ccc(-c3c4nc(c(-c5cc(S(=O)(=O)[O-])ccc5F)c5ccc([nH]5)c(-c5cc(S(=O)(=O)[O-])ccc5F)c5nc(c(-c6cc(S(=O)(=O)[O-])ccc6F)c6ccc3[nH]6)C=C5)C=C4)cc2)CC[C@@H]([N@@H+](C)CC(C)(C)C)C1
REMARK SMILES IDX 13 1 12 2 11 3 10 4 9 5 8 6 7 7 5 8 6 9 4 10 85 11 95 12
REMARK SMILES IDX 86 13 87 14 3 15 2 18 1 19 88 20 89 21 90 23 91 24 92 25
REMARK SMILES IDX 93 26 94 27 14 28 15 29 16 30 17 31 18 32 19 33 20 34 21 35
REMARK SMILES IDX 22 36 23 37 84 38 24 39 83 40 25 41 26 42 27 43 77 44 28 45
REMARK SMILES IDX 82 46 76 47 78 48 29 49 81 50 75 51 74 52 30 54 62 55 42 56
REMARK SMILES IDX 61 57 43 58 46 59 60 60 79 61 44 62 45 63 59 65 80 66 47 67
REMARK SMILES IDX 31 68 32 69 40 70 33 71 39 72 41 73 38 74 34 75 35 76 36 77
REMARK SMILES IDX 37 78 63 79 64 80 72 81 65 82 71 83 73 84 70 85 66 86 67 87
REMARK SMILES IDX 68 88 69 89 48 90 49 91 57 92 50 93 56 94 58 95 55 96 51 97
REMARK SMILES IDX 52 98 53 99 54 100
REMARK H PARENT 3 16 3 17 88 22 78 53 46 64
REMARK Flexibility Score: inf
ROOT
ATOM      1  O   UNL     1       0.845   0.432   0.829  1.00  0.00    -0.377 OA
ENDROOT
BRANCH   1   2
ATOM      2  C   UNL     1       0.186   0.518  -0.424  1.00  0.00     0.188 C 
BRANCH   2   3
ATOM      3  C   UNL     1       1.080   0.650  -1.670  1.00  0.00     0.188 C 
BRANCH   3   4
ATOM      4  O   UNL     1       2.351   0.053  -1.536  1.00  0.00    -0.376 OA
BRANCH   4   5
ATOM      5  C   UNL     1       3.521   0.793  -1.248  1.00  0.00     0.202 C 
BRANCH   5   6
ATOM      6  C   UNL     1       3.625   1.907  -0.187  1.00  0.00     0.261 C 
BRANCH   6   7
ATOM      7  O   UNL     1       2.434   2.553   0.259  1.00  0.00    -0.459 OA
BRANCH   7   8
ATOM      8  C   UNL     1       1.956   3.470  -0.608  1.00  0.00     0.368 C 
ATOM      9  O   UNL     1       2.427   3.619  -1.732  1.00  0.00    -0.245 OA
BRANCH   8  10
ATOM     10  C   UNL     1       0.767   4.298  -0.069  1.00  0.00     0.200 C 
ATOM     11  C   UNL     1       1.261   5.742   0.076  1.00  0.00     0.087 C 
ATOM     12  C   UNL     1      -0.276   4.347  -1.230  1.00  0.00     0.146 C 
ATOM     13  C   UNL     1       0.181   6.636  -0.494  1.00  0.00     0.072 C 
ATOM     14  C   UNL     1      -0.538   5.827  -1.568  1.00  0.00     0.191 C 
BRANCH  10  15
ATOM     15  N   UNL     1       0.130   3.737   1.166  1.00  0.00    -0.332 N 
ATOM     16  H   UNL     1      -0.861   3.981   1.150  1.00  0.00     0.347 HD
ATOM     17  H   UNL     1       0.298   2.731   1.144  1.00  0.00     0.347 HD
BRANCH  15  18
ATOM     18  C   UNL     1       0.698   4.223   2.430  1.00  0.00     0.257 C 
ATOM     19  C   UNL     1       0.055   3.587   3.652  1.00  0.00     0.071 C 
ENDBRANCH  15  18
ENDBRANCH  10  15
BRANCH  14  20
ATOM     20  N   UNL     1      -0.387   6.293  -2.951  1.00  0.00    -0.334 N 
ATOM     21  C   UNL     1      -1.107   7.527  -3.229  1.00  0.00     0.332 C 
ATOM     22  H   UNL     1      -0.837   5.461  -3.333  1.00  0.00     0.348 HD
BRANCH  20  23
ATOM     23  C   UNL     1       0.751   6.003  -3.827  1.00  0.00     0.268 C 
BRANCH  23  24
ATOM     24  C   UNL     1       2.089   6.833  -3.888  1.00  0.00     0.011 C 
ATOM     25  C   UNL     1       3.028   6.546  -2.724  1.00  0.00     0.017 C 
ATOM     26  C   UNL     1       2.860   6.421  -5.165  1.00  0.00     0.017 C 
ATOM     27  C   UNL     1       1.881   8.352  -3.913  1.00  0.00     0.017 C 
ENDBRANCH  23  24
ENDBRANCH  20  23
ENDBRANCH  14  20
ENDBRANCH   8  10
ENDBRANCH   7   8
ENDBRANCH   6   7
ENDBRANCH   5   6
ENDBRANCH   4   5
ENDBRANCH   3   4
ENDBRANCH   2   3
ENDBRANCH   1   2
BRANCH   1  28
ATOM     28  C   UNL     1       1.648  -0.715   1.131  1.00  0.00     0.188 C 
BRANCH  28  29
ATOM     29  C   UNL     1       1.759  -1.942   0.191  1.00  0.00     0.188 C 
BRANCH  29  30
ATOM     30  O   UNL     1       0.682  -2.094  -0.716  1.00  0.00    -0.376 OA
BRANCH  30  31
ATOM     31  C   UNL     1      -0.247  -3.133  -0.468  1.00  0.00     0.202 C 
BRANCH  31  32
ATOM     32  C   UNL     1      -1.060  -3.031   0.830  1.00  0.00     0.261 C 
BRANCH  32  33
ATOM     33  O   UNL     1      -0.303  -2.912   2.045  1.00  0.00    -0.460 OA
BRANCH  33  34
ATOM     34  C   UNL     1       0.475  -3.960   2.393  1.00  0.00     0.338 C 
ATOM     35  O   UNL     1       0.587  -5.016   1.786  1.00  0.00    -0.246 OA
BRANCH  34  36
ATOM     36  C   UNL     1       1.329  -3.540   3.524  1.00  0.00     0.060 A 
ATOM     37  C   UNL     1       2.722  -3.554   3.369  1.00  0.00     0.016 A 
ATOM     38  C   UNL     1       0.758  -3.125   4.730  1.00  0.00     0.016 A 
ATOM     39  C   UNL     1       3.547  -3.183   4.432  1.00  0.00     0.010 A 
ATOM     40  C   UNL     1       1.588  -2.772   5.800  1.00  0.00     0.010 A 
ATOM     41  C   UNL     1       2.987  -2.829   5.667  1.00  0.00    -0.014 A 
BRANCH  41  42
ATOM     42  C   UNL     1       3.865  -2.686   6.857  1.00  0.00     0.031 A 
ATOM     43  C   UNL     1       3.964  -3.837   7.824  1.00  0.00     0.074 A 
ATOM     44  C   UNL     1       4.595  -1.573   7.056  1.00  0.00     0.049 A 
ATOM     45  N   UNL     1       4.649  -3.937   8.933  1.00  0.00    -0.248 NA
ATOM     46  C   UNL     1       3.179  -5.035   7.490  1.00  0.00     0.031 C 
ATOM     47  C   UNL     1       4.618  -0.411   6.168  1.00  0.00     0.029 A 
ATOM     48  N   UNL     1       5.458  -1.238   8.070  1.00  0.00    -0.354 N 
ATOM     49  C   UNL     1       4.378  -5.207   9.433  1.00  0.00     0.074 A 
ATOM     50  C   UNL     1       3.432  -5.821   8.525  1.00  0.00     0.031 C 
ATOM     51  C   UNL     1       5.454   0.510   6.679  1.00  0.00     0.029 A 
ATOM     52  C   UNL     1       5.993   0.023   7.948  1.00  0.00     0.049 A 
ATOM     53  H   UNL     1       5.674  -1.845   8.814  1.00  0.00     0.167 HD
ATOM     54  C   UNL     1       4.879  -5.809  10.540  1.00  0.00     0.034 A 
ATOM     55  C   UNL     1       6.804   0.713   8.777  1.00  0.00     0.034 A 
ATOM     56  C   UNL     1       5.809  -5.177  11.445  1.00  0.00     0.049 A 
ATOM     57  C   UNL     1       7.277   0.055  10.053  1.00  0.00     0.074 A 
ATOM     58  C   UNL     1       6.388  -5.699  12.588  1.00  0.00     0.029 A 
ATOM     59  N   UNL     1       6.284  -3.877  11.322  1.00  0.00    -0.354 N 
ATOM     60  N   UNL     1       7.024  -1.152  10.508  1.00  0.00    -0.248 NA
ATOM     61  C   UNL     1       8.153   0.851  10.921  1.00  0.00     0.031 C 
ATOM     62  C   UNL     1       7.141  -4.691  13.200  1.00  0.00     0.029 A 
ATOM     63  C   UNL     1       7.115  -3.568  12.389  1.00  0.00     0.049 A 
ATOM     64  H   UNL     1       6.064  -3.264  10.583  1.00  0.00     0.167 HD
ATOM     65  C   UNL     1       7.739  -1.267  11.699  1.00  0.00     0.074 A 
ATOM     66  C   UNL     1       8.451  -0.018  11.874  1.00  0.00     0.031 C 
ATOM     67  C   UNL     1       7.804  -2.310  12.569  1.00  0.00     0.034 A 
BRANCH  54  68
ATOM     68  C   UNL     1       4.384  -7.201  10.859  1.00  0.00     0.023 A 
ATOM     69  C   UNL     1       4.617  -8.289   9.999  1.00  0.00     0.031 A 
ATOM     70  C   UNL     1       3.645  -7.438  12.031  1.00  0.00     0.131 A 
ATOM     71  C   UNL     1       4.056  -9.543  10.288  1.00  0.00     0.055 A 
ATOM     72  C   UNL     1       3.163  -8.708  12.356  1.00  0.00     0.041 A 
ATOM     73  F   UNL     1       3.366  -6.435  12.879  1.00  0.00    -0.206 F 
ATOM     74  C   UNL     1       3.355  -9.767  11.474  1.00  0.00     0.022 A 
BRANCH  71  75
ATOM     75  S   UNL     1       4.127 -10.838   9.019  1.00  0.00     0.124 S 
ATOM     76  O   UNL     1       3.458 -10.187   7.895  1.00  0.00    -0.237 OA
ATOM     77  O   UNL     1       5.561 -11.057   8.871  1.00  0.00    -0.237 OA
ATOM     78  O   UNL     1       3.385 -11.946   9.618  1.00  0.00    -0.744 OA
ENDBRANCH  71  75
ENDBRANCH  54  68
BRANCH  55  79
ATOM     79  C   UNL     1       7.196   2.119   8.461  1.00  0.00     0.023 A 
ATOM     80  C   UNL     1       8.541   2.478   8.277  1.00  0.00     0.031 A 
ATOM     81  C   UNL     1       6.231   3.141   8.407  1.00  0.00     0.131 A 
ATOM     82  C   UNL     1       8.888   3.828   8.099  1.00  0.00     0.055 A 
ATOM     83  C   UNL     1       6.575   4.472   8.168  1.00  0.00     0.041 A 
ATOM     84  F   UNL     1       4.930   2.857   8.584  1.00  0.00    -0.206 F 
ATOM     85  C   UNL     1       7.913   4.824   8.027  1.00  0.00     0.022 A 
BRANCH  82  86
ATOM     86  S   UNL     1      10.646   4.277   8.062  1.00  0.00     0.124 S 
ATOM     87  O   UNL     1      11.106   3.780   9.354  1.00  0.00    -0.237 OA
ATOM     88  O   UNL     1      11.118   3.550   6.889  1.00  0.00    -0.237 OA
ATOM     89  O   UNL     1      10.622   5.731   7.923  1.00  0.00    -0.744 OA
ENDBRANCH  82  86
ENDBRANCH  55  79
BRANCH  67  90
ATOM     90  C   UNL     1       8.713  -2.149  13.768  1.00  0.00     0.023 A 
ATOM     91  C   UNL     1       8.487  -1.159  14.741  1.00  0.00     0.031 A 
ATOM     92  C   UNL     1       9.845  -2.970  13.918  1.00  0.00     0.131 A 
ATOM     93  C   UNL     1       9.423  -0.958  15.768  1.00  0.00     0.055 A 
ATOM     94  C   UNL     1      10.729  -2.819  14.989  1.00  0.00     0.041 A 
ATOM     95  F   UNL     1      10.119  -3.930  13.021  1.00  0.00    -0.206 F 
ATOM     96  C   UNL     1      10.532  -1.795  15.910  1.00  0.00     0.022 A 
BRANCH  93  97
ATOM     97  S   UNL     1       9.248   0.504  16.828  1.00  0.00     0.124 S 
ATOM     98  O   UNL     1       9.229   1.586  15.848  1.00  0.00    -0.237 OA
ATOM     99  O   UNL     1       7.987   0.243  17.514  1.00  0.00    -0.237 OA
ATOM    100  O   UNL     1      10.437   0.456  17.677  1.00  0.00    -0.744 OA
ENDBRANCH  93  97
ENDBRANCH  67  90
ENDBRANCH  41  42
ENDBRANCH  34  36
ENDBRANCH  33  34
ENDBRANCH  32  33
ENDBRANCH  31  32
ENDBRANCH  30  31
ENDBRANCH  29  30
ENDBRANCH  28  29
ENDBRANCH   1  28
TORSDOF 28
