REMARK SMILES CS(=O)(=O)Nc1ccc(-c2cc(Cl)cc3c2O[C@@H](C(F)(F)F)C(C(=O)OCCOCCOCCOCCOC(=O)c2ccc(-c4c5nc(c(-c6cc(S(=O)(=O)[O-])ccc6F)c6ccc([nH]6)c(-c6cc(S(=O)(=O)[O-])ccc6F)c6nc(c(-c7cc(S(=O)(=O)[O-])ccc7F)c7ccc4[nH]7)C=C6)C=C5)cc2)=C3)cc1
REMARK SMILES IDX 32 1 31 2 30 3 29 4 28 5 27 6 26 7 24 8 25 9 23 10 10 11
REMARK SMILES IDX 11 12 16 13 12 14 15 15 17 16 13 17 14 18 104 19 18 20 9 21
REMARK SMILES IDX 6 22 7 23 106 24 8 25 105 26 5 27 2 29 1 30 3 31 4 32 19 33
REMARK SMILES IDX 20 34 21 35 22 36 33 37 34 38 35 39 36 40 37 41 38 42 39 43
REMARK SMILES IDX 40 44 41 45 42 46 103 47 43 48 102 49 44 50 45 51 46 52
REMARK SMILES IDX 96 53 47 54 101 55 95 56 97 57 48 58 100 59 94 60 93 61
REMARK SMILES IDX 49 63 81 64 61 65 80 66 62 67 65 68 79 69 98 70 63 71 64 72
REMARK SMILES IDX 78 74 99 75 66 76 50 77 51 78 59 79 52 80 58 81 60 82 57 83
REMARK SMILES IDX 53 84 54 85 55 86 56 87 82 88 83 89 91 90 84 91 90 92 92 93
REMARK SMILES IDX 89 94 85 95 86 96 87 97 88 98 67 99 68 100 76 101 69 102
REMARK SMILES IDX 75 103 77 104 74 105 70 106 71 107 72 108 73 109
REMARK H PARENT 5 28 97 62 65 73
REMARK Flexibility Score: inf
ROOT
ATOM      1  O   UNL     1       8.600 -10.005   3.934  1.00  0.00    -0.377 OA
ENDROOT
BRANCH   1   2
ATOM      2  C   UNL     1       7.893  -8.790   4.093  1.00  0.00     0.188 C 
BRANCH   2   3
ATOM      3  C   UNL     1       6.736  -8.657   3.094  1.00  0.00     0.188 C 
BRANCH   3   4
ATOM      4  O   UNL     1       6.440  -9.851   2.379  1.00  0.00    -0.376 OA
BRANCH   4   5
ATOM      5  C   UNL     1       7.100 -10.084   1.135  1.00  0.00     0.202 C 
BRANCH   5   6
ATOM      6  C   UNL     1       8.596  -9.758   1.009  1.00  0.00     0.261 C 
BRANCH   6   7
ATOM      7  O   UNL     1       8.827  -8.340   1.165  1.00  0.00    -0.460 OA
BRANCH   7   8
ATOM      8  C   UNL     1       8.743  -7.604   0.046  1.00  0.00     0.338 C 
ATOM      9  O   UNL     1       8.628  -8.060  -1.085  1.00  0.00    -0.246 OA
BRANCH   8  10
ATOM     10  C   UNL     1       8.615  -6.151   0.325  1.00  0.00     0.087 C 
ATOM     11  C   UNL     1       5.224  -5.072   2.454  1.00  0.00     0.026 A 
ATOM     12  C   UNL     1       4.257  -6.071   2.186  1.00  0.00     0.033 A 
ATOM     13  C   UNL     1       6.428  -5.188   1.732  1.00  0.00     0.135 A 
ATOM     14  C   UNL     1       4.340  -6.867   1.044  1.00  0.00     0.042 A 
ATOM     15  C   UNL     1       6.403  -5.810   0.473  1.00  0.00     0.019 A 
ATOM     16  O   UNL     1       7.655  -4.972   2.355  1.00  0.00    -0.475 OA
ATOM     17  Cl  UNL     1       3.115  -8.027   0.726  1.00  0.00    -0.084 Cl
ATOM     18  C   UNL     1       5.360  -6.663   0.128  1.00  0.00     0.032 A 
ATOM     19  C   UNL     1       7.590  -5.663  -0.396  1.00  0.00     0.027 C 
ATOM     20  C   UNL     1       8.887  -5.396   1.616  1.00  0.00     0.316 C 
BRANCH  11  21
ATOM     21  C   UNL     1       4.623  -3.757   2.882  1.00  0.00    -0.014 A 
ATOM     22  C   UNL     1       2.682  -1.651   2.890  1.00  0.00     0.048 A 
ATOM     23  C   UNL     1       2.630  -2.684   3.830  1.00  0.00     0.027 A 
ATOM     24  C   UNL     1       3.785  -1.591   2.046  1.00  0.00     0.027 A 
ATOM     25  C   UNL     1       3.598  -3.706   3.845  1.00  0.00     0.011 A 
ATOM     26  C   UNL     1       4.745  -2.626   2.047  1.00  0.00     0.011 A 
BRANCH  22  27
ATOM     27  N   UNL     1       1.515  -0.841   2.761  1.00  0.00    -0.284 N 
ATOM     28  H   UNL     1       0.748  -1.088   3.327  1.00  0.00     0.180 HD
BRANCH  27  29
ATOM     29  S   UNL     1       1.300   0.472   1.764  1.00  0.00     0.229 S 
ATOM     30  C   UNL     1       1.124  -0.254   0.143  1.00  0.00     0.183 C 
ATOM     31  O   UNL     1       2.478   1.309   1.782  1.00  0.00    -0.207 OA
ATOM     32  O   UNL     1       0.002   1.008   2.124  1.00  0.00    -0.207 OA
ENDBRANCH  27  29
ENDBRANCH  22  27
ENDBRANCH  11  21
BRANCH  20  33
ATOM     33  C   UNL     1      10.074  -5.851   2.503  1.00  0.00     0.430 C 
ATOM     34  F   UNL     1      11.244  -5.504   1.901  1.00  0.00    -0.167 F 
ATOM     35  F   UNL     1      10.060  -5.219   3.701  1.00  0.00    -0.167 F 
ATOM     36  F   UNL     1      10.156  -7.164   2.751  1.00  0.00    -0.167 F 
ENDBRANCH  20  33
ENDBRANCH   8  10
ENDBRANCH   7   8
ENDBRANCH   6   7
ENDBRANCH   5   6
ENDBRANCH   4   5
ENDBRANCH   3   4
ENDBRANCH   2   3
ENDBRANCH   1   2
BRANCH   1  37
ATOM     37  C   UNL     1       8.138 -11.116   4.694  1.00  0.00     0.188 C 
BRANCH  37  38
ATOM     38  C   UNL     1       6.626 -11.299   4.948  1.00  0.00     0.188 C 
BRANCH  38  39
ATOM     39  O   UNL     1       5.988 -10.148   5.508  1.00  0.00    -0.376 OA
BRANCH  39  40
ATOM     40  C   UNL     1       5.652 -10.210   6.889  1.00  0.00     0.202 C 
BRANCH  40  41
ATOM     41  C   UNL     1       6.829  -9.935   7.835  1.00  0.00     0.261 C 
BRANCH  41  42
ATOM     42  O   UNL     1       7.893 -10.896   7.780  1.00  0.00    -0.460 OA
BRANCH  42  43
ATOM     43  C   UNL     1       7.572 -12.183   8.039  1.00  0.00     0.338 C 
ATOM     44  O   UNL     1       6.488 -12.607   8.403  1.00  0.00    -0.246 OA
BRANCH  43  45
ATOM     45  C   UNL     1       8.701 -13.027   7.599  1.00  0.00     0.060 A 
ATOM     46  C   UNL     1       8.445 -14.088   6.721  1.00  0.00     0.016 A 
ATOM     47  C   UNL     1      10.004 -12.758   8.029  1.00  0.00     0.016 A 
ATOM     48  C   UNL     1       9.490 -14.914   6.306  1.00  0.00     0.010 A 
ATOM     49  C   UNL     1      11.044 -13.596   7.628  1.00  0.00     0.010 A 
ATOM     50  C   UNL     1      10.785 -14.699   6.795  1.00  0.00    -0.014 A 
BRANCH  50  51
ATOM     51  C   UNL     1      11.815 -15.752   6.636  1.00  0.00     0.031 A 
ATOM     52  C   UNL     1      11.978 -16.747   7.752  1.00  0.00     0.074 A 
ATOM     53  C   UNL     1      12.586 -15.824   5.538  1.00  0.00     0.049 A 
ATOM     54  N   UNL     1      12.834 -17.727   7.878  1.00  0.00    -0.248 NA
ATOM     55  C   UNL     1      11.051 -16.603   8.884  1.00  0.00     0.031 C 
ATOM     56  C   UNL     1      12.499 -14.933   4.384  1.00  0.00     0.029 A 
ATOM     57  N   UNL     1      13.608 -16.685   5.226  1.00  0.00    -0.354 N 
ATOM     58  C   UNL     1      12.549 -18.318   9.104  1.00  0.00     0.074 A 
ATOM     59  C   UNL     1      11.473 -17.554   9.700  1.00  0.00     0.031 C 
ATOM     60  C   UNL     1      13.444 -15.283   3.494  1.00  0.00     0.029 A 
ATOM     61  C   UNL     1      14.222 -16.400   4.030  1.00  0.00     0.049 A 
ATOM     62  H   UNL     1      13.876 -17.436   5.804  1.00  0.00     0.167 HD
ATOM     63  C   UNL     1      13.124 -19.404   9.677  1.00  0.00     0.034 A 
ATOM     64  C   UNL     1      15.303 -16.961   3.452  1.00  0.00     0.034 A 
ATOM     65  C   UNL     1      14.218 -20.131   9.083  1.00  0.00     0.049 A 
ATOM     66  C   UNL     1      15.991 -18.114   4.144  1.00  0.00     0.074 A 
ATOM     67  C   UNL     1      14.870 -21.253   9.562  1.00  0.00     0.029 A 
ATOM     68  N   UNL     1      14.839 -19.792   7.886  1.00  0.00    -0.354 N 
ATOM     69  N   UNL     1      15.698 -18.686   5.291  1.00  0.00    -0.248 NA
ATOM     70  C   UNL     1      17.150 -18.701   3.460  1.00  0.00     0.031 C 
ATOM     71  C   UNL     1      15.931 -21.545   8.697  1.00  0.00     0.029 A 
ATOM     72  C   UNL     1      15.892 -20.658   7.632  1.00  0.00     0.049 A 
ATOM     73  H   UNL     1      14.570 -19.046   7.304  1.00  0.00     0.167 HD
ATOM     74  C   UNL     1      16.620 -19.718   5.450  1.00  0.00     0.074 A 
ATOM     75  C   UNL     1      17.472 -19.694   4.278  1.00  0.00     0.031 C 
ATOM     76  C   UNL     1      16.746 -20.610   6.467  1.00  0.00     0.034 A 
BRANCH  63  77
ATOM     77  C   UNL     1      12.611 -19.809  11.039  1.00  0.00     0.023 A 
ATOM     78  C   UNL     1      11.276 -20.206  11.238  1.00  0.00     0.031 A 
ATOM     79  C   UNL     1      13.446 -19.723  12.166  1.00  0.00     0.131 A 
ATOM     80  C   UNL     1      10.792 -20.407  12.539  1.00  0.00     0.055 A 
ATOM     81  C   UNL     1      12.980 -20.012  13.450  1.00  0.00     0.041 A 
ATOM     82  F   UNL     1      14.722 -19.325  12.044  1.00  0.00    -0.206 F 
ATOM     83  C   UNL     1      11.641 -20.337  13.645  1.00  0.00     0.022 A 
BRANCH  80  84
ATOM     84  S   UNL     1       9.001 -20.576  12.779  1.00  0.00     0.124 S 
ATOM     85  O   UNL     1       8.502 -19.349  12.162  1.00  0.00    -0.237 OA
ATOM     86  O   UNL     1       8.704 -21.815  12.070  1.00  0.00    -0.237 OA
ATOM     87  O   UNL     1       8.854 -20.637  14.232  1.00  0.00    -0.744 OA
ENDBRANCH  80  84
ENDBRANCH  63  77
BRANCH  64  88
ATOM     88  C   UNL     1      15.833 -16.415   2.170  1.00  0.00     0.023 A 
ATOM     89  C   UNL     1      15.805 -17.169   0.986  1.00  0.00     0.031 A 
ATOM     90  C   UNL     1      16.406 -15.131   2.122  1.00  0.00     0.131 A 
ATOM     91  C   UNL     1      16.366 -16.645  -0.189  1.00  0.00     0.055 A 
ATOM     92  C   UNL     1      16.922 -14.597   0.941  1.00  0.00     0.041 A 
ATOM     93  F   UNL     1      16.459 -14.370   3.227  1.00  0.00    -0.206 F 
ATOM     94  C   UNL     1      16.912 -15.359  -0.223  1.00  0.00     0.022 A 
BRANCH  91  95
ATOM     95  S   UNL     1      16.422 -17.691  -1.671  1.00  0.00     0.124 S 
ATOM     96  O   UNL     1      17.250 -18.803  -1.218  1.00  0.00    -0.237 OA
ATOM     97  O   UNL     1      15.010 -17.988  -1.887  1.00  0.00    -0.237 OA
ATOM     98  O   UNL     1      17.034 -16.824  -2.676  1.00  0.00    -0.744 OA
ENDBRANCH  91  95
ENDBRANCH  64  88
BRANCH  76  99
ATOM     99  C   UNL     1      17.822 -21.663   6.333  1.00  0.00     0.023 A 
ATOM    100  C   UNL     1      19.189 -21.338   6.362  1.00  0.00     0.031 A 
ATOM    101  C   UNL     1      17.467 -23.015   6.175  1.00  0.00     0.131 A 
ATOM    102  C   UNL     1      20.151 -22.346   6.188  1.00  0.00     0.055 A 
ATOM    103  C   UNL     1      18.429 -24.020   6.062  1.00  0.00     0.041 A 
ATOM    104  F   UNL     1      16.177 -23.383   6.138  1.00  0.00    -0.206 F 
ATOM    105  C   UNL     1      19.780 -23.686   6.056  1.00  0.00     0.022 A 
BRANCH 102 106
ATOM    106  S   UNL     1      21.897 -21.873   6.047  1.00  0.00     0.124 S 
ATOM    107  O   UNL     1      21.875 -20.968   4.902  1.00  0.00    -0.237 OA
ATOM    108  O   UNL     1      22.159 -21.255   7.343  1.00  0.00    -0.237 OA
ATOM    109  O   UNL     1      22.580 -23.145   5.818  1.00  0.00    -0.744 OA
ENDBRANCH 102 106
ENDBRANCH  76  99
ENDBRANCH  50  51
ENDBRANCH  43  45
ENDBRANCH  42  43
ENDBRANCH  41  42
ENDBRANCH  40  41
ENDBRANCH  39  40
ENDBRANCH  38  39
ENDBRANCH  37  38
ENDBRANCH   1  37
TORSDOF 27
