REMARK SMILES Nc1c(Cl)ccc2c1C=C(C(=O)OCCOCCOCCOCCOC(=O)c1ccc(-c3c4nc(c(-c5cc(S(=O)(=O)[O-])ccc5F)c5ccc([nH]5)c(-c5cc(S(=O)(=O)[O-])ccc5F)c5nc(c(-c6cc(S(=O)(=O)[O-])ccc6F)c6ccc3[nH]6)C=C5)C=C4)cc1)[C@@H](C(F)(F)F)O2
REMARK SMILES IDX 20 1 19 2 18 3 17 4 16 5 15 6 14 7 13 8 11 9 12 10 10 11
REMARK SMILES IDX 2 12 3 13 8 14 4 15 5 16 7 17 9 18 6 19 96 20 91 21 1 22
REMARK SMILES IDX 92 25 93 26 94 27 95 28 21 29 22 30 23 31 24 32 25 33 26 34
REMARK SMILES IDX 27 35 28 36 29 37 90 38 30 39 89 40 31 41 32 42 33 43 83 44
REMARK SMILES IDX 34 45 88 46 82 47 84 48 35 49 87 50 81 51 80 52 36 54 68 55
REMARK SMILES IDX 48 56 67 57 49 58 52 59 66 60 85 61 50 62 51 63 65 65 86 66
REMARK SMILES IDX 53 67 37 68 38 69 46 70 39 71 45 72 47 73 44 74 40 75 41 76
REMARK SMILES IDX 42 77 43 78 69 79 70 80 78 81 71 82 77 83 79 84 76 85 72 86
REMARK SMILES IDX 73 87 74 88 75 89 54 90 55 91 63 92 56 93 62 94 64 95 61 96
REMARK SMILES IDX 57 97 58 98 59 99 60 100
REMARK H PARENT 1 23 1 24 84 53 52 64
REMARK Flexibility Score: inf
ROOT
ATOM      1  C   UNL     1      -6.050  -3.382  -1.452  1.00  0.00     0.188 C 
ENDROOT
BRANCH   1   2
ATOM      2  O   UNL     1      -5.015  -3.079  -0.516  1.00  0.00    -0.377 OA
BRANCH   2   3
ATOM      3  C   UNL     1      -3.913  -2.316  -0.975  1.00  0.00     0.188 C 
BRANCH   3   4
ATOM      4  C   UNL     1      -2.835  -3.179  -1.658  1.00  0.00     0.188 C 
BRANCH   4   5
ATOM      5  O   UNL     1      -3.311  -4.439  -2.098  1.00  0.00    -0.376 OA
BRANCH   5   6
ATOM      6  C   UNL     1      -3.257  -5.583  -1.258  1.00  0.00     0.202 C 
BRANCH   6   7
ATOM      7  C   UNL     1      -3.508  -5.570   0.263  1.00  0.00     0.261 C 
BRANCH   7   8
ATOM      8  O   UNL     1      -3.172  -4.380   0.978  1.00  0.00    -0.460 OA
BRANCH   8   9
ATOM      9  C   UNL     1      -1.880  -4.158   1.268  1.00  0.00     0.338 C 
ATOM     10  O   UNL     1      -0.934  -4.879   1.002  1.00  0.00    -0.246 OA
BRANCH   9  11
ATOM     11  C   UNL     1      -1.779  -2.775   1.789  1.00  0.00     0.088 C 
ATOM     12  C   UNL     1       0.294   0.249   1.208  1.00  0.00     0.061 A 
ATOM     13  C   UNL     1       0.522   1.464   1.890  1.00  0.00     0.064 A 
ATOM     14  C   UNL     1      -0.688  -0.627   1.724  1.00  0.00     0.042 A 
ATOM     15  Cl  UNL     1       1.806   2.521   1.403  1.00  0.00    -0.082 Cl
ATOM     16  C   UNL     1      -0.279   1.856   2.963  1.00  0.00     0.026 A 
ATOM     17  C   UNL     1      -1.526  -0.201   2.763  1.00  0.00     0.130 A 
ATOM     18  C   UNL     1      -0.820  -2.005   1.260  1.00  0.00     0.029 C 
ATOM     19  C   UNL     1      -1.326   1.038   3.374  1.00  0.00     0.049 A 
ATOM     20  O   UNL     1      -2.563  -0.931   3.267  1.00  0.00    -0.475 OA
ATOM     21  C   UNL     1      -2.786  -2.288   2.798  1.00  0.00     0.316 C 
BRANCH  12  22
ATOM     22  N   UNL     1       1.112  -0.118   0.129  1.00  0.00    -0.397 N 
ATOM     23  H   UNL     1       1.789   0.510  -0.212  1.00  0.00     0.156 HD
ATOM     24  H   UNL     1       1.009  -1.004  -0.288  1.00  0.00     0.156 HD
ENDBRANCH  12  22
BRANCH  21  25
ATOM     25  C   UNL     1      -2.855  -3.205   4.027  1.00  0.00     0.430 C 
ATOM     26  F   UNL     1      -3.689  -2.709   4.968  1.00  0.00    -0.167 F 
ATOM     27  F   UNL     1      -3.296  -4.444   3.712  1.00  0.00    -0.167 F 
ATOM     28  F   UNL     1      -1.635  -3.347   4.601  1.00  0.00    -0.167 F 
ENDBRANCH  21  25
ENDBRANCH   9  11
ENDBRANCH   8   9
ENDBRANCH   7   8
ENDBRANCH   6   7
ENDBRANCH   5   6
ENDBRANCH   4   5
ENDBRANCH   3   4
ENDBRANCH   2   3
ENDBRANCH   1   2
BRANCH   1  29
ATOM     29  C   UNL     1      -5.782  -3.409  -2.977  1.00  0.00     0.188 C 
BRANCH  29  30
ATOM     30  O   UNL     1      -4.984  -2.328  -3.450  1.00  0.00    -0.376 OA
BRANCH  30  31
ATOM     31  C   UNL     1      -5.637  -1.301  -4.180  1.00  0.00     0.202 C 
BRANCH  31  32
ATOM     32  C   UNL     1      -6.559  -0.384  -3.366  1.00  0.00     0.261 C 
BRANCH  32  33
ATOM     33  O   UNL     1      -7.630  -1.033  -2.667  1.00  0.00    -0.460 OA
BRANCH  33  34
ATOM     34  C   UNL     1      -8.552  -1.693  -3.401  1.00  0.00     0.338 C 
ATOM     35  O   UNL     1      -8.599  -1.783  -4.616  1.00  0.00    -0.246 OA
BRANCH  34  36
ATOM     36  C   UNL     1      -9.393  -2.452  -2.456  1.00  0.00     0.060 A 
ATOM     37  C   UNL     1      -9.368  -3.853  -2.484  1.00  0.00     0.016 A 
ATOM     38  C   UNL     1     -10.187  -1.772  -1.530  1.00  0.00     0.016 A 
ATOM     39  C   UNL     1     -10.158  -4.580  -1.593  1.00  0.00     0.010 A 
ATOM     40  C   UNL     1     -11.004  -2.501  -0.664  1.00  0.00     0.010 A 
ATOM     41  C   UNL     1     -11.017  -3.905  -0.716  1.00  0.00    -0.014 A 
BRANCH  41  42
ATOM     42  C   UNL     1     -12.104  -4.652  -0.045  1.00  0.00     0.031 A 
ATOM     43  C   UNL     1     -13.412  -4.780  -0.774  1.00  0.00     0.074 A 
ATOM     44  C   UNL     1     -11.942  -5.204   1.170  1.00  0.00     0.049 A 
ATOM     45  N   UNL     1     -14.518  -5.359  -0.391  1.00  0.00    -0.248 NA
ATOM     46  C   UNL     1     -13.481  -4.175  -2.116  1.00  0.00     0.031 C 
ATOM     47  C   UNL     1     -10.711  -5.174   1.954  1.00  0.00     0.029 A 
ATOM     48  N   UNL     1     -12.832  -5.890   1.960  1.00  0.00    -0.354 N 
ATOM     49  C   UNL     1     -15.410  -5.192  -1.443  1.00  0.00     0.074 A 
ATOM     50  C   UNL     1     -14.731  -4.434  -2.467  1.00  0.00     0.031 C 
ATOM     51  C   UNL     1     -10.927  -5.800   3.124  1.00  0.00     0.029 A 
ATOM     52  C   UNL     1     -12.320  -6.249   3.184  1.00  0.00     0.049 A 
ATOM     53  H   UNL     1     -13.750  -6.105   1.676  1.00  0.00     0.167 HD
ATOM     54  C   UNL     1     -16.680  -5.641  -1.548  1.00  0.00     0.034 A 
ATOM     55  C   UNL     1     -12.912  -6.855   4.236  1.00  0.00     0.034 A 
ATOM     56  C   UNL     1     -17.354  -6.383  -0.518  1.00  0.00     0.049 A 
ATOM     57  C   UNL     1     -14.355  -7.289   4.123  1.00  0.00     0.074 A 
ATOM     58  C   UNL     1     -18.640  -6.891  -0.540  1.00  0.00     0.029 A 
ATOM     59  N   UNL     1     -16.808  -6.716   0.711  1.00  0.00    -0.354 N 
ATOM     60  N   UNL     1     -15.172  -7.176   3.101  1.00  0.00    -0.248 NA
ATOM     61  C   UNL     1     -14.957  -7.940   5.296  1.00  0.00     0.031 C 
ATOM     62  C   UNL     1     -18.893  -7.479   0.699  1.00  0.00     0.029 A 
ATOM     63  C   UNL     1     -17.741  -7.404   1.466  1.00  0.00     0.049 A 
ATOM     64  H   UNL     1     -15.894  -6.496   1.003  1.00  0.00     0.167 HD
ATOM     65  C   UNL     1     -16.367  -7.774   3.495  1.00  0.00     0.074 A 
ATOM     66  C   UNL     1     -16.166  -8.254   4.845  1.00  0.00     0.031 C 
ATOM     67  C   UNL     1     -17.523  -7.912   2.798  1.00  0.00     0.034 A 
BRANCH  54  68
ATOM     68  C   UNL     1     -17.441  -5.352  -2.811  1.00  0.00     0.023 A 
ATOM     69  C   UNL     1     -18.573  -4.521  -2.769  1.00  0.00     0.031 A 
ATOM     70  C   UNL     1     -17.126  -5.999  -4.018  1.00  0.00     0.131 A 
ATOM     71  C   UNL     1     -19.382  -4.396  -3.903  1.00  0.00     0.055 A 
ATOM     72  C   UNL     1     -17.914  -5.839  -5.158  1.00  0.00     0.041 A 
ATOM     73  F   UNL     1     -16.045  -6.791  -4.105  1.00  0.00    -0.206 F 
ATOM     74  C   UNL     1     -19.056  -5.046  -5.099  1.00  0.00     0.022 A 
BRANCH  71  75
ATOM     75  S   UNL     1     -20.912  -3.425  -3.853  1.00  0.00     0.124 S 
ATOM     76  O   UNL     1     -20.737  -2.526  -4.993  1.00  0.00    -0.237 OA
ATOM     77  O   UNL     1     -21.930  -4.456  -4.021  1.00  0.00    -0.237 OA
ATOM     78  O   UNL     1     -20.873  -2.777  -2.546  1.00  0.00    -0.744 OA
ENDBRANCH  71  75
ENDBRANCH  54  68
BRANCH  55  79
ATOM     79  C   UNL     1     -12.120  -7.111   5.472  1.00  0.00     0.023 A 
ATOM     80  C   UNL     1     -11.612  -6.047   6.237  1.00  0.00     0.031 A 
ATOM     81  C   UNL     1     -11.799  -8.422   5.864  1.00  0.00     0.131 A 
ATOM     82  C   UNL     1     -10.766  -6.310   7.323  1.00  0.00     0.055 A 
ATOM     83  C   UNL     1     -11.004  -8.681   6.983  1.00  0.00     0.041 A 
ATOM     84  F   UNL     1     -12.258  -9.469   5.162  1.00  0.00    -0.206 F 
ATOM     85  C   UNL     1     -10.472  -7.621   7.710  1.00  0.00     0.022 A 
BRANCH  82  86
ATOM     86  S   UNL     1      -9.951  -4.958   8.214  1.00  0.00     0.124 S 
ATOM     87  O   UNL     1     -10.321  -5.235   9.599  1.00  0.00    -0.237 OA
ATOM     88  O   UNL     1      -8.549  -5.188   7.877  1.00  0.00    -0.237 OA
ATOM     89  O   UNL     1     -10.543  -3.757   7.635  1.00  0.00    -0.744 OA
ENDBRANCH  82  86
ENDBRANCH  55  79
BRANCH  67  90
ATOM     90  C   UNL     1     -18.682  -8.642   3.432  1.00  0.00     0.023 A 
ATOM     91  C   UNL     1     -19.155  -9.833   2.846  1.00  0.00     0.031 A 
ATOM     92  C   UNL     1     -19.424  -8.074   4.479  1.00  0.00     0.131 A 
ATOM     93  C   UNL     1     -20.365 -10.389   3.276  1.00  0.00     0.055 A 
ATOM     94  C   UNL     1     -20.606  -8.659   4.937  1.00  0.00     0.041 A 
ATOM     95  F   UNL     1     -19.021  -6.933   5.060  1.00  0.00    -0.206 F 
ATOM     96  C   UNL     1     -21.090  -9.813   4.324  1.00  0.00     0.022 A 
BRANCH  93  97
ATOM     97  S   UNL     1     -21.083 -11.829   2.438  1.00  0.00     0.124 S 
ATOM     98  O   UNL     1     -21.251 -12.771   3.543  1.00  0.00    -0.237 OA
ATOM     99  O   UNL     1     -22.321 -11.280   1.892  1.00  0.00    -0.237 OA
ATOM    100  O   UNL     1     -20.073 -12.204   1.454  1.00  0.00    -0.744 OA
ENDBRANCH  93  97
ENDBRANCH  67  90
ENDBRANCH  41  42
ENDBRANCH  34  36
ENDBRANCH  33  34
ENDBRANCH  32  33
ENDBRANCH  31  32
ENDBRANCH  30  31
ENDBRANCH  29  30
ENDBRANCH   1  29
TORSDOF 25
