REMARK SMILES [NH3+]CCOCC(=O)N1C[C@@H](C(=O)OCCOCCOCCOCCOC(=O)c2ccc(-c3c4nc(c(-c5cc(S(=O)(=O)[O-])ccc5F)c5ccc([nH]5)c(-c5cc(S(=O)(=O)[O-])ccc5F)c5nc(c(-c6cc(S(=O)(=O)[O-])ccc6F)c6ccc3[nH]6)C=C5)C=C4)cc2)Oc2ccccc21
REMARK SMILES IDX 17 1 16 2 15 3 14 4 13 5 11 6 12 7 10 8 8 9 9 10 97 11 92 12
REMARK SMILES IDX 96 13 91 14 93 15 95 16 94 17 6 18 7 19 5 20 4 21 3 22 2 23
REMARK SMILES IDX 1 24 18 28 19 29 20 30 21 31 22 32 23 33 24 34 25 35 26 36
REMARK SMILES IDX 27 37 28 38 29 39 90 40 30 41 89 42 31 43 32 44 33 45 83 46
REMARK SMILES IDX 34 47 88 48 82 49 84 50 35 51 87 52 81 53 80 54 36 56 68 57
REMARK SMILES IDX 48 58 67 59 49 60 52 61 66 62 85 63 50 64 51 65 65 67 86 68
REMARK SMILES IDX 53 69 37 70 38 71 46 72 39 73 45 74 47 75 44 76 40 77 41 78
REMARK SMILES IDX 42 79 43 80 69 81 70 82 78 83 71 84 77 85 79 86 76 87 72 88
REMARK SMILES IDX 73 89 74 90 75 91 54 92 55 93 63 94 56 95 62 96 64 97 61 98
REMARK SMILES IDX 57 99 58 100 59 101 60 102
REMARK H PARENT 1 25 1 26 1 27 84 55 52 66
REMARK Flexibility Score: inf
ROOT
ATOM      1  C   UNL     1       3.704   3.745  -2.775  1.00  0.00     0.188 C 
ENDROOT
BRANCH   1   2
ATOM      2  O   UNL     1       4.259   3.909  -1.482  1.00  0.00    -0.376 OA
BRANCH   2   3
ATOM      3  C   UNL     1       5.190   2.993  -0.913  1.00  0.00     0.202 C 
BRANCH   3   4
ATOM      4  C   UNL     1       6.261   2.207  -1.707  1.00  0.00     0.261 C 
BRANCH   4   5
ATOM      5  O   UNL     1       5.888   1.705  -2.995  1.00  0.00    -0.460 OA
BRANCH   5   6
ATOM      6  C   UNL     1       4.824   0.874  -3.001  1.00  0.00     0.349 C 
ATOM      7  O   UNL     1       4.272   0.481  -1.981  1.00  0.00    -0.248 OA
BRANCH   6   8
ATOM      8  C   UNL     1       4.326   0.643  -4.448  1.00  0.00     0.302 C 
ATOM      9  N   UNL     1       3.019  -1.264  -3.716  1.00  0.00    -0.303 N 
ATOM     10  C   UNL     1       2.947   0.002  -4.445  1.00  0.00     0.183 C 
ATOM     11  C   UNL     1       4.233  -2.008  -4.006  1.00  0.00     0.086 A 
ATOM     12  C   UNL     1       5.235  -1.419  -4.823  1.00  0.00     0.144 A 
ATOM     13  C   UNL     1       4.499  -3.280  -3.505  1.00  0.00     0.030 A 
ATOM     14  O   UNL     1       5.186  -0.120  -5.271  1.00  0.00    -0.475 OA
ATOM     15  C   UNL     1       6.408  -2.084  -5.175  1.00  0.00     0.049 A 
ATOM     16  C   UNL     1       5.699  -3.937  -3.825  1.00  0.00     0.002 A 
ATOM     17  C   UNL     1       6.644  -3.349  -4.665  1.00  0.00     0.004 A 
BRANCH   9  18
ATOM     18  C   UNL     1       2.156  -1.538  -2.646  1.00  0.00     0.253 C 
ATOM     19  O   UNL     1       2.391  -2.359  -1.754  1.00  0.00    -0.272 OA
BRANCH  18  20
ATOM     20  C   UNL     1       0.751  -0.846  -2.644  1.00  0.00     0.260 C 
BRANCH  20  21
ATOM     21  O   UNL     1       0.469   0.535  -2.689  1.00  0.00    -0.366 OA
BRANCH  21  22
ATOM     22  C   UNL     1       0.996   1.354  -1.647  1.00  0.00     0.222 C 
BRANCH  22  23
ATOM     23  C   UNL     1       0.351   1.193  -0.264  1.00  0.00     0.287 C 
BRANCH  23  24
ATOM     24  N   UNL     1       0.934   0.122   0.545  1.00  0.00    -0.356 N 
ATOM     25  H   UNL     1       0.456   0.076   1.444  1.00  0.00     0.344 HD
ATOM     26  H   UNL     1       1.925   0.311   0.696  1.00  0.00     0.344 HD
ATOM     27  H   UNL     1       0.828  -0.768   0.058  1.00  0.00     0.344 HD
ENDBRANCH  23  24
ENDBRANCH  22  23
ENDBRANCH  21  22
ENDBRANCH  20  21
ENDBRANCH  18  20
ENDBRANCH   9  18
ENDBRANCH   6   8
ENDBRANCH   5   6
ENDBRANCH   4   5
ENDBRANCH   3   4
ENDBRANCH   2   3
ENDBRANCH   1   2
BRANCH   1  28
ATOM     28  C   UNL     1       4.593   4.237  -3.929  1.00  0.00     0.188 C 
BRANCH  28  29
ATOM     29  O   UNL     1       5.948   4.338  -3.547  1.00  0.00    -0.377 OA
BRANCH  29  30
ATOM     30  C   UNL     1       6.369   5.576  -2.987  1.00  0.00     0.188 C 
BRANCH  30  31
ATOM     31  C   UNL     1       5.392   6.439  -2.152  1.00  0.00     0.188 C 
BRANCH  31  32
ATOM     32  O   UNL     1       4.088   6.569  -2.712  1.00  0.00    -0.376 OA
BRANCH  32  33
ATOM     33  C   UNL     1       3.755   7.792  -3.350  1.00  0.00     0.202 C 
BRANCH  33  34
ATOM     34  C   UNL     1       4.401   8.028  -4.723  1.00  0.00     0.261 C 
BRANCH  34  35
ATOM     35  O   UNL     1       5.835   8.024  -4.749  1.00  0.00    -0.460 OA
BRANCH  35  36
ATOM     36  C   UNL     1       6.477   8.923  -3.969  1.00  0.00     0.338 C 
ATOM     37  O   UNL     1       5.966   9.783  -3.274  1.00  0.00    -0.246 OA
BRANCH  36  38
ATOM     38  C   UNL     1       7.907   8.545  -3.943  1.00  0.00     0.060 A 
ATOM     39  C   UNL     1       8.523   8.270  -2.713  1.00  0.00     0.016 A 
ATOM     40  C   UNL     1       8.619   8.418  -5.137  1.00  0.00     0.016 A 
ATOM     41  C   UNL     1       9.867   7.893  -2.674  1.00  0.00     0.010 A 
ATOM     42  C   UNL     1       9.970   8.072  -5.093  1.00  0.00     0.010 A 
ATOM     43  C   UNL     1      10.607   7.839  -3.861  1.00  0.00    -0.014 A 
BRANCH  43  44
ATOM     44  C   UNL     1      12.089   7.792  -3.827  1.00  0.00     0.031 A 
ATOM     45  C   UNL     1      12.823   9.101  -3.926  1.00  0.00     0.074 A 
ATOM     46  C   UNL     1      12.767   6.634  -3.753  1.00  0.00     0.049 A 
ATOM     47  N   UNL     1      14.095   9.333  -4.106  1.00  0.00    -0.248 NA
ATOM     48  C   UNL     1      11.994  10.314  -3.825  1.00  0.00     0.031 C 
ATOM     49  C   UNL     1      12.169   5.312  -3.583  1.00  0.00     0.029 A 
ATOM     50  N   UNL     1      14.116   6.387  -3.837  1.00  0.00    -0.354 N 
ATOM     51  C   UNL     1      14.220  10.717  -4.156  1.00  0.00     0.074 A 
ATOM     52  C   UNL     1      12.890  11.269  -4.017  1.00  0.00     0.031 C 
ATOM     53  C   UNL     1      13.147   4.388  -3.601  1.00  0.00     0.029 A 
ATOM     54  C   UNL     1      14.431   5.048  -3.841  1.00  0.00     0.049 A 
ATOM     55  H   UNL     1      14.792   7.100  -3.890  1.00  0.00     0.167 HD
ATOM     56  C   UNL     1      15.344  11.459  -4.306  1.00  0.00     0.034 A 
ATOM     57  C   UNL     1      15.612   4.431  -4.060  1.00  0.00     0.034 A 
ATOM     58  C   UNL     1      16.657  10.888  -4.464  1.00  0.00     0.049 A 
ATOM     59  C   UNL     1      16.839   5.272  -4.342  1.00  0.00     0.074 A 
ATOM     60  C   UNL     1      17.865  11.541  -4.624  1.00  0.00     0.029 A 
ATOM     61  N   UNL     1      16.931   9.527  -4.500  1.00  0.00    -0.354 N 
ATOM     62  N   UNL     1      16.948   6.580  -4.405  1.00  0.00    -0.248 NA
ATOM     63  C   UNL     1      18.101   4.557  -4.586  1.00  0.00     0.031 C 
ATOM     64  C   UNL     1      18.856  10.579  -4.837  1.00  0.00     0.029 A 
ATOM     65  C   UNL     1      18.284   9.322  -4.713  1.00  0.00     0.049 A 
ATOM     66  H   UNL     1      16.262   8.813  -4.389  1.00  0.00     0.167 HD
ATOM     67  C   UNL     1      18.297   6.840  -4.648  1.00  0.00     0.074 A 
ATOM     68  C   UNL     1      18.960   5.557  -4.728  1.00  0.00     0.031 C 
ATOM     69  C   UNL     1      18.931   8.033  -4.779  1.00  0.00     0.034 A 
BRANCH  56  70
ATOM     70  C   UNL     1      15.181  12.957  -4.374  1.00  0.00     0.023 A 
ATOM     71  C   UNL     1      14.681  13.698  -3.290  1.00  0.00     0.031 A 
ATOM     72  C   UNL     1      15.497  13.650  -5.556  1.00  0.00     0.131 A 
ATOM     73  C   UNL     1      14.441  15.072  -3.434  1.00  0.00     0.055 A 
ATOM     74  C   UNL     1      15.338  15.032  -5.664  1.00  0.00     0.041 A 
ATOM     75  F   UNL     1      15.950  12.991  -6.635  1.00  0.00    -0.206 F 
ATOM     76  C   UNL     1      14.792  15.750  -4.604  1.00  0.00     0.022 A 
BRANCH  73  77
ATOM     77  S   UNL     1      13.520  15.931  -2.129  1.00  0.00     0.124 S 
ATOM     78  O   UNL     1      12.274  15.168  -2.096  1.00  0.00    -0.237 OA
ATOM     79  O   UNL     1      14.394  15.778  -0.973  1.00  0.00    -0.237 OA
ATOM     80  O   UNL     1      13.392  17.294  -2.640  1.00  0.00    -0.744 OA
ENDBRANCH  73  77
ENDBRANCH  56  70
BRANCH  57  81
ATOM     81  C   UNL     1      15.698   2.941  -4.083  1.00  0.00     0.023 A 
ATOM     82  C   UNL     1      16.500   2.245  -3.163  1.00  0.00     0.031 A 
ATOM     83  C   UNL     1      15.028   2.191  -5.067  1.00  0.00     0.131 A 
ATOM     84  C   UNL     1      16.651   0.854  -3.276  1.00  0.00     0.055 A 
ATOM     85  C   UNL     1      15.133   0.800  -5.138  1.00  0.00     0.041 A 
ATOM     86  F   UNL     1      14.255   2.803  -5.979  1.00  0.00    -0.206 F 
ATOM     87  C   UNL     1      15.960   0.125  -4.246  1.00  0.00     0.022 A 
BRANCH  84  88
ATOM     88  S   UNL     1      17.846   0.019  -2.196  1.00  0.00     0.124 S 
ATOM     89  O   UNL     1      19.084   0.712  -2.535  1.00  0.00    -0.237 OA
ATOM     90  O   UNL     1      17.299   0.292  -0.871  1.00  0.00    -0.237 OA
ATOM     91  O   UNL     1      17.773  -1.377  -2.623  1.00  0.00    -0.744 OA
ENDBRANCH  84  88
ENDBRANCH  57  81
BRANCH  69  92
ATOM     92  C   UNL     1      20.433   8.020  -4.937  1.00  0.00     0.023 A 
ATOM     93  C   UNL     1      21.062   7.556  -6.104  1.00  0.00     0.031 A 
ATOM     94  C   UNL     1      21.242   8.539  -3.909  1.00  0.00     0.131 A 
ATOM     95  C   UNL     1      22.462   7.598  -6.204  1.00  0.00     0.055 A 
ATOM     96  C   UNL     1      22.628   8.629  -4.036  1.00  0.00     0.041 A 
ATOM     97  F   UNL     1      20.692   8.995  -2.772  1.00  0.00    -0.206 F 
ATOM     98  C   UNL     1      23.246   8.151  -5.187  1.00  0.00     0.022 A 
BRANCH  95  99
ATOM     99  S   UNL     1      23.259   6.876  -7.665  1.00  0.00     0.124 S 
ATOM    100  O   UNL     1      22.838   5.481  -7.581  1.00  0.00    -0.237 OA
ATOM    101  O   UNL     1      22.680   7.652  -8.756  1.00  0.00    -0.237 OA
ATOM    102  O   UNL     1      24.683   7.108  -7.430  1.00  0.00    -0.744 OA
ENDBRANCH  95  99
ENDBRANCH  69  92
ENDBRANCH  43  44
ENDBRANCH  36  38
ENDBRANCH  35  36
ENDBRANCH  34  35
ENDBRANCH  33  34
ENDBRANCH  32  33
ENDBRANCH  31  32
ENDBRANCH  30  31
ENDBRANCH  29  30
ENDBRANCH  28  29
ENDBRANCH   1  28
TORSDOF 29
