REMARK SMILES O=C(C[N@H+]1CCC[C@@H]1c1ccccc1Cl)OCCOCCOCCOCCOC(=O)c1ccc(-c2c3nc(c(-c4cc(S(=O)(=O)[O-])ccc4F)c4ccc([nH]4)c(-c4cc(S(=O)(=O)[O-])ccc4F)c4nc(c(-c5cc(S(=O)(=O)[O-])ccc5F)c5ccc2[nH]5)C=C4)C=C3)cc1
REMARK SMILES IDX 23 1 22 2 21 3 20 4 19 5 18 6 17 7 16 8 2 9 1 10 3 11 4 12
REMARK SMILES IDX 5 13 8 14 6 16 7 17 9 18 10 19 14 20 11 21 13 22 15 23 12 24
REMARK SMILES IDX 24 25 25 26 26 27 27 28 28 29 29 30 30 31 31 32 32 33 93 34
REMARK SMILES IDX 33 35 92 36 34 37 35 38 36 39 86 40 37 41 91 42 85 43 87 44
REMARK SMILES IDX 38 45 90 46 84 47 83 48 39 50 71 51 51 52 70 53 52 54 55 55
REMARK SMILES IDX 69 56 88 57 53 58 54 59 68 61 89 62 56 63 40 64 41 65 49 66
REMARK SMILES IDX 42 67 48 68 50 69 47 70 43 71 44 72 45 73 46 74 72 75 73 76
REMARK SMILES IDX 81 77 74 78 80 79 82 80 79 81 75 82 76 83 77 84 78 85 57 86
REMARK SMILES IDX 58 87 66 88 59 89 65 90 67 91 64 92 60 93 61 94 62 95 63 96
REMARK H PARENT 4 15 87 49 55 60
REMARK Flexibility Score: inf
ROOT
ATOM      1  C   UNL     1       3.860  -2.236   3.555  1.00  0.00     0.188 C 
ENDROOT
BRANCH   1   2
ATOM      2  O   UNL     1       2.546  -2.564   3.160  1.00  0.00    -0.377 OA
BRANCH   2   3
ATOM      3  C   UNL     1       2.123  -2.067   1.905  1.00  0.00     0.188 C 
BRANCH   3   4
ATOM      4  C   UNL     1       2.986  -2.441   0.693  1.00  0.00     0.188 C 
BRANCH   4   5
ATOM      5  O   UNL     1       4.139  -1.715   0.291  1.00  0.00    -0.376 OA
BRANCH   5   6
ATOM      6  C   UNL     1       4.571  -0.502   0.864  1.00  0.00     0.202 C 
BRANCH   6   7
ATOM      7  C   UNL     1       3.573   0.616   1.114  1.00  0.00     0.261 C 
BRANCH   7   8
ATOM      8  O   UNL     1       2.251   0.522   0.540  1.00  0.00    -0.459 OA
BRANCH   8   9
ATOM      9  C   UNL     1       1.822   0.095  -0.660  1.00  0.00     0.361 C 
ATOM     10  O   UNL     1       0.652  -0.290  -0.765  1.00  0.00    -0.245 OA
BRANCH   9  11
ATOM     11  C   UNL     1       2.721   0.062  -1.881  1.00  0.00     0.387 C 
BRANCH  11  12
ATOM     12  N   UNL     1       3.964   0.802  -1.760  1.00  0.00    -0.319 N 
ATOM     13  C   UNL     1       4.995   0.256  -2.642  1.00  0.00     0.263 C 
ATOM     14  C   UNL     1       4.038   2.279  -1.910  1.00  0.00     0.217 C 
ATOM     15  H   UNL     1       4.093   0.661  -0.758  1.00  0.00     0.349 HD
ATOM     16  C   UNL     1       6.183   1.096  -2.239  1.00  0.00     0.068 C 
ATOM     17  C   UNL     1       5.560   2.369  -1.651  1.00  0.00     0.076 C 
BRANCH  14  18
ATOM     18  C   UNL     1       3.056   3.086  -1.049  1.00  0.00     0.028 A 
ATOM     19  C   UNL     1       1.678   2.920  -1.329  1.00  0.00     0.011 A 
ATOM     20  C   UNL     1       3.357   3.879   0.074  1.00  0.00     0.050 A 
ATOM     21  C   UNL     1       0.688   3.227  -0.388  1.00  0.00     0.001 A 
ATOM     22  C   UNL     1       2.362   4.192   1.018  1.00  0.00     0.021 A 
ATOM     23  Cl  UNL     1       4.912   4.547   0.412  1.00  0.00    -0.084 Cl
ATOM     24  C   UNL     1       1.040   3.810   0.817  1.00  0.00     0.002 A 
ENDBRANCH  14  18
ENDBRANCH  11  12
ENDBRANCH   9  11
ENDBRANCH   8   9
ENDBRANCH   7   8
ENDBRANCH   6   7
ENDBRANCH   5   6
ENDBRANCH   4   5
ENDBRANCH   3   4
ENDBRANCH   2   3
ENDBRANCH   1   2
BRANCH   1  25
ATOM     25  C   UNL     1       4.951  -3.209   3.062  1.00  0.00     0.188 C 
BRANCH  25  26
ATOM     26  O   UNL     1       4.720  -4.609   2.912  1.00  0.00    -0.376 OA
BRANCH  26  27
ATOM     27  C   UNL     1       3.433  -5.165   3.113  1.00  0.00     0.202 C 
BRANCH  27  28
ATOM     28  C   UNL     1       3.015  -5.401   4.571  1.00  0.00     0.261 C 
BRANCH  28  29
ATOM     29  O   UNL     1       3.360  -4.352   5.485  1.00  0.00    -0.460 OA
BRANCH  29  30
ATOM     30  C   UNL     1       4.618  -4.424   5.989  1.00  0.00     0.338 C 
ATOM     31  O   UNL     1       5.417  -5.332   5.820  1.00  0.00    -0.246 OA
BRANCH  30  32
ATOM     32  C   UNL     1       4.979  -3.134   6.630  1.00  0.00     0.060 A 
ATOM     33  C   UNL     1       6.259  -2.620   6.374  1.00  0.00     0.016 A 
ATOM     34  C   UNL     1       4.089  -2.421   7.443  1.00  0.00     0.016 A 
ATOM     35  C   UNL     1       6.686  -1.448   6.992  1.00  0.00     0.010 A 
ATOM     36  C   UNL     1       4.528  -1.260   8.094  1.00  0.00     0.010 A 
ATOM     37  C   UNL     1       5.853  -0.817   7.925  1.00  0.00    -0.014 A 
BRANCH  37  38
ATOM     38  C   UNL     1       6.516  -0.005   8.979  1.00  0.00     0.031 A 
ATOM     39  C   UNL     1       6.962  -0.747  10.217  1.00  0.00     0.074 A 
ATOM     40  C   UNL     1       6.817   1.295   8.816  1.00  0.00     0.049 A 
ATOM     41  N   UNL     1       7.610  -0.316  11.266  1.00  0.00    -0.248 NA
ATOM     42  C   UNL     1       6.631  -2.182  10.268  1.00  0.00     0.031 C 
ATOM     43  C   UNL     1       6.506   2.098   7.635  1.00  0.00     0.029 A 
ATOM     44  N   UNL     1       7.472   2.164   9.652  1.00  0.00    -0.354 N 
ATOM     45  C   UNL     1       7.760  -1.423  12.096  1.00  0.00     0.074 A 
ATOM     46  C   UNL     1       7.097  -2.533  11.452  1.00  0.00     0.031 C 
ATOM     47  C   UNL     1       6.974   3.346   7.824  1.00  0.00     0.029 A 
ATOM     48  C   UNL     1       7.591   3.438   9.147  1.00  0.00     0.049 A 
ATOM     49  H   UNL     1       7.824   1.900  10.533  1.00  0.00     0.167 HD
ATOM     50  C   UNL     1       8.403  -1.515  13.285  1.00  0.00     0.034 A 
ATOM     51  C   UNL     1       8.128   4.546   9.701  1.00  0.00     0.034 A 
ATOM     52  C   UNL     1       9.046  -0.398  13.924  1.00  0.00     0.049 A 
ATOM     53  C   UNL     1       8.753   4.445  11.076  1.00  0.00     0.074 A 
ATOM     54  C   UNL     1       9.720  -0.367  15.131  1.00  0.00     0.029 A 
ATOM     55  N   UNL     1       9.082   0.894  13.413  1.00  0.00    -0.354 N 
ATOM     56  N   UNL     1       8.890   3.392  11.852  1.00  0.00    -0.248 NA
ATOM     57  C   UNL     1       9.311   5.681  11.641  1.00  0.00     0.031 C 
ATOM     58  C   UNL     1      10.091   0.957  15.388  1.00  0.00     0.029 A 
ATOM     59  C   UNL     1       9.736   1.736  14.297  1.00  0.00     0.049 A 
ATOM     60  H   UNL     1       8.698   1.170  12.549  1.00  0.00     0.167 HD
ATOM     61  C   UNL     1       9.590   3.834  12.974  1.00  0.00     0.074 A 
ATOM     62  C   UNL     1       9.855   5.243  12.766  1.00  0.00     0.031 C 
ATOM     63  C   UNL     1       9.989   3.140  14.073  1.00  0.00     0.034 A 
BRANCH  50  64
ATOM     64  C   UNL     1       8.364  -2.852  13.988  1.00  0.00     0.023 A 
ATOM     65  C   UNL     1       8.948  -4.006  13.434  1.00  0.00     0.031 A 
ATOM     66  C   UNL     1       7.675  -2.984  15.206  1.00  0.00     0.131 A 
ATOM     67  C   UNL     1       8.765  -5.250  14.057  1.00  0.00     0.055 A 
ATOM     68  C   UNL     1       7.572  -4.209  15.865  1.00  0.00     0.041 A 
ATOM     69  F   UNL     1       7.068  -1.925  15.766  1.00  0.00    -0.206 F 
ATOM     70  C   UNL     1       8.104  -5.355  15.283  1.00  0.00     0.022 A 
BRANCH  67  71
ATOM     71  S   UNL     1       9.259  -6.751  13.164  1.00  0.00     0.124 S 
ATOM     72  O   UNL     1       8.461  -6.645  11.945  1.00  0.00    -0.237 OA
ATOM     73  O   UNL     1      10.697  -6.565  13.006  1.00  0.00    -0.237 OA
ATOM     74  O   UNL     1       8.864  -7.831  14.066  1.00  0.00    -0.744 OA
ENDBRANCH  67  71
ENDBRANCH  50  64
BRANCH  51  75
ATOM     75  C   UNL     1       8.082   5.857   8.987  1.00  0.00     0.023 A 
ATOM     76  C   UNL     1       9.259   6.539   8.633  1.00  0.00     0.031 A 
ATOM     77  C   UNL     1       6.854   6.489   8.721  1.00  0.00     0.131 A 
ATOM     78  C   UNL     1       9.184   7.829   8.083  1.00  0.00     0.055 A 
ATOM     79  C   UNL     1       6.784   7.749   8.122  1.00  0.00     0.041 A 
ATOM     80  F   UNL     1       5.697   5.889   9.045  1.00  0.00    -0.206 F 
ATOM     81  C   UNL     1       7.955   8.433   7.813  1.00  0.00     0.022 A 
BRANCH  78  82
ATOM     82  S   UNL     1      10.723   8.754   7.816  1.00  0.00     0.124 S 
ATOM     83  O   UNL     1      11.284   8.790   9.161  1.00  0.00    -0.237 OA
ATOM     84  O   UNL     1      11.420   7.908   6.852  1.00  0.00    -0.237 OA
ATOM     85  O   UNL     1      10.262  10.039   7.295  1.00  0.00    -0.744 OA
ENDBRANCH  78  82
ENDBRANCH  51  75
BRANCH  63  86
ATOM     86  C   UNL     1      10.812   3.883  15.100  1.00  0.00     0.023 A 
ATOM     87  C   UNL     1      10.294   4.965  15.834  1.00  0.00     0.031 A 
ATOM     88  C   UNL     1      12.148   3.508  15.335  1.00  0.00     0.131 A 
ATOM     89  C   UNL     1      11.127   5.678  16.709  1.00  0.00     0.055 A 
ATOM     90  C   UNL     1      12.949   4.174  16.264  1.00  0.00     0.041 A 
ATOM     91  F   UNL     1      12.699   2.483  14.665  1.00  0.00    -0.206 F 
ATOM     92  C   UNL     1      12.445   5.278  16.944  1.00  0.00     0.022 A 
BRANCH  89  93
ATOM     93  S   UNL     1      10.503   7.215  17.443  1.00  0.00     0.124 S 
ATOM     94  O   UNL     1      10.115   7.980  16.262  1.00  0.00    -0.237 OA
ATOM     95  O   UNL     1       9.409   6.738  18.282  1.00  0.00    -0.237 OA
ATOM     96  O   UNL     1      11.657   7.742  18.170  1.00  0.00    -0.744 OA
ENDBRANCH  89  93
ENDBRANCH  63  86
ENDBRANCH  37  38
ENDBRANCH  30  32
ENDBRANCH  29  30
ENDBRANCH  28  29
ENDBRANCH  27  28
ENDBRANCH  26  27
ENDBRANCH  25  26
ENDBRANCH   1  25
TORSDOF 25
