REMARK SMILES C[C@H]1[C@@H]([NH2+]C[C@H]2CC[C@@H](C(=O)OCCOCCOCCOCCOC(=O)c3ccc(-c4c5nc(c(-c6cc(S(=O)(=O)[O-])ccc6F)c6ccc([nH]6)c(-c6cc(S(=O)(=O)[O-])ccc6F)c6nc(c(-c7cc(S(=O)(=O)[O-])ccc7F)c7ccc4[nH]7)C=C6)C=C5)cc3)CC2)CCC[C@@H]1C
REMARK SMILES IDX 18 1 17 2 16 3 15 4 14 5 13 6 12 7 10 8 11 9 9 10 6 11 7 12
REMARK SMILES IDX 91 13 8 14 90 15 5 16 4 17 3 20 1 21 2 22 95 23 92 24 94 25
REMARK SMILES IDX 96 26 93 27 19 28 20 29 21 30 22 31 23 32 24 33 25 34 26 35
REMARK SMILES IDX 27 36 28 37 89 38 29 39 88 40 30 41 31 42 32 43 82 44 33 45
REMARK SMILES IDX 87 46 81 47 83 48 34 49 86 50 80 51 79 52 35 54 67 55 47 56
REMARK SMILES IDX 66 57 48 58 51 59 65 60 84 61 49 62 50 63 64 65 85 66 52 67
REMARK SMILES IDX 36 68 37 69 45 70 38 71 44 72 46 73 43 74 39 75 40 76 41 77
REMARK SMILES IDX 42 78 68 79 69 80 77 81 70 82 76 83 78 84 75 85 71 86 72 87
REMARK SMILES IDX 73 88 74 89 53 90 54 91 62 92 55 93 61 94 63 95 60 96 56 97
REMARK SMILES IDX 57 98 58 99 59 100
REMARK H PARENT 4 18 4 19 83 53 51 64
REMARK Flexibility Score: inf
ROOT
ATOM      1  O   UNL     1      -0.336   7.530  -5.209  1.00  0.00    -0.377 OA
ENDROOT
BRANCH   1   2
ATOM      2  C   UNL     1      -1.728   7.718  -5.331  1.00  0.00     0.188 C 
BRANCH   2   3
ATOM      3  C   UNL     1      -2.273   9.096  -4.932  1.00  0.00     0.188 C 
BRANCH   3   4
ATOM      4  O   UNL     1      -1.415  10.158  -4.546  1.00  0.00    -0.376 OA
BRANCH   4   5
ATOM      5  C   UNL     1      -0.175   9.914  -3.901  1.00  0.00     0.202 C 
BRANCH   5   6
ATOM      6  C   UNL     1      -0.079   9.055  -2.626  1.00  0.00     0.261 C 
BRANCH   6   7
ATOM      7  O   UNL     1      -0.819   7.820  -2.588  1.00  0.00    -0.463 OA
BRANCH   7   8
ATOM      8  C   UNL     1      -2.042   7.888  -2.015  1.00  0.00     0.309 C 
ATOM      9  O   UNL     1      -2.534   8.916  -1.557  1.00  0.00    -0.252 OA
BRANCH   8  10
ATOM     10  C   UNL     1      -2.744   6.541  -1.865  1.00  0.00     0.099 C 
ATOM     11  C   UNL     1      -2.569   3.666  -1.111  1.00  0.00     0.044 C 
ATOM     12  C   UNL     1      -3.033   4.743  -0.126  1.00  0.00     0.010 C 
ATOM     13  C   UNL     1      -3.030   4.056  -2.511  1.00  0.00     0.010 C 
ATOM     14  C   UNL     1      -2.426   6.095  -0.441  1.00  0.00     0.016 C 
ATOM     15  C   UNL     1      -2.505   5.435  -2.915  1.00  0.00     0.016 C 
BRANCH  11  16
ATOM     16  C   UNL     1      -1.052   3.386  -1.154  1.00  0.00     0.264 C 
BRANCH  16  17
ATOM     17  N   UNL     1      -0.467   3.406   0.168  1.00  0.00    -0.343 N 
ATOM     18  H   UNL     1      -0.436   4.377   0.478  1.00  0.00     0.346 HD
ATOM     19  H   UNL     1      -1.060   2.800   0.735  1.00  0.00     0.346 HD
BRANCH  17  20
ATOM     20  C   UNL     1       0.888   2.853   0.292  1.00  0.00     0.185 C 
ATOM     21  C   UNL     1       1.053   1.032  -1.528  1.00  0.00     0.014 C 
ATOM     22  C   UNL     1       1.007   1.336  -0.024  1.00  0.00     0.047 C 
ATOM     23  C   UNL     1      -0.086   0.579   0.777  1.00  0.00    -0.006 C 
ATOM     24  C   UNL     1       1.262   3.043   1.775  1.00  0.00     0.065 C 
ATOM     25  C   UNL     1       0.135   0.808   2.291  1.00  0.00     0.004 C 
ATOM     26  C   UNL     1      -0.170  -0.917   0.480  1.00  0.00     0.008 C 
ATOM     27  C   UNL     1       0.305   2.277   2.695  1.00  0.00     0.006 C 
ENDBRANCH  17  20
ENDBRANCH  16  17
ENDBRANCH  11  16
ENDBRANCH   8  10
ENDBRANCH   7   8
ENDBRANCH   6   7
ENDBRANCH   5   6
ENDBRANCH   4   5
ENDBRANCH   3   4
ENDBRANCH   2   3
ENDBRANCH   1   2
BRANCH   1  28
ATOM     28  C   UNL     1       0.438   7.693  -6.386  1.00  0.00     0.188 C 
BRANCH  28  29
ATOM     29  C   UNL     1      -0.037   8.758  -7.391  1.00  0.00     0.188 C 
BRANCH  29  30
ATOM     30  O   UNL     1      -1.401   8.625  -7.773  1.00  0.00    -0.376 OA
BRANCH  30  31
ATOM     31  C   UNL     1      -1.724   7.880  -8.938  1.00  0.00     0.202 C 
BRANCH  31  32
ATOM     32  C   UNL     1      -1.384   6.379  -8.973  1.00  0.00     0.261 C 
BRANCH  32  33
ATOM     33  O   UNL     1      -0.002   6.015  -8.830  1.00  0.00    -0.460 OA
BRANCH  33  34
ATOM     34  C   UNL     1       0.901   6.590  -9.652  1.00  0.00     0.338 C 
ATOM     35  O   UNL     1       0.665   7.341 -10.584  1.00  0.00    -0.246 OA
BRANCH  34  36
ATOM     36  C   UNL     1       2.246   6.331  -9.094  1.00  0.00     0.060 A 
ATOM     37  C   UNL     1       3.057   7.418  -8.742  1.00  0.00     0.016 A 
ATOM     38  C   UNL     1       2.701   5.023  -8.913  1.00  0.00     0.016 A 
ATOM     39  C   UNL     1       4.341   7.202  -8.242  1.00  0.00     0.010 A 
ATOM     40  C   UNL     1       3.999   4.808  -8.440  1.00  0.00     0.010 A 
ATOM     41  C   UNL     1       4.837   5.897  -8.136  1.00  0.00    -0.014 A 
BRANCH  41  42
ATOM     42  C   UNL     1       6.290   5.678  -7.929  1.00  0.00     0.031 A 
ATOM     43  C   UNL     1       7.140   5.406  -9.142  1.00  0.00     0.074 A 
ATOM     44  C   UNL     1       6.847   5.735  -6.707  1.00  0.00     0.049 A 
ATOM     45  N   UNL     1       8.408   5.100  -9.219  1.00  0.00    -0.248 NA
ATOM     46  C   UNL     1       6.459   5.487 -10.445  1.00  0.00     0.031 C 
ATOM     47  C   UNL     1       6.138   6.058  -5.470  1.00  0.00     0.029 A 
ATOM     48  N   UNL     1       8.141   5.515  -6.305  1.00  0.00    -0.354 N 
ATOM     49  C   UNL     1       8.674   4.934 -10.575  1.00  0.00     0.074 A 
ATOM     50  C   UNL     1       7.428   5.147 -11.279  1.00  0.00     0.031 C 
ATOM     51  C   UNL     1       7.006   6.001  -4.444  1.00  0.00     0.029 A 
ATOM     52  C   UNL     1       8.318   5.589  -4.942  1.00  0.00     0.049 A 
ATOM     53  H   UNL     1       8.874   5.321  -6.933  1.00  0.00     0.167 HD
ATOM     54  C   UNL     1       9.851   4.631 -11.174  1.00  0.00     0.034 A 
ATOM     55  C   UNL     1       9.404   5.321  -4.188  1.00  0.00     0.034 A 
ATOM     56  C   UNL     1      11.081   4.417 -10.454  1.00  0.00     0.049 A 
ATOM     57  C   UNL     1      10.681   4.882  -4.873  1.00  0.00     0.074 A 
ATOM     58  C   UNL     1      12.335   4.130 -10.962  1.00  0.00     0.029 A 
ATOM     59  N   UNL     1      11.210   4.447  -9.071  1.00  0.00    -0.354 N 
ATOM     60  N   UNL     1      10.925   4.737  -6.157  1.00  0.00    -0.248 NA
ATOM     61  C   UNL     1      11.829   4.575  -4.009  1.00  0.00     0.031 C 
ATOM     62  C   UNL     1      13.198   3.895  -9.888  1.00  0.00     0.029 A 
ATOM     63  C   UNL     1      12.511   4.136  -8.709  1.00  0.00     0.049 A 
ATOM     64  H   UNL     1      10.483   4.657  -8.441  1.00  0.00     0.167 HD
ATOM     65  C   UNL     1      12.265   4.363  -6.250  1.00  0.00     0.074 A 
ATOM     66  C   UNL     1      12.777   4.315  -4.897  1.00  0.00     0.031 C 
ATOM     67  C   UNL     1      13.008   4.091  -7.354  1.00  0.00     0.034 A 
BRANCH  54  68
ATOM     68  C   UNL     1       9.845   4.446 -12.672  1.00  0.00     0.023 A 
ATOM     69  C   UNL     1       9.540   5.496 -13.555  1.00  0.00     0.031 A 
ATOM     70  C   UNL     1      10.135   3.185 -13.224  1.00  0.00     0.131 A 
ATOM     71  C   UNL     1       9.471   5.250 -14.935  1.00  0.00     0.055 A 
ATOM     72  C   UNL     1      10.147   2.967 -14.602  1.00  0.00     0.041 A 
ATOM     73  F   UNL     1      10.404   2.136 -12.429  1.00  0.00    -0.206 F 
ATOM     74  C   UNL     1       9.800   4.001 -15.467  1.00  0.00     0.022 A 
BRANCH  71  75
ATOM     75  S   UNL     1       8.805   6.547 -16.015  1.00  0.00     0.124 S 
ATOM     76  O   UNL     1       7.480   6.760 -15.438  1.00  0.00    -0.237 OA
ATOM     77  O   UNL     1       9.763   7.631 -15.834  1.00  0.00    -0.237 OA
ATOM     78  O   UNL     1       8.807   5.926 -17.338  1.00  0.00    -0.744 OA
ENDBRANCH  71  75
ENDBRANCH  54  68
BRANCH  55  79
ATOM     79  C   UNL     1       9.340   5.401  -2.698  1.00  0.00     0.023 A 
ATOM     80  C   UNL     1      10.176   6.271  -1.981  1.00  0.00     0.031 A 
ATOM     81  C   UNL     1       8.500   4.545  -1.961  1.00  0.00     0.131 A 
ATOM     82  C   UNL     1      10.200   6.224  -0.578  1.00  0.00     0.055 A 
ATOM     83  C   UNL     1       8.479   4.550  -0.565  1.00  0.00     0.041 A 
ATOM     84  F   UNL     1       7.685   3.683  -2.592  1.00  0.00    -0.206 F 
ATOM     85  C   UNL     1       9.345   5.382   0.135  1.00  0.00     0.022 A 
BRANCH  82  86
ATOM     86  S   UNL     1      11.454   7.197   0.301  1.00  0.00     0.124 S 
ATOM     87  O   UNL     1      12.688   6.686  -0.285  1.00  0.00    -0.237 OA
ATOM     88  O   UNL     1      11.087   8.562  -0.062  1.00  0.00    -0.237 OA
ATOM     89  O   UNL     1      11.236   6.846   1.703  1.00  0.00    -0.744 OA
ENDBRANCH  82  86
ENDBRANCH  55  79
BRANCH  67  90
ATOM     90  C   UNL     1      14.473   3.781  -7.148  1.00  0.00     0.023 A 
ATOM     91  C   UNL     1      14.905   2.627  -6.473  1.00  0.00     0.031 A 
ATOM     92  C   UNL     1      15.454   4.658  -7.648  1.00  0.00     0.131 A 
ATOM     93  C   UNL     1      16.277   2.408  -6.269  1.00  0.00     0.055 A 
ATOM     94  C   UNL     1      16.817   4.399  -7.504  1.00  0.00     0.041 A 
ATOM     95  F   UNL     1      15.101   5.779  -8.298  1.00  0.00    -0.206 F 
ATOM     96  C   UNL     1      17.236   3.275  -6.800  1.00  0.00     0.022 A 
BRANCH  93  97
ATOM     97  S   UNL     1      16.793   1.022  -5.219  1.00  0.00     0.124 S 
ATOM     98  O   UNL     1      16.120   1.329  -3.961  1.00  0.00    -0.237 OA
ATOM     99  O   UNL     1      16.282  -0.132  -5.950  1.00  0.00    -0.237 OA
ATOM    100  O   UNL     1      18.250   1.139  -5.187  1.00  0.00    -0.744 OA
ENDBRANCH  93  97
ENDBRANCH  67  90
ENDBRANCH  41  42
ENDBRANCH  34  36
ENDBRANCH  33  34
ENDBRANCH  32  33
ENDBRANCH  31  32
ENDBRANCH  30  31
ENDBRANCH  29  30
ENDBRANCH  28  29
ENDBRANCH   1  28
TORSDOF 26
