REMARK SMILES O=C(OCCOCCOCCOCCOC(=O)[C@H]1C[C@H]2CCCC[C@@H]2[N@@H+]1CCn1ccnc1)c1ccc(-c2c3nc(c(-c4cc(S(=O)(=O)[O-])ccc4F)c4ccc([nH]4)c(-c4cc(S(=O)(=O)[O-])ccc4F)c4nc(c(-c5cc(S(=O)(=O)[O-])ccc5F)c5ccc2[nH]5)C=C4)C=C3)cc1
REMARK SMILES IDX 9 1 8 2 7 3 6 4 5 5 4 6 3 7 2 8 1 9 34 10 35 11 96 12 36 13
REMARK SMILES IDX 95 14 37 15 38 16 39 17 89 18 40 19 94 20 88 21 90 22 41 23
REMARK SMILES IDX 93 24 87 25 86 26 42 28 74 29 54 30 73 31 55 32 58 33 72 34
REMARK SMILES IDX 91 35 56 36 57 37 71 39 92 40 59 41 43 42 44 43 52 44 45 45
REMARK SMILES IDX 51 46 53 47 50 48 46 49 47 50 48 51 49 52 75 53 76 54 84 55
REMARK SMILES IDX 77 56 83 57 85 58 82 59 78 60 79 61 80 62 81 63 60 64 61 65
REMARK SMILES IDX 69 66 62 67 68 68 70 69 67 70 63 71 64 72 65 73 66 74 10 75
REMARK SMILES IDX 11 76 12 77 13 78 14 79 15 80 16 81 17 82 18 83 19 84 26 85
REMARK SMILES IDX 20 86 25 87 21 89 24 90 22 91 23 92 27 93 28 94 29 95 30 96
REMARK SMILES IDX 33 97 31 98 32 99
REMARK H PARENT 90 27 58 38 26 88
REMARK Flexibility Score: inf
ROOT
ATOM      1  O   UNL     1       7.795  -2.485   5.785  1.00  0.00    -0.377 OA
ENDROOT
BRANCH   1   2
ATOM      2  C   UNL     1       9.041  -2.986   5.311  1.00  0.00     0.188 C 
BRANCH   2   3
ATOM      3  C   UNL     1      10.272  -2.209   5.811  1.00  0.00     0.188 C 
BRANCH   3   4
ATOM      4  O   UNL     1      10.162  -0.808   5.641  1.00  0.00    -0.376 OA
BRANCH   4   5
ATOM      5  C   UNL     1      10.726  -0.087   4.567  1.00  0.00     0.202 C 
BRANCH   5   6
ATOM      6  C   UNL     1      10.484  -0.461   3.098  1.00  0.00     0.261 C 
BRANCH   6   7
ATOM      7  O   UNL     1      10.206  -1.826   2.782  1.00  0.00    -0.460 OA
BRANCH   7   8
ATOM      8  C   UNL     1      11.018  -2.892   2.642  1.00  0.00     0.338 C 
ATOM      9  O   UNL     1      10.548  -3.930   2.178  1.00  0.00    -0.246 OA
BRANCH   8  10
ATOM     10  C   UNL     1      12.384  -2.931   3.217  1.00  0.00     0.060 A 
ATOM     11  C   UNL     1      13.217  -1.826   3.383  1.00  0.00     0.016 A 
ATOM     12  C   UNL     1      12.846  -4.206   3.601  1.00  0.00     0.016 A 
ATOM     13  C   UNL     1      14.505  -1.992   3.861  1.00  0.00     0.010 A 
ATOM     14  C   UNL     1      14.142  -4.381   4.061  1.00  0.00     0.010 A 
ATOM     15  C   UNL     1      14.981  -3.274   4.125  1.00  0.00    -0.014 A 
BRANCH  15  16
ATOM     16  C   UNL     1      16.417  -3.395   4.310  1.00  0.00     0.031 A 
ATOM     17  C   UNL     1      17.003  -2.763   5.517  1.00  0.00     0.074 A 
ATOM     18  C   UNL     1      17.175  -4.008   3.381  1.00  0.00     0.049 A 
ATOM     19  N   UNL     1      17.860  -1.796   5.574  1.00  0.00    -0.248 NA
ATOM     20  C   UNL     1      16.511  -3.206   6.827  1.00  0.00     0.031 C 
ATOM     21  C   UNL     1      16.732  -4.835   2.254  1.00  0.00     0.029 A 
ATOM     22  N   UNL     1      18.531  -4.082   3.310  1.00  0.00    -0.354 N 
ATOM     23  C   UNL     1      18.167  -1.627   6.921  1.00  0.00     0.074 A 
ATOM     24  C   UNL     1      17.222  -2.434   7.650  1.00  0.00     0.031 C 
ATOM     25  C   UNL     1      17.791  -5.508   1.756  1.00  0.00     0.029 A 
ATOM     26  C   UNL     1      18.992  -5.048   2.430  1.00  0.00     0.049 A 
ATOM     27  H   UNL     1      19.130  -3.504   3.835  1.00  0.00     0.167 HD
ATOM     28  C   UNL     1      19.284  -0.964   7.331  1.00  0.00     0.034 A 
ATOM     29  C   UNL     1      20.263  -5.503   2.315  1.00  0.00     0.034 A 
ATOM     30  C   UNL     1      19.782  -0.078   6.308  1.00  0.00     0.049 A 
ATOM     31  C   UNL     1      21.159  -4.438   2.827  1.00  0.00     0.074 A 
ATOM     32  C   UNL     1      19.260   1.019   5.649  1.00  0.00     0.029 A 
ATOM     33  N   UNL     1      20.870  -0.466   5.562  1.00  0.00    -0.354 N 
ATOM     34  N   UNL     1      21.292  -3.276   2.248  1.00  0.00    -0.248 NA
ATOM     35  C   UNL     1      21.560  -4.478   4.224  1.00  0.00     0.031 C 
ATOM     36  C   UNL     1      19.733   0.905   4.310  1.00  0.00     0.029 A 
ATOM     37  C   UNL     1      20.558  -0.219   4.245  1.00  0.00     0.049 A 
ATOM     38  H   UNL     1      21.710  -0.847   5.904  1.00  0.00     0.167 HD
ATOM     39  C   UNL     1      21.377  -2.361   3.285  1.00  0.00     0.074 A 
ATOM     40  C   UNL     1      21.650  -3.167   4.473  1.00  0.00     0.031 C 
ATOM     41  C   UNL     1      20.951  -1.071   3.136  1.00  0.00     0.034 A 
BRANCH  28  42
ATOM     42  C   UNL     1      20.073  -1.308   8.572  1.00  0.00     0.023 A 
ATOM     43  C   UNL     1      21.152  -0.479   8.940  1.00  0.00     0.031 A 
ATOM     44  C   UNL     1      19.985  -2.542   9.257  1.00  0.00     0.131 A 
ATOM     45  C   UNL     1      22.096  -0.902   9.896  1.00  0.00     0.055 A 
ATOM     46  C   UNL     1      20.886  -2.928  10.253  1.00  0.00     0.041 A 
ATOM     47  F   UNL     1      19.086  -3.480   8.933  1.00  0.00    -0.206 F 
ATOM     48  C   UNL     1      21.963  -2.117  10.562  1.00  0.00     0.022 A 
BRANCH  45  49
ATOM     49  S   UNL     1      23.601   0.082  10.133  1.00  0.00     0.124 S 
ATOM     50  O   UNL     1      24.072   0.246   8.762  1.00  0.00    -0.237 OA
ATOM     51  O   UNL     1      23.078   1.279  10.783  1.00  0.00    -0.237 OA
ATOM     52  O   UNL     1      24.434  -0.772  10.977  1.00  0.00    -0.744 OA
ENDBRANCH  45  49
ENDBRANCH  28  42
BRANCH  29  53
ATOM     53  C   UNL     1      20.643  -6.928   2.152  1.00  0.00     0.023 A 
ATOM     54  C   UNL     1      21.896  -7.325   1.655  1.00  0.00     0.031 A 
ATOM     55  C   UNL     1      19.820  -7.942   2.697  1.00  0.00     0.131 A 
ATOM     56  C   UNL     1      22.274  -8.686   1.703  1.00  0.00     0.055 A 
ATOM     57  C   UNL     1      20.191  -9.285   2.728  1.00  0.00     0.041 A 
ATOM     58  F   UNL     1      18.653  -7.648   3.295  1.00  0.00    -0.206 F 
ATOM     59  C   UNL     1      21.428  -9.663   2.235  1.00  0.00     0.022 A 
BRANCH  56  60
ATOM     60  S   UNL     1      23.935  -9.188   1.156  1.00  0.00     0.124 S 
ATOM     61  O   UNL     1      23.858  -8.990  -0.287  1.00  0.00    -0.237 OA
ATOM     62  O   UNL     1      24.797  -8.270   1.892  1.00  0.00    -0.237 OA
ATOM     63  O   UNL     1      24.026 -10.585   1.582  1.00  0.00    -0.744 OA
ENDBRANCH  56  60
ENDBRANCH  29  53
BRANCH  41  64
ATOM     64  C   UNL     1      20.627  -0.574   1.738  1.00  0.00     0.023 A 
ATOM     65  C   UNL     1      19.665  -1.163   0.886  1.00  0.00     0.031 A 
ATOM     66  C   UNL     1      21.226   0.624   1.309  1.00  0.00     0.131 A 
ATOM     67  C   UNL     1      19.346  -0.560  -0.347  1.00  0.00     0.055 A 
ATOM     68  C   UNL     1      20.896   1.228   0.095  1.00  0.00     0.041 A 
ATOM     69  F   UNL     1      22.121   1.255   2.088  1.00  0.00    -0.206 F 
ATOM     70  C   UNL     1      19.958   0.633  -0.742  1.00  0.00     0.022 A 
BRANCH  67  71
ATOM     71  S   UNL     1      18.125  -1.322  -1.464  1.00  0.00     0.124 S 
ATOM     72  O   UNL     1      18.527  -2.723  -1.509  1.00  0.00    -0.237 OA
ATOM     73  O   UNL     1      16.861  -1.039  -0.788  1.00  0.00    -0.237 OA
ATOM     74  O   UNL     1      18.315  -0.595  -2.721  1.00  0.00    -0.744 OA
ENDBRANCH  67  71
ENDBRANCH  41  64
ENDBRANCH  15  16
ENDBRANCH   8  10
ENDBRANCH   7   8
ENDBRANCH   6   7
ENDBRANCH   5   6
ENDBRANCH   4   5
ENDBRANCH   3   4
ENDBRANCH   2   3
ENDBRANCH   1   2
BRANCH   1  75
ATOM     75  C   UNL     1       7.529  -1.139   5.410  1.00  0.00     0.188 C 
BRANCH  75  76
ATOM     76  C   UNL     1       7.679  -0.096   6.542  1.00  0.00     0.188 C 
BRANCH  76  77
ATOM     77  O   UNL     1       7.986  -0.468   7.878  1.00  0.00    -0.376 OA
BRANCH  77  78
ATOM     78  C   UNL     1       7.584  -1.726   8.379  1.00  0.00     0.202 C 
BRANCH  78  79
ATOM     79  C   UNL     1       6.130  -2.212   8.225  1.00  0.00     0.261 C 
BRANCH  79  80
ATOM     80  O   UNL     1       5.332  -1.629   7.183  1.00  0.00    -0.459 OA
BRANCH  80  81
ATOM     81  C   UNL     1       4.684  -0.474   7.523  1.00  0.00     0.365 C 
ATOM     82  O   UNL     1       4.754   0.046   8.617  1.00  0.00    -0.245 OA
BRANCH  81  83
ATOM     83  C   UNL     1       3.818   0.044   6.336  1.00  0.00     0.295 C 
ATOM     84  C   UNL     1       2.890   1.157   6.861  1.00  0.00     0.087 C 
ATOM     85  N   UNL     1       4.644   0.684   5.271  1.00  0.00    -0.319 N 
ATOM     86  C   UNL     1       3.339   2.416   6.139  1.00  0.00     0.054 C 
ATOM     87  C   UNL     1       4.729   2.103   5.624  1.00  0.00     0.188 C 
ATOM     88  H   UNL     1       5.585   0.290   5.263  1.00  0.00     0.349 HD
ATOM     89  C   UNL     1       3.355   3.725   6.904  1.00  0.00     0.010 C 
ATOM     90  C   UNL     1       5.198   3.152   4.617  1.00  0.00     0.065 C 
ATOM     91  C   UNL     1       3.732   4.837   5.917  1.00  0.00     0.001 C 
ATOM     92  C   UNL     1       5.058   4.573   5.187  1.00  0.00     0.006 C 
BRANCH  85  93
ATOM     93  C   UNL     1       4.372   0.310   3.876  1.00  0.00     0.285 C 
BRANCH  93  94
ATOM     94  C   UNL     1       2.954   0.226   3.268  1.00  0.00     0.184 C 
BRANCH  94  95
ATOM     95  N   UNL     1       2.240   1.462   3.048  1.00  0.00    -0.332 N 
ATOM     96  C   UNL     1       1.035   1.800   3.605  1.00  0.00     0.107 A 
ATOM     97  C   UNL     1       2.592   2.473   2.200  1.00  0.00     0.199 A 
ATOM     98  C   UNL     1       0.797   3.086   3.179  1.00  0.00     0.130 A 
ATOM     99  N   UNL     1       1.762   3.489   2.294  1.00  0.00    -0.245 NA
ENDBRANCH  94  95
ENDBRANCH  93  94
ENDBRANCH  85  93
ENDBRANCH  81  83
ENDBRANCH  80  81
ENDBRANCH  79  80
ENDBRANCH  78  79
ENDBRANCH  77  78
ENDBRANCH  76  77
ENDBRANCH  75  76
ENDBRANCH   1  75
TORSDOF 26
