REMARK SMILES O=C(/C=C/c1cc(F)cc(C[N@@H+]2CCC[C@H]2CO)c1)OCCOCCOCCOCCOC(=O)c1ccc(-c2c3nc(c(-c4cc(S(=O)(=O)[O-])ccc4F)c4ccc([nH]4)c(-c4cc(S(=O)(=O)[O-])ccc4F)c4nc(c(-c5cc(S(=O)(=O)[O-])ccc5F)c5ccc2[nH]5)C=C4)C=C3)cc1
REMARK SMILES IDX 25 1 24 2 23 3 22 4 21 5 20 6 2 7 1 8 3 9 4 10 5 11 6 12
REMARK SMILES IDX 19 13 7 14 10 15 8 16 9 17 11 18 12 19 13 20 16 21 14 23
REMARK SMILES IDX 15 24 17 25 18 26 26 28 27 29 28 30 29 31 30 32 31 33 32 34
REMARK SMILES IDX 33 35 34 36 35 37 36 38 97 39 37 40 96 41 38 42 39 43 40 44
REMARK SMILES IDX 90 45 41 46 95 47 89 48 91 49 42 50 94 51 88 52 87 53 43 55
REMARK SMILES IDX 75 56 55 57 74 58 56 59 59 60 73 61 92 62 57 63 58 64 72 66
REMARK SMILES IDX 93 67 60 68 44 69 45 70 53 71 46 72 52 73 54 74 51 75 47 76
REMARK SMILES IDX 48 77 49 78 50 79 76 80 77 81 85 82 78 83 84 84 86 85 83 86
REMARK SMILES IDX 79 87 80 88 81 89 82 90 61 91 62 92 70 93 63 94 69 95 71 96
REMARK SMILES IDX 68 97 64 98 65 99 66 100 67 101
REMARK H PARENT 12 22 18 27 91 54 59 65
REMARK Flexibility Score: inf
ROOT
ATOM      1  C   UNL     1       2.120   2.019   0.342  1.00  0.00     0.188 C 
ENDROOT
BRANCH   1   2
ATOM      2  C   UNL     1       2.828   0.942   1.154  1.00  0.00     0.188 C 
BRANCH   2   3
ATOM      3  O   UNL     1       4.204   0.671   0.929  1.00  0.00    -0.376 OA
BRANCH   3   4
ATOM      4  C   UNL     1       4.791   0.463  -0.342  1.00  0.00     0.202 C 
BRANCH   4   5
ATOM      5  C   UNL     1       4.109  -0.354  -1.436  1.00  0.00     0.261 C 
BRANCH   5   6
ATOM      6  O   UNL     1       2.806  -0.876  -1.158  1.00  0.00    -0.460 OA
BRANCH   6   7
ATOM      7  C   UNL     1       2.557  -2.022  -0.483  1.00  0.00     0.330 C 
ATOM      8  O   UNL     1       1.546  -2.679  -0.712  1.00  0.00    -0.247 OA
BRANCH   7   9
ATOM      9  C   UNL     1       3.310  -2.285   0.758  1.00  0.00     0.094 C 
ATOM     10  C   UNL     1       4.639  -2.359   0.887  1.00  0.00     0.016 C 
BRANCH  10  11
ATOM     11  C   UNL     1       5.305  -2.541   2.178  1.00  0.00    -0.022 A 
ATOM     12  C   UNL     1       5.181  -3.765   2.828  1.00  0.00     0.047 A 
ATOM     13  C   UNL     1       6.167  -1.552   2.698  1.00  0.00     0.018 A 
ATOM     14  C   UNL     1       6.017  -4.042   3.893  1.00  0.00     0.124 A 
ATOM     15  C   UNL     1       6.994  -1.816   3.805  1.00  0.00     0.010 A 
ATOM     16  F   UNL     1       5.955  -5.243   4.482  1.00  0.00    -0.207 F 
ATOM     17  C   UNL     1       6.953  -3.112   4.335  1.00  0.00     0.048 A 
BRANCH  15  18
ATOM     18  C   UNL     1       8.000  -0.786   4.294  1.00  0.00     0.299 C 
BRANCH  18  19
ATOM     19  N   UNL     1       7.932  -0.274   5.671  1.00  0.00    -0.327 N 
ATOM     20  C   UNL     1       8.021  -1.256   6.748  1.00  0.00     0.263 C 
ATOM     21  C   UNL     1       6.792   0.605   5.994  1.00  0.00     0.210 C 
ATOM     22  H   UNL     1       8.792   0.274   5.646  1.00  0.00     0.348 HD
ATOM     23  C   UNL     1       6.591  -1.517   7.190  1.00  0.00     0.068 C 
ATOM     24  C   UNL     1       5.820  -0.269   6.793  1.00  0.00     0.073 C 
BRANCH  21  25
ATOM     25  C   UNL     1       7.291   1.798   6.856  1.00  0.00     0.220 C 
BRANCH  25  26
ATOM     26  O   UNL     1       7.649   2.910   6.043  1.00  0.00    -0.390 OA
ATOM     27  H   UNL     1       8.368   2.656   5.444  1.00  0.00     0.210 HD
ENDBRANCH  25  26
ENDBRANCH  21  25
ENDBRANCH  18  19
ENDBRANCH  15  18
ENDBRANCH  10  11
ENDBRANCH   7   9
ENDBRANCH   6   7
ENDBRANCH   5   6
ENDBRANCH   4   5
ENDBRANCH   3   4
ENDBRANCH   2   3
ENDBRANCH   1   2
BRANCH   1  28
ATOM     28  O   UNL     1       2.561   3.336   0.624  1.00  0.00    -0.377 OA
BRANCH  28  29
ATOM     29  C   UNL     1       3.878   3.610   0.190  1.00  0.00     0.188 C 
BRANCH  29  30
ATOM     30  C   UNL     1       4.974   3.534   1.279  1.00  0.00     0.188 C 
BRANCH  30  31
ATOM     31  O   UNL     1       4.657   3.438   2.660  1.00  0.00    -0.376 OA
BRANCH  31  32
ATOM     32  C   UNL     1       3.491   4.056   3.175  1.00  0.00     0.202 C 
BRANCH  32  33
ATOM     33  C   UNL     1       3.234   5.557   2.956  1.00  0.00     0.261 C 
BRANCH  33  34
ATOM     34  O   UNL     1       3.529   6.071   1.652  1.00  0.00    -0.460 OA
BRANCH  34  35
ATOM     35  C   UNL     1       4.724   6.700   1.512  1.00  0.00     0.338 C 
ATOM     36  O   UNL     1       5.550   6.909   2.383  1.00  0.00    -0.246 OA
BRANCH  35  37
ATOM     37  C   UNL     1       4.975   6.912   0.066  1.00  0.00     0.060 A 
ATOM     38  C   UNL     1       6.156   6.402  -0.497  1.00  0.00     0.016 A 
ATOM     39  C   UNL     1       4.030   7.550  -0.741  1.00  0.00     0.016 A 
ATOM     40  C   UNL     1       6.400   6.535  -1.865  1.00  0.00     0.010 A 
ATOM     41  C   UNL     1       4.296   7.722  -2.101  1.00  0.00     0.010 A 
ATOM     42  C   UNL     1       5.492   7.239  -2.664  1.00  0.00    -0.014 A 
BRANCH  42  43
ATOM     43  C   UNL     1       5.888   7.708  -4.012  1.00  0.00     0.031 A 
ATOM     44  C   UNL     1       6.492   9.083  -4.112  1.00  0.00     0.074 A 
ATOM     45  C   UNL     1       5.717   6.958  -5.116  1.00  0.00     0.049 A 
ATOM     46  N   UNL     1       6.736   9.807  -5.170  1.00  0.00    -0.248 NA
ATOM     47  C   UNL     1       6.864   9.727  -2.840  1.00  0.00     0.031 C 
ATOM     48  C   UNL     1       5.238   5.577  -5.141  1.00  0.00     0.029 A 
ATOM     49  N   UNL     1       5.921   7.267  -6.438  1.00  0.00    -0.354 N 
ATOM     50  C   UNL     1       7.286  10.991  -4.694  1.00  0.00     0.074 A 
ATOM     51  C   UNL     1       7.320  10.900  -3.252  1.00  0.00     0.031 C 
ATOM     52  C   UNL     1       5.174   5.162  -6.420  1.00  0.00     0.029 A 
ATOM     53  C   UNL     1       5.552   6.264  -7.305  1.00  0.00     0.049 A 
ATOM     54  H   UNL     1       6.296   8.126  -6.738  1.00  0.00     0.167 HD
ATOM     55  C   UNL     1       7.724  12.059  -5.398  1.00  0.00     0.034 A 
ATOM     56  C   UNL     1       5.493   6.258  -8.653  1.00  0.00     0.034 A 
ATOM     57  C   UNL     1       7.673  12.149  -6.832  1.00  0.00     0.049 A 
ATOM     58  C   UNL     1       5.862   7.514  -9.411  1.00  0.00     0.074 A 
ATOM     59  C   UNL     1       8.047  13.207  -7.641  1.00  0.00     0.029 A 
ATOM     60  N   UNL     1       7.229  11.139  -7.672  1.00  0.00    -0.354 N 
ATOM     61  N   UNL     1       6.295   8.664  -8.948  1.00  0.00    -0.248 NA
ATOM     62  C   UNL     1       5.721   7.473 -10.874  1.00  0.00     0.031 C 
ATOM     63  C   UNL     1       7.782  12.856  -8.967  1.00  0.00     0.029 A 
ATOM     64  C   UNL     1       7.309  11.554  -8.990  1.00  0.00     0.049 A 
ATOM     65  H   UNL     1       6.905  10.258  -7.375  1.00  0.00     0.167 HD
ATOM     66  C   UNL     1       6.514   9.466 -10.066  1.00  0.00     0.074 A 
ATOM     67  C   UNL     1       6.169   8.670 -11.225  1.00  0.00     0.031 C 
ATOM     68  C   UNL     1       6.965  10.745 -10.132  1.00  0.00     0.034 A 
BRANCH  55  69
ATOM     69  C   UNL     1       8.265  13.229  -4.627  1.00  0.00     0.023 A 
ATOM     70  C   UNL     1       9.510  13.163  -3.982  1.00  0.00     0.031 A 
ATOM     71  C   UNL     1       7.547  14.436  -4.574  1.00  0.00     0.131 A 
ATOM     72  C   UNL     1       9.995  14.284  -3.293  1.00  0.00     0.055 A 
ATOM     73  C   UNL     1       8.060  15.564  -3.933  1.00  0.00     0.041 A 
ATOM     74  F   UNL     1       6.342  14.539  -5.156  1.00  0.00    -0.206 F 
ATOM     75  C   UNL     1       9.291  15.491  -3.287  1.00  0.00     0.022 A 
BRANCH  72  76
ATOM     76  S   UNL     1      11.547  14.133  -2.368  1.00  0.00     0.124 S 
ATOM     77  O   UNL     1      11.166  13.209  -1.303  1.00  0.00    -0.237 OA
ATOM     78  O   UNL     1      12.466  13.606  -3.371  1.00  0.00    -0.237 OA
ATOM     79  O   UNL     1      11.819  15.502  -1.933  1.00  0.00    -0.744 OA
ENDBRANCH  72  76
ENDBRANCH  55  69
BRANCH  56  80
ATOM     80  C   UNL     1       5.025   5.051  -9.396  1.00  0.00     0.023 A 
ATOM     81  C   UNL     1       5.884   4.374 -10.276  1.00  0.00     0.031 A 
ATOM     82  C   UNL     1       3.696   4.603  -9.296  1.00  0.00     0.131 A 
ATOM     83  C   UNL     1       5.395   3.314 -11.055  1.00  0.00     0.055 A 
ATOM     84  C   UNL     1       3.227   3.516 -10.038  1.00  0.00     0.041 A 
ATOM     85  F   UNL     1       2.831   5.218  -8.474  1.00  0.00    -0.206 F 
ATOM     86  C   UNL     1       4.076   2.872 -10.933  1.00  0.00     0.022 A 
BRANCH  83  87
ATOM     87  S   UNL     1       6.494   2.562 -12.287  1.00  0.00     0.124 S 
ATOM     88  O   UNL     1       6.754   3.687 -13.177  1.00  0.00    -0.237 OA
ATOM     89  O   UNL     1       7.616   2.122 -11.463  1.00  0.00    -0.237 OA
ATOM     90  O   UNL     1       5.684   1.487 -12.854  1.00  0.00    -0.744 OA
ENDBRANCH  83  87
ENDBRANCH  56  80
BRANCH  68  91
ATOM     91  C   UNL     1       7.167  11.343 -11.500  1.00  0.00     0.023 A 
ATOM     92  C   UNL     1       6.084  11.656 -12.337  1.00  0.00     0.031 A 
ATOM     93  C   UNL     1       8.466  11.630 -11.957  1.00  0.00     0.131 A 
ATOM     94  C   UNL     1       6.321  12.198 -13.609  1.00  0.00     0.055 A 
ATOM     95  C   UNL     1       8.693  12.221 -13.200  1.00  0.00     0.041 A 
ATOM     96  F   UNL     1       9.535  11.355 -11.193  1.00  0.00    -0.206 F 
ATOM     97  C   UNL     1       7.617  12.499 -14.038  1.00  0.00     0.022 A 
BRANCH  94  98
ATOM     98  S   UNL     1       4.913  12.450 -14.723  1.00  0.00     0.124 S 
ATOM     99  O   UNL     1       4.414  11.089 -14.893  1.00  0.00    -0.237 OA
ATOM    100  O   UNL     1       4.060  13.350 -13.954  1.00  0.00    -0.237 OA
ATOM    101  O   UNL     1       5.519  13.042 -15.915  1.00  0.00    -0.744 OA
ENDBRANCH  94  98
ENDBRANCH  68  91
ENDBRANCH  42  43
ENDBRANCH  35  37
ENDBRANCH  34  35
ENDBRANCH  33  34
ENDBRANCH  32  33
ENDBRANCH  31  32
ENDBRANCH  30  31
ENDBRANCH  29  30
ENDBRANCH  28  29
ENDBRANCH   1  28
TORSDOF 28
