REMARK SMILES CC(C)[C@H](C[C@H]1Cc2ccccc21)C(=O)OCCOCCOCCOCCOC(=O)c1ccc(-c2c3nc(c(-c4cc(S(=O)(=O)[O-])ccc4F)c4ccc([nH]4)c(-c4cc(S(=O)(=O)[O-])ccc4F)c4nc(c(-c5cc(S(=O)(=O)[O-])ccc5F)c5ccc2[nH]5)C=C4)C=C3)cc1
REMARK SMILES IDX 23 1 22 2 21 3 20 4 19 5 18 6 17 7 16 8 14 9 15 10 4 11 2 12
REMARK SMILES IDX 1 13 3 14 5 15 6 16 7 17 13 18 8 19 12 20 9 21 11 22 10 23
REMARK SMILES IDX 24 24 25 25 26 26 27 27 28 28 29 29 30 30 31 31 32 32 93 33
REMARK SMILES IDX 33 34 92 35 34 36 35 37 36 38 86 39 37 40 91 41 85 42 87 43
REMARK SMILES IDX 38 44 90 45 84 46 83 47 39 49 71 50 51 51 70 52 52 53 55 54
REMARK SMILES IDX 69 55 88 56 53 57 54 58 68 60 89 61 56 62 40 63 41 64 49 65
REMARK SMILES IDX 42 66 48 67 50 68 47 69 43 70 44 71 45 72 46 73 72 74 73 75
REMARK SMILES IDX 81 76 74 77 80 78 82 79 79 80 75 81 76 82 77 83 78 84 57 85
REMARK SMILES IDX 58 86 66 87 59 88 65 89 67 90 64 91 60 92 61 93 62 94 63 95
REMARK H PARENT 87 48 55 59
REMARK Flexibility Score: inf
ROOT
ATOM      1  C   UNL     1       0.962  -0.857   6.632  1.00  0.00     0.188 C 
ENDROOT
BRANCH   1   2
ATOM      2  O   UNL     1      -0.039  -1.092   5.669  1.00  0.00    -0.377 OA
BRANCH   2   3
ATOM      3  C   UNL     1      -0.095  -0.112   4.662  1.00  0.00     0.188 C 
BRANCH   3   4
ATOM      4  C   UNL     1      -1.345   0.779   4.711  1.00  0.00     0.188 C 
BRANCH   4   5
ATOM      5  O   UNL     1      -2.612   0.247   5.084  1.00  0.00    -0.376 OA
BRANCH   5   6
ATOM      6  C   UNL     1      -2.746  -1.150   5.262  1.00  0.00     0.202 C 
BRANCH   6   7
ATOM      7  C   UNL     1      -2.717  -2.001   3.985  1.00  0.00     0.261 C 
BRANCH   7   8
ATOM      8  O   UNL     1      -1.746  -1.653   2.970  1.00  0.00    -0.463 OA
BRANCH   8   9
ATOM      9  C   UNL     1      -2.119  -0.761   2.010  1.00  0.00     0.309 C 
ATOM     10  O   UNL     1      -3.184  -0.154   2.008  1.00  0.00    -0.252 OA
BRANCH   9  11
ATOM     11  C   UNL     1      -1.145  -0.716   0.812  1.00  0.00     0.102 C 
BRANCH  11  12
ATOM     12  C   UNL     1      -1.523  -1.906  -0.141  1.00  0.00    -0.003 C 
ATOM     13  C   UNL     1      -0.446  -2.242  -1.173  1.00  0.00     0.008 C 
ATOM     14  C   UNL     1      -1.932  -3.212   0.561  1.00  0.00     0.008 C 
ENDBRANCH  11  12
BRANCH  11  15
ATOM     15  C   UNL     1       0.377  -0.571   1.103  1.00  0.00     0.024 C 
BRANCH  15  16
ATOM     16  C   UNL     1       0.815   0.815   1.618  1.00  0.00     0.025 C 
ATOM     17  C   UNL     1       2.282   0.818   2.222  1.00  0.00     0.044 C 
ATOM     18  C   UNL     1       1.361   1.841   0.638  1.00  0.00    -0.041 A 
ATOM     19  C   UNL     1       2.582   1.927   1.267  1.00  0.00    -0.044 A 
ATOM     20  C   UNL     1       1.046   2.686  -0.402  1.00  0.00     0.004 A 
ATOM     21  C   UNL     1       3.551   2.841   0.914  1.00  0.00     0.004 A 
ATOM     22  C   UNL     1       2.013   3.625  -0.795  1.00  0.00     0.000 A 
ATOM     23  C   UNL     1       3.256   3.707  -0.136  1.00  0.00     0.000 A 
ENDBRANCH  15  16
ENDBRANCH  11  15
ENDBRANCH   9  11
ENDBRANCH   8   9
ENDBRANCH   7   8
ENDBRANCH   6   7
ENDBRANCH   5   6
ENDBRANCH   4   5
ENDBRANCH   3   4
ENDBRANCH   2   3
ENDBRANCH   1   2
BRANCH   1  24
ATOM     24  C   UNL     1       0.706   0.368   7.523  1.00  0.00     0.188 C 
BRANCH  24  25
ATOM     25  O   UNL     1       0.640   1.671   6.965  1.00  0.00    -0.376 OA
BRANCH  25  26
ATOM     26  C   UNL     1       1.659   2.294   6.205  1.00  0.00     0.202 C 
BRANCH  26  27
ATOM     27  C   UNL     1       3.159   2.026   6.366  1.00  0.00     0.261 C 
BRANCH  27  28
ATOM     28  O   UNL     1       3.537   0.654   6.496  1.00  0.00    -0.460 OA
BRANCH  28  29
ATOM     29  C   UNL     1       3.969   0.311   7.735  1.00  0.00     0.338 C 
ATOM     30  O   UNL     1       4.084   1.056   8.698  1.00  0.00    -0.246 OA
BRANCH  29  31
ATOM     31  C   UNL     1       4.074  -1.154   7.846  1.00  0.00     0.060 A 
ATOM     32  C   UNL     1       3.278  -1.780   8.812  1.00  0.00     0.016 A 
ATOM     33  C   UNL     1       4.952  -1.898   7.055  1.00  0.00     0.016 A 
ATOM     34  C   UNL     1       3.368  -3.150   9.011  1.00  0.00     0.010 A 
ATOM     35  C   UNL     1       5.075  -3.273   7.286  1.00  0.00     0.010 A 
ATOM     36  C   UNL     1       4.306  -3.894   8.288  1.00  0.00    -0.014 A 
BRANCH  36  37
ATOM     37  C   UNL     1       4.606  -5.265   8.758  1.00  0.00     0.031 A 
ATOM     38  C   UNL     1       5.743  -5.451   9.725  1.00  0.00     0.074 A 
ATOM     39  C   UNL     1       3.817  -6.298   8.417  1.00  0.00     0.049 A 
ATOM     40  N   UNL     1       6.154  -6.535  10.328  1.00  0.00    -0.248 NA
ATOM     41  C   UNL     1       6.515  -4.244  10.059  1.00  0.00     0.031 C 
ATOM     42  C   UNL     1       2.653  -6.214   7.538  1.00  0.00     0.029 A 
ATOM     43  N   UNL     1       3.872  -7.619   8.782  1.00  0.00    -0.354 N 
ATOM     44  C   UNL     1       7.230  -6.143  11.116  1.00  0.00     0.074 A 
ATOM     45  C   UNL     1       7.432  -4.729  10.880  1.00  0.00     0.031 C 
ATOM     46  C   UNL     1       2.103  -7.436   7.428  1.00  0.00     0.029 A 
ATOM     47  C   UNL     1       2.894  -8.391   8.202  1.00  0.00     0.049 A 
ATOM     48  H   UNL     1       4.547  -7.979   9.402  1.00  0.00     0.167 HD
ATOM     49  C   UNL     1       7.975  -6.894  11.964  1.00  0.00     0.034 A 
ATOM     50  C   UNL     1       2.679  -9.720   8.275  1.00  0.00     0.034 A 
ATOM     51  C   UNL     1       7.769  -8.308  12.164  1.00  0.00     0.049 A 
ATOM     52  C   UNL     1       3.579 -10.553   9.155  1.00  0.00     0.074 A 
ATOM     53  C   UNL     1       8.459  -9.170  12.998  1.00  0.00     0.029 A 
ATOM     54  N   UNL     1       6.814  -9.075  11.506  1.00  0.00    -0.354 N 
ATOM     55  N   UNL     1       4.588 -10.173   9.906  1.00  0.00    -0.248 NA
ATOM     56  C   UNL     1       3.297 -11.992   9.210  1.00  0.00     0.031 C 
ATOM     57  C   UNL     1       7.982 -10.467  12.778  1.00  0.00     0.029 A 
ATOM     58  C   UNL     1       6.926 -10.405  11.884  1.00  0.00     0.049 A 
ATOM     59  H   UNL     1       6.154  -8.725  10.865  1.00  0.00     0.167 HD
ATOM     60  C   UNL     1       5.042 -11.325  10.547  1.00  0.00     0.074 A 
ATOM     61  C   UNL     1       4.179 -12.403  10.109  1.00  0.00     0.031 C 
ATOM     62  C   UNL     1       6.073 -11.478  11.420  1.00  0.00     0.034 A 
BRANCH  49  63
ATOM     63  C   UNL     1       9.119  -6.207  12.674  1.00  0.00     0.023 A 
ATOM     64  C   UNL     1       8.912  -5.145  13.573  1.00  0.00     0.031 A 
ATOM     65  C   UNL     1      10.445  -6.592  12.409  1.00  0.00     0.131 A 
ATOM     66  C   UNL     1      10.011  -4.458  14.112  1.00  0.00     0.055 A 
ATOM     67  C   UNL     1      11.533  -5.962  13.017  1.00  0.00     0.041 A 
ATOM     68  F   UNL     1      10.710  -7.577  11.537  1.00  0.00    -0.206 F 
ATOM     69  C   UNL     1      11.319  -4.877  13.862  1.00  0.00     0.022 A 
BRANCH  66  70
ATOM     70  S   UNL     1       9.712  -2.911  15.012  1.00  0.00     0.124 S 
ATOM     71  O   UNL     1       8.998  -2.121  14.011  1.00  0.00    -0.237 OA
ATOM     72  O   UNL     1       8.926  -3.357  16.155  1.00  0.00    -0.237 OA
ATOM     73  O   UNL     1      11.057  -2.432  15.326  1.00  0.00    -0.744 OA
ENDBRANCH  66  70
ENDBRANCH  49  63
BRANCH  50  74
ATOM     74  C   UNL     1       1.597 -10.352   7.466  1.00  0.00     0.023 A 
ATOM     75  C   UNL     1       0.520 -11.019   8.072  1.00  0.00     0.031 A 
ATOM     76  C   UNL     1       1.655 -10.339   6.060  1.00  0.00     0.131 A 
ATOM     77  C   UNL     1      -0.430 -11.680   7.276  1.00  0.00     0.055 A 
ATOM     78  C   UNL     1       0.678 -10.948   5.273  1.00  0.00     0.041 A 
ATOM     79  F   UNL     1       2.666  -9.720   5.429  1.00  0.00    -0.206 F 
ATOM     80  C   UNL     1      -0.367 -11.635   5.881  1.00  0.00     0.022 A 
BRANCH  77  81
ATOM     81  S   UNL     1      -1.709 -12.675   8.092  1.00  0.00     0.124 S 
ATOM     82  O   UNL     1      -0.906 -13.634   8.841  1.00  0.00    -0.237 OA
ATOM     83  O   UNL     1      -2.414 -11.671   8.882  1.00  0.00    -0.237 OA
ATOM     84  O   UNL     1      -2.469 -13.232   6.976  1.00  0.00    -0.744 OA
ENDBRANCH  77  81
ENDBRANCH  50  74
BRANCH  62  85
ATOM     85  C   UNL     1       6.290 -12.864  11.987  1.00  0.00     0.023 A 
ATOM     86  C   UNL     1       6.629 -13.956  11.168  1.00  0.00     0.031 A 
ATOM     87  C   UNL     1       6.116 -13.103  13.362  1.00  0.00     0.131 A 
ATOM     88  C   UNL     1       6.697 -15.246  11.715  1.00  0.00     0.055 A 
ATOM     89  C   UNL     1       6.267 -14.376  13.914  1.00  0.00     0.041 A 
ATOM     90  F   UNL     1       5.789 -12.102  14.195  1.00  0.00    -0.206 F 
ATOM     91  C   UNL     1       6.539 -15.460  13.086  1.00  0.00     0.022 A 
BRANCH  88  92
ATOM     92  S   UNL     1       6.851 -16.659  10.588  1.00  0.00     0.124 S 
ATOM     93  O   UNL     1       5.709 -16.463   9.700  1.00  0.00    -0.237 OA
ATOM     94  O   UNL     1       8.165 -16.442   9.993  1.00  0.00    -0.237 OA
ATOM     95  O   UNL     1       6.755 -17.817  11.475  1.00  0.00    -0.744 OA
ENDBRANCH  88  92
ENDBRANCH  62  85
ENDBRANCH  36  37
ENDBRANCH  29  31
ENDBRANCH  28  29
ENDBRANCH  27  28
ENDBRANCH  26  27
ENDBRANCH  25  26
ENDBRANCH  24  25
ENDBRANCH   1  24
TORSDOF 26
