REMARK SMILES Cc1cc(OC(F)(F)F)cc2c1O[C@H](C(F)(F)F)C(C(=O)OCCOCCOCCOCCOC(=O)c1ccc(-c3c4nc(c(-c5cc(S(=O)(=O)[O-])ccc5F)c5ccc([nH]5)c(-c5cc(S(=O)(=O)[O-])ccc5F)c5nc(c(-c6cc(S(=O)(=O)[O-])ccc6F)c6ccc3[nH]6)C=C5)C=C4)cc1)=C2
REMARK SMILES IDX 29 1 28 2 27 3 26 4 25 5 24 6 23 7 22 8 20 9 21 10 19 11
REMARK SMILES IDX 1 12 2 13 3 14 12 15 4 16 11 17 13 18 10 19 100 20 14 21
REMARK SMILES IDX 5 22 6 23 7 24 8 25 9 26 15 27 16 28 17 29 18 30 30 31 31 32
REMARK SMILES IDX 32 33 33 34 34 35 35 36 36 37 37 38 38 39 99 40 39 41 98 42
REMARK SMILES IDX 40 43 41 44 42 45 92 46 43 47 97 48 91 49 93 50 44 51 96 52
REMARK SMILES IDX 90 53 89 54 45 56 77 57 57 58 76 59 58 60 61 61 75 62 94 63
REMARK SMILES IDX 59 64 60 65 74 67 95 68 62 69 46 70 47 71 55 72 48 73 54 74
REMARK SMILES IDX 56 75 53 76 49 77 50 78 51 79 52 80 78 81 79 82 87 83 80 84
REMARK SMILES IDX 86 85 88 86 85 87 81 88 82 89 83 90 84 91 63 92 64 93 72 94
REMARK SMILES IDX 65 95 71 96 73 97 70 98 66 99 67 100 68 101 69 102
REMARK H PARENT 93 55 61 66
REMARK Flexibility Score: inf
ROOT
ATOM      1  C   UNL     1      -1.318  -8.440  -1.149  1.00  0.00     0.188 C 
ENDROOT
BRANCH   1   2
ATOM      2  O   UNL     1      -0.583  -7.249  -1.431  1.00  0.00    -0.377 OA
BRANCH   2   3
ATOM      3  C   UNL     1      -1.103  -6.368  -2.412  1.00  0.00     0.188 C 
BRANCH   3   4
ATOM      4  C   UNL     1      -0.721  -6.784  -3.844  1.00  0.00     0.188 C 
BRANCH   4   5
ATOM      5  O   UNL     1      -0.255  -8.126  -3.929  1.00  0.00    -0.376 OA
BRANCH   5   6
ATOM      6  C   UNL     1       1.148  -8.352  -3.989  1.00  0.00     0.202 C 
BRANCH   6   7
ATOM      7  C   UNL     1       2.050  -7.869  -2.841  1.00  0.00     0.261 C 
BRANCH   7   8
ATOM      8  O   UNL     1       1.879  -6.505  -2.434  1.00  0.00    -0.460 OA
BRANCH   8   9
ATOM      9  C   UNL     1       2.243  -5.532  -3.288  1.00  0.00     0.338 C 
ATOM     10  O   UNL     1       2.741  -5.674  -4.391  1.00  0.00    -0.246 OA
BRANCH   9  11
ATOM     11  C   UNL     1       1.761  -4.247  -2.733  1.00  0.00     0.087 C 
ATOM     12  C   UNL     1       0.873  -0.139   0.172  1.00  0.00     0.048 C 
ATOM     13  C   UNL     1       0.544  -0.539  -1.241  1.00  0.00    -0.005 A 
ATOM     14  C   UNL     1      -0.052   0.389  -2.113  1.00  0.00     0.054 A 
ATOM     15  C   UNL     1       0.885  -1.814  -1.718  1.00  0.00     0.131 A 
ATOM     16  C   UNL     1      -0.322   0.044  -3.438  1.00  0.00     0.130 A 
ATOM     17  C   UNL     1       0.656  -2.149  -3.053  1.00  0.00     0.021 A 
ATOM     18  O   UNL     1       1.452  -2.672  -0.821  1.00  0.00    -0.475 OA
ATOM     19  C   UNL     1       0.021  -1.231  -3.896  1.00  0.00     0.058 A 
ATOM     20  C   UNL     1       1.138  -3.415  -3.578  1.00  0.00     0.027 C 
ATOM     21  C   UNL     1       1.925  -3.975  -1.257  1.00  0.00     0.316 C 
BRANCH  16  22
ATOM     22  O   UNL     1      -0.898   0.846  -4.383  1.00  0.00    -0.406 OA
BRANCH  22  23
ATOM     23  C   UNL     1      -0.993   2.231  -4.098  1.00  0.00     0.573 C 
ATOM     24  F   UNL     1      -1.859   2.465  -3.090  1.00  0.00    -0.132 F 
ATOM     25  F   UNL     1       0.213   2.755  -3.792  1.00  0.00    -0.132 F 
ATOM     26  F   UNL     1      -1.454   2.865  -5.200  1.00  0.00    -0.132 F 
ENDBRANCH  22  23
ENDBRANCH  16  22
BRANCH  21  27
ATOM     27  C   UNL     1       3.385  -4.117  -0.803  1.00  0.00     0.430 C 
ATOM     28  F   UNL     1       3.532  -3.783   0.497  1.00  0.00    -0.167 F 
ATOM     29  F   UNL     1       3.842  -5.382  -0.949  1.00  0.00    -0.167 F 
ATOM     30  F   UNL     1       4.201  -3.312  -1.526  1.00  0.00    -0.167 F 
ENDBRANCH  21  27
ENDBRANCH   9  11
ENDBRANCH   8   9
ENDBRANCH   7   8
ENDBRANCH   6   7
ENDBRANCH   5   6
ENDBRANCH   4   5
ENDBRANCH   3   4
ENDBRANCH   2   3
ENDBRANCH   1   2
BRANCH   1  31
ATOM     31  C   UNL     1      -2.291  -9.059  -2.181  1.00  0.00     0.188 C 
BRANCH  31  32
ATOM     32  O   UNL     1      -3.165  -8.117  -2.799  1.00  0.00    -0.376 OA
BRANCH  32  33
ATOM     33  C   UNL     1      -4.528  -8.156  -2.404  1.00  0.00     0.202 C 
BRANCH  33  34
ATOM     34  C   UNL     1      -4.807  -7.551  -1.023  1.00  0.00     0.261 C 
BRANCH  34  35
ATOM     35  O   UNL     1      -4.172  -8.213   0.081  1.00  0.00    -0.460 OA
BRANCH  35  36
ATOM     36  C   UNL     1      -4.466  -9.514   0.293  1.00  0.00     0.338 C 
ATOM     37  O   UNL     1      -5.248 -10.208  -0.332  1.00  0.00    -0.246 OA
BRANCH  36  38
ATOM     38  C   UNL     1      -3.524 -10.002   1.317  1.00  0.00     0.060 A 
ATOM     39  C   UNL     1      -2.592 -10.992   0.979  1.00  0.00     0.016 A 
ATOM     40  C   UNL     1      -3.540  -9.444   2.597  1.00  0.00     0.016 A 
ATOM     41  C   UNL     1      -1.674 -11.431   1.933  1.00  0.00     0.010 A 
ATOM     42  C   UNL     1      -2.640  -9.905   3.557  1.00  0.00     0.010 A 
ATOM     43  C   UNL     1      -1.718 -10.914   3.235  1.00  0.00    -0.014 A 
BRANCH  43  44
ATOM     44  C   UNL     1      -0.920 -11.551   4.306  1.00  0.00     0.031 A 
ATOM     45  C   UNL     1      -1.540 -12.676   5.082  1.00  0.00     0.074 A 
ATOM     46  C   UNL     1       0.328 -11.136   4.587  1.00  0.00     0.049 A 
ATOM     47  N   UNL     1      -1.029 -13.395   6.045  1.00  0.00    -0.248 NA
ATOM     48  C   UNL     1      -2.922 -13.038   4.724  1.00  0.00     0.031 C 
ATOM     49  C   UNL     1       1.034 -10.060   3.897  1.00  0.00     0.029 A 
ATOM     50  N   UNL     1       1.217 -11.572   5.538  1.00  0.00    -0.354 N 
ATOM     51  C   UNL     1      -2.017 -14.305   6.397  1.00  0.00     0.074 A 
ATOM     52  C   UNL     1      -3.172 -14.022   5.575  1.00  0.00     0.031 C 
ATOM     53  C   UNL     1       2.247  -9.909   4.457  1.00  0.00     0.029 A 
ATOM     54  C   UNL     1       2.396 -10.866   5.556  1.00  0.00     0.049 A 
ATOM     55  H   UNL     1       1.028 -12.319   6.151  1.00  0.00     0.167 HD
ATOM     56  C   UNL     1      -1.960 -15.297   7.315  1.00  0.00     0.034 A 
ATOM     57  C   UNL     1       3.468 -10.975   6.369  1.00  0.00     0.034 A 
ATOM     58  C   UNL     1      -0.816 -15.557   8.147  1.00  0.00     0.049 A 
ATOM     59  C   UNL     1       3.487 -12.052   7.426  1.00  0.00     0.074 A 
ATOM     60  C   UNL     1      -0.659 -16.555   9.092  1.00  0.00     0.029 A 
ATOM     61  N   UNL     1       0.354 -14.814   8.149  1.00  0.00    -0.354 N 
ATOM     62  N   UNL     1       2.579 -12.962   7.694  1.00  0.00    -0.248 NA
ATOM     63  C   UNL     1       4.679 -12.129   8.284  1.00  0.00     0.031 C 
ATOM     64  C   UNL     1       0.584 -16.382   9.704  1.00  0.00     0.029 A 
ATOM     65  C   UNL     1       1.229 -15.315   9.099  1.00  0.00     0.049 A 
ATOM     66  H   UNL     1       0.536 -14.045   7.562  1.00  0.00     0.167 HD
ATOM     67  C   UNL     1       3.100 -13.731   8.733  1.00  0.00     0.074 A 
ATOM     68  C   UNL     1       4.411 -13.194   9.029  1.00  0.00     0.031 C 
ATOM     69  C   UNL     1       2.540 -14.783   9.383  1.00  0.00     0.034 A 
BRANCH  56  70
ATOM     70  C   UNL     1      -3.160 -16.188   7.472  1.00  0.00     0.023 A 
ATOM     71  C   UNL     1      -3.892 -16.179   8.672  1.00  0.00     0.031 A 
ATOM     72  C   UNL     1      -3.509 -17.122   6.480  1.00  0.00     0.131 A 
ATOM     73  C   UNL     1      -4.915 -17.114   8.865  1.00  0.00     0.055 A 
ATOM     74  C   UNL     1      -4.553 -18.027   6.664  1.00  0.00     0.041 A 
ATOM     75  F   UNL     1      -2.842 -17.158   5.314  1.00  0.00    -0.206 F 
ATOM     76  C   UNL     1      -5.254 -18.033   7.866  1.00  0.00     0.022 A 
BRANCH  73  77
ATOM     77  S   UNL     1      -5.819 -17.196  10.434  1.00  0.00     0.124 S 
ATOM     78  O   UNL     1      -7.209 -17.113   9.987  1.00  0.00    -0.237 OA
ATOM     79  O   UNL     1      -5.407 -18.496  10.953  1.00  0.00    -0.237 OA
ATOM     80  O   UNL     1      -5.340 -16.034  11.175  1.00  0.00    -0.744 OA
ENDBRANCH  73  77
ENDBRANCH  56  70
BRANCH  57  81
ATOM     81  C   UNL     1       4.626 -10.057   6.173  1.00  0.00     0.023 A 
ATOM     82  C   UNL     1       4.495  -8.674   6.384  1.00  0.00     0.031 A 
ATOM     83  C   UNL     1       5.857 -10.543   5.703  1.00  0.00     0.131 A 
ATOM     84  C   UNL     1       5.560  -7.819   6.073  1.00  0.00     0.055 A 
ATOM     85  C   UNL     1       6.935  -9.694   5.449  1.00  0.00     0.041 A 
ATOM     86  F   UNL     1       6.026 -11.857   5.484  1.00  0.00    -0.206 F 
ATOM     87  C   UNL     1       6.785  -8.321   5.623  1.00  0.00     0.022 A 
BRANCH  84  88
ATOM     88  S   UNL     1       5.362  -6.018   6.162  1.00  0.00     0.124 S 
ATOM     89  O   UNL     1       6.489  -5.626   7.005  1.00  0.00    -0.237 OA
ATOM     90  O   UNL     1       5.466  -5.642   4.755  1.00  0.00    -0.237 OA
ATOM     91  O   UNL     1       4.043  -5.846   6.760  1.00  0.00    -0.744 OA
ENDBRANCH  84  88
ENDBRANCH  57  81
BRANCH  69  92
ATOM     92  C   UNL     1       3.322 -15.451  10.488  1.00  0.00     0.023 A 
ATOM     93  C   UNL     1       3.713 -16.799  10.360  1.00  0.00     0.031 A 
ATOM     94  C   UNL     1       3.550 -14.807  11.715  1.00  0.00     0.131 A 
ATOM     95  C   UNL     1       4.280 -17.467  11.452  1.00  0.00     0.055 A 
ATOM     96  C   UNL     1       4.156 -15.464  12.787  1.00  0.00     0.041 A 
ATOM     97  F   UNL     1       3.183 -13.527  11.891  1.00  0.00    -0.206 F 
ATOM     98  C   UNL     1       4.512 -16.804  12.662  1.00  0.00     0.022 A 
BRANCH  95  99
ATOM     99  S   UNL     1       4.671 -19.237  11.369  1.00  0.00     0.124 S 
ATOM    100  O   UNL     1       6.103 -19.244  11.658  1.00  0.00    -0.237 OA
ATOM    101  O   UNL     1       3.819 -19.789  12.419  1.00  0.00    -0.237 OA
ATOM    102  O   UNL     1       4.311 -19.614  10.006  1.00  0.00    -0.744 OA
ENDBRANCH  95  99
ENDBRANCH  69  92
ENDBRANCH  43  44
ENDBRANCH  36  38
ENDBRANCH  35  36
ENDBRANCH  34  35
ENDBRANCH  33  34
ENDBRANCH  32  33
ENDBRANCH  31  32
ENDBRANCH   1  31
TORSDOF 26
