REMARK SMILES O=C(OCCOCCOCCOCCOC(=O)[C@H]1[C@H]2CC[C@H](CC2)[C@H]1C(=O)Nc1ccc(C(=O)N2CCCC2)cc1)c1ccc(-c2c3nc(c(-c4cc(S(=O)(=O)[O-])ccc4F)c4ccc([nH]4)c(-c4cc(S(=O)(=O)[O-])ccc4F)c4nc(c(-c5cc(S(=O)(=O)[O-])ccc5F)c5ccc2[nH]5)C=C4)C=C3)cc1
REMARK SMILES IDX 9 1 8 2 7 3 6 4 5 5 4 6 3 7 2 8 1 9 42 10 43 11 104 12 44 13
REMARK SMILES IDX 103 14 45 15 46 16 47 17 97 18 48 19 102 20 96 21 98 22
REMARK SMILES IDX 49 23 101 24 95 25 94 26 50 28 82 29 62 30 81 31 63 32 66 33
REMARK SMILES IDX 80 34 99 35 64 36 65 37 79 39 100 40 67 41 51 42 52 43 60 44
REMARK SMILES IDX 53 45 59 46 61 47 58 48 54 49 55 50 56 51 57 52 83 53 84 54
REMARK SMILES IDX 92 55 85 56 91 57 93 58 90 59 86 60 87 61 88 62 89 63 68 64
REMARK SMILES IDX 69 65 77 66 70 67 76 68 78 69 75 70 71 71 72 72 73 73 74 74
REMARK SMILES IDX 10 75 11 76 12 77 13 78 14 79 15 80 16 81 17 82 18 83 19 84
REMARK SMILES IDX 25 85 24 86 20 87 22 88 23 89 21 90 26 91 27 92 28 93 29 95
REMARK SMILES IDX 30 96 41 97 31 98 40 99 32 100 33 101 34 102 35 103 36 104
REMARK SMILES IDX 39 105 37 106 38 107
REMARK H PARENT 98 27 66 38 28 94
REMARK Flexibility Score: inf
ROOT
ATOM      1  O   UNL     1       3.588  -3.546   0.351  1.00  0.00    -0.377 OA
ENDROOT
BRANCH   1   2
ATOM      2  C   UNL     1       2.715  -2.547  -0.167  1.00  0.00     0.188 C 
BRANCH   2   3
ATOM      3  C   UNL     1       2.921  -1.183   0.454  1.00  0.00     0.188 C 
BRANCH   3   4
ATOM      4  O   UNL     1       4.236  -0.730   0.183  1.00  0.00    -0.376 OA
BRANCH   4   5
ATOM      5  C   UNL     1       4.941  -0.110   1.247  1.00  0.00     0.202 C 
BRANCH   5   6
ATOM      6  C   UNL     1       4.392   1.237   1.704  1.00  0.00     0.261 C 
BRANCH   6   7
ATOM      7  O   UNL     1       3.007   1.463   1.397  1.00  0.00    -0.460 OA
BRANCH   7   8
ATOM      8  C   UNL     1       2.424   1.973   0.287  1.00  0.00     0.338 C 
ATOM      9  O   UNL     1       1.222   2.240   0.359  1.00  0.00    -0.246 OA
BRANCH   8  10
ATOM     10  C   UNL     1       3.076   2.133  -1.055  1.00  0.00     0.060 A 
ATOM     11  C   UNL     1       4.248   1.506  -1.475  1.00  0.00     0.016 A 
ATOM     12  C   UNL     1       2.375   2.890  -2.011  1.00  0.00     0.016 A 
ATOM     13  C   UNL     1       4.680   1.541  -2.791  1.00  0.00     0.010 A 
ATOM     14  C   UNL     1       2.844   3.013  -3.323  1.00  0.00     0.010 A 
ATOM     15  C   UNL     1       4.007   2.338  -3.704  1.00  0.00    -0.014 A 
BRANCH  15  16
ATOM     16  C   UNL     1       4.752   2.697  -4.917  1.00  0.00     0.031 A 
ATOM     17  C   UNL     1       5.551   3.961  -4.850  1.00  0.00     0.074 A 
ATOM     18  C   UNL     1       4.848   1.837  -5.941  1.00  0.00     0.049 A 
ATOM     19  N   UNL     1       6.202   4.589  -5.785  1.00  0.00    -0.248 NA
ATOM     20  C   UNL     1       5.635   4.597  -3.523  1.00  0.00     0.031 C 
ATOM     21  C   UNL     1       4.269   0.492  -5.968  1.00  0.00     0.029 A 
ATOM     22  N   UNL     1       5.476   1.960  -7.149  1.00  0.00    -0.354 N 
ATOM     23  C   UNL     1       6.733   5.718  -5.171  1.00  0.00     0.074 A 
ATOM     24  C   UNL     1       6.336   5.684  -3.784  1.00  0.00     0.031 C 
ATOM     25  C   UNL     1       4.545  -0.074  -7.154  1.00  0.00     0.029 A 
ATOM     26  C   UNL     1       5.239   0.900  -7.990  1.00  0.00     0.049 A 
ATOM     27  H   UNL     1       6.040   2.730  -7.391  1.00  0.00     0.167 HD
ATOM     28  C   UNL     1       7.464   6.703  -5.742  1.00  0.00     0.034 A 
ATOM     29  C   UNL     1       5.490   0.787  -9.309  1.00  0.00     0.034 A 
ATOM     30  C   UNL     1       7.788   6.682  -7.145  1.00  0.00     0.049 A 
ATOM     31  C   UNL     1       6.168   1.959  -9.977  1.00  0.00     0.074 A 
ATOM     32  C   UNL     1       8.428   7.636  -7.908  1.00  0.00     0.029 A 
ATOM     33  N   UNL     1       7.464   5.630  -8.002  1.00  0.00    -0.354 N 
ATOM     34  N   UNL     1       6.576   3.089  -9.438  1.00  0.00    -0.248 NA
ATOM     35  C   UNL     1       6.410   1.857 -11.418  1.00  0.00     0.031 C 
ATOM     36  C   UNL     1       8.415   7.198  -9.238  1.00  0.00     0.029 A 
ATOM     37  C   UNL     1       7.857   5.926  -9.293  1.00  0.00     0.049 A 
ATOM     38  H   UNL     1       7.019   4.796  -7.727  1.00  0.00     0.167 HD
ATOM     39  C   UNL     1       7.143   3.826 -10.470  1.00  0.00     0.074 A 
ATOM     40  C   UNL     1       7.028   3.005 -11.663  1.00  0.00     0.031 C 
ATOM     41  C   UNL     1       7.712   5.061 -10.444  1.00  0.00     0.034 A 
BRANCH  28  42
ATOM     42  C   UNL     1       7.783   7.898  -4.875  1.00  0.00     0.023 A 
ATOM     43  C   UNL     1       8.542   7.786  -3.694  1.00  0.00     0.031 A 
ATOM     44  C   UNL     1       7.172   9.135  -5.144  1.00  0.00     0.131 A 
ATOM     45  C   UNL     1       8.562   8.846  -2.772  1.00  0.00     0.055 A 
ATOM     46  C   UNL     1       7.283  10.220  -4.271  1.00  0.00     0.041 A 
ATOM     47  F   UNL     1       6.403   9.296  -6.232  1.00  0.00    -0.206 F 
ATOM     48  C   UNL     1       7.959  10.071  -3.065  1.00  0.00     0.022 A 
BRANCH  45  49
ATOM     49  S   UNL     1       9.185   8.525  -1.095  1.00  0.00     0.124 S 
ATOM     50  O   UNL     1       8.311   7.438  -0.658  1.00  0.00    -0.237 OA
ATOM     51  O   UNL     1      10.577   8.165  -1.338  1.00  0.00    -0.237 OA
ATOM     52  O   UNL     1       8.979   9.795  -0.402  1.00  0.00    -0.744 OA
ENDBRANCH  45  49
ENDBRANCH  28  42
BRANCH  29  53
ATOM     53  C   UNL     1       4.994  -0.397 -10.068  1.00  0.00     0.023 A 
ATOM     54  C   UNL     1       5.865  -1.275 -10.731  1.00  0.00     0.031 A 
ATOM     55  C   UNL     1       3.612  -0.670 -10.139  1.00  0.00     0.131 A 
ATOM     56  C   UNL     1       5.345  -2.370 -11.445  1.00  0.00     0.055 A 
ATOM     57  C   UNL     1       3.105  -1.786 -10.805  1.00  0.00     0.041 A 
ATOM     58  F   UNL     1       2.728   0.138  -9.531  1.00  0.00    -0.206 F 
ATOM     59  C   UNL     1       3.974  -2.641 -11.472  1.00  0.00     0.022 A 
BRANCH  56  60
ATOM     60  S   UNL     1       6.484  -3.413 -12.398  1.00  0.00     0.124 S 
ATOM     61  O   UNL     1       7.093  -2.441 -13.299  1.00  0.00    -0.237 OA
ATOM     62  O   UNL     1       7.348  -3.949 -11.352  1.00  0.00    -0.237 OA
ATOM     63  O   UNL     1       5.602  -4.388 -13.036  1.00  0.00    -0.744 OA
ENDBRANCH  56  60
ENDBRANCH  29  53
BRANCH  41  64
ATOM     64  C   UNL     1       8.303   5.561 -11.734  1.00  0.00     0.023 A 
ATOM     65  C   UNL     1       7.497   5.939 -12.819  1.00  0.00     0.031 A 
ATOM     66  C   UNL     1       9.696   5.714 -11.846  1.00  0.00     0.131 A 
ATOM     67  C   UNL     1       8.097   6.426 -13.987  1.00  0.00     0.055 A 
ATOM     68  C   UNL     1      10.282   6.258 -12.986  1.00  0.00     0.041 A 
ATOM     69  F   UNL     1      10.505   5.365 -10.832  1.00  0.00    -0.206 F 
ATOM     70  C   UNL     1       9.481   6.610 -14.069  1.00  0.00     0.022 A 
BRANCH  67  71
ATOM     71  S   UNL     1       7.050   6.758 -15.428  1.00  0.00     0.124 S 
ATOM     72  O   UNL     1       6.481   5.441 -15.697  1.00  0.00    -0.237 OA
ATOM     73  O   UNL     1       6.122   7.761 -14.917  1.00  0.00    -0.237 OA
ATOM     74  O   UNL     1       7.994   7.242 -16.433  1.00  0.00    -0.744 OA
ENDBRANCH  67  71
ENDBRANCH  41  64
ENDBRANCH  15  16
ENDBRANCH   8  10
ENDBRANCH   7   8
ENDBRANCH   6   7
ENDBRANCH   5   6
ENDBRANCH   4   5
ENDBRANCH   3   4
ENDBRANCH   2   3
ENDBRANCH   1   2
BRANCH   1  75
ATOM     75  C   UNL     1       4.998  -3.313   0.248  1.00  0.00     0.188 C 
BRANCH  75  76
ATOM     76  C   UNL     1       5.635  -3.002  -1.125  1.00  0.00     0.188 C 
BRANCH  76  77
ATOM     77  O   UNL     1       4.706  -2.592  -2.111  1.00  0.00    -0.376 OA
BRANCH  77  78
ATOM     78  C   UNL     1       4.506  -3.494  -3.190  1.00  0.00     0.202 C 
BRANCH  78  79
ATOM     79  C   UNL     1       3.999  -4.915  -2.880  1.00  0.00     0.261 C 
BRANCH  79  80
ATOM     80  O   UNL     1       4.058  -5.322  -1.502  1.00  0.00    -0.463 OA
BRANCH  80  81
ATOM     81  C   UNL     1       4.997  -6.184  -1.095  1.00  0.00     0.310 C 
ATOM     82  O   UNL     1       5.938  -6.521  -1.817  1.00  0.00    -0.252 OA
BRANCH  81  83
ATOM     83  C   UNL     1       4.842  -6.793   0.332  1.00  0.00     0.115 C 
ATOM     84  C   UNL     1       4.160  -6.367   1.714  1.00  0.00     0.004 C 
ATOM     85  C   UNL     1       4.675  -8.292   0.182  1.00  0.00     0.096 C 
ATOM     86  C   UNL     1       2.915  -7.165   2.249  1.00  0.00     0.005 C 
ATOM     87  C   UNL     1       5.207  -6.773   2.787  1.00  0.00     0.005 C 
ATOM     88  C   UNL     1       4.480  -8.940   1.581  1.00  0.00     0.002 C 
ATOM     89  C   UNL     1       3.062  -8.669   2.056  1.00  0.00     0.005 C 
ATOM     90  C   UNL     1       5.446  -8.296   2.642  1.00  0.00     0.005 C 
BRANCH  85  91
ATOM     91  C   UNL     1       3.765  -8.787  -0.976  1.00  0.00     0.228 C 
ATOM     92  O   UNL     1       4.226  -9.712  -1.671  1.00  0.00    -0.274 OA
ATOM     93  N   UNL     1       2.480  -8.456  -1.301  1.00  0.00    -0.326 N 
ATOM     94  H   UNL     1       2.156  -9.030  -2.033  1.00  0.00     0.169 HD
BRANCH  93  95
ATOM     95  C   UNL     1       1.471  -7.548  -0.914  1.00  0.00     0.041 A 
ATOM     96  C   UNL     1       0.131  -7.921  -1.054  1.00  0.00     0.027 A 
ATOM     97  C   UNL     1       1.682  -6.314  -0.351  1.00  0.00     0.027 A 
ATOM     98  C   UNL     1      -0.901  -7.187  -0.412  1.00  0.00     0.016 A 
ATOM     99  C   UNL     1       0.678  -5.559   0.256  1.00  0.00     0.016 A 
ATOM    100  C   UNL     1      -0.615  -6.027   0.321  1.00  0.00     0.040 A 
BRANCH 100 101
ATOM    101  C   UNL     1      -1.522  -5.540   1.416  1.00  0.00     0.253 C 
ATOM    102  O   UNL     1      -2.430  -6.285   1.783  1.00  0.00    -0.269 OA
ATOM    103  N   UNL     1      -1.150  -4.427   2.160  1.00  0.00    -0.339 N 
ATOM    104  C   UNL     1      -0.731  -3.111   1.704  1.00  0.00     0.120 C 
ATOM    105  C   UNL     1      -1.055  -4.511   3.607  1.00  0.00     0.120 C 
ATOM    106  C   UNL     1       0.306  -2.706   2.743  1.00  0.00     0.023 C 
ATOM    107  C   UNL     1      -0.287  -3.258   4.038  1.00  0.00     0.023 C 
ENDBRANCH 100 101
ENDBRANCH  93  95
ENDBRANCH  85  91
ENDBRANCH  81  83
ENDBRANCH  80  81
ENDBRANCH  79  80
ENDBRANCH  78  79
ENDBRANCH  77  78
ENDBRANCH  76  77
ENDBRANCH  75  76
ENDBRANCH   1  75
TORSDOF 26
