REMARK SMILES C[C@@H]1[C@@H](C(=O)OCCOCCOCCOCCOC(=O)c2ccc(-c3c4nc(c(-c5cc(S(=O)(=O)[O-])ccc5F)c5ccc([nH]5)c(-c5cc(S(=O)(=O)[O-])ccc5F)c5nc(c(-c6cc(S(=O)(=O)[O-])ccc6F)c6ccc3[nH]6)C=C5)C=C4)cc2)CCN1c1ccc(F)cc1C(N)=O
REMARK SMILES IDX 13 1 12 2 11 3 10 4 9 5 8 6 7 7 6 8 4 9 5 10 3 11 1 12 2 13
REMARK SMILES IDX 86 14 84 15 85 16 87 17 88 18 93 19 89 20 92 21 90 22 91 23
REMARK SMILES IDX 94 24 95 25 96 26 14 29 15 30 16 31 17 32 18 33 19 34 20 35
REMARK SMILES IDX 21 36 22 37 83 38 23 39 82 40 24 41 25 42 26 43 76 44 27 45
REMARK SMILES IDX 81 46 75 47 77 48 28 49 80 50 74 51 73 52 29 54 61 55 41 56
REMARK SMILES IDX 60 57 42 58 45 59 59 60 78 61 43 62 44 63 58 65 79 66 46 67
REMARK SMILES IDX 30 68 31 69 39 70 32 71 38 72 40 73 37 74 33 75 34 76 35 77
REMARK SMILES IDX 36 78 62 79 63 80 71 81 64 82 70 83 72 84 69 85 65 86 66 87
REMARK SMILES IDX 67 88 68 89 47 90 48 91 56 92 49 93 55 94 57 95 54 96 50 97
REMARK SMILES IDX 51 98 52 99 53 100
REMARK H PARENT 95 27 95 28 77 53 45 64
REMARK Flexibility Score: inf
ROOT
ATOM      1  C   UNL     1      -1.230   4.918  -3.397  1.00  0.00     0.188 C 
ENDROOT
BRANCH   1   2
ATOM      2  O   UNL     1      -1.078   3.800  -2.531  1.00  0.00    -0.377 OA
BRANCH   2   3
ATOM      3  C   UNL     1       0.241   3.362  -2.305  1.00  0.00     0.188 C 
BRANCH   3   4
ATOM      4  C   UNL     1       0.641   2.177  -3.199  1.00  0.00     0.188 C 
BRANCH   4   5
ATOM      5  O   UNL     1      -0.030   1.905  -4.418  1.00  0.00    -0.376 OA
BRANCH   5   6
ATOM      6  C   UNL     1      -1.437   1.792  -4.579  1.00  0.00     0.202 C 
BRANCH   6   7
ATOM      7  C   UNL     1      -2.462   1.346  -3.519  1.00  0.00     0.261 C 
BRANCH   7   8
ATOM      8  O   UNL     1      -2.038   1.359  -2.164  1.00  0.00    -0.463 OA
BRANCH   8   9
ATOM      9  C   UNL     1      -1.377   0.244  -1.782  1.00  0.00     0.311 C 
ATOM     10  O   UNL     1      -1.258  -0.756  -2.475  1.00  0.00    -0.252 OA
BRANCH   9  11
ATOM     11  C   UNL     1      -0.715   0.488  -0.443  1.00  0.00     0.123 C 
ATOM     12  C   UNL     1       1.591   0.129   0.528  1.00  0.00     0.032 C 
ATOM     13  C   UNL     1       0.441  -0.497  -0.262  1.00  0.00     0.093 C 
ATOM     14  N   UNL     1      -0.182  -1.594   0.490  1.00  0.00    -0.367 N 
ATOM     15  C   UNL     1      -1.635   0.242   0.734  1.00  0.00     0.039 C 
ATOM     16  C   UNL     1      -1.554  -1.265   0.896  1.00  0.00     0.118 C 
BRANCH  14  17
ATOM     17  C   UNL     1       0.089  -2.895   0.090  1.00  0.00     0.050 A 
ATOM     18  C   UNL     1      -0.642  -3.478  -0.965  1.00  0.00     0.030 A 
ATOM     19  C   UNL     1       1.115  -3.660   0.679  1.00  0.00     0.065 A 
ATOM     20  C   UNL     1      -0.393  -4.777  -1.403  1.00  0.00     0.041 A 
ATOM     21  C   UNL     1       1.357  -4.973   0.246  1.00  0.00     0.055 A 
ATOM     22  C   UNL     1       0.599  -5.514  -0.784  1.00  0.00     0.124 A 
ATOM     23  F   UNL     1       0.831  -6.772  -1.181  1.00  0.00    -0.207 F 
BRANCH  19  24
ATOM     24  C   UNL     1       1.941  -3.124   1.797  1.00  0.00     0.250 C 
ATOM     25  N   UNL     1       3.283  -3.393   1.730  1.00  0.00    -0.366 N 
ATOM     26  O   UNL     1       1.491  -2.493   2.743  1.00  0.00    -0.269 OA
ATOM     27  H   UNL     1       3.646  -3.902   0.969  1.00  0.00     0.159 HD
ATOM     28  H   UNL     1       3.885  -3.078   2.443  1.00  0.00     0.159 HD
ENDBRANCH  19  24
ENDBRANCH  14  17
ENDBRANCH   9  11
ENDBRANCH   8   9
ENDBRANCH   7   8
ENDBRANCH   6   7
ENDBRANCH   5   6
ENDBRANCH   4   5
ENDBRANCH   3   4
ENDBRANCH   2   3
ENDBRANCH   1   2
BRANCH   1  29
ATOM     29  C   UNL     1      -0.274   5.075  -4.605  1.00  0.00     0.188 C 
BRANCH  29  30
ATOM     30  O   UNL     1       1.101   4.850  -4.316  1.00  0.00    -0.376 OA
BRANCH  30  31
ATOM     31  C   UNL     1       1.952   5.974  -4.157  1.00  0.00     0.202 C 
BRANCH  31  32
ATOM     32  C   UNL     1       1.718   6.867  -2.926  1.00  0.00     0.261 C 
BRANCH  32  33
ATOM     33  O   UNL     1       0.399   7.410  -2.780  1.00  0.00    -0.460 OA
BRANCH  33  34
ATOM     34  C   UNL     1      -0.044   8.222  -3.765  1.00  0.00     0.338 C 
ATOM     35  O   UNL     1       0.584   8.580  -4.748  1.00  0.00    -0.246 OA
BRANCH  34  36
ATOM     36  C   UNL     1      -1.494   8.430  -3.565  1.00  0.00     0.060 A 
ATOM     37  C   UNL     1      -2.379   8.054  -4.585  1.00  0.00     0.016 A 
ATOM     38  C   UNL     1      -1.980   8.977  -2.375  1.00  0.00     0.016 A 
ATOM     39  C   UNL     1      -3.750   8.261  -4.434  1.00  0.00     0.010 A 
ATOM     40  C   UNL     1      -3.352   9.209  -2.236  1.00  0.00     0.010 A 
ATOM     41  C   UNL     1      -4.238   8.886  -3.280  1.00  0.00    -0.014 A 
BRANCH  41  42
ATOM     42  C   UNL     1      -5.629   9.404  -3.262  1.00  0.00     0.031 A 
ATOM     43  C   UNL     1      -5.844  10.860  -3.579  1.00  0.00     0.074 A 
ATOM     44  C   UNL     1      -6.679   8.603  -3.006  1.00  0.00     0.049 A 
ATOM     45  N   UNL     1      -6.946  11.562  -3.570  1.00  0.00    -0.248 NA
ATOM     46  C   UNL     1      -4.644  11.627  -3.951  1.00  0.00     0.031 C 
ATOM     47  C   UNL     1      -6.603   7.167  -2.746  1.00  0.00     0.029 A 
ATOM     48  N   UNL     1      -8.019   8.891  -2.917  1.00  0.00    -0.354 N 
ATOM     49  C   UNL     1      -6.574  12.854  -3.929  1.00  0.00     0.074 A 
ATOM     50  C   UNL     1      -5.138  12.844  -4.108  1.00  0.00     0.031 C 
ATOM     51  C   UNL     1      -7.843   6.701  -2.517  1.00  0.00     0.029 A 
ATOM     52  C   UNL     1      -8.795   7.810  -2.569  1.00  0.00     0.049 A 
ATOM     53  H   UNL     1      -8.389   9.787  -3.088  1.00  0.00     0.167 HD
ATOM     54  C   UNL     1      -7.359  13.945  -4.101  1.00  0.00     0.034 A 
ATOM     55  C   UNL     1     -10.114   7.736  -2.293  1.00  0.00     0.034 A 
ATOM     56  C   UNL     1      -8.787  13.941  -3.903  1.00  0.00     0.049 A 
ATOM     57  C   UNL     1     -10.954   8.990  -2.387  1.00  0.00     0.074 A 
ATOM     58  C   UNL     1      -9.680  14.986  -4.056  1.00  0.00     0.029 A 
ATOM     59  N   UNL     1      -9.531  12.841  -3.495  1.00  0.00    -0.354 N 
ATOM     60  N   UNL     1     -10.593  10.207  -2.728  1.00  0.00    -0.248 NA
ATOM     61  C   UNL     1     -12.382   8.859  -2.064  1.00  0.00     0.031 C 
ATOM     62  C   UNL     1     -10.945  14.543  -3.658  1.00  0.00     0.029 A 
ATOM     63  C   UNL     1     -10.864  13.194  -3.352  1.00  0.00     0.049 A 
ATOM     64  H   UNL     1      -9.165  11.941  -3.331  1.00  0.00     0.167 HD
ATOM     65  C   UNL     1     -11.758  10.973  -2.697  1.00  0.00     0.074 A 
ATOM     66  C   UNL     1     -12.831  10.079  -2.318  1.00  0.00     0.031 C 
ATOM     67  C   UNL     1     -11.927  12.294  -2.966  1.00  0.00     0.034 A 
BRANCH  54  68
ATOM     68  C   UNL     1      -6.676  15.242  -4.464  1.00  0.00     0.023 A 
ATOM     69  C   UNL     1      -5.969  15.398  -5.669  1.00  0.00     0.031 A 
ATOM     70  C   UNL     1      -6.706  16.330  -3.574  1.00  0.00     0.131 A 
ATOM     71  C   UNL     1      -5.265  16.585  -5.919  1.00  0.00     0.055 A 
ATOM     72  C   UNL     1      -6.076  17.540  -3.868  1.00  0.00     0.041 A 
ATOM     73  F   UNL     1      -7.340  16.232  -2.395  1.00  0.00    -0.206 F 
ATOM     74  C   UNL     1      -5.337  17.668  -5.040  1.00  0.00     0.022 A 
BRANCH  71  75
ATOM     75  S   UNL     1      -4.130  16.638  -7.333  1.00  0.00     0.124 S 
ATOM     76  O   UNL     1      -3.229  15.528  -7.030  1.00  0.00    -0.237 OA
ATOM     77  O   UNL     1      -5.027  16.442  -8.466  1.00  0.00    -0.237 OA
ATOM     78  O   UNL     1      -3.525  17.965  -7.237  1.00  0.00    -0.744 OA
ENDBRANCH  71  75
ENDBRANCH  54  68
BRANCH  55  79
ATOM     79  C   UNL     1     -10.728   6.446  -1.856  1.00  0.00     0.023 A 
ATOM     80  C   UNL     1     -11.751   5.838  -2.600  1.00  0.00     0.031 A 
ATOM     81  C   UNL     1     -10.348   5.840  -0.645  1.00  0.00     0.131 A 
ATOM     82  C   UNL     1     -12.394   4.693  -2.102  1.00  0.00     0.055 A 
ATOM     83  C   UNL     1     -10.948   4.667  -0.184  1.00  0.00     0.041 A 
ATOM     84  F   UNL     1      -9.381   6.383   0.113  1.00  0.00    -0.206 F 
ATOM     85  C   UNL     1     -11.989   4.094  -0.907  1.00  0.00     0.022 A 
BRANCH  82  86
ATOM     86  S   UNL     1     -13.844   4.056  -2.988  1.00  0.00     0.124 S 
ATOM     87  O   UNL     1     -14.731   5.213  -2.973  1.00  0.00    -0.237 OA
ATOM     88  O   UNL     1     -13.274   3.700  -4.283  1.00  0.00    -0.237 OA
ATOM     89  O   UNL     1     -14.275   2.927  -2.167  1.00  0.00    -0.744 OA
ENDBRANCH  82  86
ENDBRANCH  55  79
BRANCH  67  90
ATOM     90  C   UNL     1     -13.336  12.839  -2.915  1.00  0.00     0.023 A 
ATOM     91  C   UNL     1     -14.075  12.889  -1.721  1.00  0.00     0.031 A 
ATOM     92  C   UNL     1     -13.950  13.315  -4.089  1.00  0.00     0.131 A 
ATOM     93  C   UNL     1     -15.402  13.346  -1.737  1.00  0.00     0.055 A 
ATOM     94  C   UNL     1     -15.244  13.835  -4.086  1.00  0.00     0.041 A 
ATOM     95  F   UNL     1     -13.295  13.288  -5.262  1.00  0.00    -0.206 F 
ATOM     96  C   UNL     1     -15.984  13.838  -2.908  1.00  0.00     0.022 A 
BRANCH  93  97
ATOM     97  S   UNL     1     -16.397  13.189  -0.229  1.00  0.00     0.124 S 
ATOM     98  O   UNL     1     -16.325  11.756   0.034  1.00  0.00    -0.237 OA
ATOM     99  O   UNL     1     -15.679  14.046   0.709  1.00  0.00    -0.237 OA
ATOM    100  O   UNL     1     -17.713  13.681  -0.633  1.00  0.00    -0.744 OA
ENDBRANCH  93  97
ENDBRANCH  67  90
ENDBRANCH  41  42
ENDBRANCH  34  36
ENDBRANCH  33  34
ENDBRANCH  32  33
ENDBRANCH  31  32
ENDBRANCH  30  31
ENDBRANCH  29  30
ENDBRANCH   1  29
TORSDOF 25
