REMARK SMILES O=C(OCCOCCOCCOCCOC(=O)[C@@H]1CC=CC[C@H]1C(=O)N1CC[NH+](Cc2ccc3c(c2)OCO3)CC1)c1ccc(-c2c3nc(c(-c4cc(S(=O)(=O)[O-])ccc4F)c4ccc([nH]4)c(-c4cc(S(=O)(=O)[O-])ccc4F)c4nc(c(-c5cc(S(=O)(=O)[O-])ccc5F)c5ccc2[nH]5)C=C4)C=C3)cc1
REMARK SMILES IDX 9 1 8 2 7 3 6 4 5 5 4 6 3 7 2 8 1 9 42 10 43 11 104 12 44 13
REMARK SMILES IDX 103 14 45 15 46 16 47 17 97 18 48 19 102 20 96 21 98 22
REMARK SMILES IDX 49 23 101 24 95 25 94 26 50 28 82 29 62 30 81 31 63 32 66 33
REMARK SMILES IDX 80 34 99 35 64 36 65 37 79 39 100 40 67 41 51 42 52 43 60 44
REMARK SMILES IDX 53 45 59 46 61 47 58 48 54 49 55 50 56 51 57 52 83 53 84 54
REMARK SMILES IDX 92 55 85 56 91 57 93 58 90 59 86 60 87 61 88 62 89 63 68 64
REMARK SMILES IDX 69 65 77 66 70 67 76 68 78 69 75 70 71 71 72 72 73 73 74 74
REMARK SMILES IDX 10 75 11 76 12 77 13 78 14 79 15 80 16 81 17 82 18 83 19 84
REMARK SMILES IDX 23 85 20 86 22 87 21 88 24 89 25 90 26 91 27 92 41 93 28 94
REMARK SMILES IDX 40 95 29 96 30 98 31 99 32 100 36 101 33 102 35 103 34 104
REMARK SMILES IDX 37 105 39 106 38 107
REMARK H PARENT 98 27 66 38 29 97
REMARK Flexibility Score: inf
ROOT
ATOM      1  O   UNL     1       6.622  -4.320  -4.004  1.00  0.00    -0.377 OA
ENDROOT
BRANCH   1   2
ATOM      2  C   UNL     1       7.339  -5.236  -3.181  1.00  0.00     0.188 C 
BRANCH   2   3
ATOM      3  C   UNL     1       8.614  -4.670  -2.579  1.00  0.00     0.188 C 
BRANCH   3   4
ATOM      4  O   UNL     1       8.328  -3.506  -1.817  1.00  0.00    -0.376 OA
BRANCH   4   5
ATOM      5  C   UNL     1       9.190  -2.388  -2.000  1.00  0.00     0.202 C 
BRANCH   5   6
ATOM      6  C   UNL     1      10.604  -2.563  -1.448  1.00  0.00     0.261 C 
BRANCH   6   7
ATOM      7  O   UNL     1      11.015  -3.933  -1.298  1.00  0.00    -0.460 OA
BRANCH   7   8
ATOM      8  C   UNL     1      10.838  -4.773  -0.249  1.00  0.00     0.338 C 
ATOM      9  O   UNL     1      11.376  -5.880  -0.299  1.00  0.00    -0.246 OA
BRANCH   8  10
ATOM     10  C   UNL     1      10.004  -4.468   0.954  1.00  0.00     0.060 A 
ATOM     11  C   UNL     1       8.924  -3.592   0.980  1.00  0.00     0.016 A 
ATOM     12  C   UNL     1      10.270  -5.199   2.124  1.00  0.00     0.016 A 
ATOM     13  C   UNL     1       8.148  -3.401   2.105  1.00  0.00     0.010 A 
ATOM     14  C   UNL     1       9.496  -5.019   3.276  1.00  0.00     0.010 A 
ATOM     15  C   UNL     1       8.446  -4.096   3.265  1.00  0.00    -0.014 A 
BRANCH  15  16
ATOM     16  C   UNL     1       7.788  -3.613   4.486  1.00  0.00     0.031 A 
ATOM     17  C   UNL     1       8.592  -2.714   5.373  1.00  0.00     0.074 A 
ATOM     18  C   UNL     1       6.466  -3.793   4.650  1.00  0.00     0.049 A 
ATOM     19  N   UNL     1       8.288  -2.199   6.529  1.00  0.00    -0.248 NA
ATOM     20  C   UNL     1       9.923  -2.329   4.870  1.00  0.00     0.031 C 
ATOM     21  C   UNL     1       5.583  -4.473   3.696  1.00  0.00     0.029 A 
ATOM     22  N   UNL     1       5.627  -3.385   5.647  1.00  0.00    -0.354 N 
ATOM     23  C   UNL     1       9.406  -1.466   6.913  1.00  0.00     0.074 A 
ATOM     24  C   UNL     1      10.395  -1.607   5.871  1.00  0.00     0.031 C 
ATOM     25  C   UNL     1       4.323  -4.424   4.155  1.00  0.00     0.029 A 
ATOM     26  C   UNL     1       4.327  -3.797   5.470  1.00  0.00     0.049 A 
ATOM     27  H   UNL     1       5.923  -2.847   6.416  1.00  0.00     0.167 HD
ATOM     28  C   UNL     1       9.577  -0.756   8.052  1.00  0.00     0.034 A 
ATOM     29  C   UNL     1       3.285  -3.722   6.319  1.00  0.00     0.034 A 
ATOM     30  C   UNL     1       8.549  -0.669   9.055  1.00  0.00     0.049 A 
ATOM     31  C   UNL     1       3.544  -3.067   7.654  1.00  0.00     0.074 A 
ATOM     32  C   UNL     1       8.597  -0.084  10.303  1.00  0.00     0.029 A 
ATOM     33  N   UNL     1       7.270  -1.205   8.910  1.00  0.00    -0.354 N 
ATOM     34  N   UNL     1       4.643  -2.484   8.086  1.00  0.00    -0.248 NA
ATOM     35  C   UNL     1       2.442  -3.071   8.618  1.00  0.00     0.031 C 
ATOM     36  C   UNL     1       7.375  -0.332  10.941  1.00  0.00     0.029 A 
ATOM     37  C   UNL     1       6.530  -0.992  10.058  1.00  0.00     0.049 A 
ATOM     38  H   UNL     1       6.941  -1.668   8.106  1.00  0.00     0.167 HD
ATOM     39  C   UNL     1       4.356  -2.032   9.369  1.00  0.00     0.074 A 
ATOM     40  C   UNL     1       2.973  -2.394   9.626  1.00  0.00     0.031 C 
ATOM     41  C   UNL     1       5.152  -1.382  10.259  1.00  0.00     0.034 A 
BRANCH  28  42
ATOM     42  C   UNL     1      10.948  -0.171   8.287  1.00  0.00     0.023 A 
ATOM     43  C   UNL     1      11.504   0.804   7.439  1.00  0.00     0.031 A 
ATOM     44  C   UNL     1      11.765  -0.702   9.301  1.00  0.00     0.131 A 
ATOM     45  C   UNL     1      12.863   1.141   7.556  1.00  0.00     0.055 A 
ATOM     46  C   UNL     1      13.090  -0.294   9.470  1.00  0.00     0.041 A 
ATOM     47  F   UNL     1      11.306  -1.664  10.116  1.00  0.00    -0.206 F 
ATOM     48  C   UNL     1      13.652   0.618   8.583  1.00  0.00     0.022 A 
BRANCH  45  49
ATOM     49  S   UNL     1      13.632   2.121   6.236  1.00  0.00     0.124 S 
ATOM     50  O   UNL     1      13.422   1.263   5.072  1.00  0.00    -0.237 OA
ATOM     51  O   UNL     1      12.858   3.356   6.265  1.00  0.00    -0.237 OA
ATOM     52  O   UNL     1      15.023   2.246   6.666  1.00  0.00    -0.744 OA
ENDBRANCH  45  49
ENDBRANCH  28  42
BRANCH  29  53
ATOM     53  C   UNL     1       1.973  -4.354   5.987  1.00  0.00     0.023 A 
ATOM     54  C   UNL     1       0.785  -3.608   5.960  1.00  0.00     0.031 A 
ATOM     55  C   UNL     1       1.880  -5.738   5.740  1.00  0.00     0.131 A 
ATOM     56  C   UNL     1      -0.444  -4.252   5.733  1.00  0.00     0.055 A 
ATOM     57  C   UNL     1       0.665  -6.364   5.456  1.00  0.00     0.041 A 
ATOM     58  F   UNL     1       2.978  -6.510   5.762  1.00  0.00    -0.206 F 
ATOM     59  C   UNL     1      -0.510  -5.622   5.466  1.00  0.00     0.022 A 
BRANCH  56  60
ATOM     60  S   UNL     1      -1.974  -3.289   5.888  1.00  0.00     0.124 S 
ATOM     61  O   UNL     1      -1.862  -2.772   7.247  1.00  0.00    -0.237 OA
ATOM     62  O   UNL     1      -1.825  -2.313   4.814  1.00  0.00    -0.237 OA
ATOM     63  O   UNL     1      -3.024  -4.284   5.682  1.00  0.00    -0.744 OA
ENDBRANCH  56  60
ENDBRANCH  29  53
BRANCH  41  64
ATOM     64  C   UNL     1       4.512  -0.989  11.563  1.00  0.00     0.023 A 
ATOM     65  C   UNL     1       4.103  -1.950  12.501  1.00  0.00     0.031 A 
ATOM     66  C   UNL     1       4.319   0.370  11.868  1.00  0.00     0.131 A 
ATOM     67  C   UNL     1       3.463  -1.539  13.677  1.00  0.00     0.055 A 
ATOM     68  C   UNL     1       3.750   0.774  13.074  1.00  0.00     0.041 A 
ATOM     69  F   UNL     1       4.692   1.325  11.001  1.00  0.00    -0.206 F 
ATOM     70  C   UNL     1       3.305  -0.184  13.980  1.00  0.00     0.022 A 
BRANCH  67  71
ATOM     71  S   UNL     1       2.744  -2.805  14.757  1.00  0.00     0.124 S 
ATOM     72  O   UNL     1       1.808  -3.472  13.857  1.00  0.00    -0.237 OA
ATOM     73  O   UNL     1       3.915  -3.582  15.149  1.00  0.00    -0.237 OA
ATOM     74  O   UNL     1       2.127  -2.028  15.830  1.00  0.00    -0.744 OA
ENDBRANCH  67  71
ENDBRANCH  41  64
ENDBRANCH  15  16
ENDBRANCH   8  10
ENDBRANCH   7   8
ENDBRANCH   6   7
ENDBRANCH   5   6
ENDBRANCH   4   5
ENDBRANCH   3   4
ENDBRANCH   2   3
ENDBRANCH   1   2
BRANCH   1  75
ATOM     75  C   UNL     1       6.243  -3.069  -3.426  1.00  0.00     0.188 C 
BRANCH  75  76
ATOM     76  C   UNL     1       5.372  -2.992  -2.163  1.00  0.00     0.188 C 
BRANCH  76  77
ATOM     77  O   UNL     1       5.465  -4.137  -1.351  1.00  0.00    -0.376 OA
BRANCH  77  78
ATOM     78  C   UNL     1       4.333  -4.987  -1.310  1.00  0.00     0.202 C 
BRANCH  78  79
ATOM     79  C   UNL     1       3.566  -5.375  -2.599  1.00  0.00     0.261 C 
BRANCH  79  80
ATOM     80  O   UNL     1       4.144  -5.017  -3.873  1.00  0.00    -0.463 OA
BRANCH  80  81
ATOM     81  C   UNL     1       3.459  -4.144  -4.658  1.00  0.00     0.310 C 
ATOM     82  O   UNL     1       2.406  -3.615  -4.298  1.00  0.00    -0.252 OA
BRANCH  81  83
ATOM     83  C   UNL     1       4.009  -3.958  -6.079  1.00  0.00     0.115 C 
ATOM     84  C   UNL     1       4.651  -5.270  -6.580  1.00  0.00     0.043 C 
ATOM     85  C   UNL     1       4.955  -2.803  -6.518  1.00  0.00     0.097 C 
ATOM     86  C   UNL     1       4.947  -5.215  -8.055  1.00  0.00    -0.030 C 
ATOM     87  C   UNL     1       4.933  -2.719  -8.065  1.00  0.00     0.041 C 
ATOM     88  C   UNL     1       5.044  -4.060  -8.730  1.00  0.00    -0.030 C 
BRANCH  85  89
ATOM     89  C   UNL     1       4.817  -1.361  -6.029  1.00  0.00     0.227 C 
ATOM     90  O   UNL     1       5.807  -0.671  -5.779  1.00  0.00    -0.275 OA
ATOM     91  N   UNL     1       3.571  -0.812  -6.145  1.00  0.00    -0.331 N 
ATOM     92  C   UNL     1       3.378   0.341  -7.010  1.00  0.00     0.181 C 
ATOM     93  C   UNL     1       2.729  -0.753  -4.969  1.00  0.00     0.181 C 
ATOM     94  C   UNL     1       1.894   0.458  -7.424  1.00  0.00     0.284 C 
ATOM     95  C   UNL     1       1.262  -0.810  -5.414  1.00  0.00     0.284 C 
ATOM     96  N   UNL     1       0.879   0.256  -6.369  1.00  0.00    -0.328 N 
ATOM     97  H   UNL     1       0.059  -0.087  -6.870  1.00  0.00     0.348 HD
BRANCH  96  98
ATOM     98  C   UNL     1       0.358   1.476  -5.737  1.00  0.00     0.299 C 
BRANCH  98  99
ATOM     99  C   UNL     1       1.308   2.214  -4.821  1.00  0.00     0.010 A 
ATOM    100  C   UNL     1       2.262   3.111  -5.353  1.00  0.00     0.013 A 
ATOM    101  C   UNL     1       1.328   1.920  -3.445  1.00  0.00     0.060 A 
ATOM    102  C   UNL     1       3.296   3.615  -4.559  1.00  0.00     0.051 A 
ATOM    103  C   UNL     1       2.366   2.424  -2.691  1.00  0.00     0.166 A 
ATOM    104  C   UNL     1       3.334   3.231  -3.237  1.00  0.00     0.165 A 
ATOM    105  O   UNL     1       2.604   2.139  -1.384  1.00  0.00    -0.454 OA
ATOM    106  O   UNL     1       4.307   3.551  -2.344  1.00  0.00    -0.454 OA
ATOM    107  C   UNL     1       3.866   2.810  -1.185  1.00  0.00     0.468 C 
ENDBRANCH  98  99
ENDBRANCH  96  98
ENDBRANCH  85  89
ENDBRANCH  81  83
ENDBRANCH  80  81
ENDBRANCH  79  80
ENDBRANCH  78  79
ENDBRANCH  77  78
ENDBRANCH  76  77
ENDBRANCH  75  76
ENDBRANCH   1  75
TORSDOF 26
