REMARK SMILES Cc1oc(CNC(=O)c2ccnn2C)cc1C(=O)OCCOCCOCCOCCOC(=O)c1ccc(-c2c3nc(c(-c4cc(S(=O)(=O)[O-])ccc4F)c4ccc([nH]4)c(-c4cc(S(=O)(=O)[O-])ccc4F)c4nc(c(-c5cc(S(=O)(=O)[O-])ccc5F)c5ccc2[nH]5)C=C4)C=C3)cc1
REMARK SMILES IDX 25 1 24 2 23 3 22 4 21 5 20 6 19 7 17 8 18 9 16 10 1 11 2 12
REMARK SMILES IDX 3 13 4 14 15 15 5 16 6 17 7 18 8 20 9 21 10 22 13 23 11 24
REMARK SMILES IDX 12 25 14 26 26 27 27 28 28 29 29 30 30 31 31 32 32 33 33 34
REMARK SMILES IDX 34 35 35 36 96 37 36 38 95 39 37 40 38 41 39 42 89 43 40 44
REMARK SMILES IDX 94 45 88 46 90 47 41 48 93 49 87 50 86 51 42 53 74 54 54 55
REMARK SMILES IDX 73 56 55 57 58 58 72 59 91 60 56 61 57 62 71 64 92 65 59 66
REMARK SMILES IDX 43 67 44 68 52 69 45 70 51 71 53 72 50 73 46 74 47 75 48 76
REMARK SMILES IDX 49 77 75 78 76 79 84 80 77 81 83 82 85 83 82 84 78 85 79 86
REMARK SMILES IDX 80 87 81 88 60 89 61 90 69 91 62 92 68 93 70 94 67 95 63 96
REMARK SMILES IDX 64 97 65 98 66 99
REMARK H PARENT 6 19 90 52 58 63
REMARK Flexibility Score: inf
ROOT
ATOM      1  O   UNL     1       1.558  -3.396   1.896  1.00  0.00    -0.377 OA
ENDROOT
BRANCH   1   2
ATOM      2  C   UNL     1       0.218  -2.935   1.883  1.00  0.00     0.188 C 
BRANCH   2   3
ATOM      3  C   UNL     1      -0.706  -3.876   1.092  1.00  0.00     0.188 C 
BRANCH   3   4
ATOM      4  O   UNL     1      -0.083  -5.109   0.733  1.00  0.00    -0.376 OA
BRANCH   4   5
ATOM      5  C   UNL     1       0.403  -5.222  -0.603  1.00  0.00     0.202 C 
BRANCH   5   6
ATOM      6  C   UNL     1       1.626  -4.367  -0.986  1.00  0.00     0.261 C 
BRANCH   6   7
ATOM      7  O   UNL     1       1.429  -2.946  -0.907  1.00  0.00    -0.460 OA
BRANCH   7   8
ATOM      8  C   UNL     1       0.457  -2.401  -1.673  1.00  0.00     0.341 C 
ATOM      9  O   UNL     1      -0.152  -2.994  -2.556  1.00  0.00    -0.246 OA
BRANCH   8  10
ATOM     10  C   UNL     1       0.056  -1.091  -1.191  1.00  0.00     0.101 A 
ATOM     11  C   UNL     1       2.245  -0.008  -0.175  1.00  0.00     0.088 C 
ATOM     12  C   UNL     1       0.816  -0.128  -0.544  1.00  0.00     0.115 A 
ATOM     13  O   UNL     1       0.030   0.935  -0.194  1.00  0.00    -0.464 OA
ATOM     14  C   UNL     1      -1.236   0.655  -0.605  1.00  0.00     0.124 A 
ATOM     15  C   UNL     1      -1.267  -0.570  -1.228  1.00  0.00     0.063 A 
BRANCH  14  16
ATOM     16  C   UNL     1      -2.286   1.682  -0.437  1.00  0.00     0.191 C 
BRANCH  16  17
ATOM     17  N   UNL     1      -2.120   2.482   0.753  1.00  0.00    -0.343 N 
ATOM     18  C   UNL     1      -2.064   3.847   0.861  1.00  0.00     0.269 C 
ATOM     19  H   UNL     1      -2.036   1.982   1.597  1.00  0.00     0.164 HD
ATOM     20  O   UNL     1      -1.913   4.341   1.976  1.00  0.00    -0.268 OA
BRANCH  18  21
ATOM     21  C   UNL     1      -2.127   4.644  -0.336  1.00  0.00     0.125 A 
ATOM     22  C   UNL     1      -1.194   5.570  -0.768  1.00  0.00     0.055 A 
ATOM     23  N   UNL     1      -3.135   4.703  -1.266  1.00  0.00    -0.263 N 
ATOM     24  C   UNL     1      -1.668   6.027  -2.006  1.00  0.00     0.136 A 
ATOM     25  N   UNL     1      -2.846   5.488  -2.325  1.00  0.00    -0.181 NA
ATOM     26  C   UNL     1      -4.413   4.029  -1.251  1.00  0.00     0.174 C 
ENDBRANCH  18  21
ENDBRANCH  16  17
ENDBRANCH  14  16
ENDBRANCH   8  10
ENDBRANCH   7   8
ENDBRANCH   6   7
ENDBRANCH   5   6
ENDBRANCH   4   5
ENDBRANCH   3   4
ENDBRANCH   2   3
ENDBRANCH   1   2
BRANCH   1  27
ATOM     27  C   UNL     1       1.939  -4.202   3.009  1.00  0.00     0.188 C 
BRANCH  27  28
ATOM     28  C   UNL     1       0.935  -5.229   3.573  1.00  0.00     0.188 C 
BRANCH  28  29
ATOM     29  O   UNL     1      -0.273  -4.632   4.058  1.00  0.00    -0.376 OA
BRANCH  29  30
ATOM     30  C   UNL     1      -0.405  -4.558   5.476  1.00  0.00     0.202 C 
BRANCH  30  31
ATOM     31  C   UNL     1       0.362  -3.387   6.107  1.00  0.00     0.261 C 
BRANCH  31  32
ATOM     32  O   UNL     1       1.792  -3.484   6.020  1.00  0.00    -0.460 OA
BRANCH  32  33
ATOM     33  C   UNL     1       2.367  -4.571   6.584  1.00  0.00     0.338 C 
ATOM     34  O   UNL     1       1.811  -5.432   7.240  1.00  0.00    -0.246 OA
BRANCH  33  35
ATOM     35  C   UNL     1       3.761  -4.651   6.102  1.00  0.00     0.060 A 
ATOM     36  C   UNL     1       4.205  -5.851   5.534  1.00  0.00     0.016 A 
ATOM     37  C   UNL     1       4.623  -3.557   6.218  1.00  0.00     0.016 A 
ATOM     38  C   UNL     1       5.533  -5.976   5.124  1.00  0.00     0.010 A 
ATOM     39  C   UNL     1       5.955  -3.688   5.822  1.00  0.00     0.010 A 
ATOM     40  C   UNL     1       6.424  -4.910   5.308  1.00  0.00    -0.014 A 
BRANCH  40  41
ATOM     41  C   UNL     1       7.883  -5.135   5.171  1.00  0.00     0.031 A 
ATOM     42  C   UNL     1       8.659  -5.508   6.405  1.00  0.00     0.074 A 
ATOM     43  C   UNL     1       8.504  -5.010   3.986  1.00  0.00     0.049 A 
ATOM     44  N   UNL     1       9.942  -5.708   6.553  1.00  0.00    -0.248 NA
ATOM     45  C   UNL     1       7.875  -5.668   7.640  1.00  0.00     0.031 C 
ATOM     46  C   UNL     1       7.851  -4.683   2.719  1.00  0.00     0.029 A 
ATOM     47  N   UNL     1       9.831  -5.132   3.661  1.00  0.00    -0.354 N 
ATOM     48  C   UNL     1      10.120  -6.026   7.896  1.00  0.00     0.074 A 
ATOM     49  C   UNL     1       8.819  -5.949   8.524  1.00  0.00     0.031 C 
ATOM     50  C   UNL     1       8.787  -4.612   1.755  1.00  0.00     0.029 A 
ATOM     51  C   UNL     1      10.103  -4.861   2.341  1.00  0.00     0.049 A 
ATOM     52  H   UNL     1      10.523  -5.390   4.311  1.00  0.00     0.167 HD
ATOM     53  C   UNL     1      11.262  -6.360   8.544  1.00  0.00     0.034 A 
ATOM     54  C   UNL     1      11.283  -4.797   1.692  1.00  0.00     0.034 A 
ATOM     55  C   UNL     1      12.558  -6.399   7.914  1.00  0.00     0.049 A 
ATOM     56  C   UNL     1      12.557  -5.083   2.453  1.00  0.00     0.074 A 
ATOM     57  C   UNL     1      13.781  -6.723   8.473  1.00  0.00     0.029 A 
ATOM     58  N   UNL     1      12.800  -6.085   6.583  1.00  0.00    -0.354 N 
ATOM     59  N   UNL     1      12.711  -5.400   3.718  1.00  0.00    -0.248 NA
ATOM     60  C   UNL     1      13.813  -5.008   1.695  1.00  0.00     0.031 C 
ATOM     61  C   UNL     1      14.769  -6.544   7.497  1.00  0.00     0.029 A 
ATOM     62  C   UNL     1      14.156  -6.177   6.310  1.00  0.00     0.049 A 
ATOM     63  H   UNL     1      12.109  -5.833   5.928  1.00  0.00     0.167 HD
ATOM     64  C   UNL     1      14.079  -5.592   3.898  1.00  0.00     0.074 A 
ATOM     65  C   UNL     1      14.703  -5.363   2.611  1.00  0.00     0.031 C 
ATOM     66  C   UNL     1      14.761  -5.934   5.022  1.00  0.00     0.034 A 
BRANCH  53  67
ATOM     67  C   UNL     1      11.151  -6.651  10.019  1.00  0.00     0.023 A 
ATOM     68  C   UNL     1      10.420  -7.754  10.498  1.00  0.00     0.031 A 
ATOM     69  C   UNL     1      11.735  -5.787  10.961  1.00  0.00     0.131 A 
ATOM     70  C   UNL     1      10.231  -7.921  11.878  1.00  0.00     0.055 A 
ATOM     71  C   UNL     1      11.606  -6.002  12.334  1.00  0.00     0.041 A 
ATOM     72  F   UNL     1      12.421  -4.705  10.562  1.00  0.00    -0.206 F 
ATOM     73  C   UNL     1      10.838  -7.066  12.800  1.00  0.00     0.022 A 
BRANCH  70  74
ATOM     74  S   UNL     1       9.062  -9.187  12.445  1.00  0.00     0.124 S 
ATOM     75  O   UNL     1       7.825  -8.758  11.798  1.00  0.00    -0.237 OA
ATOM     76  O   UNL     1       9.657 -10.417  11.935  1.00  0.00    -0.237 OA
ATOM     77  O   UNL     1       9.079  -9.042  13.899  1.00  0.00    -0.744 OA
ENDBRANCH  70  74
ENDBRANCH  53  67
BRANCH  54  78
ATOM     78  C   UNL     1      11.336  -4.406   0.254  1.00  0.00     0.023 A 
ATOM     79  C   UNL     1      11.782  -5.304  -0.729  1.00  0.00     0.031 A 
ATOM     80  C   UNL     1      10.997  -3.101  -0.148  1.00  0.00     0.131 A 
ATOM     81  C   UNL     1      11.920  -4.873  -2.058  1.00  0.00     0.055 A 
ATOM     82  C   UNL     1      11.092  -2.691  -1.479  1.00  0.00     0.041 A 
ATOM     83  F   UNL     1      10.566  -2.204   0.753  1.00  0.00    -0.206 F 
ATOM     84  C   UNL     1      11.568  -3.576  -2.441  1.00  0.00     0.022 A 
BRANCH  81  85
ATOM     85  S   UNL     1      12.642  -6.012  -3.271  1.00  0.00     0.124 S 
ATOM     86  O   UNL     1      13.948  -6.285  -2.681  1.00  0.00    -0.237 OA
ATOM     87  O   UNL     1      11.687  -7.116  -3.255  1.00  0.00    -0.237 OA
ATOM     88  O   UNL     1      12.664  -5.228  -4.503  1.00  0.00    -0.744 OA
ENDBRANCH  81  85
ENDBRANCH  54  78
BRANCH  66  89
ATOM     89  C   UNL     1      16.251  -6.126   4.890  1.00  0.00     0.023 A 
ATOM     90  C   UNL     1      17.119  -5.048   4.644  1.00  0.00     0.031 A 
ATOM     91  C   UNL     1      16.808  -7.412   5.013  1.00  0.00     0.131 A 
ATOM     92  C   UNL     1      18.493  -5.282   4.479  1.00  0.00     0.055 A 
ATOM     93  C   UNL     1      18.182  -7.631   4.901  1.00  0.00     0.041 A 
ATOM     94  F   UNL     1      16.025  -8.476   5.249  1.00  0.00    -0.206 F 
ATOM     95  C   UNL     1      19.031  -6.564   4.621  1.00  0.00     0.022 A 
BRANCH  92  96
ATOM     96  S   UNL     1      19.563  -3.898   3.999  1.00  0.00     0.124 S 
ATOM     97  O   UNL     1      18.964  -3.474   2.738  1.00  0.00    -0.237 OA
ATOM     98  O   UNL     1      19.405  -2.978   5.121  1.00  0.00    -0.237 OA
ATOM     99  O   UNL     1      20.885  -4.510   3.883  1.00  0.00    -0.744 OA
ENDBRANCH  92  96
ENDBRANCH  66  89
ENDBRANCH  40  41
ENDBRANCH  33  35
ENDBRANCH  32  33
ENDBRANCH  31  32
ENDBRANCH  30  31
ENDBRANCH  29  30
ENDBRANCH  28  29
ENDBRANCH  27  28
ENDBRANCH   1  27
TORSDOF 26
