REMARK SMILES CC(=O)[C@@H]1CCCC[N@H+]1CC(C)(C)C(=O)OCCOCCOCCOCCOC(=O)c1ccc(-c2c3nc(c(-c4cc(S(=O)(=O)[O-])ccc4F)c4ccc([nH]4)c(-c4cc(S(=O)(=O)[O-])ccc4F)c4nc(c(-c5cc(S(=O)(=O)[O-])ccc5F)c5ccc2[nH]5)C=C4)C=C3)cc1
REMARK SMILES IDX 22 1 21 2 20 3 19 4 18 5 17 6 16 7 14 8 15 9 11 10 12 11
REMARK SMILES IDX 13 12 10 13 9 14 4 15 5 16 6 17 8 18 7 20 2 21 1 22 3 23
REMARK SMILES IDX 23 24 24 25 25 26 26 27 27 28 28 29 29 30 30 31 31 32 32 33
REMARK SMILES IDX 93 34 33 35 92 36 34 37 35 38 36 39 86 40 37 41 91 42 85 43
REMARK SMILES IDX 87 44 38 45 90 46 84 47 83 48 39 50 71 51 51 52 70 53 52 54
REMARK SMILES IDX 55 55 69 56 88 57 53 58 54 59 68 61 89 62 56 63 40 64 41 65
REMARK SMILES IDX 49 66 42 67 48 68 50 69 47 70 43 71 44 72 45 73 46 74 72 75
REMARK SMILES IDX 73 76 81 77 74 78 80 79 82 80 79 81 75 82 76 83 77 84 78 85
REMARK SMILES IDX 57 86 58 87 66 88 59 89 65 90 67 91 64 92 60 93 61 94 62 95
REMARK SMILES IDX 63 96
REMARK H PARENT 9 19 87 49 55 60
REMARK Flexibility Score: inf
ROOT
ATOM      1  O   UNL     1       4.302   6.848   2.416  1.00  0.00    -0.377 OA
ENDROOT
BRANCH   1   2
ATOM      2  C   UNL     1       2.895   6.720   2.496  1.00  0.00     0.188 C 
BRANCH   2   3
ATOM      3  C   UNL     1       2.291   6.148   3.783  1.00  0.00     0.188 C 
BRANCH   3   4
ATOM      4  O   UNL     1       3.142   6.180   4.921  1.00  0.00    -0.376 OA
BRANCH   4   5
ATOM      5  C   UNL     1       3.568   4.908   5.404  1.00  0.00     0.202 C 
BRANCH   5   6
ATOM      6  C   UNL     1       4.547   4.150   4.498  1.00  0.00     0.261 C 
BRANCH   6   7
ATOM      7  O   UNL     1       4.060   4.022   3.150  1.00  0.00    -0.463 OA
BRANCH   7   8
ATOM      8  C   UNL     1       3.572   2.829   2.746  1.00  0.00     0.317 C 
ATOM      9  O   UNL     1       3.470   1.850   3.477  1.00  0.00    -0.251 OA
BRANCH   8  10
ATOM     10  C   UNL     1       3.100   2.859   1.285  1.00  0.00     0.111 C 
ATOM     11  C   UNL     1       3.482   1.500   0.668  1.00  0.00     0.029 C 
ATOM     12  C   UNL     1       3.872   3.902   0.420  1.00  0.00     0.029 C 
BRANCH  10  13
ATOM     13  C   UNL     1       1.563   3.187   1.201  1.00  0.00     0.281 C 
BRANCH  13  14
ATOM     14  N   UNL     1       0.505   2.527   2.003  1.00  0.00    -0.325 N 
ATOM     15  C   UNL     1       0.436   1.063   1.892  1.00  0.00     0.251 C 
ATOM     16  C   UNL     1      -0.598   0.404   2.818  1.00  0.00     0.074 C 
ATOM     17  C   UNL     1      -0.471   0.909   4.245  1.00  0.00     0.012 C 
ATOM     18  C   UNL     1       0.361   3.082   3.349  1.00  0.00     0.262 C 
ATOM     19  H   UNL     1      -0.364   2.791   1.538  1.00  0.00     0.348 HD
ATOM     20  C   UNL     1      -0.683   2.410   4.236  1.00  0.00     0.062 C 
BRANCH  15  21
ATOM     21  C   UNL     1       0.058   0.667   0.448  1.00  0.00     0.186 C 
ATOM     22  C   UNL     1       0.639  -0.621  -0.074  1.00  0.00     0.094 C 
ATOM     23  O   UNL     1      -0.730   1.311  -0.251  1.00  0.00    -0.293 OA
ENDBRANCH  15  21
ENDBRANCH  13  14
ENDBRANCH  10  13
ENDBRANCH   8  10
ENDBRANCH   7   8
ENDBRANCH   6   7
ENDBRANCH   5   6
ENDBRANCH   4   5
ENDBRANCH   3   4
ENDBRANCH   2   3
ENDBRANCH   1   2
BRANCH   1  24
ATOM     24  C   UNL     1       4.969   7.621   3.410  1.00  0.00     0.188 C 
BRANCH  24  25
ATOM     25  C   UNL     1       4.226   8.750   4.159  1.00  0.00     0.188 C 
BRANCH  25  26
ATOM     26  O   UNL     1       3.037   9.220   3.539  1.00  0.00    -0.376 OA
BRANCH  26  27
ATOM     27  C   UNL     1       3.149  10.401   2.756  1.00  0.00     0.202 C 
BRANCH  27  28
ATOM     28  C   UNL     1       3.987  10.277   1.475  1.00  0.00     0.261 C 
BRANCH  28  29
ATOM     29  O   UNL     1       5.389  10.030   1.668  1.00  0.00    -0.460 OA
BRANCH  29  30
ATOM     30  C   UNL     1       6.077  10.899   2.447  1.00  0.00     0.338 C 
ATOM     31  O   UNL     1       5.665  11.921   2.947  1.00  0.00    -0.246 OA
BRANCH  30  32
ATOM     32  C   UNL     1       7.381  10.273   2.757  1.00  0.00     0.060 A 
ATOM     33  C   UNL     1       7.718  10.044   4.097  1.00  0.00     0.016 A 
ATOM     34  C   UNL     1       8.251   9.903   1.729  1.00  0.00     0.016 A 
ATOM     35  C   UNL     1       8.952   9.477   4.416  1.00  0.00     0.010 A 
ATOM     36  C   UNL     1       9.497   9.361   2.051  1.00  0.00     0.010 A 
ATOM     37  C   UNL     1       9.866   9.182   3.396  1.00  0.00    -0.014 A 
BRANCH  37  38
ATOM     38  C   UNL     1      11.287   8.934   3.740  1.00  0.00     0.031 A 
ATOM     39  C   UNL     1      12.220  10.115   3.736  1.00  0.00     0.074 A 
ATOM     40  C   UNL     1      11.736   7.710   4.065  1.00  0.00     0.049 A 
ATOM     41  N   UNL     1      13.508  10.161   3.948  1.00  0.00    -0.248 NA
ATOM     42  C   UNL     1      11.608  11.423   3.446  1.00  0.00     0.031 C 
ATOM     43  C   UNL     1      10.916   6.503   4.151  1.00  0.00     0.029 A 
ATOM     44  N   UNL     1      13.002   7.281   4.376  1.00  0.00    -0.354 N 
ATOM     45  C   UNL     1      13.862  11.500   3.819  1.00  0.00     0.074 A 
ATOM     46  C   UNL     1      12.660  12.225   3.470  1.00  0.00     0.031 C 
ATOM     47  C   UNL     1      11.706   5.464   4.480  1.00  0.00     0.029 A 
ATOM     48  C   UNL     1      13.089   5.926   4.591  1.00  0.00     0.049 A 
ATOM     49  H   UNL     1      13.775   7.887   4.439  1.00  0.00     0.167 HD
ATOM     50  C   UNL     1      15.078  12.074   3.984  1.00  0.00     0.034 A 
ATOM     51  C   UNL     1      14.168   5.149   4.822  1.00  0.00     0.034 A 
ATOM     52  C   UNL     1      16.272  11.335   4.306  1.00  0.00     0.049 A 
ATOM     53  C   UNL     1      15.533   5.797   4.902  1.00  0.00     0.074 A 
ATOM     54  C   UNL     1      17.557  11.812   4.496  1.00  0.00     0.029 A 
ATOM     55  N   UNL     1      16.332   9.957   4.469  1.00  0.00    -0.354 N 
ATOM     56  N   UNL     1      15.857   7.065   4.786  1.00  0.00    -0.248 NA
ATOM     57  C   UNL     1      16.676   4.907   5.148  1.00  0.00     0.031 C 
ATOM     58  C   UNL     1      18.404  10.717   4.701  1.00  0.00     0.029 A 
ATOM     59  C   UNL     1      17.637   9.563   4.722  1.00  0.00     0.049 A 
ATOM     60  H   UNL     1      15.560   9.348   4.412  1.00  0.00     0.167 HD
ATOM     61  C   UNL     1      17.236   7.126   4.981  1.00  0.00     0.074 A 
ATOM     62  C   UNL     1      17.678   5.770   5.232  1.00  0.00     0.031 C 
ATOM     63  C   UNL     1      18.062   8.204   4.963  1.00  0.00     0.034 A 
BRANCH  50  64
ATOM     64  C   UNL     1      15.172  13.563   3.755  1.00  0.00     0.023 A 
ATOM     65  C   UNL     1      14.490  14.482   4.572  1.00  0.00     0.031 A 
ATOM     66  C   UNL     1      15.917  14.068   2.675  1.00  0.00     0.131 A 
ATOM     67  C   UNL     1      14.506  15.848   4.253  1.00  0.00     0.055 A 
ATOM     68  C   UNL     1      15.995  15.436   2.411  1.00  0.00     0.041 A 
ATOM     69  F   UNL     1      16.566  13.236   1.845  1.00  0.00    -0.206 F 
ATOM     70  C   UNL     1      15.275  16.334   3.193  1.00  0.00     0.022 A 
BRANCH  67  71
ATOM     71  S   UNL     1      13.391  16.961   5.151  1.00  0.00     0.124 S 
ATOM     72  O   UNL     1      12.087  16.368   4.865  1.00  0.00    -0.237 OA
ATOM     73  O   UNL     1      13.861  16.837   6.526  1.00  0.00    -0.237 OA
ATOM     74  O   UNL     1      13.627  18.261   4.525  1.00  0.00    -0.744 OA
ENDBRANCH  67  71
ENDBRANCH  50  64
BRANCH  51  75
ATOM     75  C   UNL     1      14.027   3.669   4.950  1.00  0.00     0.023 A 
ATOM     76  C   UNL     1      14.370   3.003   6.138  1.00  0.00     0.031 A 
ATOM     77  C   UNL     1      13.613   2.889   3.855  1.00  0.00     0.131 A 
ATOM     78  C   UNL     1      14.340   1.600   6.188  1.00  0.00     0.055 A 
ATOM     79  C   UNL     1      13.532   1.497   3.927  1.00  0.00     0.041 A 
ATOM     80  F   UNL     1      13.277   3.473   2.693  1.00  0.00    -0.206 F 
ATOM     81  C   UNL     1      13.911   0.843   5.095  1.00  0.00     0.022 A 
BRANCH  78  82
ATOM     82  S   UNL     1      14.959   0.769   7.677  1.00  0.00     0.124 S 
ATOM     83  O   UNL     1      16.328   1.265   7.747  1.00  0.00    -0.237 OA
ATOM     84  O   UNL     1      14.044   1.263   8.701  1.00  0.00    -0.237 OA
ATOM     85  O   UNL     1      14.823  -0.650   7.356  1.00  0.00    -0.744 OA
ENDBRANCH  78  82
ENDBRANCH  51  75
BRANCH  63  86
ATOM     86  C   UNL     1      19.520   7.963   5.274  1.00  0.00     0.023 A 
ATOM     87  C   UNL     1      20.352   7.224   4.415  1.00  0.00     0.031 A 
ATOM     88  C   UNL     1      20.084   8.485   6.452  1.00  0.00     0.131 A 
ATOM     89  C   UNL     1      21.688   6.982   4.772  1.00  0.00     0.055 A 
ATOM     90  C   UNL     1      21.429   8.293   6.772  1.00  0.00     0.041 A 
ATOM     91  F   UNL     1      19.337   9.197   7.310  1.00  0.00    -0.206 F 
ATOM     92  C   UNL     1      22.236   7.527   5.937  1.00  0.00     0.022 A 
BRANCH  89  93
ATOM     93  S   UNL     1      22.680   5.870   3.739  1.00  0.00     0.124 S 
ATOM     94  O   UNL     1      21.898   4.639   3.780  1.00  0.00    -0.237 OA
ATOM     95  O   UNL     1      22.703   6.569   2.459  1.00  0.00    -0.237 OA
ATOM     96  O   UNL     1      23.965   5.811   4.434  1.00  0.00    -0.744 OA
ENDBRANCH  89  93
ENDBRANCH  63  86
ENDBRANCH  37  38
ENDBRANCH  30  32
ENDBRANCH  29  30
ENDBRANCH  28  29
ENDBRANCH  27  28
ENDBRANCH  26  27
ENDBRANCH  25  26
ENDBRANCH  24  25
ENDBRANCH   1  24
TORSDOF 26
