REMARK SMILES COc1cc(/C=C/C(=O)OCCOCCOCCOCCOC(=O)c2ccc(-c3c4nc(c(-c5cc(S(=O)(=O)[O-])ccc5F)c5ccc([nH]5)c(-c5cc(S(=O)(=O)[O-])ccc5F)c5nc(c(-c6cc(S(=O)(=O)[O-])ccc6F)c6ccc3[nH]6)C=C5)C=C4)cc2)cc(OC)c1O
REMARK SMILES IDX 17 1 16 2 15 3 14 4 13 5 12 6 11 7 10 8 8 9 9 10 7 11 6 12
REMARK SMILES IDX 5 13 3 14 4 15 92 16 89 17 88 18 2 19 1 20 93 21 90 23 91 24
REMARK SMILES IDX 18 25 19 26 20 27 21 28 22 29 23 30 24 31 25 32 26 33 87 34
REMARK SMILES IDX 27 35 86 36 28 37 29 38 30 39 80 40 31 41 85 42 79 43 81 44
REMARK SMILES IDX 32 45 84 46 78 47 77 48 33 50 65 51 45 52 64 53 46 54 49 55
REMARK SMILES IDX 63 56 82 57 47 58 48 59 62 61 83 62 50 63 34 64 35 65 43 66
REMARK SMILES IDX 36 67 42 68 44 69 41 70 37 71 38 72 39 73 40 74 66 75 67 76
REMARK SMILES IDX 75 77 68 78 74 79 76 80 73 81 69 82 70 83 71 84 72 85 51 86
REMARK SMILES IDX 52 87 60 88 53 89 59 90 61 91 58 92 54 93 55 94 56 95 57 96
REMARK H PARENT 93 22 81 49 49 60
REMARK Flexibility Score: inf
ROOT
ATOM      1  C   UNL     1      -0.569   6.898   7.644  1.00  0.00     0.188 C 
ENDROOT
BRANCH   1   2
ATOM      2  O   UNL     1      -0.830   6.005   6.561  1.00  0.00    -0.377 OA
BRANCH   2   3
ATOM      3  C   UNL     1       0.008   6.027   5.420  1.00  0.00     0.188 C 
BRANCH   3   4
ATOM      4  C   UNL     1      -0.166   7.248   4.498  1.00  0.00     0.188 C 
BRANCH   4   5
ATOM      5  O   UNL     1      -0.727   8.379   5.133  1.00  0.00    -0.376 OA
BRANCH   5   6
ATOM      6  C   UNL     1      -2.123   8.622   5.120  1.00  0.00     0.202 C 
BRANCH   6   7
ATOM      7  C   UNL     1      -3.205   7.526   5.147  1.00  0.00     0.261 C 
BRANCH   7   8
ATOM      8  O   UNL     1      -2.864   6.245   4.617  1.00  0.00    -0.460 OA
BRANCH   8   9
ATOM      9  C   UNL     1      -2.941   6.091   3.283  1.00  0.00     0.330 C 
ATOM     10  O   UNL     1      -3.266   6.944   2.471  1.00  0.00    -0.247 OA
BRANCH   9  11
ATOM     11  C   UNL     1      -2.415   4.770   2.874  1.00  0.00     0.094 C 
ATOM     12  C   UNL     1      -2.248   3.708   3.683  1.00  0.00     0.016 C 
BRANCH  12  13
ATOM     13  C   UNL     1      -1.709   2.425   3.201  1.00  0.00    -0.018 A 
ATOM     14  C   UNL     1      -0.348   1.134   1.633  1.00  0.00     0.165 A 
ATOM     15  C   UNL     1      -0.754   2.357   2.182  1.00  0.00     0.058 A 
ATOM     16  C   UNL     1      -0.897  -0.054   2.138  1.00  0.00     0.200 A 
ATOM     17  C   UNL     1      -1.772  -0.016   3.236  1.00  0.00     0.165 A 
ATOM     18  C   UNL     1      -2.160   1.228   3.761  1.00  0.00     0.058 A 
BRANCH  14  19
ATOM     19  O   UNL     1       0.536   1.305   0.602  1.00  0.00    -0.493 OA
ATOM     20  C   UNL     1       1.218   0.191   0.052  1.00  0.00     0.278 C 
ENDBRANCH  14  19
BRANCH  16  21
ATOM     21  O   UNL     1      -0.644  -1.244   1.514  1.00  0.00    -0.502 OA
ATOM     22  H   UNL     1      -0.061  -1.275   0.781  1.00  0.00     0.293 HD
ENDBRANCH  16  21
BRANCH  17  23
ATOM     23  O   UNL     1      -2.382  -1.062   3.879  1.00  0.00    -0.493 OA
ATOM     24  C   UNL     1      -2.150  -2.384   3.422  1.00  0.00     0.278 C 
ENDBRANCH  17  23
ENDBRANCH  12  13
ENDBRANCH   9  11
ENDBRANCH   8   9
ENDBRANCH   7   8
ENDBRANCH   6   7
ENDBRANCH   5   6
ENDBRANCH   4   5
ENDBRANCH   3   4
ENDBRANCH   2   3
ENDBRANCH   1   2
BRANCH   1  25
ATOM     25  C   UNL     1       0.525   7.994   7.594  1.00  0.00     0.188 C 
BRANCH  25  26
ATOM     26  O   UNL     1       1.621   7.708   6.739  1.00  0.00    -0.376 OA
BRANCH  26  27
ATOM     27  C   UNL     1       2.858   7.367   7.338  1.00  0.00     0.202 C 
BRANCH  27  28
ATOM     28  C   UNL     1       2.904   6.027   8.083  1.00  0.00     0.261 C 
BRANCH  28  29
ATOM     29  O   UNL     1       1.932   5.854   9.124  1.00  0.00    -0.460 OA
BRANCH  29  30
ATOM     30  C   UNL     1       2.026   6.672  10.194  1.00  0.00     0.338 C 
ATOM     31  O   UNL     1       2.862   7.545  10.374  1.00  0.00    -0.246 OA
BRANCH  30  32
ATOM     32  C   UNL     1       0.829   6.459  11.032  1.00  0.00     0.060 A 
ATOM     33  C   UNL     1      -0.036   7.534  11.273  1.00  0.00     0.016 A 
ATOM     34  C   UNL     1       0.555   5.197  11.566  1.00  0.00     0.016 A 
ATOM     35  C   UNL     1      -1.159   7.357  12.083  1.00  0.00     0.010 A 
ATOM     36  C   UNL     1      -0.560   5.027  12.390  1.00  0.00     0.010 A 
ATOM     37  C   UNL     1      -1.404   6.114  12.681  1.00  0.00    -0.014 A 
BRANCH  37  38
ATOM     38  C   UNL     1      -2.416   5.998  13.763  1.00  0.00     0.031 A 
ATOM     39  C   UNL     1      -1.936   6.022  15.190  1.00  0.00     0.074 A 
ATOM     40  C   UNL     1      -3.730   5.898  13.492  1.00  0.00     0.049 A 
ATOM     41  N   UNL     1      -2.612   5.878  16.299  1.00  0.00    -0.248 NA
ATOM     42  C   UNL     1      -0.493   6.230  15.385  1.00  0.00     0.031 C 
ATOM     43  C   UNL     1      -4.320   5.916  12.155  1.00  0.00     0.029 A 
ATOM     44  N   UNL     1      -4.806   5.754  14.333  1.00  0.00    -0.354 N 
ATOM     45  C   UNL     1      -1.677   5.971  17.326  1.00  0.00     0.074 A 
ATOM     46  C   UNL     1      -0.383   6.142  16.701  1.00  0.00     0.031 C 
ATOM     47  C   UNL     1      -5.654   5.780  12.267  1.00  0.00     0.029 A 
ATOM     48  C   UNL     1      -6.008   5.620  13.677  1.00  0.00     0.049 A 
ATOM     49  H   UNL     1      -4.725   5.747  15.314  1.00  0.00     0.167 HD
ATOM     50  C   UNL     1      -1.881   5.929  18.665  1.00  0.00     0.034 A 
ATOM     51  C   UNL     1      -7.243   5.368  14.158  1.00  0.00     0.034 A 
ATOM     52  C   UNL     1      -3.176   5.742  19.271  1.00  0.00     0.049 A 
ATOM     53  C   UNL     1      -7.433   5.221  15.652  1.00  0.00     0.074 A 
ATOM     54  C   UNL     1      -3.499   5.694  20.616  1.00  0.00     0.029 A 
ATOM     55  N   UNL     1      -4.364   5.557  18.573  1.00  0.00    -0.354 N 
ATOM     56  N   UNL     1      -6.543   5.318  16.614  1.00  0.00    -0.248 NA
ATOM     57  C   UNL     1      -8.795   4.939  16.123  1.00  0.00     0.031 C 
ATOM     58  C   UNL     1      -4.860   5.393  20.730  1.00  0.00     0.029 A 
ATOM     59  C   UNL     1      -5.411   5.354  19.460  1.00  0.00     0.049 A 
ATOM     60  H   UNL     1      -4.449   5.569  17.593  1.00  0.00     0.167 HD
ATOM     61  C   UNL     1      -7.248   5.146  17.804  1.00  0.00     0.074 A 
ATOM     62  C   UNL     1      -8.635   4.953  17.438  1.00  0.00     0.031 C 
ATOM     63  C   UNL     1      -6.792   5.154  19.084  1.00  0.00     0.034 A 
BRANCH  50  64
ATOM     64  C   UNL     1      -0.665   6.026  19.556  1.00  0.00     0.023 A 
ATOM     65  C   UNL     1       0.150   7.172  19.579  1.00  0.00     0.031 A 
ATOM     66  C   UNL     1      -0.297   4.942  20.373  1.00  0.00     0.131 A 
ATOM     67  C   UNL     1       1.327   7.179  20.343  1.00  0.00     0.055 A 
ATOM     68  C   UNL     1       0.829   4.989  21.197  1.00  0.00     0.041 A 
ATOM     69  F   UNL     1      -1.019   3.810  20.373  1.00  0.00    -0.206 F 
ATOM     70  C   UNL     1       1.657   6.106  21.174  1.00  0.00     0.022 A 
BRANCH  67  71
ATOM     71  S   UNL     1       2.500   8.543  20.114  1.00  0.00     0.124 S 
ATOM     72  O   UNL     1       2.779   8.457  18.683  1.00  0.00    -0.237 OA
ATOM     73  O   UNL     1       1.726   9.701  20.546  1.00  0.00    -0.237 OA
ATOM     74  O   UNL     1       3.619   8.182  20.982  1.00  0.00    -0.744 OA
ENDBRANCH  67  71
ENDBRANCH  50  64
BRANCH  51  75
ATOM     75  C   UNL     1      -8.399   5.191  13.229  1.00  0.00     0.023 A 
ATOM     76  C   UNL     1      -9.512   6.045  13.278  1.00  0.00     0.031 A 
ATOM     77  C   UNL     1      -8.436   4.117  12.321  1.00  0.00     0.131 A 
ATOM     78  C   UNL     1     -10.633   5.783  12.474  1.00  0.00     0.055 A 
ATOM     79  C   UNL     1      -9.528   3.897  11.479  1.00  0.00     0.041 A 
ATOM     80  F   UNL     1      -7.405   3.261  12.237  1.00  0.00    -0.206 F 
ATOM     81  C   UNL     1     -10.642   4.725  11.563  1.00  0.00     0.022 A 
BRANCH  78  82
ATOM     82  S   UNL     1     -12.126   6.788  12.710  1.00  0.00     0.124 S 
ATOM     83  O   UNL     1     -12.421   6.553  14.119  1.00  0.00    -0.237 OA
ATOM     84  O   UNL     1     -11.650   8.123  12.367  1.00  0.00    -0.237 OA
ATOM     85  O   UNL     1     -13.079   6.207  11.767  1.00  0.00    -0.744 OA
ENDBRANCH  78  82
ENDBRANCH  51  75
BRANCH  63  86
ATOM     86  C   UNL     1      -7.815   5.007  20.188  1.00  0.00     0.023 A 
ATOM     87  C   UNL     1      -8.566   3.831  20.359  1.00  0.00     0.031 A 
ATOM     88  C   UNL     1      -8.044   6.070  21.082  1.00  0.00     0.131 A 
ATOM     89  C   UNL     1      -9.550   3.768  21.358  1.00  0.00     0.055 A 
ATOM     90  C   UNL     1      -8.973   5.974  22.119  1.00  0.00     0.041 A 
ATOM     91  F   UNL     1      -7.362   7.220  20.966  1.00  0.00    -0.206 F 
ATOM     92  C   UNL     1      -9.744   4.824  22.252  1.00  0.00     0.022 A 
BRANCH  89  93
ATOM     93  S   UNL     1     -10.652   2.327  21.407  1.00  0.00     0.124 S 
ATOM     94  O   UNL     1     -11.238   2.349  20.071  1.00  0.00    -0.237 OA
ATOM     95  O   UNL     1      -9.724   1.233  21.678  1.00  0.00    -0.237 OA
ATOM     96  O   UNL     1     -11.576   2.639  22.495  1.00  0.00    -0.744 OA
ENDBRANCH  89  93
ENDBRANCH  63  86
ENDBRANCH  37  38
ENDBRANCH  30  32
ENDBRANCH  29  30
ENDBRANCH  28  29
ENDBRANCH  27  28
ENDBRANCH  26  27
ENDBRANCH  25  26
ENDBRANCH   1  25
TORSDOF 27
