REMARK SMILES O=C(CCC(=O)OCCOCCOCCOCCOC(=O)c1ccc(-c2c3nc(c(-c4cc(S(=O)(=O)[O-])ccc4F)c4ccc([nH]4)c(-c4cc(S(=O)(=O)[O-])ccc4F)c4nc(c(-c5cc(S(=O)(=O)[O-])ccc5F)c5ccc2[nH]5)C=C4)C=C3)cc1)/[NH+]=C1\S[C@H]2CS(=O)(=O)C[C@@H]2N1c1ccc(Oc2ccccc2)cc1
REMARK SMILES IDX 12 1 11 2 10 3 9 4 8 5 7 6 5 7 6 8 4 9 3 10 2 11 1 12 85 13
REMARK SMILES IDX 86 14 87 16 95 17 88 18 94 19 89 20 93 21 90 22 91 23 92 24
REMARK SMILES IDX 96 25 97 26 108 27 98 28 107 29 99 30 100 31 101 32 102 33
REMARK SMILES IDX 106 34 103 35 105 36 104 37 13 38 14 39 15 40 16 41 17 42
REMARK SMILES IDX 18 43 19 44 20 45 21 46 22 47 23 48 84 49 24 50 83 51 25 52
REMARK SMILES IDX 26 53 27 54 77 55 28 56 82 57 76 58 78 59 29 60 81 61 75 62
REMARK SMILES IDX 74 63 30 65 62 66 42 67 61 68 43 69 46 70 60 71 79 72 44 73
REMARK SMILES IDX 45 74 59 76 80 77 47 78 31 79 32 80 40 81 33 82 39 83 41 84
REMARK SMILES IDX 38 85 34 86 35 87 36 88 37 89 63 90 64 91 72 92 65 93 71 94
REMARK SMILES IDX 73 95 70 96 66 97 67 98 68 99 69 100 48 101 49 102 57 103
REMARK SMILES IDX 50 104 56 105 58 106 55 107 51 108 52 109 53 110 54 111
REMARK H PARENT 85 15 78 64 46 75
REMARK Flexibility Score: inf
ROOT
ATOM      1  C   UNL     1       6.331   0.715   1.734  1.00  0.00     0.188 C 
ENDROOT
BRANCH   1   2
ATOM      2  C   UNL     1       6.235  -0.877   1.724  1.00  0.00     0.188 C 
BRANCH   2   3
ATOM      3  O   UNL     1       7.011  -1.494   0.668  1.00  0.00    -0.376 OA
BRANCH   3   4
ATOM      4  C   UNL     1       6.793  -2.894   0.369  1.00  0.00     0.202 C 
BRANCH   4   5
ATOM      5  C   UNL     1       5.802  -3.337  -0.768  1.00  0.00     0.261 C 
BRANCH   5   6
ATOM      6  O   UNL     1       4.460  -2.813  -0.755  1.00  0.00    -0.463 OA
BRANCH   6   7
ATOM      7  C   UNL     1       3.755  -2.885   0.385  1.00  0.00     0.306 C 
ATOM      8  O   UNL     1       4.061  -3.597   1.333  1.00  0.00    -0.252 OA
BRANCH   7   9
ATOM      9  C   UNL     1       2.532  -1.989   0.357  1.00  0.00     0.135 C 
BRANCH   9  10
ATOM     10  C   UNL     1       2.670  -0.605  -0.315  1.00  0.00     0.139 C 
BRANCH  10  11
ATOM     11  C   UNL     1       2.502  -0.598  -1.846  1.00  0.00     0.308 C 
ATOM     12  O   UNL     1       1.410  -1.024  -2.240  1.00  0.00    -0.247 OA
ATOM     13  N   UNL     1       3.401  -0.088  -2.788  1.00  0.00    -0.204 N 
ATOM     14  C   UNL     1       4.684  -0.004  -2.735  1.00  0.00     0.319 C 
ATOM     15  H   UNL     1       2.992   0.257  -3.614  1.00  0.00     0.316 HD
ATOM     16  S   UNL     1       5.570  -0.323  -1.307  1.00  0.00    -0.029 SA
ATOM     17  N   UNL     1       5.661   0.320  -3.682  1.00  0.00    -0.217 N 
ATOM     18  C   UNL     1       7.044   0.478  -1.805  1.00  0.00     0.120 C 
ATOM     19  C   UNL     1       7.074   0.121  -3.266  1.00  0.00     0.212 C 
ATOM     20  C   UNL     1       8.397   0.175  -1.219  1.00  0.00     0.156 C 
ATOM     21  C   UNL     1       8.182   1.060  -3.741  1.00  0.00     0.188 C 
ATOM     22  S   UNL     1       9.459   0.856  -2.475  1.00  0.00     0.155 S 
ATOM     23  O   UNL     1       9.916   2.142  -2.037  1.00  0.00    -0.229 OA
ATOM     24  O   UNL     1      10.372  -0.203  -2.893  1.00  0.00    -0.229 OA
BRANCH  17  25
ATOM     25  C   UNL     1       5.454   0.797  -4.967  1.00  0.00     0.128 A 
ATOM     26  C   UNL     1       6.247   0.334  -6.026  1.00  0.00     0.056 A 
ATOM     27  C   UNL     1       4.568   1.844  -5.189  1.00  0.00     0.056 A 
ATOM     28  C   UNL     1       6.256   0.991  -7.246  1.00  0.00     0.051 A 
ATOM     29  C   UNL     1       4.566   2.492  -6.418  1.00  0.00     0.051 A 
ATOM     30  C   UNL     1       5.440   2.098  -7.430  1.00  0.00     0.127 A 
BRANCH  30  31
ATOM     31  O   UNL     1       5.564   2.719  -8.648  1.00  0.00    -0.457 OA
BRANCH  31  32
ATOM     32  C   UNL     1       5.025   3.973  -8.767  1.00  0.00     0.127 A 
ATOM     33  C   UNL     1       3.872   4.113  -9.533  1.00  0.00     0.047 A 
ATOM     34  C   UNL     1       5.642   5.080  -8.175  1.00  0.00     0.047 A 
ATOM     35  C   UNL     1       3.323   5.378  -9.710  1.00  0.00     0.004 A 
ATOM     36  C   UNL     1       5.084   6.343  -8.350  1.00  0.00     0.004 A 
ATOM     37  C   UNL     1       3.935   6.490  -9.129  1.00  0.00     0.000 A 
ENDBRANCH  31  32
ENDBRANCH  30  31
ENDBRANCH  17  25
ENDBRANCH  10  11
ENDBRANCH   9  10
ENDBRANCH   7   9
ENDBRANCH   6   7
ENDBRANCH   5   6
ENDBRANCH   4   5
ENDBRANCH   3   4
ENDBRANCH   2   3
ENDBRANCH   1   2
BRANCH   1  38
ATOM     38  O   UNL     1       5.200   1.316   1.097  1.00  0.00    -0.377 OA
BRANCH  38  39
ATOM     39  C   UNL     1       5.239   2.522   0.322  1.00  0.00     0.188 C 
BRANCH  39  40
ATOM     40  C   UNL     1       6.518   3.340   0.030  1.00  0.00     0.188 C 
BRANCH  40  41
ATOM     41  O   UNL     1       7.093   4.083   1.089  1.00  0.00    -0.376 OA
BRANCH  41  42
ATOM     42  C   UNL     1       6.188   4.670   2.006  1.00  0.00     0.202 C 
BRANCH  42  43
ATOM     43  C   UNL     1       5.302   5.823   1.498  1.00  0.00     0.261 C 
BRANCH  43  44
ATOM     44  O   UNL     1       4.519   5.543   0.313  1.00  0.00    -0.460 OA
BRANCH  44  45
ATOM     45  C   UNL     1       4.867   6.249  -0.798  1.00  0.00     0.338 C 
ATOM     46  O   UNL     1       5.802   7.029  -0.884  1.00  0.00    -0.246 OA
BRANCH  45  47
ATOM     47  C   UNL     1       4.034   5.885  -1.978  1.00  0.00     0.060 A 
ATOM     48  C   UNL     1       4.689   5.653  -3.194  1.00  0.00     0.016 A 
ATOM     49  C   UNL     1       2.635   5.908  -1.950  1.00  0.00     0.016 A 
ATOM     50  C   UNL     1       3.954   5.479  -4.376  1.00  0.00     0.010 A 
ATOM     51  C   UNL     1       1.900   5.745  -3.144  1.00  0.00     0.010 A 
ATOM     52  C   UNL     1       2.551   5.555  -4.375  1.00  0.00    -0.014 A 
BRANCH  52  53
ATOM     53  C   UNL     1       1.813   5.662  -5.677  1.00  0.00     0.031 A 
ATOM     54  C   UNL     1       1.735   7.015  -6.345  1.00  0.00     0.074 A 
ATOM     55  C   UNL     1       1.280   4.597  -6.312  1.00  0.00     0.049 A 
ATOM     56  N   UNL     1       1.152   7.364  -7.465  1.00  0.00    -0.248 NA
ATOM     57  C   UNL     1       2.396   8.124  -5.641  1.00  0.00     0.031 C 
ATOM     58  C   UNL     1       1.307   3.224  -5.822  1.00  0.00     0.029 A 
ATOM     59  N   UNL     1       0.656   4.494  -7.539  1.00  0.00    -0.354 N 
ATOM     60  C   UNL     1       1.386   8.727  -7.607  1.00  0.00     0.074 A 
ATOM     61  C   UNL     1       2.132   9.147  -6.439  1.00  0.00     0.031 C 
ATOM     62  C   UNL     1       0.823   2.407  -6.775  1.00  0.00     0.029 A 
ATOM     63  C   UNL     1       0.349   3.201  -7.910  1.00  0.00     0.049 A 
ATOM     64  H   UNL     1       0.449   5.276  -8.101  1.00  0.00     0.167 HD
ATOM     65  C   UNL     1       1.029   9.553  -8.621  1.00  0.00     0.034 A 
ATOM     66  C   UNL     1      -0.259   2.713  -9.017  1.00  0.00     0.034 A 
ATOM     67  C   UNL     1       0.286   9.144  -9.787  1.00  0.00     0.049 A 
ATOM     68  C   UNL     1      -0.766   3.682 -10.069  1.00  0.00     0.074 A 
ATOM     69  C   UNL     1      -0.159   9.927 -10.840  1.00  0.00     0.029 A 
ATOM     70  N   UNL     1      -0.131   7.848 -10.056  1.00  0.00    -0.354 N 
ATOM     71  N   UNL     1      -0.583   4.980 -10.163  1.00  0.00    -0.248 NA
ATOM     72  C   UNL     1      -1.592   3.121 -11.151  1.00  0.00     0.031 C 
ATOM     73  C   UNL     1      -0.902   9.119 -11.707  1.00  0.00     0.029 A 
ATOM     74  C   UNL     1      -0.852   7.816 -11.241  1.00  0.00     0.049 A 
ATOM     75  H   UNL     1       0.057   7.066  -9.488  1.00  0.00     0.167 HD
ATOM     76  C   UNL     1      -1.265   5.380 -11.314  1.00  0.00     0.074 A 
ATOM     77  C   UNL     1      -1.827   4.186 -11.903  1.00  0.00     0.031 C 
ATOM     78  C   UNL     1      -1.421   6.626 -11.829  1.00  0.00     0.034 A 
BRANCH  65  79
ATOM     79  C   UNL     1       1.389  11.009  -8.474  1.00  0.00     0.023 A 
ATOM     80  C   UNL     1       2.724  11.447  -8.490  1.00  0.00     0.031 A 
ATOM     81  C   UNL     1       0.379  11.968  -8.276  1.00  0.00     0.131 A 
ATOM     82  C   UNL     1       3.017  12.796  -8.244  1.00  0.00     0.055 A 
ATOM     83  C   UNL     1       0.673  13.321  -8.109  1.00  0.00     0.041 A 
ATOM     84  F   UNL     1      -0.911  11.600  -8.229  1.00  0.00    -0.206 F 
ATOM     85  C   UNL     1       2.000  13.740  -8.077  1.00  0.00     0.022 A 
BRANCH  82  86
ATOM     86  S   UNL     1       4.748  13.272  -7.992  1.00  0.00     0.124 S 
ATOM     87  O   UNL     1       5.145  12.379  -6.906  1.00  0.00    -0.237 OA
ATOM     88  O   UNL     1       5.342  12.997  -9.295  1.00  0.00    -0.237 OA
ATOM     89  O   UNL     1       4.665  14.685  -7.628  1.00  0.00    -0.744 OA
ENDBRANCH  82  86
ENDBRANCH  65  79
BRANCH  66  90
ATOM     90  C   UNL     1      -0.524   1.244  -9.185  1.00  0.00     0.023 A 
ATOM     91  C   UNL     1      -0.087   0.542 -10.325  1.00  0.00     0.031 A 
ATOM     92  C   UNL     1      -1.324   0.545  -8.263  1.00  0.00     0.131 A 
ATOM     93  C   UNL     1      -0.492  -0.790 -10.533  1.00  0.00     0.055 A 
ATOM     94  C   UNL     1      -1.659  -0.800  -8.436  1.00  0.00     0.041 A 
ATOM     95  F   UNL     1      -1.812   1.166  -7.177  1.00  0.00    -0.206 F 
ATOM     96  C   UNL     1      -1.256  -1.471  -9.584  1.00  0.00     0.022 A 
BRANCH  93  97
ATOM     97  S   UNL     1      -0.121  -1.586 -12.124  1.00  0.00     0.124 S 
ATOM     98  O   UNL     1      -0.779  -0.687 -13.065  1.00  0.00    -0.237 OA
ATOM     99  O   UNL     1       1.338  -1.575 -12.139  1.00  0.00    -0.237 OA
ATOM    100  O   UNL     1      -0.731  -2.908 -11.996  1.00  0.00    -0.744 OA
ENDBRANCH  93  97
ENDBRANCH  66  90
BRANCH  78 101
ATOM    101  C   UNL     1      -2.202   6.764 -13.118  1.00  0.00     0.023 A 
ATOM    102  C   UNL     1      -3.580   6.487 -13.187  1.00  0.00     0.031 A 
ATOM    103  C   UNL     1      -1.560   7.196 -14.294  1.00  0.00     0.131 A 
ATOM    104  C   UNL     1      -4.260   6.605 -14.411  1.00  0.00     0.055 A 
ATOM    105  C   UNL     1      -2.253   7.368 -15.494  1.00  0.00     0.041 A 
ATOM    106  F   UNL     1      -0.247   7.474 -14.292  1.00  0.00    -0.206 F 
ATOM    107  C   UNL     1      -3.609   7.062 -15.560  1.00  0.00     0.022 A 
BRANCH 104 108
ATOM    108  S   UNL     1      -5.996   6.083 -14.505  1.00  0.00     0.124 S 
ATOM    109  O   UNL     1      -5.915   4.683 -14.101  1.00  0.00    -0.237 OA
ATOM    110  O   UNL     1      -6.645   6.984 -13.558  1.00  0.00    -0.237 OA
ATOM    111  O   UNL     1      -6.347   6.304 -15.907  1.00  0.00    -0.744 OA
ENDBRANCH 104 108
ENDBRANCH  78 101
ENDBRANCH  52  53
ENDBRANCH  45  47
ENDBRANCH  44  45
ENDBRANCH  43  44
ENDBRANCH  42  43
ENDBRANCH  41  42
ENDBRANCH  40  41
ENDBRANCH  39  40
ENDBRANCH  38  39
ENDBRANCH   1  38
TORSDOF 28
