REMARK SMILES NS(=O)(=O)c1ccc(/N=N/c2ccc(O)c(C(=O)OCCOCCOCCOCCOC(=O)c3ccc(-c4c5nc(c(-c6cc(S(=O)(=O)[O-])ccc6F)c6ccc([nH]6)c(-c6cc(S(=O)(=O)[O-])ccc6F)c6nc(c(-c7cc(S(=O)(=O)[O-])ccc7F)c7ccc4[nH]7)C=C6)C=C5)cc3)c2)cc1
REMARK SMILES IDX 24 1 23 2 22 3 21 4 20 5 19 6 17 7 18 8 16 9 11 10 12 11
REMARK SMILES IDX 97 12 13 13 14 14 10 15 9 16 8 17 5 18 6 19 99 20 7 21 98 22
REMARK SMILES IDX 2 23 3 24 4 25 1 26 15 29 25 31 26 32 27 33 28 34 29 35
REMARK SMILES IDX 30 36 31 37 32 38 33 39 34 40 35 41 96 42 36 43 95 44 37 45
REMARK SMILES IDX 38 46 39 47 89 48 40 49 94 50 88 51 90 52 41 53 93 54 87 55
REMARK SMILES IDX 86 56 42 58 74 59 54 60 73 61 55 62 58 63 72 64 91 65 56 66
REMARK SMILES IDX 57 67 71 69 92 70 59 71 43 72 44 73 52 74 45 75 51 76 53 77
REMARK SMILES IDX 50 78 46 79 47 80 48 81 49 82 75 83 76 84 84 85 77 86 83 87
REMARK SMILES IDX 85 88 82 89 78 90 79 91 80 92 81 93 60 94 61 95 69 96 62 97
REMARK SMILES IDX 68 98 70 99 67 100 63 101 64 102 65 103 66 104
REMARK H PARENT 1 27 1 28 15 30 90 57 58 68
REMARK Flexibility Score: inf
ROOT
ATOM      1  C   UNL     1       5.841  10.556   1.838  1.00  0.00     0.188 C 
ENDROOT
BRANCH   1   2
ATOM      2  C   UNL     1       6.055  11.604   2.945  1.00  0.00     0.188 C 
BRANCH   2   3
ATOM      3  O   UNL     1       7.213  11.396   3.728  1.00  0.00    -0.376 OA
BRANCH   3   4
ATOM      4  C   UNL     1       7.198  10.614   4.908  1.00  0.00     0.202 C 
BRANCH   4   5
ATOM      5  C   UNL     1       6.282   9.404   5.179  1.00  0.00     0.261 C 
BRANCH   5   6
ATOM      6  O   UNL     1       5.061   9.291   4.450  1.00  0.00    -0.460 OA
BRANCH   6   7
ATOM      7  C   UNL     1       4.018  10.045   4.846  1.00  0.00     0.342 C 
ATOM      8  O   UNL     1       3.995  10.853   5.760  1.00  0.00    -0.246 OA
BRANCH   7   9
ATOM      9  C   UNL     1       2.967   9.967   3.806  1.00  0.00     0.104 A 
ATOM     10  C   UNL     1       1.804   8.733   2.056  1.00  0.00     0.087 A 
ATOM     11  C   UNL     1       1.180   9.927   1.670  1.00  0.00     0.034 A 
ATOM     12  C   UNL     1       2.711   8.767   3.126  1.00  0.00     0.049 A 
ATOM     13  C   UNL     1       1.438  11.128   2.335  1.00  0.00     0.049 A 
ATOM     14  C   UNL     1       2.323  11.145   3.406  1.00  0.00     0.130 A 
BRANCH  10  15
ATOM     15  N   UNL     1       1.533   7.580   1.292  1.00  0.00    -0.151 NA
ATOM     16  N   UNL     1       1.629   6.527   1.954  1.00  0.00    -0.151 NA
BRANCH  16  17
ATOM     17  C   UNL     1       1.355   5.363   1.202  1.00  0.00     0.086 A 
ATOM     18  C   UNL     1       0.803   2.944  -0.128  1.00  0.00     0.082 A 
ATOM     19  C   UNL     1       1.312   2.919   1.170  1.00  0.00     0.024 A 
ATOM     20  C   UNL     1       0.580   4.160  -0.776  1.00  0.00     0.024 A 
ATOM     21  C   UNL     1       1.585   4.127   1.824  1.00  0.00     0.031 A 
ATOM     22  C   UNL     1       0.852   5.360  -0.111  1.00  0.00     0.031 A 
BRANCH  18  23
ATOM     23  S   UNL     1       0.443   1.453  -1.009  1.00  0.00     0.238 S 
ATOM     24  O   UNL     1       1.130   1.504  -2.284  1.00  0.00    -0.207 OA
ATOM     25  O   UNL     1      -0.969   1.200  -0.900  1.00  0.00    -0.207 OA
BRANCH  23  26
ATOM     26  N   UNL     1       1.207   0.244  -0.133  1.00  0.00    -0.225 NA
ATOM     27  H   UNL     1       1.044  -0.656  -0.583  1.00  0.00     0.137 HD
ATOM     28  H   UNL     1       0.832   0.223   0.816  1.00  0.00     0.137 HD
ENDBRANCH  23  26
ENDBRANCH  18  23
ENDBRANCH  16  17
ENDBRANCH  10  15
BRANCH  14  29
ATOM     29  O   UNL     1       2.565  12.367   3.977  1.00  0.00    -0.507 OA
ATOM     30  H   UNL     1       2.107  13.125   3.672  1.00  0.00     0.293 HD
ENDBRANCH  14  29
ENDBRANCH   7   9
ENDBRANCH   6   7
ENDBRANCH   5   6
ENDBRANCH   4   5
ENDBRANCH   3   4
ENDBRANCH   2   3
ENDBRANCH   1   2
BRANCH   1  31
ATOM     31  O   UNL     1       6.553   9.347   2.032  1.00  0.00    -0.377 OA
BRANCH  31  32
ATOM     32  C   UNL     1       7.960   9.329   1.788  1.00  0.00     0.188 C 
BRANCH  32  33
ATOM     33  C   UNL     1       8.792  10.617   1.560  1.00  0.00     0.188 C 
BRANCH  33  34
ATOM     34  O   UNL     1       8.084  11.689   0.955  1.00  0.00    -0.376 OA
BRANCH  34  35
ATOM     35  C   UNL     1       8.361  12.004  -0.398  1.00  0.00     0.202 C 
BRANCH  35  36
ATOM     36  C   UNL     1       7.946  10.959  -1.442  1.00  0.00     0.261 C 
BRANCH  36  37
ATOM     37  O   UNL     1       8.466   9.637  -1.246  1.00  0.00    -0.460 OA
BRANCH  37  38
ATOM     38  C   UNL     1       9.807   9.487  -1.334  1.00  0.00     0.338 C 
ATOM     39  O   UNL     1      10.625  10.357  -1.571  1.00  0.00    -0.246 OA
BRANCH  38  40
ATOM     40  C   UNL     1      10.128   8.111  -0.899  1.00  0.00     0.060 A 
ATOM     41  C   UNL     1      10.961   7.921   0.211  1.00  0.00     0.016 A 
ATOM     42  C   UNL     1       9.588   7.015  -1.576  1.00  0.00     0.016 A 
ATOM     43  C   UNL     1      11.283   6.629   0.627  1.00  0.00     0.010 A 
ATOM     44  C   UNL     1       9.928   5.722  -1.170  1.00  0.00     0.010 A 
ATOM     45  C   UNL     1      10.802   5.523  -0.086  1.00  0.00    -0.014 A 
BRANCH  45  46
ATOM     46  C   UNL     1      11.368   4.174   0.167  1.00  0.00     0.031 A 
ATOM     47  C   UNL     1      12.445   3.673  -0.757  1.00  0.00     0.074 A 
ATOM     48  C   UNL     1      10.950   3.417   1.197  1.00  0.00     0.049 A 
ATOM     49  N   UNL     1      13.040   2.509  -0.789  1.00  0.00    -0.248 NA
ATOM     50  C   UNL     1      12.907   4.616  -1.788  1.00  0.00     0.031 C 
ATOM     51  C   UNL     1       9.952   3.815   2.189  1.00  0.00     0.029 A 
ATOM     52  N   UNL     1      11.309   2.146   1.574  1.00  0.00    -0.354 N 
ATOM     53  C   UNL     1      13.941   2.576  -1.847  1.00  0.00     0.074 A 
ATOM     54  C   UNL     1      13.784   3.881  -2.453  1.00  0.00     0.031 C 
ATOM     55  C   UNL     1       9.772   2.803   3.055  1.00  0.00     0.029 A 
ATOM     56  C   UNL     1      10.604   1.669   2.655  1.00  0.00     0.049 A 
ATOM     57  H   UNL     1      12.005   1.624   1.113  1.00  0.00     0.167 HD
ATOM     58  C   UNL     1      14.822   1.637  -2.270  1.00  0.00     0.034 A 
ATOM     59  C   UNL     1      10.608   0.448   3.231  1.00  0.00     0.034 A 
ATOM     60  C   UNL     1      14.954   0.335  -1.663  1.00  0.00     0.049 A 
ATOM     61  C   UNL     1      11.527  -0.620   2.678  1.00  0.00     0.074 A 
ATOM     62  C   UNL     1      15.821  -0.688  -2.004  1.00  0.00     0.029 A 
ATOM     63  N   UNL     1      14.189  -0.130  -0.602  1.00  0.00    -0.354 N 
ATOM     64  N   UNL     1      12.378  -0.545   1.680  1.00  0.00    -0.248 NA
ATOM     65  C   UNL     1      11.490  -1.933   3.335  1.00  0.00     0.031 C 
ATOM     66  C   UNL     1      15.521  -1.798  -1.209  1.00  0.00     0.029 A 
ATOM     67  C   UNL     1      14.537  -1.438  -0.302  1.00  0.00     0.049 A 
ATOM     68  H   UNL     1      13.500   0.393  -0.131  1.00  0.00     0.167 HD
ATOM     69  C   UNL     1      13.004  -1.789   1.618  1.00  0.00     0.074 A 
ATOM     70  C   UNL     1      12.441  -2.589   2.685  1.00  0.00     0.031 C 
ATOM     71  C   UNL     1      13.964  -2.229   0.763  1.00  0.00     0.034 A 
BRANCH  58  72
ATOM     72  C   UNL     1      15.665   1.966  -3.478  1.00  0.00     0.023 A 
ATOM     73  C   UNL     1      16.598   3.018  -3.470  1.00  0.00     0.031 A 
ATOM     74  C   UNL     1      15.515   1.230  -4.667  1.00  0.00     0.131 A 
ATOM     75  C   UNL     1      17.295   3.344  -4.643  1.00  0.00     0.055 A 
ATOM     76  C   UNL     1      16.273   1.506  -5.806  1.00  0.00     0.041 A 
ATOM     77  F   UNL     1      14.619   0.233  -4.745  1.00  0.00    -0.206 F 
ATOM     78  C   UNL     1      17.160   2.578  -5.803  1.00  0.00     0.022 A 
BRANCH  75  79
ATOM     79  S   UNL     1      18.270   4.874  -4.675  1.00  0.00     0.124 S 
ATOM     80  O   UNL     1      17.256   5.876  -4.356  1.00  0.00    -0.237 OA
ATOM     81  O   UNL     1      19.273   4.630  -3.645  1.00  0.00    -0.237 OA
ATOM     82  O   UNL     1      18.779   4.927  -6.044  1.00  0.00    -0.744 OA
ENDBRANCH  75  79
ENDBRANCH  58  72
BRANCH  59  83
ATOM     83  C   UNL     1       9.686   0.138   4.364  1.00  0.00     0.023 A 
ATOM     84  C   UNL     1      10.180  -0.246   5.621  1.00  0.00     0.031 A 
ATOM     85  C   UNL     1       8.290   0.149   4.184  1.00  0.00     0.131 A 
ATOM     86  C   UNL     1       9.291  -0.654   6.629  1.00  0.00     0.055 A 
ATOM     87  C   UNL     1       7.409  -0.195   5.210  1.00  0.00     0.041 A 
ATOM     88  F   UNL     1       7.760   0.498   3.001  1.00  0.00    -0.206 F 
ATOM     89  C   UNL     1       7.909  -0.615   6.437  1.00  0.00     0.022 A 
BRANCH  86  90
ATOM     90  S   UNL     1       9.974  -1.345   8.162  1.00  0.00     0.124 S 
ATOM     91  O   UNL     1      10.764  -2.461   7.656  1.00  0.00    -0.237 OA
ATOM     92  O   UNL     1      10.725  -0.213   8.694  1.00  0.00    -0.237 OA
ATOM     93  O   UNL     1       8.784  -1.716   8.926  1.00  0.00    -0.744 OA
ENDBRANCH  86  90
ENDBRANCH  59  83
BRANCH  71  94
ATOM     94  C   UNL     1      14.509  -3.621   0.985  1.00  0.00     0.023 A 
ATOM     95  C   UNL     1      13.714  -4.769   0.828  1.00  0.00     0.031 A 
ATOM     96  C   UNL     1      15.854  -3.797   1.361  1.00  0.00     0.131 A 
ATOM     97  C   UNL     1      14.254  -6.036   1.101  1.00  0.00     0.055 A 
ATOM     98  C   UNL     1      16.404  -5.064   1.562  1.00  0.00     0.041 A 
ATOM     99  F   UNL     1      16.661  -2.738   1.532  1.00  0.00    -0.206 F 
ATOM    100  C   UNL     1      15.598  -6.192   1.446  1.00  0.00     0.022 A 
BRANCH  97 101
ATOM    101  S   UNL     1      13.146  -7.473   1.100  1.00  0.00     0.124 S 
ATOM    102  O   UNL     1      12.151  -7.089   2.096  1.00  0.00    -0.237 OA
ATOM    103  O   UNL     1      12.683  -7.510  -0.283  1.00  0.00    -0.237 OA
ATOM    104  O   UNL     1      14.019  -8.579   1.490  1.00  0.00    -0.744 OA
ENDBRANCH  97 101
ENDBRANCH  71  94
ENDBRANCH  45  46
ENDBRANCH  38  40
ENDBRANCH  37  38
ENDBRANCH  36  37
ENDBRANCH  35  36
ENDBRANCH  34  35
ENDBRANCH  33  34
ENDBRANCH  32  33
ENDBRANCH  31  32
ENDBRANCH   1  31
TORSDOF 28
