REMARK SMILES O=C(OCCOCCOCCOCCOC(=O)c1ccc(-c2c3nc(c(-c4cc(S(=O)(=O)[O-])ccc4F)c4ccc([nH]4)c(-c4cc(S(=O)(=O)[O-])ccc4F)c4nc(c(-c5cc(S(=O)(=O)[O-])ccc5F)c5ccc2[nH]5)C=C4)C=C3)cc1)C1=Cc2cc(Cl)cc(-c3ccc(O)cc3)c2O[C@@H]1C(F)(F)F
REMARK SMILES IDX 10 1 9 2 8 3 7 4 6 5 5 6 4 7 3 8 2 9 1 10 81 11 82 12 98 13
REMARK SMILES IDX 83 14 97 15 84 16 96 17 85 18 88 19 86 20 87 21 99 22 100 23
REMARK SMILES IDX 101 24 102 25 89 26 90 27 95 28 91 29 94 30 92 31 93 32
REMARK SMILES IDX 11 34 12 35 13 36 14 37 15 38 16 39 17 40 18 41 19 42 80 43
REMARK SMILES IDX 20 44 79 45 21 46 22 47 23 48 73 49 24 50 78 51 72 52 74 53
REMARK SMILES IDX 25 54 77 55 71 56 70 57 26 59 58 60 38 61 57 62 39 63 42 64
REMARK SMILES IDX 56 65 75 66 40 67 41 68 55 70 76 71 43 72 27 73 28 74 36 75
REMARK SMILES IDX 29 76 35 77 37 78 34 79 30 80 31 81 32 82 33 83 59 84 60 85
REMARK SMILES IDX 68 86 61 87 67 88 69 89 66 90 62 91 63 92 64 93 65 94 44 95
REMARK SMILES IDX 45 96 53 97 46 98 52 99 54 100 51 101 47 102 48 103 49 104
REMARK SMILES IDX 50 105
REMARK H PARENT 93 33 74 58 42 69
REMARK Flexibility Score: inf
ROOT
ATOM      1  C   UNL     1       3.728   3.464  -1.642  1.00  0.00     0.188 C 
ENDROOT
BRANCH   1   2
ATOM      2  O   UNL     1       2.419   3.853  -1.292  1.00  0.00    -0.377 OA
BRANCH   2   3
ATOM      3  C   UNL     1       1.731   2.771  -0.727  1.00  0.00     0.188 C 
BRANCH   3   4
ATOM      4  C   UNL     1       2.263   2.442   0.661  1.00  0.00     0.188 C 
BRANCH   4   5
ATOM      5  O   UNL     1       3.599   1.930   0.983  1.00  0.00    -0.376 OA
BRANCH   5   6
ATOM      6  C   UNL     1       4.347   0.456   0.952  1.00  0.00     0.202 C 
BRANCH   6   7
ATOM      7  C   UNL     1       3.578  -1.395   0.085  1.00  0.00     0.261 C 
BRANCH   7   8
ATOM      8  O   UNL     1       2.643  -2.384   0.754  1.00  0.00    -0.460 OA
BRANCH   8   9
ATOM      9  C   UNL     1       2.854  -2.468   2.072  1.00  0.00     0.338 C 
ATOM     10  O   UNL     1       2.194  -3.044   2.901  1.00  0.00    -0.246 OA
BRANCH   9  11
ATOM     11  C   UNL     1       3.742  -1.321   2.185  1.00  0.00     0.087 C 
ATOM     12  C   UNL     1       5.110  -1.571   1.745  1.00  0.00     0.027 C 
ATOM     13  C   UNL     1       2.507  -0.140   1.307  1.00  0.00     0.316 C 
ATOM     14  C   UNL     1       5.792  -1.011   0.181  1.00  0.00     0.019 A 
ATOM     15  O   UNL     1       3.161   0.371  -0.466  1.00  0.00    -0.475 OA
ATOM     16  C   UNL     1       7.073  -1.394  -0.121  1.00  0.00     0.032 A 
ATOM     17  C   UNL     1       4.843  -0.170  -1.007  1.00  0.00     0.135 A 
ATOM     18  C   UNL     1       7.508  -1.071  -1.410  1.00  0.00     0.042 A 
ATOM     19  C   UNL     1       5.342   0.019  -2.292  1.00  0.00     0.026 A 
ATOM     20  Cl  UNL     1       9.129  -1.517  -1.829  1.00  0.00    -0.084 Cl
ATOM     21  C   UNL     1       6.699  -0.428  -2.422  1.00  0.00     0.033 A 
BRANCH  13  22
ATOM     22  C   UNL     1       2.290   0.683   2.789  1.00  0.00     0.430 C 
ATOM     23  F   UNL     1       1.472   1.750   2.863  1.00  0.00    -0.167 F 
ATOM     24  F   UNL     1       1.696  -0.220   3.636  1.00  0.00    -0.167 F 
ATOM     25  F   UNL     1       3.440   1.024   3.426  1.00  0.00    -0.167 F 
ENDBRANCH  13  22
BRANCH  19  26
ATOM     26  C   UNL     1       4.700   0.542  -3.487  1.00  0.00    -0.014 A 
ATOM     27  C   UNL     1       4.056  -0.270  -4.430  1.00  0.00     0.012 A 
ATOM     28  C   UNL     1       4.841   1.883  -3.806  1.00  0.00     0.012 A 
ATOM     29  C   UNL     1       3.411   0.290  -5.544  1.00  0.00     0.047 A 
ATOM     30  C   UNL     1       4.068   2.458  -4.810  1.00  0.00     0.047 A 
ATOM     31  C   UNL     1       3.366   1.664  -5.688  1.00  0.00     0.115 A 
BRANCH  31  32
ATOM     32  O   UNL     1       2.679   2.218  -6.721  1.00  0.00    -0.508 OA
ATOM     33  H   UNL     1       2.204   1.670  -7.315  1.00  0.00     0.293 HD
ENDBRANCH  31  32
ENDBRANCH  19  26
ENDBRANCH   9  11
ENDBRANCH   8   9
ENDBRANCH   7   8
ENDBRANCH   6   7
ENDBRANCH   5   6
ENDBRANCH   4   5
ENDBRANCH   3   4
ENDBRANCH   2   3
ENDBRANCH   1   2
BRANCH   1  34
ATOM     34  C   UNL     1       4.864   3.990  -0.776  1.00  0.00     0.188 C 
BRANCH  34  35
ATOM     35  O   UNL     1       4.422   4.637   0.391  1.00  0.00    -0.376 OA
BRANCH  35  36
ATOM     36  C   UNL     1       3.936   5.967   0.280  1.00  0.00     0.202 C 
BRANCH  36  37
ATOM     37  C   UNL     1       3.216   6.517  -0.975  1.00  0.00     0.261 C 
BRANCH  37  38
ATOM     38  O   UNL     1       3.785   6.276  -2.281  1.00  0.00    -0.460 OA
BRANCH  38  39
ATOM     39  C   UNL     1       5.059   6.649  -2.543  1.00  0.00     0.338 C 
ATOM     40  O   UNL     1       5.807   7.235  -1.784  1.00  0.00    -0.246 OA
BRANCH  39  41
ATOM     41  C   UNL     1       5.462   6.001  -3.829  1.00  0.00     0.060 A 
ATOM     42  C   UNL     1       6.623   5.211  -3.879  1.00  0.00     0.016 A 
ATOM     43  C   UNL     1       4.665   6.112  -4.971  1.00  0.00     0.016 A 
ATOM     44  C   UNL     1       6.981   4.517  -5.054  1.00  0.00     0.010 A 
ATOM     45  C   UNL     1       5.030   5.431  -6.146  1.00  0.00     0.010 A 
ATOM     46  C   UNL     1       6.192   4.621  -6.207  1.00  0.00    -0.014 A 
BRANCH  46  47
ATOM     47  C   UNL     1       6.653   4.124  -7.546  1.00  0.00     0.031 A 
ATOM     48  C   UNL     1       7.105   5.184  -8.512  1.00  0.00     0.074 A 
ATOM     49  C   UNL     1       6.657   2.834  -7.957  1.00  0.00     0.049 A 
ATOM     50  N   UNL     1       7.417   5.085  -9.776  1.00  0.00    -0.248 NA
ATOM     51  C   UNL     1       7.214   6.547  -7.965  1.00  0.00     0.031 C 
ATOM     52  C   UNL     1       6.389   1.668  -7.128  1.00  0.00     0.029 A 
ATOM     53  N   UNL     1       6.867   2.284  -9.208  1.00  0.00    -0.354 N 
ATOM     54  C   UNL     1       7.778   6.367 -10.164  1.00  0.00     0.074 A 
ATOM     55  C   UNL     1       7.534   7.241  -9.040  1.00  0.00     0.031 C 
ATOM     56  C   UNL     1       6.332   0.563  -7.894  1.00  0.00     0.029 A 
ATOM     57  C   UNL     1       6.608   0.926  -9.279  1.00  0.00     0.049 A 
ATOM     58  H   UNL     1       7.175   2.811  -9.980  1.00  0.00     0.167 HD
ATOM     59  C   UNL     1       8.322   6.776 -11.333  1.00  0.00     0.034 A 
ATOM     60  C   UNL     1       6.598   0.071 -10.328  1.00  0.00     0.034 A 
ATOM     61  C   UNL     1       8.554   5.910 -12.454  1.00  0.00     0.049 A 
ATOM     62  C   UNL     1       7.028   0.584 -11.686  1.00  0.00     0.074 A 
ATOM     63  C   UNL     1       9.110   6.229 -13.679  1.00  0.00     0.029 A 
ATOM     64  N   UNL     1       8.223   4.563 -12.501  1.00  0.00    -0.354 N 
ATOM     65  N   UNL     1       7.410   1.794 -12.023  1.00  0.00    -0.248 NA
ATOM     66  C   UNL     1       7.073  -0.387 -12.790  1.00  0.00     0.031 C 
ATOM     67  C   UNL     1       9.021   5.103 -14.500  1.00  0.00     0.029 A 
ATOM     68  C   UNL     1       8.514   4.051 -13.755  1.00  0.00     0.049 A 
ATOM     69  H   UNL     1       7.840   4.048 -11.755  1.00  0.00     0.167 HD
ATOM     70  C   UNL     1       7.808   1.709 -13.355  1.00  0.00     0.074 A 
ATOM     71  C   UNL     1       7.609   0.335 -13.763  1.00  0.00     0.031 C 
ATOM     72  C   UNL     1       8.315   2.679 -14.158  1.00  0.00     0.034 A 
BRANCH  59  73
ATOM     73  C   UNL     1       8.659   8.238 -11.441  1.00  0.00     0.023 A 
ATOM     74  C   UNL     1       9.599   8.838 -10.584  1.00  0.00     0.031 A 
ATOM     75  C   UNL     1       7.975   9.056 -12.354  1.00  0.00     0.131 A 
ATOM     76  C   UNL     1       9.754  10.230 -10.589  1.00  0.00     0.055 A 
ATOM     77  C   UNL     1       8.213  10.428 -12.426  1.00  0.00     0.041 A 
ATOM     78  F   UNL     1       7.042   8.540 -13.169  1.00  0.00    -0.206 F 
ATOM     79  C   UNL     1       9.092  11.026 -11.527  1.00  0.00     0.022 A 
BRANCH  76  80
ATOM     80  S   UNL     1      10.677  10.996  -9.230  1.00  0.00     0.124 S 
ATOM     81  O   UNL     1       9.907  10.555  -8.068  1.00  0.00    -0.237 OA
ATOM     82  O   UNL     1      12.003  10.409  -9.377  1.00  0.00    -0.237 OA
ATOM     83  O   UNL     1      10.589  12.426  -9.520  1.00  0.00    -0.744 OA
ENDBRANCH  76  80
ENDBRANCH  59  73
BRANCH  60  84
ATOM     84  C   UNL     1       6.177  -1.361 -10.175  1.00  0.00     0.023 A 
ATOM     85  C   UNL     1       7.064  -2.422 -10.432  1.00  0.00     0.031 A 
ATOM     86  C   UNL     1       4.841  -1.691  -9.878  1.00  0.00     0.131 A 
ATOM     87  C   UNL     1       6.596  -3.749 -10.448  1.00  0.00     0.055 A 
ATOM     88  C   UNL     1       4.392  -3.016  -9.843  1.00  0.00     0.041 A 
ATOM     89  F   UNL     1       3.941  -0.725  -9.639  1.00  0.00    -0.206 F 
ATOM     90  C   UNL     1       5.269  -4.054 -10.143  1.00  0.00     0.022 A 
BRANCH  87  91
ATOM     91  S   UNL     1       7.722  -5.069 -10.988  1.00  0.00     0.124 S 
ATOM     92  O   UNL     1       8.086  -4.619 -12.326  1.00  0.00    -0.237 OA
ATOM     93  O   UNL     1       8.773  -5.001  -9.978  1.00  0.00    -0.237 OA
ATOM     94  O   UNL     1       6.890  -6.270 -10.937  1.00  0.00    -0.744 OA
ENDBRANCH  87  91
ENDBRANCH  60  84
BRANCH  72  95
ATOM     95  C   UNL     1       8.756   2.287 -15.546  1.00  0.00     0.023 A 
ATOM     96  C   UNL     1       7.849   1.836 -16.518  1.00  0.00     0.031 A 
ATOM     97  C   UNL     1      10.112   2.400 -15.910  1.00  0.00     0.131 A 
ATOM     98  C   UNL     1       8.313   1.472 -17.791  1.00  0.00     0.055 A 
ATOM     99  C   UNL     1      10.555   2.111 -17.201  1.00  0.00     0.041 A 
ATOM    100  F   UNL     1      11.027   2.817 -15.020  1.00  0.00    -0.206 F 
ATOM    101  C   UNL     1       9.655   1.633 -18.147  1.00  0.00     0.022 A 
BRANCH  98 102
ATOM    102  S   UNL     1       7.156   0.688 -18.946  1.00  0.00     0.124 S 
ATOM    103  O   UNL     1       6.723  -0.482 -18.190  1.00  0.00    -0.237 OA
ATOM    104  O   UNL     1       6.153   1.730 -19.138  1.00  0.00    -0.237 OA
ATOM    105  O   UNL     1       7.983   0.401 -20.116  1.00  0.00    -0.744 OA
ENDBRANCH  98 102
ENDBRANCH  72  95
ENDBRANCH  46  47
ENDBRANCH  39  41
ENDBRANCH  38  39
ENDBRANCH  37  38
ENDBRANCH  36  37
ENDBRANCH  35  36
ENDBRANCH  34  35
ENDBRANCH   1  34
TORSDOF 26
