REMARK SMILES CC(C)(C)OC(=O)N[C@@H](C(=O)OCCOCCOCCOCCOC(=O)c1ccc(-c2c3nc(c(-c4cc(S(=O)(=O)[O-])ccc4F)c4ccc([nH]4)c(-c4cc(S(=O)(=O)[O-])ccc4F)c4nc(c(-c5cc(S(=O)(=O)[O-])ccc5F)c5ccc2[nH]5)C=C4)C=C3)cc1)c1ccc([N+](=O)[O-])cc1
REMARK SMILES IDX 18 1 17 2 16 3 15 4 14 5 13 6 12 7 10 8 11 9 9 10 8 11 6 12
REMARK SMILES IDX 7 13 5 15 2 16 1 17 3 18 4 19 90 20 91 21 98 22 92 23 97 24
REMARK SMILES IDX 93 25 94 26 95 27 96 28 19 29 20 30 21 31 22 32 23 33 24 34
REMARK SMILES IDX 25 35 26 36 27 37 28 38 89 39 29 40 88 41 30 42 31 43 32 44
REMARK SMILES IDX 82 45 33 46 87 47 81 48 83 49 34 50 86 51 80 52 79 53 35 55
REMARK SMILES IDX 67 56 47 57 66 58 48 59 51 60 65 61 84 62 49 63 50 64 64 66
REMARK SMILES IDX 85 67 52 68 36 69 37 70 45 71 38 72 44 73 46 74 43 75 39 76
REMARK SMILES IDX 40 77 41 78 42 79 68 80 69 81 77 82 70 83 76 84 78 85 75 86
REMARK SMILES IDX 71 87 72 88 73 89 74 90 53 91 54 92 62 93 55 94 61 95 63 96
REMARK SMILES IDX 60 97 56 98 57 99 58 100 59 101
REMARK H PARENT 8 14 83 54 51 65
REMARK Flexibility Score: inf
ROOT
ATOM      1  O   UNL     1       3.866   6.708   0.897  1.00  0.00    -0.377 OA
ENDROOT
BRANCH   1   2
ATOM      2  C   UNL     1       3.020   6.829   2.017  1.00  0.00     0.188 C 
BRANCH   2   3
ATOM      3  C   UNL     1       3.740   6.857   3.379  1.00  0.00     0.188 C 
BRANCH   3   4
ATOM      4  O   UNL     1       5.157   6.805   3.446  1.00  0.00    -0.376 OA
BRANCH   4   5
ATOM      5  C   UNL     1       5.864   5.955   2.553  1.00  0.00     0.202 C 
BRANCH   5   6
ATOM      6  C   UNL     1       5.432   4.485   2.356  1.00  0.00     0.261 C 
BRANCH   6   7
ATOM      7  O   UNL     1       4.014   4.229   2.220  1.00  0.00    -0.461 OA
BRANCH   7   8
ATOM      8  C   UNL     1       3.419   3.496   3.199  1.00  0.00     0.333 C 
ATOM      9  O   UNL     1       4.030   3.003   4.145  1.00  0.00    -0.249 OA
BRANCH   8  10
ATOM     10  C   UNL     1       1.862   3.364   3.059  1.00  0.00     0.226 C 
BRANCH  10  11
ATOM     11  N   UNL     1       1.150   3.971   1.939  1.00  0.00    -0.304 N 
ATOM     12  C   UNL     1       0.778   3.401   0.767  1.00  0.00     0.408 C 
ATOM     13  O   UNL     1       0.117   4.035  -0.040  1.00  0.00    -0.225 OA
ATOM     14  H   UNL     1       0.908   4.918   2.050  1.00  0.00     0.168 HD
BRANCH  12  15
ATOM     15  O   UNL     1       1.131   2.104   0.677  1.00  0.00    -0.444 OA
BRANCH  15  16
ATOM     16  C   UNL     1       0.597   1.289  -0.397  1.00  0.00     0.106 C 
ATOM     17  C   UNL     1       1.127  -0.118  -0.096  1.00  0.00     0.056 C 
ATOM     18  C   UNL     1       1.118   1.740  -1.765  1.00  0.00     0.056 C 
ATOM     19  C   UNL     1      -0.937   1.252  -0.353  1.00  0.00     0.056 C 
ENDBRANCH  15  16
ENDBRANCH  12  15
ENDBRANCH  10  11
BRANCH  10  20
ATOM     20  C   UNL     1       1.194   3.811   4.369  1.00  0.00    -0.014 A 
ATOM     21  C   UNL     1       0.922   5.164   4.657  1.00  0.00     0.013 A 
ATOM     22  C   UNL     1       0.901   2.850   5.348  1.00  0.00     0.013 A 
ATOM     23  C   UNL     1       0.424   5.554   5.902  1.00  0.00     0.086 A 
ATOM     24  C   UNL     1       0.378   3.226   6.588  1.00  0.00     0.086 A 
ATOM     25  C   UNL     1       0.158   4.580   6.866  1.00  0.00     0.269 A 
BRANCH  25  26
ATOM     26  N   UNL     1      -0.353   4.981   8.180  1.00  0.00     0.062 N 
ATOM     27  O   UNL     1      -0.388   6.192   8.442  1.00  0.00    -0.258 OA
ATOM     28  O   UNL     1      -0.725   4.085   8.952  1.00  0.00    -0.258 OA
ENDBRANCH  25  26
ENDBRANCH  10  20
ENDBRANCH   8  10
ENDBRANCH   7   8
ENDBRANCH   6   7
ENDBRANCH   5   6
ENDBRANCH   4   5
ENDBRANCH   3   4
ENDBRANCH   2   3
ENDBRANCH   1   2
BRANCH   1  29
ATOM     29  C   UNL     1       4.173   7.914   0.219  1.00  0.00     0.188 C 
BRANCH  29  30
ATOM     30  C   UNL     1       4.419   9.159   1.091  1.00  0.00     0.188 C 
BRANCH  30  31
ATOM     31  O   UNL     1       3.341   9.458   1.978  1.00  0.00    -0.376 OA
BRANCH  31  32
ATOM     32  C   UNL     1       2.390  10.437   1.582  1.00  0.00     0.202 C 
BRANCH  32  33
ATOM     33  C   UNL     1       1.437  10.079   0.427  1.00  0.00     0.261 C 
BRANCH  33  34
ATOM     34  O   UNL     1       2.037   9.769  -0.839  1.00  0.00    -0.460 OA
BRANCH  34  35
ATOM     35  C   UNL     1       2.878  10.674  -1.387  1.00  0.00     0.338 C 
ATOM     36  O   UNL     1       3.133  11.782  -0.957  1.00  0.00    -0.246 OA
BRANCH  35  37
ATOM     37  C   UNL     1       3.612   9.994  -2.480  1.00  0.00     0.060 A 
ATOM     38  C   UNL     1       5.012   9.933  -2.420  1.00  0.00     0.016 A 
ATOM     39  C   UNL     1       2.926   9.389  -3.535  1.00  0.00     0.016 A 
ATOM     40  C   UNL     1       5.730   9.288  -3.428  1.00  0.00     0.010 A 
ATOM     41  C   UNL     1       3.649   8.772  -4.561  1.00  0.00     0.010 A 
ATOM     42  C   UNL     1       5.055   8.743  -4.527  1.00  0.00    -0.014 A 
BRANCH  42  43
ATOM     43  C   UNL     1       5.815   8.348  -5.740  1.00  0.00     0.031 A 
ATOM     44  C   UNL     1       5.912   9.345  -6.863  1.00  0.00     0.074 A 
ATOM     45  C   UNL     1       6.424   7.152  -5.840  1.00  0.00     0.049 A 
ATOM     46  N   UNL     1       6.428   9.210  -8.056  1.00  0.00    -0.248 NA
ATOM     47  C   UNL     1       5.343  10.677  -6.598  1.00  0.00     0.031 C 
ATOM     48  C   UNL     1       6.460   6.131  -4.795  1.00  0.00     0.029 A 
ATOM     49  N   UNL     1       7.122   6.591  -6.882  1.00  0.00    -0.354 N 
ATOM     50  C   UNL     1       6.251  10.439  -8.684  1.00  0.00     0.074 A 
ATOM     51  C   UNL     1       5.538  11.289  -7.755  1.00  0.00     0.031 C 
ATOM     52  C   UNL     1       7.129   5.059  -5.257  1.00  0.00     0.029 A 
ATOM     53  C   UNL     1       7.526   5.297  -6.645  1.00  0.00     0.049 A 
ATOM     54  H   UNL     1       7.314   7.070  -7.720  1.00  0.00     0.167 HD
ATOM     55  C   UNL     1       6.658  10.828  -9.916  1.00  0.00     0.034 A 
ATOM     56  C   UNL     1       8.111   4.401  -7.468  1.00  0.00     0.034 A 
ATOM     57  C   UNL     1       7.346   9.963 -10.840  1.00  0.00     0.049 A 
ATOM     58  C   UNL     1       8.435   4.814  -8.889  1.00  0.00     0.074 A 
ATOM     59  C   UNL     1       7.784  10.245 -12.122  1.00  0.00     0.029 A 
ATOM     60  N   UNL     1       7.689   8.641 -10.586  1.00  0.00    -0.354 N 
ATOM     61  N   UNL     1       8.252   5.976  -9.477  1.00  0.00    -0.248 NA
ATOM     62  C   UNL     1       9.046   3.797  -9.757  1.00  0.00     0.031 C 
ATOM     63  C   UNL     1       8.323   9.076 -12.668  1.00  0.00     0.029 A 
ATOM     64  C   UNL     1       8.304   8.087 -11.697  1.00  0.00     0.049 A 
ATOM     65  H   UNL     1       7.520   8.167  -9.740  1.00  0.00     0.167 HD
ATOM     66  C   UNL     1       8.764   5.835 -10.766  1.00  0.00     0.074 A 
ATOM     67  C   UNL     1       9.275   4.484 -10.865  1.00  0.00     0.031 C 
ATOM     68  C   UNL     1       8.813   6.739 -11.778  1.00  0.00     0.034 A 
BRANCH  55  69
ATOM     69  C   UNL     1       6.327  12.236 -10.342  1.00  0.00     0.023 A 
ATOM     70  C   UNL     1       6.866  13.351  -9.677  1.00  0.00     0.031 A 
ATOM     71  C   UNL     1       5.446  12.470 -11.412  1.00  0.00     0.131 A 
ATOM     72  C   UNL     1       6.468  14.645 -10.044  1.00  0.00     0.055 A 
ATOM     73  C   UNL     1       5.118  13.761 -11.827  1.00  0.00     0.041 A 
ATOM     74  F   UNL     1       4.879  11.444 -12.067  1.00  0.00    -0.206 F 
ATOM     75  C   UNL     1       5.620  14.859 -11.133  1.00  0.00     0.022 A 
BRANCH  72  76
ATOM     76  S   UNL     1       6.965  16.034  -8.990  1.00  0.00     0.124 S 
ATOM     77  O   UNL     1       6.377  15.655  -7.707  1.00  0.00    -0.237 OA
ATOM     78  O   UNL     1       8.420  15.984  -9.066  1.00  0.00    -0.237 OA
ATOM     79  O   UNL     1       6.345  17.191  -9.634  1.00  0.00    -0.744 OA
ENDBRANCH  72  76
ENDBRANCH  55  69
BRANCH  56  80
ATOM     80  C   UNL     1       8.381   3.003  -7.014  1.00  0.00     0.023 A 
ATOM     81  C   UNL     1       9.681   2.472  -7.027  1.00  0.00     0.031 A 
ATOM     82  C   UNL     1       7.326   2.141  -6.660  1.00  0.00     0.131 A 
ATOM     83  C   UNL     1       9.884   1.107  -6.763  1.00  0.00     0.055 A 
ATOM     84  C   UNL     1       7.543   0.802  -6.329  1.00  0.00     0.041 A 
ATOM     85  F   UNL     1       6.060   2.587  -6.642  1.00  0.00    -0.206 F 
ATOM     86  C   UNL     1       8.827   0.273  -6.398  1.00  0.00     0.022 A 
BRANCH  83  87
ATOM     87  S   UNL     1      11.536   0.408  -7.042  1.00  0.00     0.124 S 
ATOM     88  O   UNL     1      11.774   0.762  -8.436  1.00  0.00    -0.237 OA
ATOM     89  O   UNL     1      12.336   1.120  -6.051  1.00  0.00    -0.237 OA
ATOM     90  O   UNL     1      11.349  -1.018  -6.782  1.00  0.00    -0.744 OA
ENDBRANCH  83  87
ENDBRANCH  56  80
BRANCH  68  91
ATOM     91  C   UNL     1       9.496   6.317 -13.058  1.00  0.00     0.023 A 
ATOM     92  C   UNL     1       8.970   5.310 -13.886  1.00  0.00     0.031 A 
ATOM     93  C   UNL     1      10.690   6.945 -13.459  1.00  0.00     0.131 A 
ATOM     94  C   UNL     1       9.663   4.925 -15.044  1.00  0.00     0.055 A 
ATOM     95  C   UNL     1      11.339   6.603 -14.645  1.00  0.00     0.041 A 
ATOM     96  F   UNL     1      11.239   7.912 -12.707  1.00  0.00    -0.206 F 
ATOM     97  C   UNL     1      10.833   5.579 -15.440  1.00  0.00     0.022 A 
BRANCH  94  98
ATOM     98  S   UNL     1       9.062   3.496 -15.986  1.00  0.00     0.124 S 
ATOM     99  O   UNL     1       9.109   2.433 -14.987  1.00  0.00    -0.237 OA
ATOM    100  O   UNL     1       7.729   3.929 -16.393  1.00  0.00    -0.237 OA
ATOM    101  O   UNL     1      10.031   3.369 -17.073  1.00  0.00    -0.744 OA
ENDBRANCH  94  98
ENDBRANCH  68  91
ENDBRANCH  42  43
ENDBRANCH  35  37
ENDBRANCH  34  35
ENDBRANCH  33  34
ENDBRANCH  32  33
ENDBRANCH  31  32
ENDBRANCH  30  31
ENDBRANCH  29  30
ENDBRANCH   1  29
TORSDOF 28
