REMARK SMILES O=C(OCCOCCOCCOCCOC(=O)c1ccc(-c2c3nc(c(-c4cc(S(=O)(=O)[O-])ccc4F)c4ccc([nH]4)c(-c4cc(S(=O)(=O)[O-])ccc4F)c4nc(c(-c5cc(S(=O)(=O)[O-])ccc5F)c5ccc2[nH]5)C=C4)C=C3)cc1)C1=Cc2cc(Cl)cc(-c3ccc(Cl)cc3)c2O[C@@H]1C(F)(F)F
REMARK SMILES IDX 10 1 9 2 8 3 7 4 6 5 5 6 4 7 3 8 2 9 1 10 81 11 82 12 98 13
REMARK SMILES IDX 83 14 97 15 84 16 96 17 85 18 88 19 86 20 87 21 99 22 100 23
REMARK SMILES IDX 101 24 102 25 89 26 90 27 95 28 91 29 94 30 92 31 93 32
REMARK SMILES IDX 11 33 12 34 13 35 14 36 15 37 16 38 17 39 18 40 19 41 80 42
REMARK SMILES IDX 20 43 79 44 21 45 22 46 23 47 73 48 24 49 78 50 72 51 74 52
REMARK SMILES IDX 25 53 77 54 71 55 70 56 26 58 58 59 38 60 57 61 39 62 42 63
REMARK SMILES IDX 56 64 75 65 40 66 41 67 55 69 76 70 43 71 27 72 28 73 36 74
REMARK SMILES IDX 29 75 35 76 37 77 34 78 30 79 31 80 32 81 33 82 59 83 60 84
REMARK SMILES IDX 68 85 61 86 67 87 69 88 66 89 62 90 63 91 64 92 65 93 44 94
REMARK SMILES IDX 45 95 53 96 46 97 52 98 54 99 51 100 47 101 48 102 49 103
REMARK SMILES IDX 50 104
REMARK H PARENT 74 57 42 68
REMARK Flexibility Score: inf
ROOT
ATOM      1  C   UNL     1       3.662  -2.712   2.870  1.00  0.00     0.188 C 
ENDROOT
BRANCH   1   2
ATOM      2  O   UNL     1       2.354  -3.186   2.650  1.00  0.00    -0.377 OA
BRANCH   2   3
ATOM      3  C   UNL     1       1.689  -2.355   1.740  1.00  0.00     0.188 C 
BRANCH   3   4
ATOM      4  C   UNL     1       2.241  -2.512   0.332  1.00  0.00     0.188 C 
BRANCH   4   5
ATOM      5  O   UNL     1       3.584  -2.153  -0.129  1.00  0.00    -0.376 OA
BRANCH   5   6
ATOM      6  C   UNL     1       4.374  -0.772  -0.565  1.00  0.00     0.202 C 
BRANCH   6   7
ATOM      7  C   UNL     1       3.663   1.281  -0.343  1.00  0.00     0.261 C 
BRANCH   7   8
ATOM      8  O   UNL     1       2.750   2.029  -1.307  1.00  0.00    -0.460 OA
BRANCH   8   9
ATOM      9  C   UNL     1       2.949   1.671  -2.581  1.00  0.00     0.338 C 
ATOM     10  O   UNL     1       2.299   1.962  -3.555  1.00  0.00    -0.246 OA
BRANCH   9  11
ATOM     11  C   UNL     1       3.800   0.529  -2.303  1.00  0.00     0.087 C 
ATOM     12  C   UNL     1       5.179   0.868  -1.977  1.00  0.00     0.027 C 
ATOM     13  C   UNL     1       2.547  -0.270  -1.086  1.00  0.00     0.316 C 
ATOM     14  C   UNL     1       5.865   0.819  -0.318  1.00  0.00     0.019 A 
ATOM     15  O   UNL     1       3.212  -0.199   0.757  1.00  0.00    -0.475 OA
ATOM     16  C   UNL     1       7.174   1.201  -0.180  1.00  0.00     0.032 A 
ATOM     17  C   UNL     1       4.914   0.442   1.091  1.00  0.00     0.135 A 
ATOM     18  C   UNL     1       7.646   1.256   1.132  1.00  0.00     0.042 A 
ATOM     19  C   UNL     1       5.459   0.637   2.365  1.00  0.00     0.026 A 
ATOM     20  Cl  UNL     1       9.309   1.687   1.356  1.00  0.00    -0.084 Cl
ATOM     21  C   UNL     1       6.847   1.009   2.308  1.00  0.00     0.033 A 
BRANCH  13  22
ATOM     22  C   UNL     1       2.301  -1.519  -2.240  1.00  0.00     0.430 C 
ATOM     23  F   UNL     1       1.468  -2.543  -1.980  1.00  0.00    -0.167 F 
ATOM     24  F   UNL     1       1.713  -0.915  -3.325  1.00  0.00    -0.167 F 
ATOM     25  F   UNL     1       3.441  -2.061  -2.744  1.00  0.00    -0.167 F 
ENDBRANCH  13  22
BRANCH  19  26
ATOM     26  C   UNL     1       4.881   0.594   3.708  1.00  0.00    -0.015 A 
ATOM     27  C   UNL     1       4.521   1.747   4.425  1.00  0.00     0.010 A 
ATOM     28  C   UNL     1       4.892  -0.584   4.435  1.00  0.00     0.010 A 
ATOM     29  C   UNL     1       3.985   1.667   5.724  1.00  0.00     0.021 A 
ATOM     30  C   UNL     1       4.187  -0.699   5.631  1.00  0.00     0.021 A 
ATOM     31  C   UNL     1       3.737   0.427   6.287  1.00  0.00     0.041 A 
ATOM     32  Cl  UNL     1       2.954   0.265   7.806  1.00  0.00    -0.084 Cl
ENDBRANCH  19  26
ENDBRANCH   9  11
ENDBRANCH   8   9
ENDBRANCH   7   8
ENDBRANCH   6   7
ENDBRANCH   5   6
ENDBRANCH   4   5
ENDBRANCH   3   4
ENDBRANCH   2   3
ENDBRANCH   1   2
BRANCH   1  33
ATOM     33  C   UNL     1       4.801  -3.500   2.231  1.00  0.00     0.188 C 
BRANCH  33  34
ATOM     34  O   UNL     1       4.359  -4.484   1.327  1.00  0.00    -0.376 OA
BRANCH  34  35
ATOM     35  C   UNL     1       3.907  -5.723   1.856  1.00  0.00     0.202 C 
BRANCH  35  36
ATOM     36  C   UNL     1       3.162  -5.834   3.206  1.00  0.00     0.261 C 
BRANCH  36  37
ATOM     37  O   UNL     1       3.739  -5.198   4.365  1.00  0.00    -0.460 OA
BRANCH  37  38
ATOM     38  C   UNL     1       5.014  -5.489   4.710  1.00  0.00     0.338 C 
ATOM     39  O   UNL     1       5.742  -6.299   4.166  1.00  0.00    -0.246 OA
BRANCH  38  40
ATOM     40  C   UNL     1       5.459  -4.468   5.702  1.00  0.00     0.060 A 
ATOM     41  C   UNL     1       6.677  -3.797   5.501  1.00  0.00     0.016 A 
ATOM     42  C   UNL     1       4.663  -4.134   6.799  1.00  0.00     0.016 A 
ATOM     43  C   UNL     1       7.118  -2.819   6.408  1.00  0.00     0.010 A 
ATOM     44  C   UNL     1       5.103  -3.156   7.705  1.00  0.00     0.010 A 
ATOM     45  C   UNL     1       6.353  -2.513   7.540  1.00  0.00    -0.014 A 
BRANCH  45  46
ATOM     46  C   UNL     1       6.953  -1.781   8.699  1.00  0.00     0.031 A 
ATOM     47  C   UNL     1       7.317  -2.627   9.894  1.00  0.00     0.074 A 
ATOM     48  C   UNL     1       7.190  -0.451   8.737  1.00  0.00     0.049 A 
ATOM     49  N   UNL     1       7.831  -2.278  11.043  1.00  0.00    -0.248 NA
ATOM     50  C   UNL     1       7.053  -4.071   9.770  1.00  0.00     0.031 C 
ATOM     51  C   UNL     1       6.967   0.494   7.647  1.00  0.00     0.029 A 
ATOM     52  N   UNL     1       7.668   0.345   9.757  1.00  0.00    -0.354 N 
ATOM     53  C   UNL     1       7.956  -3.460  11.764  1.00  0.00     0.074 A 
ATOM     54  C   UNL     1       7.354  -4.508  10.977  1.00  0.00     0.031 C 
ATOM     55  C   UNL     1       7.252   1.741   8.068  1.00  0.00     0.029 A 
ATOM     56  C   UNL     1       7.707   1.691   9.455  1.00  0.00     0.049 A 
ATOM     57  H   UNL     1       7.957  -0.016  10.626  1.00  0.00     0.167 HD
ATOM     58  C   UNL     1       8.573  -3.676  12.948  1.00  0.00     0.034 A 
ATOM     59  C   UNL     1       8.080   2.755  10.202  1.00  0.00     0.034 A 
ATOM     60  C   UNL     1       9.162  -2.632  13.738  1.00  0.00     0.049 A 
ATOM     61  C   UNL     1       8.633   2.515  11.591  1.00  0.00     0.074 A 
ATOM     62  C   UNL     1       9.832  -2.742  14.942  1.00  0.00     0.029 A 
ATOM     63  N   UNL     1       9.130  -1.282  13.417  1.00  0.00    -0.354 N 
ATOM     64  N   UNL     1       8.812   1.379  12.227  1.00  0.00    -0.248 NA
ATOM     65  C   UNL     1       9.080   3.696  12.344  1.00  0.00     0.031 C 
ATOM     66  C   UNL     1      10.110  -1.452  15.400  1.00  0.00     0.029 A 
ATOM     67  C   UNL     1       9.723  -0.544  14.427  1.00  0.00     0.049 A 
ATOM     68  H   UNL     1       8.742  -0.906  12.594  1.00  0.00     0.167 HD
ATOM     69  C   UNL     1       9.460   1.707  13.418  1.00  0.00     0.074 A 
ATOM     70  C   UNL     1       9.634   3.144  13.412  1.00  0.00     0.031 C 
ATOM     71  C   UNL     1       9.894   0.890  14.414  1.00  0.00     0.034 A 
BRANCH  58  72
ATOM     72  C   UNL     1       8.587  -5.096  13.456  1.00  0.00     0.023 A 
ATOM     73  C   UNL     1       9.197  -6.134  12.726  1.00  0.00     0.031 A 
ATOM     74  C   UNL     1       7.902  -5.432  14.634  1.00  0.00     0.131 A 
ATOM     75  C   UNL     1       9.015  -7.465  13.124  1.00  0.00     0.055 A 
ATOM     76  C   UNL     1       7.819  -6.750  15.083  1.00  0.00     0.041 A 
ATOM     77  F   UNL     1       7.272  -4.488  15.352  1.00  0.00    -0.206 F 
ATOM     78  C   UNL     1       8.358  -7.779  14.316  1.00  0.00     0.022 A 
BRANCH  75  79
ATOM     79  S   UNL     1       9.469  -8.783  11.962  1.00  0.00     0.124 S 
ATOM     80  O   UNL     1       8.639  -8.452  10.805  1.00  0.00    -0.237 OA
ATOM     81  O   UNL     1      10.903  -8.581  11.798  1.00  0.00    -0.237 OA
ATOM     82  O   UNL     1       9.085 -10.006  12.665  1.00  0.00    -0.744 OA
ENDBRANCH  75  79
ENDBRANCH  58  72
BRANCH  59  83
ATOM     83  C   UNL     1       7.987   4.154   9.673  1.00  0.00     0.023 A 
ATOM     84  C   UNL     1       9.136   4.949   9.504  1.00  0.00     0.031 A 
ATOM     85  C   UNL     1       6.739   4.756   9.429  1.00  0.00     0.131 A 
ATOM     86  C   UNL     1       9.012   6.308   9.168  1.00  0.00     0.055 A 
ATOM     87  C   UNL     1       6.624   6.096   9.042  1.00  0.00     0.041 A 
ATOM     88  F   UNL     1       5.605   4.053   9.579  1.00  0.00    -0.206 F 
ATOM     89  C   UNL     1       7.765   6.884   8.924  1.00  0.00     0.022 A 
BRANCH  86  90
ATOM     90  S   UNL     1      10.503   7.346   9.162  1.00  0.00     0.124 S 
ATOM     91  O   UNL     1      10.977   7.191  10.532  1.00  0.00    -0.237 OA
ATOM     92  O   UNL     1      11.309   6.708   8.126  1.00  0.00    -0.237 OA
ATOM     93  O   UNL     1       9.993   8.672   8.821  1.00  0.00    -0.744 OA
ENDBRANCH  86  90
ENDBRANCH  59  83
BRANCH  71  94
ATOM     94  C   UNL     1      10.672   1.516  15.548  1.00  0.00     0.023 A 
ATOM     95  C   UNL     1      10.107   2.473  16.407  1.00  0.00     0.031 A 
ATOM     96  C   UNL     1      12.012   1.144  15.769  1.00  0.00     0.131 A 
ATOM     97  C   UNL     1      10.898   3.079  17.394  1.00  0.00     0.055 A 
ATOM     98  C   UNL     1      12.766   1.684  16.811  1.00  0.00     0.041 A 
ATOM     99  F   UNL     1      12.611   0.239  14.978  1.00  0.00    -0.206 F 
ATOM    100  C   UNL     1      12.215   2.672  17.619  1.00  0.00     0.022 A 
BRANCH  97 101
ATOM    101  S   UNL     1      10.225   4.505  18.289  1.00  0.00     0.124 S 
ATOM    102  O   UNL     1       9.879   5.410  17.197  1.00  0.00    -0.237 OA
ATOM    103  O   UNL     1       9.100   3.919  19.011  1.00  0.00    -0.237 OA
ATOM    104  O   UNL     1      11.340   4.942  19.127  1.00  0.00    -0.744 OA
ENDBRANCH  97 101
ENDBRANCH  71  94
ENDBRANCH  45  46
ENDBRANCH  38  40
ENDBRANCH  37  38
ENDBRANCH  36  37
ENDBRANCH  35  36
ENDBRANCH  34  35
ENDBRANCH  33  34
ENDBRANCH   1  33
TORSDOF 25
