REMARK SMILES Cc1ccc2c(c1C)O[C@@H](C(=O)OCCOCCOCCOCCOC(=O)c1ccc(-c3c4nc(c(-c5cc(S(=O)(=O)[O-])ccc5F)c5ccc([nH]5)c(-c5cc(S(=O)(=O)[O-])ccc5F)c5nc(c(-c6cc(S(=O)(=O)[O-])ccc6F)c6ccc3[nH]6)C=C5)C=C4)cc1)CC2=O
REMARK SMILES IDX 20 1 19 2 18 3 17 4 16 5 15 6 14 7 13 8 11 9 12 10 10 11
REMARK SMILES IDX 1 12 2 13 3 14 7 15 4 16 6 17 8 18 5 19 9 20 92 21 91 22
REMARK SMILES IDX 93 23 21 24 22 25 23 26 24 27 25 28 26 29 27 30 28 31 29 32
REMARK SMILES IDX 90 33 30 34 89 35 31 36 32 37 33 38 83 39 34 40 88 41 82 42
REMARK SMILES IDX 84 43 35 44 87 45 81 46 80 47 36 49 68 50 48 51 67 52 49 53
REMARK SMILES IDX 52 54 66 55 85 56 50 57 51 58 65 60 86 61 53 62 37 63 38 64
REMARK SMILES IDX 46 65 39 66 45 67 47 68 44 69 40 70 41 71 42 72 43 73 69 74
REMARK SMILES IDX 70 75 78 76 71 77 77 78 79 79 76 80 72 81 73 82 74 83 75 84
REMARK SMILES IDX 54 85 55 86 63 87 56 88 62 89 64 90 61 91 57 92 58 93 59 94
REMARK SMILES IDX 60 95
REMARK H PARENT 84 48 52 59
REMARK Flexibility Score: inf
ROOT
ATOM      1  C   UNL     1      -3.960   6.934   1.100  1.00  0.00     0.188 C 
ENDROOT
BRANCH   1   2
ATOM      2  O   UNL     1      -2.646   6.696   0.619  1.00  0.00    -0.377 OA
BRANCH   2   3
ATOM      3  C   UNL     1      -1.834   7.819   0.374  1.00  0.00     0.188 C 
BRANCH   3   4
ATOM      4  C   UNL     1      -1.746   8.254  -1.093  1.00  0.00     0.188 C 
BRANCH   4   5
ATOM      5  O   UNL     1      -2.602   7.698  -2.078  1.00  0.00    -0.376 OA
BRANCH   5   6
ATOM      6  C   UNL     1      -2.950   6.320  -2.056  1.00  0.00     0.202 C 
BRANCH   6   7
ATOM      7  C   UNL     1      -1.884   5.215  -1.915  1.00  0.00     0.261 C 
BRANCH   7   8
ATOM      8  O   UNL     1      -0.992   5.289  -0.782  1.00  0.00    -0.460 OA
BRANCH   8   9
ATOM      9  C   UNL     1       0.275   5.699  -1.027  1.00  0.00     0.347 C 
ATOM     10  O   UNL     1       0.670   6.072  -2.130  1.00  0.00    -0.248 OA
BRANCH   9  11
ATOM     11  C   UNL     1       1.236   5.570   0.173  1.00  0.00     0.290 C 
ATOM     12  C   UNL     1       0.779  -0.470   0.033  1.00  0.00     0.045 C 
ATOM     13  C   UNL     1       0.554   0.928   0.535  1.00  0.00    -0.044 A 
ATOM     14  C   UNL     1      -0.418   1.137   1.533  1.00  0.00     0.005 A 
ATOM     15  C   UNL     1       1.288   2.019   0.033  1.00  0.00    -0.005 A 
ATOM     16  C   UNL     1      -0.653   2.409   2.053  1.00  0.00     0.016 A 
ATOM     17  C   UNL     1       1.066   3.285   0.587  1.00  0.00     0.134 A 
ATOM     18  C   UNL     1       2.274   1.906  -1.100  1.00  0.00     0.049 C 
ATOM     19  C   UNL     1       0.103   3.478   1.586  1.00  0.00     0.060 A 
ATOM     20  O   UNL     1       1.869   4.295   0.110  1.00  0.00    -0.477 OA
ATOM     21  C   UNL     1      -0.064   4.827   2.154  1.00  0.00     0.170 C 
ATOM     22  C   UNL     1       0.865   5.871   1.615  1.00  0.00     0.138 C 
ATOM     23  O   UNL     1      -0.833   5.060   3.080  1.00  0.00    -0.294 OA
ENDBRANCH   9  11
ENDBRANCH   8   9
ENDBRANCH   7   8
ENDBRANCH   6   7
ENDBRANCH   5   6
ENDBRANCH   4   5
ENDBRANCH   3   4
ENDBRANCH   2   3
ENDBRANCH   1   2
BRANCH   1  24
ATOM     24  C   UNL     1      -4.686   8.185   0.570  1.00  0.00     0.188 C 
BRANCH  24  25
ATOM     25  O   UNL     1      -3.953   9.391   0.752  1.00  0.00    -0.376 OA
BRANCH  25  26
ATOM     26  C   UNL     1      -4.216  10.170   1.911  1.00  0.00     0.202 C 
BRANCH  26  27
ATOM     27  C   UNL     1      -3.910   9.565   3.292  1.00  0.00     0.261 C 
BRANCH  27  28
ATOM     28  O   UNL     1      -4.594   8.355   3.651  1.00  0.00    -0.460 OA
BRANCH  28  29
ATOM     29  C   UNL     1      -5.940   8.319   3.602  1.00  0.00     0.338 C 
ATOM     30  O   UNL     1      -6.690   9.245   3.344  1.00  0.00    -0.246 OA
BRANCH  29  31
ATOM     31  C   UNL     1      -6.345   6.901   3.716  1.00  0.00     0.060 A 
ATOM     32  C   UNL     1      -6.966   6.276   2.626  1.00  0.00     0.016 A 
ATOM     33  C   UNL     1      -6.105   6.191   4.894  1.00  0.00     0.016 A 
ATOM     34  C   UNL     1      -7.372   4.945   2.719  1.00  0.00     0.010 A 
ATOM     35  C   UNL     1      -6.552   4.871   5.003  1.00  0.00     0.010 A 
ATOM     36  C   UNL     1      -7.219   4.257   3.929  1.00  0.00    -0.014 A 
BRANCH  36  37
ATOM     37  C   UNL     1      -7.995   3.015   4.155  1.00  0.00     0.031 A 
ATOM     38  C   UNL     1      -9.376   3.154   4.733  1.00  0.00     0.074 A 
ATOM     39  C   UNL     1      -7.509   1.802   3.842  1.00  0.00     0.049 A 
ATOM     40  N   UNL     1     -10.242   2.227   5.042  1.00  0.00    -0.248 NA
ATOM     41  C   UNL     1      -9.844   4.527   4.993  1.00  0.00     0.031 C 
ATOM     42  C   UNL     1      -6.207   1.546   3.232  1.00  0.00     0.029 A 
ATOM     43  N   UNL     1      -8.060   0.554   4.004  1.00  0.00    -0.354 N 
ATOM     44  C   UNL     1     -11.355   2.902   5.529  1.00  0.00     0.074 A 
ATOM     45  C   UNL     1     -11.045   4.313   5.507  1.00  0.00     0.031 C 
ATOM     46  C   UNL     1      -6.053   0.218   3.085  1.00  0.00     0.029 A 
ATOM     47  C   UNL     1      -7.230  -0.471   3.618  1.00  0.00     0.049 A 
ATOM     48  H   UNL     1      -8.965   0.407   4.363  1.00  0.00     0.167 HD
ATOM     49  C   UNL     1     -12.534   2.391   5.947  1.00  0.00     0.034 A 
ATOM     50  C   UNL     1      -7.395  -1.809   3.701  1.00  0.00     0.034 A 
ATOM     51  C   UNL     1     -12.830   0.986   5.981  1.00  0.00     0.049 A 
ATOM     52  C   UNL     1      -8.691  -2.364   4.246  1.00  0.00     0.074 A 
ATOM     53  C   UNL     1     -14.002   0.372   6.383  1.00  0.00     0.029 A 
ATOM     54  N   UNL     1     -11.955  -0.022   5.606  1.00  0.00    -0.354 N 
ATOM     55  N   UNL     1      -9.755  -1.716   4.661  1.00  0.00    -0.248 NA
ATOM     56  C   UNL     1      -8.818  -3.827   4.328  1.00  0.00     0.031 C 
ATOM     57  C   UNL     1     -13.814  -1.007   6.313  1.00  0.00     0.029 A 
ATOM     58  C   UNL     1     -12.553  -1.255   5.793  1.00  0.00     0.049 A 
ATOM     59  H   UNL     1     -11.044   0.119   5.260  1.00  0.00     0.167 HD
ATOM     60  C   UNL     1     -10.686  -2.689   5.016  1.00  0.00     0.074 A 
ATOM     61  C   UNL     1     -10.065  -3.971   4.761  1.00  0.00     0.031 C 
ATOM     62  C   UNL     1     -11.942  -2.531   5.505  1.00  0.00     0.034 A 
BRANCH  49  63
ATOM     63  C   UNL     1     -13.602   3.344   6.408  1.00  0.00     0.023 A 
ATOM     64  C   UNL     1     -14.027   3.324   7.748  1.00  0.00     0.031 A 
ATOM     65  C   UNL     1     -14.280   4.178   5.502  1.00  0.00     0.131 A 
ATOM     66  C   UNL     1     -15.130   4.091   8.136  1.00  0.00     0.055 A 
ATOM     67  C   UNL     1     -15.353   4.973   5.903  1.00  0.00     0.041 A 
ATOM     68  F   UNL     1     -13.900   4.238   4.215  1.00  0.00    -0.206 F 
ATOM     69  C   UNL     1     -15.791   4.920   7.223  1.00  0.00     0.022 A 
BRANCH  66  70
ATOM     70  S   UNL     1     -15.776   4.005   9.827  1.00  0.00     0.124 S 
ATOM     71  O   UNL     1     -15.780   5.412  10.221  1.00  0.00    -0.237 OA
ATOM     72  O   UNL     1     -17.093   3.411   9.618  1.00  0.00    -0.237 OA
ATOM     73  O   UNL     1     -14.808   3.170  10.530  1.00  0.00    -0.744 OA
ENDBRANCH  66  70
ENDBRANCH  49  63
BRANCH  50  74
ATOM     74  C   UNL     1      -6.308  -2.705   3.212  1.00  0.00     0.023 A 
ATOM     75  C   UNL     1      -5.041  -2.705   3.823  1.00  0.00     0.031 A 
ATOM     76  C   UNL     1      -6.493  -3.505   2.072  1.00  0.00     0.131 A 
ATOM     77  C   UNL     1      -3.991  -3.435   3.250  1.00  0.00     0.055 A 
ATOM     78  C   UNL     1      -5.462  -4.285   1.545  1.00  0.00     0.041 A 
ATOM     79  F   UNL     1      -7.683  -3.534   1.452  1.00  0.00    -0.206 F 
ATOM     80  C   UNL     1      -4.198  -4.240   2.126  1.00  0.00     0.022 A 
BRANCH  77  81
ATOM     81  S   UNL     1      -2.301  -3.285   3.890  1.00  0.00     0.124 S 
ATOM     82  O   UNL     1      -1.901  -4.681   4.041  1.00  0.00    -0.237 OA
ATOM     83  O   UNL     1      -1.643  -2.552   2.810  1.00  0.00    -0.237 OA
ATOM     84  O   UNL     1      -2.469  -2.543   5.135  1.00  0.00    -0.744 OA
ENDBRANCH  77  81
ENDBRANCH  50  74
BRANCH  62  85
ATOM     85  C   UNL     1     -12.785  -3.752   5.783  1.00  0.00     0.023 A 
ATOM     86  C   UNL     1     -13.985  -3.943   5.070  1.00  0.00     0.031 A 
ATOM     87  C   UNL     1     -12.510  -4.604   6.865  1.00  0.00     0.131 A 
ATOM     88  C   UNL     1     -14.892  -4.928   5.481  1.00  0.00     0.055 A 
ATOM     89  C   UNL     1     -13.396  -5.616   7.241  1.00  0.00     0.041 A 
ATOM     90  F   UNL     1     -11.386  -4.453   7.582  1.00  0.00    -0.206 F 
ATOM     91  C   UNL     1     -14.600  -5.770   6.559  1.00  0.00     0.022 A 
BRANCH  88  92
ATOM     92  S   UNL     1     -16.515  -5.095   4.688  1.00  0.00     0.124 S 
ATOM     93  O   UNL     1     -16.513  -6.500   4.285  1.00  0.00    -0.237 OA
ATOM     94  O   UNL     1     -17.425  -4.760   5.779  1.00  0.00    -0.237 OA
ATOM     95  O   UNL     1     -16.469  -4.137   3.588  1.00  0.00    -0.744 OA
ENDBRANCH  88  92
ENDBRANCH  62  85
ENDBRANCH  36  37
ENDBRANCH  29  31
ENDBRANCH  28  29
ENDBRANCH  27  28
ENDBRANCH  26  27
ENDBRANCH  25  26
ENDBRANCH  24  25
ENDBRANCH   1  24
TORSDOF 23
