REMARK SMILES O=C(OCCOCCOCCOCCOC(=O)c1ccc(-c2c3nc(c(-c4cc(S(=O)(=O)[O-])ccc4F)c4ccc([nH]4)c(-c4cc(S(=O)(=O)[O-])ccc4F)c4nc(c(-c5cc(S(=O)(=O)[O-])ccc5F)c5ccc2[nH]5)C=C4)C=C3)cc1)C1=Cc2cc(Cl)cc(Cl)c2O[C@@H]1C(F)(F)F
REMARK SMILES IDX 10 1 9 2 8 3 7 4 6 5 5 6 4 7 3 8 2 9 1 10 81 11 82 12 92 13
REMARK SMILES IDX 83 14 91 15 84 16 90 17 85 18 88 19 86 20 87 21 89 22 93 23
REMARK SMILES IDX 94 24 95 25 96 26 11 27 12 28 13 29 14 30 15 31 16 32 17 33
REMARK SMILES IDX 18 34 19 35 80 36 20 37 79 38 21 39 22 40 23 41 73 42 24 43
REMARK SMILES IDX 78 44 72 45 74 46 25 47 77 48 71 49 70 50 26 52 58 53 38 54
REMARK SMILES IDX 57 55 39 56 42 57 56 58 75 59 40 60 41 61 55 63 76 64 43 65
REMARK SMILES IDX 27 66 28 67 36 68 29 69 35 70 37 71 34 72 30 73 31 74 32 75
REMARK SMILES IDX 33 76 59 77 60 78 68 79 61 80 67 81 69 82 66 83 62 84 63 85
REMARK SMILES IDX 64 86 65 87 44 88 45 89 53 90 46 91 52 92 54 93 51 94 47 95
REMARK SMILES IDX 48 96 49 97 50 98
REMARK H PARENT 74 51 42 62
REMARK Flexibility Score: inf
ROOT
ATOM      1  C   UNL     1       4.138   3.519   0.613  1.00  0.00     0.188 C 
ENDROOT
BRANCH   1   2
ATOM      2  O   UNL     1       2.805   3.877   0.890  1.00  0.00    -0.377 OA
BRANCH   2   3
ATOM      3  C   UNL     1       1.915   2.804   0.704  1.00  0.00     0.188 C 
BRANCH   3   4
ATOM      4  C   UNL     1       2.176   1.597   1.612  1.00  0.00     0.188 C 
BRANCH   4   5
ATOM      5  O   UNL     1       3.478   0.930   1.755  1.00  0.00    -0.376 OA
BRANCH   5   6
ATOM      6  C   UNL     1       4.236  -0.266   0.903  1.00  0.00     0.202 C 
BRANCH   6   7
ATOM      7  C   UNL     1       3.500  -1.335  -0.835  1.00  0.00     0.261 C 
BRANCH   7   8
ATOM      8  O   UNL     1       2.611  -2.565  -0.837  1.00  0.00    -0.460 OA
BRANCH   8   9
ATOM      9  C   UNL     1       2.844  -3.356   0.216  1.00  0.00     0.338 C 
ATOM     10  O   UNL     1       2.214  -4.317   0.584  1.00  0.00    -0.246 OA
BRANCH   9  11
ATOM     11  C   UNL     1       3.699  -2.434   0.948  1.00  0.00     0.087 C 
ATOM     12  C   UNL     1       5.072  -2.348   0.426  1.00  0.00     0.027 C 
ATOM     13  C   UNL     1       2.409  -1.009   0.871  1.00  0.00     0.316 C 
ATOM     14  C   UNL     1       5.694  -0.982  -0.576  1.00  0.00     0.020 A 
ATOM     15  O   UNL     1       3.003   0.419  -0.309  1.00  0.00    -0.474 OA
ATOM     16  C   UNL     1       6.960  -1.056  -1.094  1.00  0.00     0.032 A 
ATOM     17  C   UNL     1       4.684   0.344  -1.050  1.00  0.00     0.146 A 
ATOM     18  C   UNL     1       7.313  -0.011  -1.970  1.00  0.00     0.043 A 
ATOM     19  C   UNL     1       5.110   1.286  -1.955  1.00  0.00     0.085 A 
ATOM     20  Cl  UNL     1       8.910  -0.082  -2.649  1.00  0.00    -0.084 Cl
ATOM     21  C   UNL     1       6.449   1.088  -2.378  1.00  0.00     0.045 A 
ATOM     22  Cl  UNL     1       4.155   2.519  -2.629  1.00  0.00    -0.080 Cl
BRANCH  13  23
ATOM     23  C   UNL     1       2.111  -1.059   2.504  1.00  0.00     0.430 C 
ATOM     24  F   UNL     1       1.227  -0.186   3.017  1.00  0.00    -0.167 F 
ATOM     25  F   UNL     1       1.547  -2.283   2.756  1.00  0.00    -0.167 F 
ATOM     26  F   UNL     1       3.217  -1.041   3.289  1.00  0.00    -0.167 F 
ENDBRANCH  13  23
ENDBRANCH   9  11
ENDBRANCH   8   9
ENDBRANCH   7   8
ENDBRANCH   6   7
ENDBRANCH   5   6
ENDBRANCH   4   5
ENDBRANCH   3   4
ENDBRANCH   2   3
ENDBRANCH   1   2
BRANCH   1  27
ATOM     27  C   UNL     1       5.113   3.574   1.793  1.00  0.00     0.188 C 
BRANCH  27  28
ATOM     28  O   UNL     1       4.675   3.571   3.142  1.00  0.00    -0.376 OA
BRANCH  28  29
ATOM     29  C   UNL     1       3.480   4.228   3.526  1.00  0.00     0.202 C 
BRANCH  29  30
ATOM     30  C   UNL     1       3.230   5.721   3.250  1.00  0.00     0.261 C 
BRANCH  30  31
ATOM     31  O   UNL     1       3.470   6.185   1.916  1.00  0.00    -0.460 OA
BRANCH  31  32
ATOM     32  C   UNL     1       4.715   6.652   1.669  1.00  0.00     0.338 C 
ATOM     33  O   UNL     1       5.618   6.773   2.479  1.00  0.00    -0.246 OA
BRANCH  32  34
ATOM     34  C   UNL     1       4.894   6.816   0.207  1.00  0.00     0.060 A 
ATOM     35  C   UNL     1       6.027   6.249  -0.404  1.00  0.00     0.016 A 
ATOM     36  C   UNL     1       3.969   7.526  -0.558  1.00  0.00     0.016 A 
ATOM     37  C   UNL     1       6.253   6.410  -1.770  1.00  0.00     0.010 A 
ATOM     38  C   UNL     1       4.222   7.732  -1.916  1.00  0.00     0.010 A 
ATOM     39  C   UNL     1       5.383   7.209  -2.517  1.00  0.00    -0.014 A 
BRANCH  39  40
ATOM     40  C   UNL     1       5.808   7.734  -3.836  1.00  0.00     0.031 A 
ATOM     41  C   UNL     1       6.388   9.119  -3.872  1.00  0.00     0.074 A 
ATOM     42  C   UNL     1       5.656   7.029  -4.969  1.00  0.00     0.049 A 
ATOM     43  N   UNL     1       6.657   9.884  -4.895  1.00  0.00    -0.248 NA
ATOM     44  C   UNL     1       6.682   9.726  -2.565  1.00  0.00     0.031 C 
ATOM     45  C   UNL     1       5.168   5.656  -5.045  1.00  0.00     0.029 A 
ATOM     46  N   UNL     1       5.867   7.389  -6.277  1.00  0.00    -0.354 N 
ATOM     47  C   UNL     1       7.116  11.081  -4.355  1.00  0.00     0.074 A 
ATOM     48  C   UNL     1       7.063  10.943  -2.916  1.00  0.00     0.031 C 
ATOM     49  C   UNL     1       5.079   5.299  -6.337  1.00  0.00     0.029 A 
ATOM     50  C   UNL     1       5.443   6.440  -7.178  1.00  0.00     0.049 A 
ATOM     51  H   UNL     1       6.280   8.242  -6.544  1.00  0.00     0.167 HD
ATOM     52  C   UNL     1       7.532  12.193  -5.008  1.00  0.00     0.034 A 
ATOM     53  C   UNL     1       5.305   6.508  -8.519  1.00  0.00     0.034 A 
ATOM     54  C   UNL     1       7.547  12.306  -6.445  1.00  0.00     0.049 A 
ATOM     55  C   UNL     1       5.678   7.789  -9.230  1.00  0.00     0.074 A 
ATOM     56  C   UNL     1       7.972  13.371  -7.218  1.00  0.00     0.029 A 
ATOM     57  N   UNL     1       7.087  11.333  -7.325  1.00  0.00    -0.354 N 
ATOM     58  N   UNL     1       6.113   8.919  -8.720  1.00  0.00    -0.248 NA
ATOM     59  C   UNL     1       5.542   7.806 -10.693  1.00  0.00     0.031 C 
ATOM     60  C   UNL     1       7.667  13.087  -8.552  1.00  0.00     0.029 A 
ATOM     61  C   UNL     1       7.169  11.795  -8.629  1.00  0.00     0.049 A 
ATOM     62  H   UNL     1       6.752  10.446  -7.060  1.00  0.00     0.167 HD
ATOM     63  C   UNL     1       6.337   9.768  -9.802  1.00  0.00     0.074 A 
ATOM     64  C   UNL     1       5.984   9.020 -10.992  1.00  0.00     0.031 C 
ATOM     65  C   UNL     1       6.808  11.041  -9.810  1.00  0.00     0.034 A 
BRANCH  52  66
ATOM     66  C   UNL     1       7.911  13.389  -4.166  1.00  0.00     0.023 A 
ATOM     67  C   UNL     1       8.944  13.334  -3.213  1.00  0.00     0.031 A 
ATOM     68  C   UNL     1       7.178  14.585  -4.268  1.00  0.00     0.131 A 
ATOM     69  C   UNL     1       9.140  14.409  -2.333  1.00  0.00     0.055 A 
ATOM     70  C   UNL     1       7.451  15.690  -3.462  1.00  0.00     0.041 A 
ATOM     71  F   UNL     1       6.160  14.691  -5.137  1.00  0.00    -0.206 F 
ATOM     72  C   UNL     1       8.423  15.598  -2.470  1.00  0.00     0.022 A 
BRANCH  69  73
ATOM     73  S   UNL     1      10.196  14.149  -0.880  1.00  0.00     0.124 S 
ATOM     74  O   UNL     1       9.566  12.983  -0.263  1.00  0.00    -0.237 OA
ATOM     75  O   UNL     1      11.506  13.924  -1.479  1.00  0.00    -0.237 OA
ATOM     76  O   UNL     1      10.056  15.394  -0.128  1.00  0.00    -0.744 OA
ENDBRANCH  69  73
ENDBRANCH  52  66
BRANCH  53  77
ATOM     77  C   UNL     1       4.716   5.356  -9.262  1.00  0.00     0.023 A 
ATOM     78  C   UNL     1       5.459   4.634 -10.209  1.00  0.00     0.031 A 
ATOM     79  C   UNL     1       3.383   4.965  -9.033  1.00  0.00     0.131 A 
ATOM     80  C   UNL     1       4.857   3.572 -10.905  1.00  0.00     0.055 A 
ATOM     81  C   UNL     1       2.810   3.873  -9.684  1.00  0.00     0.041 A 
ATOM     82  F   UNL     1       2.624   5.629  -8.147  1.00  0.00    -0.206 F 
ATOM     83  C   UNL     1       3.546   3.173 -10.633  1.00  0.00     0.022 A 
BRANCH  80  84
ATOM     84  S   UNL     1       5.789   2.760 -12.233  1.00  0.00     0.124 S 
ATOM     85  O   UNL     1       6.048   3.875 -13.137  1.00  0.00    -0.237 OA
ATOM     86  O   UNL     1       6.945   2.233 -11.514  1.00  0.00    -0.237 OA
ATOM     87  O   UNL     1       4.858   1.752 -12.735  1.00  0.00    -0.744 OA
ENDBRANCH  80  84
ENDBRANCH  53  77
BRANCH  65  88
ATOM     88  C   UNL     1       7.048  11.698 -11.150  1.00  0.00     0.023 A 
ATOM     89  C   UNL     1       6.003  12.035 -12.026  1.00  0.00     0.031 A 
ATOM     90  C   UNL     1       8.362  12.036 -11.530  1.00  0.00     0.131 A 
ATOM     91  C   UNL     1       6.292  12.659 -13.250  1.00  0.00     0.055 A 
ATOM     92  C   UNL     1       8.636  12.720 -12.714  1.00  0.00     0.041 A 
ATOM     93  F   UNL     1       9.402  11.728 -10.738  1.00  0.00    -0.206 F 
ATOM     94  C   UNL     1       7.598  13.029 -13.586  1.00  0.00     0.022 A 
BRANCH  91  95
ATOM     95  S   UNL     1       4.951  12.909 -14.446  1.00  0.00     0.124 S 
ATOM     96  O   UNL     1       4.481  11.544 -14.660  1.00  0.00    -0.237 OA
ATOM     97  O   UNL     1       4.043  13.790 -13.720  1.00  0.00    -0.237 OA
ATOM     98  O   UNL     1       5.622  13.520 -15.592  1.00  0.00    -0.744 OA
ENDBRANCH  91  95
ENDBRANCH  65  88
ENDBRANCH  39  40
ENDBRANCH  32  34
ENDBRANCH  31  32
ENDBRANCH  30  31
ENDBRANCH  29  30
ENDBRANCH  28  29
ENDBRANCH  27  28
ENDBRANCH   1  27
TORSDOF 24
