REMARK SMILES O=C(OCCOCCOCCOCCOC(=O)c1ccccc1Nc1cccc(S(F)(F)(F)(F)F)c1)c1ccc(-c2c3nc(c(-c4cc(S(=O)(=O)[O-])ccc4F)c4ccc([nH]4)c(-c4cc(S(=O)(=O)[O-])ccc4F)c4nc(c(-c5cc(S(=O)(=O)[O-])ccc5F)c5ccc2[nH]5)C=C4)C=C3)cc1
REMARK SMILES IDX 9 1 8 2 7 3 6 4 5 5 4 6 3 7 2 8 1 9 37 10 38 11 99 12 39 13
REMARK SMILES IDX 98 14 40 15 41 16 42 17 92 18 43 19 97 20 91 21 93 22 44 23
REMARK SMILES IDX 96 24 90 25 89 26 45 28 77 29 57 30 76 31 58 32 61 33 75 34
REMARK SMILES IDX 94 35 59 36 60 37 74 39 95 40 62 41 46 42 47 43 55 44 48 45
REMARK SMILES IDX 54 46 56 47 53 48 49 49 50 50 51 51 52 52 78 53 79 54 87 55
REMARK SMILES IDX 80 56 86 57 88 58 85 59 81 60 82 61 83 62 84 63 63 64 64 65
REMARK SMILES IDX 72 66 65 67 71 68 73 69 70 70 66 71 67 72 68 73 69 74 10 75
REMARK SMILES IDX 11 76 12 77 13 78 14 79 15 80 16 81 17 82 18 83 19 84 23 85
REMARK SMILES IDX 20 86 22 87 21 88 24 89 25 91 26 92 36 93 27 94 29 95 28 96
REMARK SMILES IDX 30 97 31 98 32 99 33 100 34 101 35 102
REMARK H PARENT 93 27 61 38 24 90
REMARK Flexibility Score: inf
ROOT
ATOM      1  O   UNL     1       3.051  -1.386   2.342  1.00  0.00    -0.377 OA
ENDROOT
BRANCH   1   2
ATOM      2  C   UNL     1       2.578  -2.137   1.233  1.00  0.00     0.188 C 
BRANCH   2   3
ATOM      3  C   UNL     1       3.084  -1.511  -0.056  1.00  0.00     0.188 C 
BRANCH   3   4
ATOM      4  O   UNL     1       4.504  -1.511  -0.056  1.00  0.00    -0.376 OA
BRANCH   4   5
ATOM      5  C   UNL     1       4.978  -0.760   1.052  1.00  0.00     0.202 C 
BRANCH   5   6
ATOM      6  C   UNL     1       4.471   0.669   0.950  1.00  0.00     0.261 C 
BRANCH   6   7
ATOM      7  O   UNL     1       3.051   0.669   0.950  1.00  0.00    -0.460 OA
BRANCH   7   8
ATOM      8  C   UNL     1       2.341  -0.020  -0.069  1.00  0.00     0.338 C 
ATOM      9  O   UNL     1       1.070  -0.020  -0.069  1.00  0.00    -0.246 OA
BRANCH   8  10
ATOM     10  C   UNL     1       3.101  -0.758  -1.158  1.00  0.00     0.060 A 
ATOM     11  C   UNL     1       4.094  -1.625  -0.732  1.00  0.00     0.016 A 
ATOM     12  C   UNL     1       2.769  -0.669  -2.441  1.00  0.00     0.016 A 
ATOM     13  C   UNL     1       4.885  -2.151  -1.780  1.00  0.00     0.010 A 
ATOM     14  C   UNL     1       3.506  -1.320  -3.401  1.00  0.00     0.010 A 
ATOM     15  C   UNL     1       4.539  -2.146  -3.054  1.00  0.00    -0.014 A 
BRANCH  15  16
ATOM     16  C   UNL     1       5.251  -3.012  -4.081  1.00  0.00     0.031 A 
ATOM     17  C   UNL     1       5.903  -2.439  -5.174  1.00  0.00     0.074 A 
ATOM     18  C   UNL     1       5.077  -4.375  -3.911  1.00  0.00     0.049 A 
ATOM     19  N   UNL     1       6.483  -3.069  -6.197  1.00  0.00    -0.248 NA
ATOM     20  C   UNL     1       6.059  -0.991  -5.374  1.00  0.00     0.031 C 
ATOM     21  C   UNL     1       4.428  -4.961  -2.806  1.00  0.00     0.029 A 
ATOM     22  N   UNL     1       5.482  -5.390  -4.749  1.00  0.00    -0.354 N 
ATOM     23  C   UNL     1       7.019  -2.183  -7.039  1.00  0.00     0.074 A 
ATOM     24  C   UNL     1       6.749  -0.834  -6.525  1.00  0.00     0.031 C 
ATOM     25  C   UNL     1       4.432  -6.308  -2.981  1.00  0.00     0.029 A 
ATOM     26  C   UNL     1       5.084  -6.588  -4.197  1.00  0.00     0.049 A 
ATOM     27  H   UNL     1       5.972  -5.278  -5.596  1.00  0.00     0.167 HD
ATOM     28  C   UNL     1       7.724  -2.448  -8.214  1.00  0.00     0.034 A 
ATOM     29  C   UNL     1       5.267  -7.861  -4.712  1.00  0.00     0.034 A 
ATOM     30  C   UNL     1       7.946  -3.724  -8.707  1.00  0.00     0.049 A 
ATOM     31  C   UNL     1       5.922  -8.123  -5.918  1.00  0.00     0.074 A 
ATOM     32  C   UNL     1       8.661  -4.009  -9.886  1.00  0.00     0.029 A 
ATOM     33  N   UNL     1       7.526  -4.921  -8.168  1.00  0.00    -0.354 N 
ATOM     34  N   UNL     1       6.492  -7.240  -6.739  1.00  0.00    -0.248 NA
ATOM     35  C   UNL     1       6.094  -9.466  -6.489  1.00  0.00     0.031 C 
ATOM     36  C   UNL     1       8.665  -5.358 -10.061  1.00  0.00     0.029 A 
ATOM     37  C   UNL     1       7.951  -5.937  -8.995  1.00  0.00     0.049 A 
ATOM     38  H   UNL     1       7.011  -5.030  -7.336  1.00  0.00     0.167 HD
ATOM     39  C   UNL     1       7.036  -7.868  -7.783  1.00  0.00     0.074 A 
ATOM     40  C   UNL     1       6.782  -9.309  -7.641  1.00  0.00     0.031 C 
ATOM     41  C   UNL     1       7.739  -7.299  -8.847  1.00  0.00     0.034 A 
BRANCH  28  42
ATOM     42  C   UNL     1       8.281  -1.270  -8.998  1.00  0.00     0.023 A 
ATOM     43  C   UNL     1       9.274  -0.428  -8.527  1.00  0.00     0.031 A 
ATOM     44  C   UNL     1       7.821  -1.166 -10.239  1.00  0.00     0.131 A 
ATOM     45  C   UNL     1       9.518   0.691  -9.358  1.00  0.00     0.055 A 
ATOM     46  C   UNL     1       8.207  -0.121 -11.043  1.00  0.00     0.041 A 
ATOM     47  F   UNL     1       6.978  -2.082 -10.709  1.00  0.00    -0.206 F 
ATOM     48  C   UNL     1       9.141   0.783 -10.620  1.00  0.00     0.022 A 
BRANCH  45  49
ATOM     49  S   UNL     1      10.410   2.094  -8.641  1.00  0.00     0.124 S 
ATOM     50  O   UNL     1       9.623   2.643  -7.449  1.00  0.00    -0.237 OA
ATOM     51  O   UNL     1      11.792   1.633  -8.171  1.00  0.00    -0.237 OA
ATOM     52  O   UNL     1      10.588   3.319  -9.820  1.00  0.00    -0.744 OA
ENDBRANCH  45  49
ENDBRANCH  28  42
BRANCH  29  53
ATOM     53  C   UNL     1       4.725  -9.040  -3.920  1.00  0.00     0.023 A 
ATOM     54  C   UNL     1       5.529 -10.117  -3.584  1.00  0.00     0.031 A 
ATOM     55  C   UNL     1       3.417  -9.059  -3.693  1.00  0.00     0.131 A 
ATOM     56  C   UNL     1       4.808 -11.295  -3.275  1.00  0.00     0.055 A 
ATOM     57  C   UNL     1       2.799 -10.207  -3.261  1.00  0.00     0.041 A 
ATOM     58  F   UNL     1       2.699  -7.956  -3.886  1.00  0.00    -0.206 F 
ATOM     59  C   UNL     1       3.524 -11.328  -2.967  1.00  0.00     0.022 A 
BRANCH  56  60
ATOM     60  S   UNL     1       5.709 -12.865  -3.302  1.00  0.00     0.124 S 
ATOM     61  O   UNL     1       6.280 -13.100  -4.702  1.00  0.00    -0.237 OA
ATOM     62  O   UNL     1       6.852 -12.815  -2.286  1.00  0.00    -0.237 OA
ATOM     63  O   UNL     1       4.643 -14.140  -2.900  1.00  0.00    -0.744 OA
ENDBRANCH  56  60
ENDBRANCH  29  53
BRANCH  41  64
ATOM     64  C   UNL     1       8.304  -8.229  -9.908  1.00  0.00     0.023 A 
ATOM     65  C   UNL     1       7.354  -8.886 -10.672  1.00  0.00     0.031 A 
ATOM     66  C   UNL     1       9.598  -8.316 -10.194  1.00  0.00     0.131 A 
ATOM     67  C   UNL     1       7.895  -9.852 -11.553  1.00  0.00     0.055 A 
ATOM     68  C   UNL     1      10.044  -9.183 -11.162  1.00  0.00     0.041 A 
ATOM     69  F   UNL     1      10.470  -7.556  -9.537  1.00  0.00    -0.206 F 
ATOM     70  C   UNL     1       9.164  -9.909 -11.915  1.00  0.00     0.022 A 
BRANCH  67  71
ATOM     71  S   UNL     1       6.770 -11.098 -12.230  1.00  0.00     0.124 S 
ATOM     72  O   UNL     1       6.149 -11.902 -11.085  1.00  0.00    -0.237 OA
ATOM     73  O   UNL     1       5.661 -10.405 -13.026  1.00  0.00    -0.237 OA
ATOM     74  O   UNL     1       7.638 -12.151 -13.260  1.00  0.00    -0.744 OA
ENDBRANCH  67  71
ENDBRANCH  41  64
ENDBRANCH  15  16
ENDBRANCH   8  10
ENDBRANCH   7   8
ENDBRANCH   6   7
ENDBRANCH   5   6
ENDBRANCH   4   5
ENDBRANCH   3   4
ENDBRANCH   2   3
ENDBRANCH   1   2
BRANCH   1  75
ATOM     75  C   UNL     1       4.471  -1.386   2.342  1.00  0.00     0.188 C 
BRANCH  75  76
ATOM     76  C   UNL     1       4.978  -2.815   2.444  1.00  0.00     0.188 C 
BRANCH  76  77
ATOM     77  O   UNL     1       4.504  -3.566   1.336  1.00  0.00    -0.376 OA
BRANCH  77  78
ATOM     78  C   UNL     1       3.084  -3.566   1.336  1.00  0.00     0.202 C 
BRANCH  78  79
ATOM     79  C   UNL     1       2.578  -4.192   2.625  1.00  0.00     0.261 C 
BRANCH  79  80
ATOM     80  O   UNL     1       3.051  -3.441   3.733  1.00  0.00    -0.460 OA
BRANCH  80  81
ATOM     81  C   UNL     1       4.447  -3.296   3.948  1.00  0.00     0.340 C 
ATOM     82  O   UNL     1       5.273  -3.837   3.148  1.00  0.00    -0.246 OA
BRANCH  81  83
ATOM     83  C   UNL     1       4.954  -2.492   5.135  1.00  0.00     0.083 A 
ATOM     84  C   UNL     1       6.085  -1.702   5.019  1.00  0.00     0.018 A 
ATOM     85  C   UNL     1       4.376  -2.699   6.312  1.00  0.00     0.053 A 
ATOM     86  C   UNL     1       6.706  -1.405   6.255  1.00  0.00     0.001 A 
ATOM     87  C   UNL     1       4.972  -2.261   7.471  1.00  0.00     0.027 A 
ATOM     88  C   UNL     1       6.123  -1.525   7.434  1.00  0.00     0.002 A 
BRANCH  85  89
ATOM     89  N   UNL     1       3.086  -3.402   6.378  1.00  0.00    -0.355 N 
ATOM     90  H   UNL     1       2.655  -3.717   5.551  1.00  0.00     0.167 HD
BRANCH  89  91
ATOM     91  C   UNL     1       2.441  -3.634   7.678  1.00  0.00     0.040 A 
ATOM     92  C   UNL     1       2.157  -4.929   8.078  1.00  0.00     0.026 A 
ATOM     93  C   UNL     1       2.114  -2.592   8.433  1.00  0.00     0.050 A 
ATOM     94  C   UNL     1       1.260  -5.008   9.170  1.00  0.00     0.004 A 
ATOM     95  C   UNL     1       1.349  -2.759   9.562  1.00  0.00     0.109 A 
ATOM     96  C   UNL     1       0.982  -4.007   9.984  1.00  0.00     0.024 A 
BRANCH  95  97
ATOM     97  S   UNL     1       0.818  -1.307  10.503  1.00  0.00     0.310 S 
ATOM     98  F   UNL     1       2.123  -1.531  11.376  1.00  0.00    -0.094 F 
ATOM     99  F   UNL     1       0.044  -2.184  11.559  1.00  0.00    -0.094 F 
ATOM    100  F   UNL     1       0.554  -0.021  11.336  1.00  0.00    -0.094 F 
ATOM    101  F   UNL     1       1.714  -0.470   9.509  1.00  0.00    -0.094 F 
ATOM    102  F   UNL     1       1.188  -2.622   9.707  1.00  0.00    -0.094 F 
ENDBRANCH  95  97
ENDBRANCH  89  91
ENDBRANCH  85  89
ENDBRANCH  81  83
ENDBRANCH  80  81
ENDBRANCH  79  80
ENDBRANCH  78  79
ENDBRANCH  77  78
ENDBRANCH  76  77
ENDBRANCH  75  76
ENDBRANCH   1  75
TORSDOF 26
