REMARK SMILES CC(C)CSc1cc2c(cc1Cl)C=C(C(=O)OCCOCCOCCOCCOC(=O)c1ccc(-c3c4nc(c(-c5cc(S(=O)(=O)[O-])ccc5F)c5ccc([nH]5)c(-c5cc(S(=O)(=O)[O-])ccc5F)c5nc(c(-c6cc(S(=O)(=O)[O-])ccc6F)c6ccc3[nH]6)C=C5)C=C4)cc1)[C@H](C(F)(F)F)O2
REMARK SMILES IDX 23 1 22 2 21 3 20 4 19 5 18 6 17 7 15 8 16 9 14 10 6 11 7 12
REMARK SMILES IDX 11 13 8 14 10 15 12 16 9 17 100 18 13 19 95 20 5 21 4 22
REMARK SMILES IDX 2 23 1 24 3 25 96 26 97 27 98 28 99 29 24 30 25 31 26 32
REMARK SMILES IDX 27 33 28 34 29 35 30 36 31 37 32 38 33 39 94 40 34 41 93 42
REMARK SMILES IDX 35 43 36 44 37 45 87 46 38 47 92 48 86 49 88 50 39 51 91 52
REMARK SMILES IDX 85 53 84 54 40 56 72 57 52 58 71 59 53 60 56 61 70 62 89 63
REMARK SMILES IDX 54 64 55 65 69 67 90 68 57 69 41 70 42 71 50 72 43 73 49 74
REMARK SMILES IDX 51 75 48 76 44 77 45 78 46 79 47 80 73 81 74 82 82 83 75 84
REMARK SMILES IDX 81 85 83 86 80 87 76 88 77 89 78 90 79 91 58 92 59 93 67 94
REMARK SMILES IDX 60 95 66 96 68 97 65 98 61 99 62 100 63 101 64 102
REMARK H PARENT 88 55 56 66
REMARK Flexibility Score: inf
ROOT
ATOM      1  O   UNL     1      -0.304   1.174   9.731  1.00  0.00    -0.377 OA
ENDROOT
BRANCH   1   2
ATOM      2  C   UNL     1      -0.762   0.304   8.718  1.00  0.00     0.188 C 
BRANCH   2   3
ATOM      3  C   UNL     1      -0.147  -1.107   8.742  1.00  0.00     0.188 C 
BRANCH   3   4
ATOM      4  O   UNL     1       0.928  -1.477   9.601  1.00  0.00    -0.376 OA
BRANCH   4   5
ATOM      5  C   UNL     1       1.799  -0.506  10.164  1.00  0.00     0.202 C 
BRANCH   5   6
ATOM      6  C   UNL     1       2.723   0.270   9.216  1.00  0.00     0.261 C 
BRANCH   6   7
ATOM      7  O   UNL     1       2.047   0.890   8.109  1.00  0.00    -0.460 OA
BRANCH   7   8
ATOM      8  C   UNL     1       2.309   0.367   6.896  1.00  0.00     0.338 C 
ATOM      9  O   UNL     1       3.127  -0.501   6.633  1.00  0.00    -0.246 OA
BRANCH   8  10
ATOM     10  C   UNL     1       1.352   0.874   5.899  1.00  0.00     0.087 C 
ATOM     11  C   UNL     1      -1.292   1.069   1.642  1.00  0.00     0.030 A 
ATOM     12  C   UNL     1      -0.565   2.010   2.394  1.00  0.00     0.063 A 
ATOM     13  C   UNL     1      -1.508  -0.208   2.187  1.00  0.00     0.055 A 
ATOM     14  C   UNL     1       0.040   1.648   3.597  1.00  0.00     0.129 A 
ATOM     15  C   UNL     1      -0.890  -0.573   3.387  1.00  0.00     0.033 A 
ATOM     16  Cl  UNL     1      -2.514  -1.400   1.441  1.00  0.00    -0.083 Cl
ATOM     17  C   UNL     1      -0.087   0.343   4.070  1.00  0.00     0.019 A 
ATOM     18  O   UNL     1       0.836   2.586   4.201  1.00  0.00    -0.475 OA
ATOM     19  C   UNL     1       0.724  -0.079   5.195  1.00  0.00     0.027 C 
ATOM     20  C   UNL     1       1.213   2.343   5.596  1.00  0.00     0.316 C 
BRANCH  11  21
ATOM     21  S   UNL     1      -1.812   1.611   0.018  1.00  0.00    -0.124 SA
BRANCH  21  22
ATOM     22  C   UNL     1      -1.004   0.397  -1.102  1.00  0.00     0.078 C 
BRANCH  22  23
ATOM     23  C   UNL     1       0.529   0.468  -1.255  1.00  0.00    -0.007 C 
ATOM     24  C   UNL     1       1.306  -0.002  -0.024  1.00  0.00     0.008 C 
ATOM     25  C   UNL     1       0.943  -0.410  -2.445  1.00  0.00     0.008 C 
ENDBRANCH  22  23
ENDBRANCH  21  22
ENDBRANCH  11  21
BRANCH  20  26
ATOM     26  C   UNL     1       0.257   3.134   6.510  1.00  0.00     0.430 C 
ATOM     27  F   UNL     1      -0.992   2.608   6.519  1.00  0.00    -0.167 F 
ATOM     28  F   UNL     1       0.696   3.192   7.783  1.00  0.00    -0.167 F 
ATOM     29  F   UNL     1       0.137   4.417   6.083  1.00  0.00    -0.167 F 
ENDBRANCH  20  26
ENDBRANCH   8  10
ENDBRANCH   7   8
ENDBRANCH   6   7
ENDBRANCH   5   6
ENDBRANCH   4   5
ENDBRANCH   3   4
ENDBRANCH   2   3
ENDBRANCH   1   2
BRANCH   1  30
ATOM     30  C   UNL     1      -1.190   1.371  10.824  1.00  0.00     0.188 C 
BRANCH  30  31
ATOM     31  C   UNL     1      -1.736   0.089  11.468  1.00  0.00     0.188 C 
BRANCH  31  32
ATOM     32  O   UNL     1      -2.602  -0.634  10.588  1.00  0.00    -0.376 OA
BRANCH  32  33
ATOM     33  C   UNL     1      -4.001  -0.481  10.809  1.00  0.00     0.202 C 
BRANCH  33  34
ATOM     34  C   UNL     1      -4.603   0.841  10.309  1.00  0.00     0.261 C 
BRANCH  34  35
ATOM     35  O   UNL     1      -4.159   2.039  10.968  1.00  0.00    -0.460 OA
BRANCH  35  36
ATOM     36  C   UNL     1      -4.231   2.113  12.315  1.00  0.00     0.338 C 
ATOM     37  O   UNL     1      -4.713   1.284  13.066  1.00  0.00    -0.246 OA
BRANCH  36  38
ATOM     38  C   UNL     1      -3.433   3.285  12.744  1.00  0.00     0.060 A 
ATOM     39  C   UNL     1      -3.565   4.515  12.093  1.00  0.00     0.016 A 
ATOM     40  C   UNL     1      -2.521   3.142  13.798  1.00  0.00     0.016 A 
ATOM     41  C   UNL     1      -2.809   5.608  12.520  1.00  0.00     0.010 A 
ATOM     42  C   UNL     1      -1.765   4.239  14.225  1.00  0.00     0.010 A 
ATOM     43  C   UNL     1      -1.921   5.487  13.605  1.00  0.00    -0.014 A 
BRANCH  43  44
ATOM     44  C   UNL     1      -1.322   6.714  14.191  1.00  0.00     0.031 A 
ATOM     45  C   UNL     1       0.108   7.098  13.962  1.00  0.00     0.074 A 
ATOM     46  C   UNL     1      -2.119   7.500  14.941  1.00  0.00     0.049 A 
ATOM     47  N   UNL     1       0.714   8.212  14.285  1.00  0.00    -0.248 NA
ATOM     48  C   UNL     1       0.972   6.112  13.299  1.00  0.00     0.031 C 
ATOM     49  C   UNL     1      -3.511   7.191  15.271  1.00  0.00     0.029 A 
ATOM     50  N   UNL     1      -1.891   8.710  15.546  1.00  0.00    -0.354 N 
ATOM     51  C   UNL     1       2.024   8.079  13.842  1.00  0.00     0.074 A 
ATOM     52  C   UNL     1       2.138   6.749  13.279  1.00  0.00     0.031 C 
ATOM     53  C   UNL     1      -4.026   8.202  15.984  1.00  0.00     0.029 A 
ATOM     54  C   UNL     1      -2.997   9.220  16.187  1.00  0.00     0.049 A 
ATOM     55  H   UNL     1      -1.021   9.169  15.524  1.00  0.00     0.167 HD
ATOM     56  C   UNL     1       3.024   8.993  13.886  1.00  0.00     0.034 A 
ATOM     57  C   UNL     1      -3.176  10.382  16.848  1.00  0.00     0.034 A 
ATOM     58  C   UNL     1       2.890  10.307  14.471  1.00  0.00     0.049 A 
ATOM     59  C   UNL     1      -2.048  11.380  16.885  1.00  0.00     0.074 A 
ATOM     60  C   UNL     1       3.833  11.320  14.520  1.00  0.00     0.029 A 
ATOM     61  N   UNL     1       1.757  10.791  15.112  1.00  0.00    -0.354 N 
ATOM     62  N   UNL     1      -0.853  11.292  16.349  1.00  0.00    -0.248 NA
ATOM     63  C   UNL     1      -2.294  12.646  17.589  1.00  0.00     0.031 C 
ATOM     64  C   UNL     1       3.300  12.382  15.251  1.00  0.00     0.029 A 
ATOM     65  C   UNL     1       1.991  12.074  15.585  1.00  0.00     0.049 A 
ATOM     66  H   UNL     1       0.913  10.297  15.216  1.00  0.00     0.167 HD
ATOM     67  C   UNL     1      -0.219  12.501  16.620  1.00  0.00     0.074 A 
ATOM     68  C   UNL     1      -1.170  13.312  17.352  1.00  0.00     0.031 C 
ATOM     69  C   UNL     1       1.036  12.896  16.292  1.00  0.00     0.034 A 
BRANCH  56  70
ATOM     70  C   UNL     1       4.356   8.650  13.261  1.00  0.00     0.023 A 
ATOM     71  C   UNL     1       5.528   8.640  14.042  1.00  0.00     0.031 A 
ATOM     72  C   UNL     1       4.486   8.502  11.868  1.00  0.00     0.131 A 
ATOM     73  C   UNL     1       6.779   8.528  13.420  1.00  0.00     0.055 A 
ATOM     74  C   UNL     1       5.732   8.349  11.259  1.00  0.00     0.041 A 
ATOM     75  F   UNL     1       3.401   8.514  11.077  1.00  0.00    -0.206 F 
ATOM     76  C   UNL     1       6.887   8.376  12.034  1.00  0.00     0.022 A 
BRANCH  73  77
ATOM     77  S   UNL     1       8.319   8.654  14.373  1.00  0.00     0.124 S 
ATOM     78  O   UNL     1       8.951   7.368  14.090  1.00  0.00    -0.237 OA
ATOM     79  O   UNL     1       8.963   9.813  13.762  1.00  0.00    -0.237 OA
ATOM     80  O   UNL     1       7.867   8.834  15.748  1.00  0.00    -0.744 OA
ENDBRANCH  73  77
ENDBRANCH  56  70
BRANCH  57  81
ATOM     81  C   UNL     1      -4.516  10.680  17.433  1.00  0.00     0.023 A 
ATOM     82  C   UNL     1      -5.065   9.858  18.434  1.00  0.00     0.031 A 
ATOM     83  C   UNL     1      -5.315  11.713  16.915  1.00  0.00     0.131 A 
ATOM     84  C   UNL     1      -6.395  10.041  18.835  1.00  0.00     0.055 A 
ATOM     85  C   UNL     1      -6.615  11.938  17.370  1.00  0.00     0.041 A 
ATOM     86  F   UNL     1      -4.843  12.510  15.944  1.00  0.00    -0.206 F 
ATOM     87  C   UNL     1      -7.167  11.088  18.323  1.00  0.00     0.022 A 
BRANCH  84  88
ATOM     88  S   UNL     1      -7.210   8.841  19.925  1.00  0.00     0.124 S 
ATOM     89  O   UNL     1      -7.583   9.671  21.066  1.00  0.00    -0.237 OA
ATOM     90  O   UNL     1      -8.318   8.383  19.089  1.00  0.00    -0.237 OA
ATOM     91  O   UNL     1      -6.174   7.846  20.179  1.00  0.00    -0.744 OA
ENDBRANCH  84  88
ENDBRANCH  57  81
BRANCH  69  92
ATOM     92  C   UNL     1       1.493  14.283  16.688  1.00  0.00     0.023 A 
ATOM     93  C   UNL     1       1.881  15.203  15.694  1.00  0.00     0.031 A 
ATOM     94  C   UNL     1       1.703  14.634  18.033  1.00  0.00     0.131 A 
ATOM     95  C   UNL     1       2.501  16.405  16.056  1.00  0.00     0.055 A 
ATOM     96  C   UNL     1       2.272  15.858  18.391  1.00  0.00     0.041 A 
ATOM     97  F   UNL     1       1.364  13.789  19.020  1.00  0.00    -0.206 F 
ATOM     98  C   UNL     1       2.690  16.742  17.400  1.00  0.00     0.022 A 
BRANCH  95  99
ATOM     99  S   UNL     1       3.175  17.529  14.800  1.00  0.00     0.124 S 
ATOM    100  O   UNL     1       2.413  18.750  15.047  1.00  0.00    -0.237 OA
ATOM    101  O   UNL     1       4.587  17.590  15.169  1.00  0.00    -0.237 OA
ATOM    102  O   UNL     1       2.885  16.860  13.536  1.00  0.00    -0.744 OA
ENDBRANCH  95  99
ENDBRANCH  69  92
ENDBRANCH  43  44
ENDBRANCH  36  38
ENDBRANCH  35  36
ENDBRANCH  34  35
ENDBRANCH  33  34
ENDBRANCH  32  33
ENDBRANCH  31  32
ENDBRANCH  30  31
ENDBRANCH   1  30
TORSDOF 27
