REMARK SMILES O=C(OCCOCCOCCOCCOC(=O)[C@@H](Cc1ccccc1Br)CC(F)(F)F)c1ccc(-c2c3nc(c(-c4cc(S(=O)(=O)[O-])ccc4F)c4ccc([nH]4)c(-c4cc(S(=O)(=O)[O-])ccc4F)c4nc(c(-c5cc(S(=O)(=O)[O-])ccc5F)c5ccc2[nH]5)C=C4)C=C3)cc1
REMARK SMILES IDX 8 1 7 2 6 3 5 4 4 5 3 6 2 7 1 8 32 9 33 10 94 11 34 12 93 13
REMARK SMILES IDX 35 14 36 15 37 16 87 17 38 18 92 19 86 20 88 21 39 22 91 23
REMARK SMILES IDX 85 24 84 25 40 27 72 28 52 29 71 30 53 31 56 32 70 33 89 34
REMARK SMILES IDX 54 35 55 36 69 38 90 39 57 40 41 41 42 42 50 43 43 44 49 45
REMARK SMILES IDX 51 46 48 47 44 48 45 49 46 50 47 51 73 52 74 53 82 54 75 55
REMARK SMILES IDX 81 56 83 57 80 58 76 59 77 60 78 61 79 62 58 63 59 64 67 65
REMARK SMILES IDX 60 66 66 67 68 68 65 69 61 70 62 71 63 72 64 73 9 74 10 75
REMARK SMILES IDX 11 76 12 77 13 78 14 79 15 80 16 81 17 82 18 83 19 84 20 85
REMARK SMILES IDX 21 86 25 87 22 88 24 89 26 90 23 91 27 92 28 93 29 94 30 95
REMARK SMILES IDX 31 96
REMARK H PARENT 88 26 56 37
REMARK Flexibility Score: inf
ROOT
ATOM      1  C   UNL     1       2.349  -2.070   1.458  1.00  0.00     0.188 C 
ENDROOT
BRANCH   1   2
ATOM      2  C   UNL     1       2.584  -0.568   1.542  1.00  0.00     0.188 C 
BRANCH   2   3
ATOM      3  O   UNL     1       3.814  -0.295   0.879  1.00  0.00    -0.376 OA
BRANCH   3   4
ATOM      4  C   UNL     1       4.487   0.887   1.284  1.00  0.00     0.202 C 
BRANCH   4   5
ATOM      5  C   UNL     1       4.155   2.083   0.393  1.00  0.00     0.261 C 
BRANCH   5   6
ATOM      6  O   UNL     1       2.753   2.125   0.076  1.00  0.00    -0.460 OA
BRANCH   6   7
ATOM      7  C   UNL     1       2.149   1.696  -1.062  1.00  0.00     0.338 C 
ATOM      8  O   UNL     1       0.943   1.905  -1.193  1.00  0.00    -0.246 OA
BRANCH   7   9
ATOM      9  C   UNL     1       2.859   0.997  -2.182  1.00  0.00     0.060 A 
ATOM     10  C   UNL     1       3.990   0.189  -2.042  1.00  0.00     0.016 A 
ATOM     11  C   UNL     1       2.292   1.106  -3.464  1.00  0.00     0.016 A 
ATOM     12  C   UNL     1       4.582  -0.439  -3.129  1.00  0.00     0.010 A 
ATOM     13  C   UNL     1       2.873   0.468  -4.567  1.00  0.00     0.010 A 
ATOM     14  C   UNL     1       4.041  -0.285  -4.401  1.00  0.00    -0.014 A 
BRANCH  14  15
ATOM     15  C   UNL     1       4.846  -0.748  -5.546  1.00  0.00     0.031 A 
ATOM     16  C   UNL     1       5.663   0.279  -6.272  1.00  0.00     0.074 A 
ATOM     17  C   UNL     1       4.965  -2.060  -5.812  1.00  0.00     0.049 A 
ATOM     18  N   UNL     1       6.396   0.157  -7.343  1.00  0.00    -0.248 NA
ATOM     19  C   UNL     1       5.663   1.632  -5.690  1.00  0.00     0.031 C 
ATOM     20  C   UNL     1       4.340  -3.135  -5.038  1.00  0.00     0.029 A 
ATOM     21  N   UNL     1       5.673  -2.716  -6.783  1.00  0.00    -0.354 N 
ATOM     22  C   UNL     1       6.921   1.422  -7.582  1.00  0.00     0.074 A 
ATOM     23  C   UNL     1       6.421   2.296  -6.546  1.00  0.00     0.031 C 
ATOM     24  C   UNL     1       4.703  -4.318  -5.562  1.00  0.00     0.029 A 
ATOM     25  C   UNL     1       5.519  -4.083  -6.749  1.00  0.00     0.049 A 
ATOM     26  H   UNL     1       6.239  -2.254  -7.443  1.00  0.00     0.167 HD
ATOM     27  C   UNL     1       7.737   1.812  -8.591  1.00  0.00     0.034 A 
ATOM     28  C   UNL     1       5.954  -5.021  -7.614  1.00  0.00     0.034 A 
ATOM     29  C   UNL     1       8.185   0.906  -9.616  1.00  0.00     0.049 A 
ATOM     30  C   UNL     1       6.748  -4.547  -8.808  1.00  0.00     0.074 A 
ATOM     31  C   UNL     1       8.909   1.173 -10.762  1.00  0.00     0.029 A 
ATOM     32  N   UNL     1       7.936  -0.465  -9.611  1.00  0.00    -0.354 N 
ATOM     33  N   UNL     1       7.146  -3.328  -9.104  1.00  0.00    -0.248 NA
ATOM     34  C   UNL     1       7.135  -5.562  -9.794  1.00  0.00     0.031 C 
ATOM     35  C   UNL     1       9.049  -0.025 -11.475  1.00  0.00     0.029 A 
ATOM     36  C   UNL     1       8.470  -1.053 -10.743  1.00  0.00     0.049 A 
ATOM     37  H   UNL     1       7.450  -0.945  -8.902  1.00  0.00     0.167 HD
ATOM     38  C   UNL     1       7.835  -3.431 -10.307  1.00  0.00     0.074 A 
ATOM     39  C   UNL     1       7.821  -4.837 -10.667  1.00  0.00     0.031 C 
ATOM     40  C   UNL     1       8.420  -2.462 -11.058  1.00  0.00     0.034 A 
BRANCH  27  41
ATOM     41  C   UNL     1       8.057   3.284  -8.667  1.00  0.00     0.023 A 
ATOM     42  C   UNL     1       8.804   3.937  -7.669  1.00  0.00     0.031 A 
ATOM     43  C   UNL     1       7.489   4.071  -9.685  1.00  0.00     0.131 A 
ATOM     44  C   UNL     1       8.880   5.340  -7.659  1.00  0.00     0.055 A 
ATOM     45  C   UNL     1       7.638   5.459  -9.713  1.00  0.00     0.041 A 
ATOM     46  F   UNL     1       6.737   3.508 -10.644  1.00  0.00    -0.206 F 
ATOM     47  C   UNL     1       8.320   6.103  -8.686  1.00  0.00     0.022 A 
BRANCH  44  48
ATOM     48  S   UNL     1       9.569   6.161  -6.194  1.00  0.00     0.124 S 
ATOM     49  O   UNL     1       8.657   5.706  -5.144  1.00  0.00    -0.237 OA
ATOM     50  O   UNL     1      10.921   5.634  -6.138  1.00  0.00    -0.237 OA
ATOM     51  O   UNL     1       9.464   7.586  -6.518  1.00  0.00    -0.744 OA
ENDBRANCH  44  48
ENDBRANCH  27  41
BRANCH  28  52
ATOM     52  C   UNL     1       5.571  -6.457  -7.449  1.00  0.00     0.023 A 
ATOM     53  C   UNL     1       6.535  -7.469  -7.312  1.00  0.00     0.031 A 
ATOM     54  C   UNL     1       4.217  -6.845  -7.476  1.00  0.00     0.131 A 
ATOM     55  C   UNL     1       6.135  -8.816  -7.240  1.00  0.00     0.055 A 
ATOM     56  C   UNL     1       3.822  -8.178  -7.348  1.00  0.00     0.041 A 
ATOM     57  F   UNL     1       3.248  -5.927  -7.621  1.00  0.00    -0.206 F 
ATOM     58  C   UNL     1       4.785  -9.175  -7.241  1.00  0.00     0.022 A 
BRANCH  55  59
ATOM     59  S   UNL     1       7.407 -10.110  -7.236  1.00  0.00     0.124 S 
ATOM     60  O   UNL     1       8.148  -9.805  -8.454  1.00  0.00    -0.237 OA
ATOM     61  O   UNL     1       8.101  -9.849  -5.979  1.00  0.00    -0.237 OA
ATOM     62  O   UNL     1       6.633 -11.350  -7.272  1.00  0.00    -0.744 OA
ENDBRANCH  55  59
ENDBRANCH  28  52
BRANCH  40  63
ATOM     63  C   UNL     1       9.107  -2.914 -12.318  1.00  0.00     0.023 A 
ATOM     64  C   UNL     1       8.374  -3.366 -13.428  1.00  0.00     0.031 A 
ATOM     65  C   UNL     1      10.509  -2.884 -12.406  1.00  0.00     0.131 A 
ATOM     66  C   UNL     1       9.052  -3.815 -14.569  1.00  0.00     0.055 A 
ATOM     67  C   UNL     1      11.175  -3.283 -13.563  1.00  0.00     0.041 A 
ATOM     68  F   UNL     1      11.249  -2.457 -11.371  1.00  0.00    -0.206 F 
ATOM     69  C   UNL     1      10.447  -3.762 -14.649  1.00  0.00     0.022 A 
BRANCH  66  70
ATOM     70  S   UNL     1       8.087  -4.534 -15.925  1.00  0.00     0.124 S 
ATOM     71  O   UNL     1       7.457  -5.678 -15.275  1.00  0.00    -0.237 OA
ATOM     72  O   UNL     1       7.196  -3.438 -16.291  1.00  0.00    -0.237 OA
ATOM     73  O   UNL     1       9.100  -4.869 -16.925  1.00  0.00    -0.744 OA
ENDBRANCH  66  70
ENDBRANCH  40  63
ENDBRANCH  14  15
ENDBRANCH   7   9
ENDBRANCH   6   7
ENDBRANCH   5   6
ENDBRANCH   4   5
ENDBRANCH   3   4
ENDBRANCH   2   3
ENDBRANCH   1   2
BRANCH   1  74
ATOM     74  O   UNL     1       3.250  -2.829   2.270  1.00  0.00    -0.377 OA
BRANCH  74  75
ATOM     75  C   UNL     1       4.616  -2.841   1.879  1.00  0.00     0.188 C 
BRANCH  75  76
ATOM     76  C   UNL     1       5.002  -3.715   0.682  1.00  0.00     0.188 C 
BRANCH  76  77
ATOM     77  O   UNL     1       3.975  -4.138  -0.191  1.00  0.00    -0.376 OA
BRANCH  77  78
ATOM     78  C   UNL     1       3.020  -5.102   0.251  1.00  0.00     0.202 C 
BRANCH  78  79
ATOM     79  C   UNL     1       3.359  -6.117   1.354  1.00  0.00     0.261 C 
BRANCH  79  80
ATOM     80  O   UNL     1       3.340  -5.574   2.700  1.00  0.00    -0.463 OA
BRANCH  80  81
ATOM     81  C   UNL     1       4.498  -5.664   3.388  1.00  0.00     0.309 C 
ATOM     82  O   UNL     1       5.535  -6.134   2.929  1.00  0.00    -0.252 OA
BRANCH  81  83
ATOM     83  C   UNL     1       4.452  -5.222   4.847  1.00  0.00     0.112 C 
BRANCH  83  84
ATOM     84  C   UNL     1       3.806  -3.874   5.240  1.00  0.00     0.052 C 
BRANCH  84  85
ATOM     85  C   UNL     1       2.344  -3.514   5.077  1.00  0.00    -0.033 A 
ATOM     86  C   UNL     1       1.355  -4.468   4.810  1.00  0.00     0.005 A 
ATOM     87  C   UNL     1       1.929  -2.165   5.192  1.00  0.00     0.021 A 
ATOM     88  C   UNL     1       0.018  -4.095   4.625  1.00  0.00     0.000 A 
ATOM     89  C   UNL     1       0.595  -1.791   4.986  1.00  0.00     0.016 A 
ATOM     90  Br  UNL     1       3.134  -0.752   5.634  1.00  0.00    -0.051 Br
ATOM     91  C   UNL     1      -0.361  -2.758   4.698  1.00  0.00     0.001 A 
ENDBRANCH  84  85
ENDBRANCH  83  84
BRANCH  83  92
ATOM     92  C   UNL     1       4.152  -6.361   5.827  1.00  0.00     0.131 C 
BRANCH  92  93
ATOM     93  C   UNL     1       4.840  -7.668   5.482  1.00  0.00     0.389 C 
ATOM     94  F   UNL     1       6.165  -7.506   5.303  1.00  0.00    -0.171 F 
ATOM     95  F   UNL     1       4.677  -8.547   6.499  1.00  0.00    -0.171 F 
ATOM     96  F   UNL     1       4.306  -8.230   4.380  1.00  0.00    -0.171 F 
ENDBRANCH  92  93
ENDBRANCH  83  92
ENDBRANCH  81  83
ENDBRANCH  80  81
ENDBRANCH  79  80
ENDBRANCH  78  79
ENDBRANCH  77  78
ENDBRANCH  76  77
ENDBRANCH  75  76
ENDBRANCH  74  75
ENDBRANCH   1  74
TORSDOF 27
