REMARK SMILES Cc1[nH]c2ccccc2c1[C@@H](C(=O)OCCOCCOCCOCCOC(=O)c1ccc(-c2c3nc(c(-c4cc(S(=O)(=O)[O-])ccc4F)c4ccc([nH]4)c(-c4cc(S(=O)(=O)[O-])ccc4F)c4nc(c(-c5cc(S(=O)(=O)[O-])ccc5F)c5ccc2[nH]5)C=C4)C=C3)cc1)[NH+]1CCCC1
REMARK SMILES IDX 21 1 20 2 19 3 18 4 17 5 16 6 15 7 14 8 12 9 13 10 11 11
REMARK SMILES IDX 10 12 1 13 2 14 3 15 4 16 9 18 5 19 8 20 6 21 7 22 92 23
REMARK SMILES IDX 93 24 96 25 94 27 95 28 22 29 23 30 24 31 25 32 26 33 27 34
REMARK SMILES IDX 28 35 29 36 30 37 91 38 31 39 90 40 32 41 33 42 34 43 84 44
REMARK SMILES IDX 35 45 89 46 83 47 85 48 36 49 88 50 82 51 81 52 37 54 69 55
REMARK SMILES IDX 49 56 68 57 50 58 53 59 67 60 86 61 51 62 52 63 66 65 87 66
REMARK SMILES IDX 54 67 38 68 39 69 47 70 40 71 46 72 48 73 45 74 41 75 42 76
REMARK SMILES IDX 43 77 44 78 70 79 71 80 79 81 72 82 78 83 80 84 77 85 73 86
REMARK SMILES IDX 74 87 75 88 76 89 55 90 56 91 64 92 57 93 63 94 65 95 62 96
REMARK SMILES IDX 58 97 59 98 60 99 61 100
REMARK H PARENT 3 17 92 26 85 53 53 64
REMARK Flexibility Score: inf
ROOT
ATOM      1  C   UNL     1       1.611  -1.866  -4.107  1.00  0.00     0.188 C 
ENDROOT
BRANCH   1   2
ATOM      2  O   UNL     1       0.547  -2.349  -3.311  1.00  0.00    -0.377 OA
BRANCH   2   3
ATOM      3  C   UNL     1       0.874  -2.671  -1.977  1.00  0.00     0.188 C 
BRANCH   3   4
ATOM      4  C   UNL     1       1.006  -4.175  -1.692  1.00  0.00     0.188 C 
BRANCH   4   5
ATOM      5  O   UNL     1       0.360  -5.144  -2.512  1.00  0.00    -0.376 OA
BRANCH   5   6
ATOM      6  C   UNL     1      -0.677  -4.751  -3.396  1.00  0.00     0.202 C 
BRANCH   6   7
ATOM      7  C   UNL     1      -2.001  -4.251  -2.787  1.00  0.00     0.261 C 
BRANCH   7   8
ATOM      8  O   UNL     1      -1.942  -3.201  -1.792  1.00  0.00    -0.459 OA
BRANCH   8   9
ATOM      9  C   UNL     1      -1.917  -3.616  -0.492  1.00  0.00     0.370 C 
ATOM     10  O   UNL     1      -1.919  -4.811  -0.188  1.00  0.00    -0.245 OA
BRANCH   9  11
ATOM     11  C   UNL     1      -2.025  -2.477   0.570  1.00  0.00     0.328 C 
BRANCH  11  12
ATOM     12  C   UNL     1      -1.465  -1.054   0.303  1.00  0.00     0.049 A 
ATOM     13  C   UNL     1      -3.755   0.120  -0.301  1.00  0.00     0.065 C 
ATOM     14  C   UNL     1      -2.289   0.018  -0.067  1.00  0.00     0.022 A 
ATOM     15  N   UNL     1      -1.531   1.152  -0.179  1.00  0.00    -0.358 N 
ATOM     16  C   UNL     1      -0.241   0.918   0.201  1.00  0.00     0.046 A 
ATOM     17  H   UNL     1      -1.872   2.021  -0.492  1.00  0.00     0.166 HD
ATOM     18  C   UNL     1      -0.133  -0.450   0.474  1.00  0.00     0.009 A 
ATOM     19  C   UNL     1       0.818   1.836   0.311  1.00  0.00     0.027 A 
ATOM     20  C   UNL     1       1.165  -0.883   0.846  1.00  0.00     0.011 A 
ATOM     21  C   UNL     1       2.058   1.367   0.733  1.00  0.00     0.002 A 
ATOM     22  C   UNL     1       2.232   0.019   0.997  1.00  0.00     0.001 A 
ENDBRANCH  11  12
BRANCH  11  23
ATOM     23  N   UNL     1      -1.738  -3.012   1.918  1.00  0.00    -0.319 N 
ATOM     24  C   UNL     1      -2.202  -2.254   3.060  1.00  0.00     0.263 C 
ATOM     25  C   UNL     1      -0.424  -3.562   2.194  1.00  0.00     0.263 C 
ATOM     26  H   UNL     1      -2.357  -3.816   1.812  1.00  0.00     0.349 HD
ATOM     27  C   UNL     1      -0.936  -1.734   3.704  1.00  0.00     0.067 C 
ATOM     28  C   UNL     1       0.092  -2.818   3.422  1.00  0.00     0.067 C 
ENDBRANCH  11  23
ENDBRANCH   9  11
ENDBRANCH   8   9
ENDBRANCH   7   8
ENDBRANCH   6   7
ENDBRANCH   5   6
ENDBRANCH   4   5
ENDBRANCH   3   4
ENDBRANCH   2   3
ENDBRANCH   1   2
BRANCH   1  29
ATOM     29  C   UNL     1       2.888  -2.716  -4.077  1.00  0.00     0.188 C 
BRANCH  29  30
ATOM     30  O   UNL     1       3.491  -2.791  -2.783  1.00  0.00    -0.376 OA
BRANCH  30  31
ATOM     31  C   UNL     1       4.551  -1.886  -2.495  1.00  0.00     0.202 C 
BRANCH  31  32
ATOM     32  C   UNL     1       4.145  -0.427  -2.233  1.00  0.00     0.261 C 
BRANCH  32  33
ATOM     33  O   UNL     1       3.617   0.307  -3.344  1.00  0.00    -0.460 OA
BRANCH  33  34
ATOM     34  C   UNL     1       4.299   0.315  -4.508  1.00  0.00     0.338 C 
ATOM     35  O   UNL     1       5.408  -0.142  -4.716  1.00  0.00    -0.246 OA
BRANCH  34  36
ATOM     36  C   UNL     1       3.346   0.764  -5.542  1.00  0.00     0.060 A 
ATOM     37  C   UNL     1       3.084  -0.082  -6.627  1.00  0.00     0.016 A 
ATOM     38  C   UNL     1       2.654   1.970  -5.393  1.00  0.00     0.016 A 
ATOM     39  C   UNL     1       2.126   0.280  -7.572  1.00  0.00     0.010 A 
ATOM     40  C   UNL     1       1.719   2.345  -6.357  1.00  0.00     0.010 A 
ATOM     41  C   UNL     1       1.466   1.510  -7.459  1.00  0.00    -0.014 A 
BRANCH  41  42
ATOM     42  C   UNL     1       0.681   2.027  -8.601  1.00  0.00     0.031 A 
ATOM     43  C   UNL     1       1.395   2.896  -9.596  1.00  0.00     0.074 A 
ATOM     44  C   UNL     1      -0.624   1.735  -8.744  1.00  0.00     0.049 A 
ATOM     45  N   UNL     1       0.927   3.524 -10.640  1.00  0.00    -0.248 NA
ATOM     46  C   UNL     1       2.840   3.083  -9.375  1.00  0.00     0.031 C 
ATOM     47  C   UNL     1      -1.397   0.865  -7.859  1.00  0.00     0.029 A 
ATOM     48  N   UNL     1      -1.531   2.151  -9.685  1.00  0.00    -0.354 N 
ATOM     49  C   UNL     1       2.017   4.179 -11.203  1.00  0.00     0.074 A 
ATOM     50  C   UNL     1       3.161   3.900 -10.364  1.00  0.00     0.031 C 
ATOM     51  C   UNL     1      -2.670   0.826  -8.292  1.00  0.00     0.029 A 
ATOM     52  C   UNL     1      -2.811   1.700  -9.456  1.00  0.00     0.049 A 
ATOM     53  H   UNL     1      -1.290   2.719 -10.452  1.00  0.00     0.167 HD
ATOM     54  C   UNL     1       2.056   4.941 -12.322  1.00  0.00     0.034 A 
ATOM     55  C   UNL     1      -3.962   1.991 -10.097  1.00  0.00     0.034 A 
ATOM     56  C   UNL     1       0.895   5.229 -13.124  1.00  0.00     0.049 A 
ATOM     57  C   UNL     1      -3.913   2.934 -11.279  1.00  0.00     0.074 A 
ATOM     58  C   UNL     1       0.813   5.976 -14.284  1.00  0.00     0.029 A 
ATOM     59  N   UNL     1      -0.394   4.800 -12.832  1.00  0.00    -0.354 N 
ATOM     60  N   UNL     1      -2.873   3.530 -11.820  1.00  0.00    -0.248 NA
ATOM     61  C   UNL     1      -5.189   3.247 -11.935  1.00  0.00     0.031 C 
ATOM     62  C   UNL     1      -0.535   6.067 -14.648  1.00  0.00     0.029 A 
ATOM     63  C   UNL     1      -1.285   5.307 -13.764  1.00  0.00     0.049 A 
ATOM     64  H   UNL     1      -0.638   4.221 -12.075  1.00  0.00     0.167 HD
ATOM     65  C   UNL     1      -3.369   4.266 -12.893  1.00  0.00     0.074 A 
ATOM     66  C   UNL     1      -4.798   4.027 -12.932  1.00  0.00     0.031 C 
ATOM     67  C   UNL     1      -2.709   5.065 -13.771  1.00  0.00     0.034 A 
BRANCH  54  68
ATOM     68  C   UNL     1       3.381   5.558 -12.692  1.00  0.00     0.023 A 
ATOM     69  C   UNL     1       4.492   4.772 -13.046  1.00  0.00     0.031 A 
ATOM     70  C   UNL     1       3.547   6.954 -12.649  1.00  0.00     0.131 A 
ATOM     71  C   UNL     1       5.735   5.382 -13.275  1.00  0.00     0.055 A 
ATOM     72  C   UNL     1       4.766   7.559 -12.956  1.00  0.00     0.041 A 
ATOM     73  F   UNL     1       2.530   7.752 -12.288  1.00  0.00    -0.206 F 
ATOM     74  C   UNL     1       5.874   6.772 -13.258  1.00  0.00     0.022 A 
BRANCH  71  75
ATOM     75  S   UNL     1       7.199   4.326 -13.456  1.00  0.00     0.124 S 
ATOM     76  O   UNL     1       7.199   3.602 -12.187  1.00  0.00    -0.237 OA
ATOM     77  O   UNL     1       6.876   3.539 -14.640  1.00  0.00    -0.237 OA
ATOM     78  O   UNL     1       8.293   5.281 -13.620  1.00  0.00    -0.744 OA
ENDBRANCH  71  75
ENDBRANCH  54  68
BRANCH  55  79
ATOM     79  C   UNL     1      -5.264   1.443  -9.614  1.00  0.00     0.023 A 
ATOM     80  C   UNL     1      -6.053   0.611 -10.424  1.00  0.00     0.031 A 
ATOM     81  C   UNL     1      -5.771   1.800  -8.350  1.00  0.00     0.131 A 
ATOM     82  C   UNL     1      -7.323   0.202  -9.983  1.00  0.00     0.055 A 
ATOM     83  C   UNL     1      -7.009   1.345  -7.893  1.00  0.00     0.041 A 
ATOM     84  F   UNL     1      -5.065   2.601  -7.536  1.00  0.00    -0.206 F 
ATOM     85  C   UNL     1      -7.799   0.551  -8.718  1.00  0.00     0.022 A 
BRANCH  82  86
ATOM     86  S   UNL     1      -8.388  -0.717 -11.129  1.00  0.00     0.124 S 
ATOM     87  O   UNL     1      -8.483   0.208 -12.252  1.00  0.00    -0.237 OA
ATOM     88  O   UNL     1      -7.609  -1.929 -11.359  1.00  0.00    -0.237 OA
ATOM     89  O   UNL     1      -9.622  -0.906 -10.369  1.00  0.00    -0.744 OA
ENDBRANCH  82  86
ENDBRANCH  55  79
BRANCH  67  90
ATOM     90  C   UNL     1      -3.524   5.712 -14.863  1.00  0.00     0.023 A 
ATOM     91  C   UNL     1      -4.470   6.713 -14.583  1.00  0.00     0.031 A 
ATOM     92  C   UNL     1      -3.334   5.336 -16.205  1.00  0.00     0.131 A 
ATOM     93  C   UNL     1      -5.219   7.276 -15.626  1.00  0.00     0.055 A 
ATOM     94  C   UNL     1      -4.040   5.942 -17.244  1.00  0.00     0.041 A 
ATOM     95  F   UNL     1      -2.444   4.384 -16.528  1.00  0.00    -0.206 F 
ATOM     96  C   UNL     1      -4.996   6.911 -16.957  1.00  0.00     0.022 A 
BRANCH  93  97
ATOM     97  S   UNL     1      -6.543   8.445 -15.216  1.00  0.00     0.124 S 
ATOM     98  O   UNL     1      -7.421   7.629 -14.383  1.00  0.00    -0.237 OA
ATOM     99  O   UNL     1      -5.820   9.509 -14.527  1.00  0.00    -0.237 OA
ATOM    100  O   UNL     1      -7.091   8.814 -16.520  1.00  0.00    -0.744 OA
ENDBRANCH  93  97
ENDBRANCH  67  90
ENDBRANCH  41  42
ENDBRANCH  34  36
ENDBRANCH  33  34
ENDBRANCH  32  33
ENDBRANCH  31  32
ENDBRANCH  30  31
ENDBRANCH  29  30
ENDBRANCH   1  29
TORSDOF 25
