REMARK SMILES CN(CCc1cccs1)C(=O)N[C@H](CC(N)=O)C(=O)OCCOCCOCCOCCOC(=O)c1ccc(-c2c3nc(c(-c4cc(S(=O)(=O)[O-])ccc4F)c4ccc([nH]4)c(-c4cc(S(=O)(=O)[O-])ccc4F)c4nc(c(-c5cc(S(=O)(=O)[O-])ccc5F)c5ccc2[nH]5)C=C4)C=C3)cc1
REMARK SMILES IDX 25 1 24 2 23 3 22 4 21 5 20 6 18 7 19 8 13 9 12 10 10 11
REMARK SMILES IDX 11 12 2 14 1 15 3 16 4 17 5 18 6 19 9 20 7 21 8 22 14 23
REMARK SMILES IDX 15 24 16 25 17 26 26 29 27 30 28 31 29 32 30 33 31 34 32 35
REMARK SMILES IDX 33 36 34 37 35 38 36 39 97 40 37 41 96 42 38 43 39 44 40 45
REMARK SMILES IDX 90 46 41 47 95 48 89 49 91 50 42 51 94 52 88 53 87 54 43 56
REMARK SMILES IDX 75 57 55 58 74 59 56 60 59 61 73 62 92 63 57 64 58 65 72 67
REMARK SMILES IDX 93 68 60 69 44 70 45 71 53 72 46 73 52 74 54 75 51 76 47 77
REMARK SMILES IDX 48 78 49 79 50 80 76 81 77 82 85 83 78 84 84 85 86 86 83 87
REMARK SMILES IDX 79 88 80 89 81 90 82 91 61 92 62 93 70 94 63 95 69 96 71 97
REMARK SMILES IDX 68 98 64 99 65 100 66 101 67 102
REMARK H PARENT 12 13 16 27 16 28 91 55 59 66
REMARK Flexibility Score: inf
ROOT
ATOM      1  C   UNL     1       2.364  -0.980  -4.751  1.00  0.00     0.188 C 
ENDROOT
BRANCH   1   2
ATOM      2  C   UNL     1       1.729  -1.863  -5.830  1.00  0.00     0.188 C 
BRANCH   2   3
ATOM      3  O   UNL     1       2.260  -1.659  -7.136  1.00  0.00    -0.376 OA
BRANCH   3   4
ATOM      4  C   UNL     1       1.275  -1.325  -8.112  1.00  0.00     0.202 C 
BRANCH   4   5
ATOM      5  C   UNL     1       0.680   0.094  -8.010  1.00  0.00     0.261 C 
BRANCH   5   6
ATOM      6  O   UNL     1       0.535   0.545  -6.651  1.00  0.00    -0.462 OA
BRANCH   6   7
ATOM      7  C   UNL     1      -0.691   0.908  -6.210  1.00  0.00     0.329 C 
ATOM      8  O   UNL     1      -1.702   0.909  -6.905  1.00  0.00    -0.250 OA
BRANCH   7   9
ATOM      9  C   UNL     1      -0.674   1.262  -4.701  1.00  0.00     0.203 C 
BRANCH   9  10
ATOM     10  N   UNL     1      -2.089   1.546  -4.383  1.00  0.00    -0.324 N 
ATOM     11  C   UNL     1      -2.880   1.635  -3.310  1.00  0.00     0.317 C 
ATOM     12  O   UNL     1      -3.992   2.133  -3.524  1.00  0.00    -0.249 OA
ATOM     13  H   UNL     1      -2.600   1.722  -5.206  1.00  0.00     0.166 HD
BRANCH  11  14
ATOM     14  N   UNL     1      -2.535   1.194  -2.065  1.00  0.00    -0.328 N 
ATOM     15  C   UNL     1      -3.479   1.509  -1.000  1.00  0.00     0.148 C 
BRANCH  14  16
ATOM     16  C   UNL     1      -1.508   0.209  -1.711  1.00  0.00     0.126 C 
BRANCH  16  17
ATOM     17  C   UNL     1      -1.969  -1.259  -1.738  1.00  0.00     0.068 C 
BRANCH  17  18
ATOM     18  C   UNL     1      -2.287  -1.774  -3.115  1.00  0.00     0.006 A 
ATOM     19  C   UNL     1      -3.399  -1.516  -3.893  1.00  0.00     0.015 A 
ATOM     20  S   UNL     1      -1.223  -2.858  -3.905  1.00  0.00    -0.149 S 
ATOM     21  C   UNL     1      -3.302  -2.089  -5.192  1.00  0.00     0.012 A 
ATOM     22  C   UNL     1      -2.154  -2.833  -5.340  1.00  0.00     0.065 A 
ENDBRANCH  17  18
ENDBRANCH  16  17
ENDBRANCH  14  16
ENDBRANCH  11  14
ENDBRANCH   9  10
BRANCH   9  23
ATOM     23  C   UNL     1       0.210   2.485  -4.423  1.00  0.00     0.136 C 
BRANCH  23  24
ATOM     24  C   UNL     1       1.355   2.218  -3.461  1.00  0.00     0.220 C 
ATOM     25  N   UNL     1       2.490   2.937  -3.696  1.00  0.00    -0.370 N 
ATOM     26  O   UNL     1       1.289   1.489  -2.477  1.00  0.00    -0.275 OA
ATOM     27  H   UNL     1       2.547   3.524  -4.485  1.00  0.00     0.159 HD
ATOM     28  H   UNL     1       3.252   2.870  -3.076  1.00  0.00     0.159 HD
ENDBRANCH  23  24
ENDBRANCH   9  23
ENDBRANCH   7   9
ENDBRANCH   6   7
ENDBRANCH   5   6
ENDBRANCH   4   5
ENDBRANCH   3   4
ENDBRANCH   2   3
ENDBRANCH   1   2
BRANCH   1  29
ATOM     29  O   UNL     1       2.834   0.303  -5.143  1.00  0.00    -0.377 OA
BRANCH  29  30
ATOM     30  C   UNL     1       3.824   0.392  -6.165  1.00  0.00     0.188 C 
BRANCH  30  31
ATOM     31  C   UNL     1       4.923  -0.684  -6.229  1.00  0.00     0.188 C 
BRANCH  31  32
ATOM     32  O   UNL     1       5.137  -1.376  -5.009  1.00  0.00    -0.376 OA
BRANCH  32  33
ATOM     33  C   UNL     1       6.176  -0.903  -4.165  1.00  0.00     0.202 C 
BRANCH  33  34
ATOM     34  C   UNL     1       6.000   0.510  -3.592  1.00  0.00     0.261 C 
BRANCH  34  35
ATOM     35  O   UNL     1       6.045   1.598  -4.534  1.00  0.00    -0.460 OA
BRANCH  35  36
ATOM     36  C   UNL     1       7.098   1.678  -5.378  1.00  0.00     0.338 C 
ATOM     37  O   UNL     1       8.079   0.958  -5.409  1.00  0.00    -0.246 OA
BRANCH  36  38
ATOM     38  C   UNL     1       6.774   2.701  -6.391  1.00  0.00     0.060 A 
ATOM     39  C   UNL     1       6.686   2.333  -7.740  1.00  0.00     0.016 A 
ATOM     40  C   UNL     1       6.567   4.026  -6.001  1.00  0.00     0.016 A 
ATOM     41  C   UNL     1       6.423   3.302  -8.712  1.00  0.00     0.010 A 
ATOM     42  C   UNL     1       6.325   4.995  -6.975  1.00  0.00     0.010 A 
ATOM     43  C   UNL     1       6.285   4.645  -8.337  1.00  0.00    -0.014 A 
BRANCH  43  44
ATOM     44  C   UNL     1       6.337   5.721  -9.358  1.00  0.00     0.031 A 
ATOM     45  C   UNL     1       7.667   6.376  -9.613  1.00  0.00     0.074 A 
ATOM     46  C   UNL     1       5.241   6.126 -10.022  1.00  0.00     0.049 A 
ATOM     47  N   UNL     1       7.954   7.429 -10.332  1.00  0.00    -0.248 NA
ATOM     48  C   UNL     1       8.829   5.759  -8.954  1.00  0.00     0.031 C 
ATOM     49  C   UNL     1       3.913   5.526  -9.910  1.00  0.00     0.029 A 
ATOM     50  N   UNL     1       5.071   7.157 -10.913  1.00  0.00    -0.354 N 
ATOM     51  C   UNL     1       9.327   7.609 -10.203  1.00  0.00     0.074 A 
ATOM     52  C   UNL     1       9.807   6.575  -9.312  1.00  0.00     0.031 C 
ATOM     53  C   UNL     1       3.058   6.216 -10.687  1.00  0.00     0.029 A 
ATOM     54  C   UNL     1       3.766   7.334 -11.310  1.00  0.00     0.049 A 
ATOM     55  H   UNL     1       5.813   7.717 -11.236  1.00  0.00     0.167 HD
ATOM     56  C   UNL     1      10.115   8.552 -10.775  1.00  0.00     0.034 A 
ATOM     57  C   UNL     1       3.206   8.309 -12.058  1.00  0.00     0.034 A 
ATOM     58  C   UNL     1       9.617   9.588 -11.643  1.00  0.00     0.049 A 
ATOM     59  C   UNL     1       4.085   9.414 -12.602  1.00  0.00     0.074 A 
ATOM     60  C   UNL     1      10.322  10.599 -12.272  1.00  0.00     0.029 A 
ATOM     61  N   UNL     1       8.284   9.755 -11.996  1.00  0.00    -0.354 N 
ATOM     62  N   UNL     1       5.380   9.587 -12.461  1.00  0.00    -0.248 NA
ATOM     63  C   UNL     1       3.428  10.453 -13.408  1.00  0.00     0.031 C 
ATOM     64  C   UNL     1       9.408  11.418 -12.944  1.00  0.00     0.029 A 
ATOM     65  C   UNL     1       8.143  10.869 -12.808  1.00  0.00     0.049 A 
ATOM     66  H   UNL     1       7.547   9.168 -11.710  1.00  0.00     0.167 HD
ATOM     67  C   UNL     1       5.695  10.729 -13.197  1.00  0.00     0.074 A 
ATOM     68  C   UNL     1       4.456  11.203 -13.777  1.00  0.00     0.031 C 
ATOM     69  C   UNL     1       6.900  11.325 -13.386  1.00  0.00     0.034 A 
BRANCH  56  70
ATOM     70  C   UNL     1      11.582   8.534 -10.419  1.00  0.00     0.023 A 
ATOM     71  C   UNL     1      12.414   7.454 -10.761  1.00  0.00     0.031 A 
ATOM     72  C   UNL     1      12.145   9.595  -9.688  1.00  0.00     0.131 A 
ATOM     73  C   UNL     1      13.741   7.423 -10.307  1.00  0.00     0.055 A 
ATOM     74  C   UNL     1      13.489   9.597  -9.312  1.00  0.00     0.041 A 
ATOM     75  F   UNL     1      11.393  10.640  -9.309  1.00  0.00    -0.206 F 
ATOM     76  C   UNL     1      14.292   8.500  -9.608  1.00  0.00     0.022 A 
BRANCH  73  77
ATOM     77  S   UNL     1      14.691   5.892 -10.512  1.00  0.00     0.124 S 
ATOM     78  O   UNL     1      13.859   4.931  -9.792  1.00  0.00    -0.237 OA
ATOM     79  O   UNL     1      14.735   5.739 -11.961  1.00  0.00    -0.237 OA
ATOM     80  O   UNL     1      15.972   6.195  -9.876  1.00  0.00    -0.744 OA
ENDBRANCH  73  77
ENDBRANCH  56  70
BRANCH  57  81
ATOM     81  C   UNL     1       1.733   8.329 -12.299  1.00  0.00     0.023 A 
ATOM     82  C   UNL     1       1.206   8.223 -13.596  1.00  0.00     0.031 A 
ATOM     83  C   UNL     1       0.830   8.521 -11.237  1.00  0.00     0.131 A 
ATOM     84  C   UNL     1      -0.176   8.356 -13.804  1.00  0.00     0.055 A 
ATOM     85  C   UNL     1      -0.549   8.598 -11.443  1.00  0.00     0.041 A 
ATOM     86  F   UNL     1       1.278   8.634  -9.976  1.00  0.00    -0.206 F 
ATOM     87  C   UNL     1      -1.058   8.529 -12.736  1.00  0.00     0.022 A 
BRANCH  84  88
ATOM     88  S   UNL     1      -0.798   8.391 -15.508  1.00  0.00     0.124 S 
ATOM     89  O   UNL     1      -0.074   9.528 -16.064  1.00  0.00    -0.237 OA
ATOM     90  O   UNL     1      -0.404   7.075 -16.001  1.00  0.00    -0.237 OA
ATOM     91  O   UNL     1      -2.237   8.587 -15.341  1.00  0.00    -0.744 OA
ENDBRANCH  84  88
ENDBRANCH  57  81
BRANCH  69  92
ATOM     92  C   UNL     1       6.954  12.510 -14.319  1.00  0.00     0.023 A 
ATOM     93  C   UNL     1       6.363  13.744 -13.999  1.00  0.00     0.031 A 
ATOM     94  C   UNL     1       7.638  12.402 -15.544  1.00  0.00     0.131 A 
ATOM     95  C   UNL     1       6.433  14.809 -14.912  1.00  0.00     0.055 A 
ATOM     96  C   UNL     1       7.753  13.479 -16.422  1.00  0.00     0.041 A 
ATOM     97  F   UNL     1       8.222  11.245 -15.900  1.00  0.00    -0.206 F 
ATOM     98  C   UNL     1       7.140  14.689 -16.113  1.00  0.00     0.022 A 
BRANCH  95  99
ATOM     99  S   UNL     1       5.530  16.338 -14.544  1.00  0.00     0.124 S 
ATOM    100  O   UNL     1       4.155  15.862 -14.441  1.00  0.00    -0.237 OA
ATOM    101  O   UNL     1       6.149  16.774 -13.296  1.00  0.00    -0.237 OA
ATOM    102  O   UNL     1       5.807  17.188 -15.701  1.00  0.00    -0.744 OA
ENDBRANCH  95  99
ENDBRANCH  69  92
ENDBRANCH  43  44
ENDBRANCH  36  38
ENDBRANCH  35  36
ENDBRANCH  34  35
ENDBRANCH  33  34
ENDBRANCH  32  33
ENDBRANCH  31  32
ENDBRANCH  30  31
ENDBRANCH  29  30
ENDBRANCH   1  29
TORSDOF 30
