REMARK SMILES CCn1c(CC2CC[NH+](Cc3cn[nH]c3C(=O)OCCOCCOCCOCCOC(=O)c3ccc(-c4c5nc(c(-c6cc(S(=O)(=O)[O-])ccc6F)c6ccc([nH]6)c(-c6cc(S(=O)(=O)[O-])ccc6F)c6nc(c(-c7cc(S(=O)(=O)[O-])ccc7F)c7ccc4[nH]7)C=C6)C=C5)cc3)CC2)nn(C)c1=O
REMARK SMILES IDX 23 1 22 2 21 3 20 4 19 5 18 6 16 7 17 8 15 9 11 10 12 11
REMARK SMILES IDX 13 12 14 13 10 15 9 16 6 17 7 18 97 19 8 20 96 21 5 23 4 24
REMARK SMILES IDX 3 25 101 26 98 27 99 28 102 29 100 30 2 31 1 32 24 33 25 34
REMARK SMILES IDX 26 35 27 36 28 37 29 38 30 39 31 40 32 41 33 42 34 43 95 44
REMARK SMILES IDX 35 45 94 46 36 47 37 48 38 49 88 50 39 51 93 52 87 53 89 54
REMARK SMILES IDX 40 55 92 56 86 57 85 58 41 60 73 61 53 62 72 63 54 64 57 65
REMARK SMILES IDX 71 66 90 67 55 68 56 69 70 71 91 72 58 73 42 74 43 75 51 76
REMARK SMILES IDX 44 77 50 78 52 79 49 80 45 81 46 82 47 83 48 84 74 85 75 86
REMARK SMILES IDX 83 87 76 88 82 89 84 90 81 91 77 92 78 93 79 94 80 95 59 96
REMARK SMILES IDX 60 97 68 98 61 99 67 100 69 101 66 102 62 103 63 104 64 105
REMARK SMILES IDX 65 106
REMARK H PARENT 14 14 9 22 89 59 57 70
REMARK Flexibility Score: inf
ROOT
ATOM      1  C   UNL     1      -2.487  -2.213   0.898  1.00  0.00     0.188 C 
ENDROOT
BRANCH   1   2
ATOM      2  C   UNL     1      -3.465  -2.778  -0.149  1.00  0.00     0.188 C 
BRANCH   2   3
ATOM      3  O   UNL     1      -4.870  -2.846   0.047  1.00  0.00    -0.376 OA
BRANCH   3   4
ATOM      4  C   UNL     1      -5.491  -3.150   1.282  1.00  0.00     0.202 C 
BRANCH   4   5
ATOM      5  C   UNL     1      -5.087  -4.316   2.200  1.00  0.00     0.261 C 
BRANCH   5   6
ATOM      6  O   UNL     1      -3.709  -4.690   2.211  1.00  0.00    -0.459 OA
BRANCH   6   7
ATOM      7  C   UNL     1      -3.405  -5.600   1.256  1.00  0.00     0.356 C 
ATOM      8  O   UNL     1      -4.214  -6.147   0.534  1.00  0.00    -0.244 OA
BRANCH   7   9
ATOM      9  C   UNL     1      -1.984  -5.737   1.080  1.00  0.00     0.152 A 
ATOM     10  C   UNL     1      -0.820  -5.602   1.838  1.00  0.00     0.059 A 
ATOM     11  C   UNL     1       0.152  -6.175   0.976  1.00  0.00     0.145 A 
ATOM     12  N   UNL     1      -0.295  -6.454  -0.246  1.00  0.00    -0.183 NA
ATOM     13  N   UNL     1      -1.573  -6.101  -0.177  1.00  0.00    -0.271 N 
ATOM     14  H   UNL     1      -2.172  -6.102  -0.958  1.00  0.00     0.190 HD
BRANCH  10  15
ATOM     15  C   UNL     1      -0.609  -5.187   3.275  1.00  0.00     0.303 C 
BRANCH  15  16
ATOM     16  N   UNL     1       0.514  -4.255   3.549  1.00  0.00    -0.331 N 
ATOM     17  C   UNL     1       2.825  -2.432   3.096  1.00  0.00     0.008 C 
ATOM     18  C   UNL     1       2.996  -3.833   3.689  1.00  0.00     0.065 C 
ATOM     19  C   UNL     1       1.413  -1.935   3.404  1.00  0.00     0.065 C 
ATOM     20  C   UNL     1       1.857  -4.793   3.340  1.00  0.00     0.262 C 
ATOM     21  C   UNL     1       0.316  -2.919   2.998  1.00  0.00     0.262 C 
ATOM     22  H   UNL     1       0.476  -4.141   4.562  1.00  0.00     0.348 HD
BRANCH  17  23
ATOM     23  C   UNL     1       3.307  -2.224   1.640  1.00  0.00     0.081 C 
BRANCH  23  24
ATOM     24  C   UNL     1       2.726  -3.016   0.484  1.00  0.00     0.133 A 
ATOM     25  N   UNL     1       1.882  -2.546  -0.459  1.00  0.00    -0.279 N 
ATOM     26  C   UNL     1       1.664  -3.610  -1.322  1.00  0.00     0.345 A 
ATOM     27  N   UNL     1       3.114  -4.250   0.288  1.00  0.00    -0.155 NA
ATOM     28  N   UNL     1       2.456  -4.643  -0.845  1.00  0.00    -0.216 N 
ATOM     29  O   UNL     1       0.947  -3.615  -2.312  1.00  0.00    -0.246 OA
ATOM     30  C   UNL     1       2.619  -5.937  -1.450  1.00  0.00     0.179 C 
BRANCH  25  31
ATOM     31  C   UNL     1       1.236  -1.279  -0.777  1.00  0.00     0.125 C 
ATOM     32  C   UNL     1       1.715  -0.012  -0.110  1.00  0.00     0.028 C 
ENDBRANCH  25  31
ENDBRANCH  23  24
ENDBRANCH  17  23
ENDBRANCH  15  16
ENDBRANCH  10  15
ENDBRANCH   7   9
ENDBRANCH   6   7
ENDBRANCH   5   6
ENDBRANCH   4   5
ENDBRANCH   3   4
ENDBRANCH   2   3
ENDBRANCH   1   2
BRANCH   1  33
ATOM     33  O   UNL     1      -3.007  -2.157   2.209  1.00  0.00    -0.377 OA
BRANCH  33  34
ATOM     34  C   UNL     1      -3.540  -0.913   2.654  1.00  0.00     0.188 C 
BRANCH  34  35
ATOM     35  C   UNL     1      -4.306   0.003   1.660  1.00  0.00     0.188 C 
BRANCH  35  36
ATOM     36  O   UNL     1      -3.829  -0.066   0.325  1.00  0.00    -0.376 OA
BRANCH  36  37
ATOM     37  C   UNL     1      -3.203   1.040  -0.302  1.00  0.00     0.202 C 
BRANCH  37  38
ATOM     38  C   UNL     1      -1.854   1.511   0.236  1.00  0.00     0.261 C 
BRANCH  38  39
ATOM     39  O   UNL     1      -1.701   1.331   1.627  1.00  0.00    -0.460 OA
BRANCH  39  40
ATOM     40  C   UNL     1      -2.405   2.219   2.359  1.00  0.00     0.338 C 
ATOM     41  O   UNL     1      -3.220   3.022   1.943  1.00  0.00    -0.246 OA
BRANCH  40  42
ATOM     42  C   UNL     1      -1.994   2.088   3.759  1.00  0.00     0.060 A 
ATOM     43  C   UNL     1      -2.644   2.946   4.642  1.00  0.00     0.016 A 
ATOM     44  C   UNL     1      -0.735   1.528   4.019  1.00  0.00     0.016 A 
ATOM     45  C   UNL     1      -1.857   3.575   5.567  1.00  0.00     0.010 A 
ATOM     46  C   UNL     1       0.049   2.160   4.937  1.00  0.00     0.010 A 
ATOM     47  C   UNL     1      -0.494   3.267   5.579  1.00  0.00    -0.014 A 
BRANCH  47  48
ATOM     48  C   UNL     1       0.385   4.137   6.311  1.00  0.00     0.031 A 
ATOM     49  C   UNL     1       0.309   3.870   7.754  1.00  0.00     0.074 A 
ATOM     50  C   UNL     1       1.213   4.994   5.688  1.00  0.00     0.049 A 
ATOM     51  N   UNL     1      -0.294   4.577   8.648  1.00  0.00    -0.248 NA
ATOM     52  C   UNL     1       0.699   2.524   8.208  1.00  0.00     0.031 C 
ATOM     53  C   UNL     1       1.500   5.131   4.257  1.00  0.00     0.029 A 
ATOM     54  N   UNL     1       2.066   5.883   6.247  1.00  0.00    -0.354 N 
ATOM     55  C   UNL     1      -0.104   3.880   9.830  1.00  0.00     0.074 A 
ATOM     56  C   UNL     1       0.224   2.534   9.452  1.00  0.00     0.031 C 
ATOM     57  C   UNL     1       2.627   5.867   4.097  1.00  0.00     0.029 A 
ATOM     58  C   UNL     1       3.062   6.351   5.398  1.00  0.00     0.049 A 
ATOM     59  H   UNL     1       1.987   6.176   7.183  1.00  0.00     0.167 HD
ATOM     60  C   UNL     1       0.104   4.540  10.998  1.00  0.00     0.034 A 
ATOM     61  C   UNL     1       4.200   6.991   5.788  1.00  0.00     0.034 A 
ATOM     62  C   UNL     1      -0.337   5.915  10.902  1.00  0.00     0.049 A 
ATOM     63  C   UNL     1       3.923   7.538   7.148  1.00  0.00     0.074 A 
ATOM     64  C   UNL     1      -1.548   6.518  10.613  1.00  0.00     0.029 A 
ATOM     65  N   UNL     1       0.617   6.889  10.695  1.00  0.00    -0.354 N 
ATOM     66  N   UNL     1       3.024   8.462   7.370  1.00  0.00    -0.248 NA
ATOM     67  C   UNL     1       4.230   6.697   8.300  1.00  0.00     0.031 C 
ATOM     68  C   UNL     1      -1.218   7.630   9.782  1.00  0.00     0.029 A 
ATOM     69  C   UNL     1       0.173   7.702   9.677  1.00  0.00     0.049 A 
ATOM     70  H   UNL     1       1.464   6.986  11.188  1.00  0.00     0.167 HD
ATOM     71  C   UNL     1       2.355   8.058   8.519  1.00  0.00     0.074 A 
ATOM     72  C   UNL     1       3.195   7.005   9.091  1.00  0.00     0.031 C 
ATOM     73  C   UNL     1       1.045   8.387   8.736  1.00  0.00     0.034 A 
BRANCH  60  74
ATOM     74  C   UNL     1       1.056   4.053  12.063  1.00  0.00     0.023 A 
ATOM     75  C   UNL     1       1.121   4.803  13.246  1.00  0.00     0.031 A 
ATOM     76  C   UNL     1       2.077   3.084  11.890  1.00  0.00     0.131 A 
ATOM     77  C   UNL     1       2.195   4.643  14.138  1.00  0.00     0.055 A 
ATOM     78  C   UNL     1       3.100   2.879  12.815  1.00  0.00     0.041 A 
ATOM     79  F   UNL     1       2.213   2.347  10.783  1.00  0.00    -0.206 F 
ATOM     80  C   UNL     1       3.183   3.684  13.934  1.00  0.00     0.022 A 
BRANCH  77  81
ATOM     81  S   UNL     1       2.371   5.841  15.480  1.00  0.00     0.124 S 
ATOM     82  O   UNL     1       2.322   7.106  14.755  1.00  0.00    -0.237 OA
ATOM     83  O   UNL     1       1.212   5.528  16.310  1.00  0.00    -0.237 OA
ATOM     84  O   UNL     1       3.667   5.504  16.063  1.00  0.00    -0.744 OA
ENDBRANCH  77  81
ENDBRANCH  60  74
BRANCH  61  85
ATOM     85  C   UNL     1       5.572   6.737   5.251  1.00  0.00     0.023 A 
ATOM     86  C   UNL     1       6.654   7.630   5.419  1.00  0.00     0.031 A 
ATOM     87  C   UNL     1       5.891   5.458   4.735  1.00  0.00     0.131 A 
ATOM     88  C   UNL     1       7.971   7.234   5.066  1.00  0.00     0.055 A 
ATOM     89  C   UNL     1       7.189   5.075   4.387  1.00  0.00     0.041 A 
ATOM     90  F   UNL     1       4.960   4.498   4.625  1.00  0.00    -0.206 F 
ATOM     91  C   UNL     1       8.237   5.961   4.558  1.00  0.00     0.022 A 
BRANCH  88  92
ATOM     92  S   UNL     1       9.388   8.354   5.327  1.00  0.00     0.124 S 
ATOM     93  O   UNL     1       9.111   9.433   4.386  1.00  0.00    -0.237 OA
ATOM     94  O   UNL     1       9.272   8.682   6.744  1.00  0.00    -0.237 OA
ATOM     95  O   UNL     1      10.547   7.527   4.986  1.00  0.00    -0.744 OA
ENDBRANCH  88  92
ENDBRANCH  61  85
BRANCH  73  96
ATOM     96  C   UNL     1       0.392   9.393   7.799  1.00  0.00     0.023 A 
ATOM     97  C   UNL     1       0.254   9.228   6.399  1.00  0.00     0.031 A 
ATOM     98  C   UNL     1      -0.231  10.509   8.382  1.00  0.00     0.131 A 
ATOM     99  C   UNL     1      -0.475  10.171   5.642  1.00  0.00     0.055 A 
ATOM    100  C   UNL     1      -0.970  11.426   7.634  1.00  0.00     0.041 A 
ATOM    101  F   UNL     1      -0.165  10.707   9.709  1.00  0.00    -0.206 F 
ATOM    102  C   UNL     1      -1.090  11.263   6.259  1.00  0.00     0.022 A 
BRANCH  99 103
ATOM    103  S   UNL     1      -0.628   9.999   3.832  1.00  0.00     0.124 S 
ATOM    104  O   UNL     1       0.746   9.785   3.394  1.00  0.00    -0.237 OA
ATOM    105  O   UNL     1      -1.528   8.857   3.697  1.00  0.00    -0.237 OA
ATOM    106  O   UNL     1      -1.207  11.278   3.416  1.00  0.00    -0.744 OA
ENDBRANCH  99 103
ENDBRANCH  73  96
ENDBRANCH  47  48
ENDBRANCH  40  42
ENDBRANCH  39  40
ENDBRANCH  38  39
ENDBRANCH  37  38
ENDBRANCH  36  37
ENDBRANCH  35  36
ENDBRANCH  34  35
ENDBRANCH  33  34
ENDBRANCH   1  33
TORSDOF 28
