REMARK SMILES C[C@@H](C(=O)OCCOCCOCCOCCOC(=O)c1ccc(-c2c3nc(c(-c4cc(S(=O)(=O)[O-])ccc4F)c4ccc([nH]4)c(-c4cc(S(=O)(=O)[O-])ccc4F)c4nc(c(-c5cc(S(=O)(=O)[O-])ccc5F)c5ccc2[nH]5)C=C4)C=C3)cc1)c1ccc(C[C@H]2CCC[C@H]2O)cc1
REMARK SMILES IDX 10 1 9 2 8 3 7 4 6 5 5 6 3 7 4 8 2 9 1 10 83 11 84 12 95 13
REMARK SMILES IDX 85 14 94 15 86 16 87 17 88 18 89 19 92 20 90 21 91 22 93 23
REMARK SMILES IDX 11 25 12 26 13 27 14 28 15 29 16 30 17 31 18 32 19 33 20 34
REMARK SMILES IDX 21 35 82 36 22 37 81 38 23 39 24 40 25 41 75 42 26 43 80 44
REMARK SMILES IDX 74 45 76 46 27 47 79 48 73 49 72 50 28 52 60 53 40 54 59 55
REMARK SMILES IDX 41 56 44 57 58 58 77 59 42 60 43 61 57 63 78 64 45 65 29 66
REMARK SMILES IDX 30 67 38 68 31 69 37 70 39 71 36 72 32 73 33 74 34 75 35 76
REMARK SMILES IDX 61 77 62 78 70 79 63 80 69 81 71 82 68 83 64 84 65 85 66 86
REMARK SMILES IDX 67 87 46 88 47 89 55 90 48 91 54 92 56 93 53 94 49 95 50 96
REMARK SMILES IDX 51 97 52 98
REMARK H PARENT 93 24 76 51 44 62
REMARK Flexibility Score: inf
ROOT
ATOM      1  C   UNL     1       1.210  -2.542  -1.364  1.00  0.00     0.188 C 
ENDROOT
BRANCH   1   2
ATOM      2  C   UNL     1       0.368  -2.631  -2.650  1.00  0.00     0.188 C 
BRANCH   2   3
ATOM      3  O   UNL     1       0.980  -2.990  -3.878  1.00  0.00    -0.376 OA
BRANCH   3   4
ATOM      4  C   UNL     1       2.225  -2.415  -4.250  1.00  0.00     0.202 C 
BRANCH   4   5
ATOM      5  C   UNL     1       2.552  -0.923  -4.027  1.00  0.00     0.261 C 
BRANCH   5   6
ATOM      6  O   UNL     1       2.080  -0.320  -2.809  1.00  0.00    -0.463 OA
BRANCH   6   7
ATOM      7  C   UNL     1       1.087   0.595  -2.930  1.00  0.00     0.313 C 
ATOM      8  O   UNL     1       0.614   0.949  -4.007  1.00  0.00    -0.252 OA
BRANCH   7   9
ATOM      9  C   UNL     1       0.569   1.145  -1.588  1.00  0.00     0.126 C 
ATOM     10  C   UNL     1       1.339   0.827  -0.297  1.00  0.00     0.025 C 
BRANCH   9  11
ATOM     11  C   UNL     1      -0.940   0.927  -1.478  1.00  0.00    -0.034 A 
ATOM     12  C   UNL     1      -1.789   1.896  -2.025  1.00  0.00     0.005 A 
ATOM     13  C   UNL     1      -1.524  -0.229  -0.939  1.00  0.00     0.005 A 
ATOM     14  C   UNL     1      -3.173   1.743  -1.980  1.00  0.00     0.004 A 
ATOM     15  C   UNL     1      -2.910  -0.396  -0.917  1.00  0.00     0.004 A 
ATOM     16  C   UNL     1      -3.747   0.622  -1.373  1.00  0.00    -0.048 A 
BRANCH  16  17
ATOM     17  C   UNL     1      -5.230   0.573  -1.118  1.00  0.00     0.041 C 
BRANCH  17  18
ATOM     18  C   UNL     1      -5.685   1.096   0.259  1.00  0.00     0.022 C 
ATOM     19  C   UNL     1      -5.153   0.329   1.484  1.00  0.00     0.007 C 
ATOM     20  C   UNL     1      -5.450   2.580   0.596  1.00  0.00     0.117 C 
ATOM     21  C   UNL     1      -5.018   1.357   2.609  1.00  0.00     0.003 C 
ATOM     22  C   UNL     1      -5.696   2.623   2.099  1.00  0.00     0.032 C 
BRANCH  20  23
ATOM     23  O   UNL     1      -4.142   3.068   0.358  1.00  0.00    -0.393 OA
ATOM     24  H   UNL     1      -3.507   2.562   0.888  1.00  0.00     0.210 HD
ENDBRANCH  20  23
ENDBRANCH  17  18
ENDBRANCH  16  17
ENDBRANCH   9  11
ENDBRANCH   7   9
ENDBRANCH   6   7
ENDBRANCH   5   6
ENDBRANCH   4   5
ENDBRANCH   3   4
ENDBRANCH   2   3
ENDBRANCH   1   2
BRANCH   1  25
ATOM     25  O   UNL     1       2.597  -2.709  -1.546  1.00  0.00    -0.377 OA
BRANCH  25  26
ATOM     26  C   UNL     1       3.111  -4.019  -1.368  1.00  0.00     0.188 C 
BRANCH  26  27
ATOM     27  C   UNL     1       2.214  -5.213  -1.746  1.00  0.00     0.188 C 
BRANCH  27  28
ATOM     28  O   UNL     1       0.906  -5.167  -1.180  1.00  0.00    -0.376 OA
BRANCH  28  29
ATOM     29  C   UNL     1       0.651  -5.915   0.001  1.00  0.00     0.202 C 
BRANCH  29  30
ATOM     30  C   UNL     1       1.299  -5.415   1.304  1.00  0.00     0.261 C 
BRANCH  30  31
ATOM     31  O   UNL     1       2.732  -5.352   1.325  1.00  0.00    -0.460 OA
BRANCH  31  32
ATOM     32  C   UNL     1       3.416  -6.486   1.059  1.00  0.00     0.338 C 
ATOM     33  O   UNL     1       2.944  -7.593   0.866  1.00  0.00    -0.246 OA
BRANCH  32  34
ATOM     34  C   UNL     1       4.828  -6.113   0.825  1.00  0.00     0.060 A 
ATOM     35  C   UNL     1       5.410  -6.411  -0.415  1.00  0.00     0.016 A 
ATOM     36  C   UNL     1       5.562  -5.446   1.808  1.00  0.00     0.016 A 
ATOM     37  C   UNL     1       6.740  -6.070  -0.663  1.00  0.00     0.010 A 
ATOM     38  C   UNL     1       6.903  -5.131   1.569  1.00  0.00     0.010 A 
ATOM     39  C   UNL     1       7.506  -5.472   0.344  1.00  0.00    -0.014 A 
BRANCH  39  40
ATOM     40  C   UNL     1       8.983  -5.415   0.204  1.00  0.00     0.031 A 
ATOM     41  C   UNL     1       9.792  -6.507   0.852  1.00  0.00     0.074 A 
ATOM     42  C   UNL     1       9.591  -4.444  -0.500  1.00  0.00     0.049 A 
ATOM     43  N   UNL     1      11.089  -6.653   0.923  1.00  0.00    -0.248 NA
ATOM     44  C   UNL     1       9.027  -7.576   1.513  1.00  0.00     0.031 C 
ATOM     45  C   UNL     1       8.910  -3.372  -1.223  1.00  0.00     0.029 A 
ATOM     46  N   UNL     1      10.925  -4.204  -0.719  1.00  0.00    -0.354 N 
ATOM     47  C   UNL     1      11.296  -7.824   1.645  1.00  0.00     0.074 A 
ATOM     48  C   UNL     1       9.992  -8.326   2.019  1.00  0.00     0.031 C 
ATOM     49  C   UNL     1       9.834  -2.583  -1.801  1.00  0.00     0.029 A 
ATOM     50  C   UNL     1      11.169  -3.066  -1.452  1.00  0.00     0.049 A 
ATOM     51  H   UNL     1      11.640  -4.792  -0.383  1.00  0.00     0.167 HD
ATOM     52  C   UNL     1      12.467  -8.428   1.962  1.00  0.00     0.034 A 
ATOM     53  C   UNL     1      12.337  -2.472  -1.776  1.00  0.00     0.034 A 
ATOM     54  C   UNL     1      13.759  -7.905   1.593  1.00  0.00     0.049 A 
ATOM     55  C   UNL     1      13.633  -3.106  -1.320  1.00  0.00     0.074 A 
ATOM     56  C   UNL     1      15.009  -8.440   1.849  1.00  0.00     0.029 A 
ATOM     57  N   UNL     1      13.970  -6.717   0.903  1.00  0.00    -0.354 N 
ATOM     58  N   UNL     1      13.819  -4.216  -0.641  1.00  0.00    -0.248 NA
ATOM     59  C   UNL     1      14.875  -2.408  -1.678  1.00  0.00     0.031 C 
ATOM     60  C   UNL     1      15.974  -7.535   1.395  1.00  0.00     0.029 A 
ATOM     61  C   UNL     1      15.329  -6.482   0.765  1.00  0.00     0.049 A 
ATOM     62  H   UNL     1      13.258  -6.128   0.563  1.00  0.00     0.167 HD
ATOM     63  C   UNL     1      15.200  -4.367  -0.528  1.00  0.00     0.074 A 
ATOM     64  C   UNL     1      15.796  -3.241  -1.217  1.00  0.00     0.031 C 
ATOM     65  C   UNL     1      15.912  -5.350   0.081  1.00  0.00     0.034 A 
BRANCH  52  66
ATOM     66  C   UNL     1      12.399  -9.680   2.803  1.00  0.00     0.023 A 
ATOM     67  C   UNL     1      11.771 -10.852   2.345  1.00  0.00     0.031 A 
ATOM     68  C   UNL     1      12.944  -9.690   4.099  1.00  0.00     0.131 A 
ATOM     69  C   UNL     1      11.639 -11.955   3.202  1.00  0.00     0.055 A 
ATOM     70  C   UNL     1      12.886 -10.821   4.915  1.00  0.00     0.041 A 
ATOM     71  F   UNL     1      13.529  -8.592   4.603  1.00  0.00    -0.206 F 
ATOM     72  C   UNL     1      12.218 -11.958   4.473  1.00  0.00     0.022 A 
BRANCH  69  73
ATOM     73  S   UNL     1      10.569 -13.328   2.690  1.00  0.00     0.124 S 
ATOM     74  O   UNL     1       9.294 -12.645   2.482  1.00  0.00    -0.237 OA
ATOM     75  O   UNL     1      11.236 -13.817   1.490  1.00  0.00    -0.237 OA
ATOM     76  O   UNL     1      10.601 -14.234   3.837  1.00  0.00    -0.744 OA
ENDBRANCH  69  73
ENDBRANCH  52  66
BRANCH  53  77
ATOM     77  C   UNL     1      12.353  -1.186  -2.535  1.00  0.00     0.023 A 
ATOM     78  C   UNL     1      12.973  -1.090  -3.791  1.00  0.00     0.031 A 
ATOM     79  C   UNL     1      11.809  -0.012  -1.981  1.00  0.00     0.131 A 
ATOM     80  C   UNL     1      13.080   0.157  -4.428  1.00  0.00     0.055 A 
ATOM     81  C   UNL     1      11.864   1.214  -2.646  1.00  0.00     0.041 A 
ATOM     82  F   UNL     1      11.213  -0.041  -0.778  1.00  0.00    -0.206 F 
ATOM     83  C   UNL     1      12.515   1.306  -3.872  1.00  0.00     0.022 A 
BRANCH  80  84
ATOM     84  S   UNL     1      14.062   0.275  -5.949  1.00  0.00     0.124 S 
ATOM     85  O   UNL     1      15.364  -0.201  -5.497  1.00  0.00    -0.237 OA
ATOM     86  O   UNL     1      13.332  -0.612  -6.849  1.00  0.00    -0.237 OA
ATOM     87  O   UNL     1      13.997   1.695  -6.287  1.00  0.00    -0.744 OA
ENDBRANCH  80  84
ENDBRANCH  53  77
BRANCH  65  88
ATOM     88  C   UNL     1      17.419  -5.282  -0.020  1.00  0.00     0.023 A 
ATOM     89  C   UNL     1      18.161  -4.247   0.575  1.00  0.00     0.031 A 
ATOM     90  C   UNL     1      18.123  -6.274  -0.728  1.00  0.00     0.131 A 
ATOM     91  C   UNL     1      19.553  -4.196   0.402  1.00  0.00     0.055 A 
ATOM     92  C   UNL     1      19.514  -6.257  -0.836  1.00  0.00     0.041 A 
ATOM     93  F   UNL     1      17.468  -7.286  -1.321  1.00  0.00    -0.206 F 
ATOM     94  C   UNL     1      20.236  -5.206  -0.281  1.00  0.00     0.022 A 
BRANCH  91  95
ATOM     95  S   UNL     1      20.453  -2.736   0.993  1.00  0.00     0.124 S 
ATOM     96  O   UNL     1      19.784  -1.657   0.273  1.00  0.00    -0.237 OA
ATOM     97  O   UNL     1      20.215  -2.784   2.432  1.00  0.00    -0.237 OA
ATOM     98  O   UNL     1      21.832  -2.993   0.584  1.00  0.00    -0.744 OA
ENDBRANCH  91  95
ENDBRANCH  65  88
ENDBRANCH  39  40
ENDBRANCH  32  34
ENDBRANCH  31  32
ENDBRANCH  30  31
ENDBRANCH  29  30
ENDBRANCH  28  29
ENDBRANCH  27  28
ENDBRANCH  26  27
ENDBRANCH  25  26
ENDBRANCH   1  25
TORSDOF 27
