REMARK SMILES O=C(CCc1nc(-c2ccccc2)c(-c2ccccc2)o1)OCCOCCOCCOCCOC(=O)c1ccc(-c2c3nc(c(-c4cc(S(=O)(=O)[O-])ccc4F)c4ccc([nH]4)c(-c4cc(S(=O)(=O)[O-])ccc4F)c4nc(c(-c5cc(S(=O)(=O)[O-])ccc5F)c5ccc2[nH]5)C=C4)C=C3)cc1
REMARK SMILES IDX 28 1 27 2 26 3 25 4 24 5 23 6 22 7 2 8 1 9 3 10 4 11 5 12
REMARK SMILES IDX 6 13 21 14 7 15 14 16 8 17 9 18 13 19 10 20 12 21 11 22
REMARK SMILES IDX 15 23 16 24 20 25 17 26 19 27 18 28 29 29 30 30 31 31 32 32
REMARK SMILES IDX 33 33 34 34 35 35 36 36 37 37 38 38 99 39 39 40 98 41 40 42
REMARK SMILES IDX 41 43 42 44 92 45 43 46 97 47 91 48 93 49 44 50 96 51 90 52
REMARK SMILES IDX 89 53 45 55 77 56 57 57 76 58 58 59 61 60 75 61 94 62 59 63
REMARK SMILES IDX 60 64 74 66 95 67 62 68 46 69 47 70 55 71 48 72 54 73 56 74
REMARK SMILES IDX 53 75 49 76 50 77 51 78 52 79 78 80 79 81 87 82 80 83 86 84
REMARK SMILES IDX 88 85 85 86 81 87 82 88 83 89 84 90 63 91 64 92 72 93 65 94
REMARK SMILES IDX 71 95 73 96 70 97 66 98 67 99 68 100 69 101
REMARK H PARENT 93 54 61 65
REMARK Flexibility Score: inf
ROOT
ATOM      1  O   UNL     1       2.972  -2.590   1.502  1.00  0.00    -0.377 OA
ENDROOT
BRANCH   1   2
ATOM      2  C   UNL     1       1.896  -2.823   0.601  1.00  0.00     0.188 C 
BRANCH   2   3
ATOM      3  C   UNL     1       1.894  -1.871  -0.601  1.00  0.00     0.188 C 
BRANCH   3   4
ATOM      4  O   UNL     1       3.143  -1.428  -1.101  1.00  0.00    -0.376 OA
BRANCH   4   5
ATOM      5  C   UNL     1       4.029  -0.763  -0.211  1.00  0.00     0.202 C 
BRANCH   5   6
ATOM      6  C   UNL     1       3.457   0.225   0.805  1.00  0.00     0.261 C 
BRANCH   6   7
ATOM      7  O   UNL     1       2.368   1.048   0.368  1.00  0.00    -0.463 OA
BRANCH   7   8
ATOM      8  C   UNL     1       2.382   1.927  -0.643  1.00  0.00     0.306 C 
ATOM      9  O   UNL     1       1.471   2.749  -0.736  1.00  0.00    -0.252 OA
BRANCH   8  10
ATOM     10  C   UNL     1       3.450   1.864  -1.700  1.00  0.00     0.132 C 
BRANCH  10  11
ATOM     11  C   UNL     1       4.677   2.733  -1.464  1.00  0.00     0.109 C 
BRANCH  11  12
ATOM     12  C   UNL     1       5.659   2.279  -0.434  1.00  0.00     0.196 A 
ATOM     13  N   UNL     1       6.220   1.098  -0.236  1.00  0.00    -0.213 NA
ATOM     14  O   UNL     1       6.061   3.234   0.460  1.00  0.00    -0.440 OA
ATOM     15  C   UNL     1       6.889   1.232   0.962  1.00  0.00     0.117 A 
ATOM     16  C   UNL     1       6.893   2.565   1.316  1.00  0.00     0.162 A 
BRANCH  15  17
ATOM     17  C   UNL     1       7.404   0.141   1.782  1.00  0.00     0.004 A 
ATOM     18  C   UNL     1       7.158   0.137   3.168  1.00  0.00     0.010 A 
ATOM     19  C   UNL     1       8.147  -0.910   1.237  1.00  0.00     0.010 A 
ATOM     20  C   UNL     1       7.698  -0.846   3.999  1.00  0.00     0.001 A 
ATOM     21  C   UNL     1       8.689  -1.900   2.073  1.00  0.00     0.001 A 
ATOM     22  C   UNL     1       8.476  -1.859   3.452  1.00  0.00     0.000 A 
ENDBRANCH  15  17
BRANCH  16  23
ATOM     23  C   UNL     1       7.568   3.351   2.323  1.00  0.00     0.020 A 
ATOM     24  C   UNL     1       6.879   4.279   3.107  1.00  0.00     0.012 A 
ATOM     25  C   UNL     1       8.942   3.156   2.526  1.00  0.00     0.012 A 
ATOM     26  C   UNL     1       7.562   5.005   4.083  1.00  0.00     0.001 A 
ATOM     27  C   UNL     1       9.623   3.886   3.494  1.00  0.00     0.001 A 
ATOM     28  C   UNL     1       8.932   4.812   4.271  1.00  0.00     0.000 A 
ENDBRANCH  16  23
ENDBRANCH  11  12
ENDBRANCH  10  11
ENDBRANCH   8  10
ENDBRANCH   7   8
ENDBRANCH   6   7
ENDBRANCH   5   6
ENDBRANCH   4   5
ENDBRANCH   3   4
ENDBRANCH   2   3
ENDBRANCH   1   2
BRANCH   1  29
ATOM     29  C   UNL     1       3.935  -3.644   1.583  1.00  0.00     0.188 C 
BRANCH  29  30
ATOM     30  C   UNL     1       4.717  -3.980   0.288  1.00  0.00     0.188 C 
BRANCH  30  31
ATOM     31  O   UNL     1       3.846  -4.134  -0.821  1.00  0.00    -0.376 OA
BRANCH  31  32
ATOM     32  C   UNL     1       3.621  -5.434  -1.330  1.00  0.00     0.202 C 
BRANCH  32  33
ATOM     33  C   UNL     1       3.003  -6.501  -0.406  1.00  0.00     0.261 C 
BRANCH  33  34
ATOM     34  O   UNL     1       3.450  -6.529   0.958  1.00  0.00    -0.460 OA
BRANCH  34  35
ATOM     35  C   UNL     1       4.689  -7.010   1.212  1.00  0.00     0.338 C 
ATOM     36  O   UNL     1       5.454  -7.487   0.391  1.00  0.00    -0.246 OA
BRANCH  35  37
ATOM     37  C   UNL     1       5.060  -6.604   2.598  1.00  0.00     0.060 A 
ATOM     38  C   UNL     1       6.280  -5.942   2.801  1.00  0.00     0.016 A 
ATOM     39  C   UNL     1       4.188  -6.799   3.675  1.00  0.00     0.016 A 
ATOM     40  C   UNL     1       6.652  -5.520   4.081  1.00  0.00     0.010 A 
ATOM     41  C   UNL     1       4.571  -6.397   4.961  1.00  0.00     0.010 A 
ATOM     42  C   UNL     1       5.824  -5.794   5.177  1.00  0.00    -0.014 A 
BRANCH  42  43
ATOM     43  C   UNL     1       6.383  -5.716   6.553  1.00  0.00     0.031 A 
ATOM     44  C   UNL     1       6.940  -6.987   7.143  1.00  0.00     0.074 A 
ATOM     45  C   UNL     1       6.434  -4.568   7.253  1.00  0.00     0.049 A 
ATOM     46  N   UNL     1       7.429  -7.214   8.334  1.00  0.00    -0.248 NA
ATOM     47  C   UNL     1       6.937  -8.164   6.259  1.00  0.00     0.031 C 
ATOM     48  C   UNL     1       5.985  -3.263   6.773  1.00  0.00     0.029 A 
ATOM     49  N   UNL     1       6.883  -4.322   8.528  1.00  0.00    -0.354 N 
ATOM     50  C   UNL     1       7.786  -8.559   8.344  1.00  0.00     0.074 A 
ATOM     51  C   UNL     1       7.419  -9.104   7.055  1.00  0.00     0.031 C 
ATOM     52  C   UNL     1       6.170  -2.354   7.749  1.00  0.00     0.029 A 
ATOM     53  C   UNL     1       6.712  -3.018   8.935  1.00  0.00     0.049 A 
ATOM     54  H   UNL     1       7.291  -5.013   9.097  1.00  0.00     0.167 HD
ATOM     55  C   UNL     1       8.374  -9.275   9.332  1.00  0.00     0.034 A 
ATOM     56  C   UNL     1       6.938  -2.441  10.136  1.00  0.00     0.034 A 
ATOM     57  C   UNL     1       8.715  -8.726  10.620  1.00  0.00     0.049 A 
ATOM     58  C   UNL     1       7.493  -3.285  11.264  1.00  0.00     0.074 A 
ATOM     59  C   UNL     1       9.311  -9.360  11.696  1.00  0.00     0.029 A 
ATOM     60  N   UNL     1       8.475  -7.416  11.013  1.00  0.00    -0.354 N 
ATOM     61  N   UNL     1       7.827  -4.556  11.262  1.00  0.00    -0.248 NA
ATOM     62  C   UNL     1       7.705  -2.614  12.554  1.00  0.00     0.031 C 
ATOM     63  C   UNL     1       9.357  -8.458  12.764  1.00  0.00     0.029 A 
ATOM     64  C   UNL     1       8.877  -7.233  12.327  1.00  0.00     0.049 A 
ATOM     65  H   UNL     1       8.078  -6.719  10.443  1.00  0.00     0.167 HD
ATOM     66  C   UNL     1       8.324  -4.822  12.539  1.00  0.00     0.074 A 
ATOM     67  C   UNL     1       8.256  -3.579  13.276  1.00  0.00     0.031 C 
ATOM     68  C   UNL     1       8.800  -5.986  13.053  1.00  0.00     0.034 A 
BRANCH  55  69
ATOM     69  C   UNL     1       8.622 -10.742   9.070  1.00  0.00     0.023 A 
ATOM     70  C   UNL     1       9.492 -11.177   8.054  1.00  0.00     0.031 A 
ATOM     71  C   UNL     1       7.943 -11.720   9.818  1.00  0.00     0.131 A 
ATOM     72  C   UNL     1       9.601 -12.545   7.764  1.00  0.00     0.055 A 
ATOM     73  C   UNL     1       8.123 -13.084   9.582  1.00  0.00     0.041 A 
ATOM     74  F   UNL     1       7.077 -11.365  10.780  1.00  0.00    -0.206 F 
ATOM     75  C   UNL     1       8.944 -13.503   8.540  1.00  0.00     0.022 A 
BRANCH  72  76
ATOM     76  S   UNL     1      10.487 -13.045   6.263  1.00  0.00     0.124 S 
ATOM     77  O   UNL     1       9.738 -12.336   5.228  1.00  0.00    -0.237 OA
ATOM     78  O   UNL     1      11.838 -12.560   6.518  1.00  0.00    -0.237 OA
ATOM     79  O   UNL     1      10.338 -14.499   6.245  1.00  0.00    -0.744 OA
ENDBRANCH  72  76
ENDBRANCH  55  69
BRANCH  56  80
ATOM     80  C   UNL     1       6.601  -1.004  10.368  1.00  0.00     0.023 A 
ATOM     81  C   UNL     1       7.588  -0.070  10.725  1.00  0.00     0.031 A 
ATOM     82  C   UNL     1       5.268  -0.558  10.311  1.00  0.00     0.131 A 
ATOM     83  C   UNL     1       7.223   1.245  11.058  1.00  0.00     0.055 A 
ATOM     84  C   UNL     1       4.917   0.766  10.585  1.00  0.00     0.041 A 
ATOM     85  F   UNL     1       4.280  -1.408   9.986  1.00  0.00    -0.206 F 
ATOM     86  C   UNL     1       5.896   1.673  10.976  1.00  0.00     0.022 A 
BRANCH  83  87
ATOM     87  S   UNL     1       8.498   2.367  11.699  1.00  0.00     0.124 S 
ATOM     88  O   UNL     1       8.967   1.641  12.873  1.00  0.00    -0.237 OA
ATOM     89  O   UNL     1       9.426   2.442  10.576  1.00  0.00    -0.237 OA
ATOM     90  O   UNL     1       7.760   3.597  11.977  1.00  0.00    -0.744 OA
ENDBRANCH  83  87
ENDBRANCH  56  80
BRANCH  68  91
ATOM     91  C   UNL     1       9.340  -5.954  14.465  1.00  0.00     0.023 A 
ATOM     92  C   UNL     1       8.515  -5.701  15.574  1.00  0.00     0.031 A 
ATOM     93  C   UNL     1      10.708  -6.185  14.700  1.00  0.00     0.131 A 
ATOM     94  C   UNL     1       9.075  -5.627  16.860  1.00  0.00     0.055 A 
ATOM     95  C   UNL     1      11.247  -6.178  15.987  1.00  0.00     0.041 A 
ATOM     96  F   UNL     1      11.546  -6.429  13.679  1.00  0.00    -0.206 F 
ATOM     97  C   UNL     1      10.431  -5.884  17.075  1.00  0.00     0.022 A 
BRANCH  94  98
ATOM     98  S   UNL     1       8.025  -5.090  18.238  1.00  0.00     0.124 S 
ATOM     99  O   UNL     1       7.566  -3.784  17.777  1.00  0.00    -0.237 OA
ATOM    100  O   UNL     1       7.014  -6.140  18.288  1.00  0.00    -0.237 OA
ATOM    101  O   UNL     1       8.943  -5.059  19.376  1.00  0.00    -0.744 OA
ENDBRANCH  94  98
ENDBRANCH  68  91
ENDBRANCH  42  43
ENDBRANCH  35  37
ENDBRANCH  34  35
ENDBRANCH  33  34
ENDBRANCH  32  33
ENDBRANCH  31  32
ENDBRANCH  30  31
ENDBRANCH  29  30
ENDBRANCH   1  29
TORSDOF 27
