REMARK SMILES O=C(OCCOCCOCCOCCOC(=O)c1cc2c(c(S(=O)(=O)Nc3cc(C(F)(F)F)ccc3-n3cccn3)c1)CCC2)c1ccc(-c2c3nc(c(-c4cc(S(=O)(=O)[O-])ccc4F)c4ccc([nH]4)c(-c4cc(S(=O)(=O)[O-])ccc4F)c4nc(c(-c5cc(S(=O)(=O)[O-])ccc5F)c5ccc2[nH]5)C=C4)C=C3)cc1
REMARK SMILES IDX 10 1 9 2 8 3 7 4 6 5 5 6 4 7 3 8 2 9 1 10 46 11 47 12 108 13
REMARK SMILES IDX 48 14 107 15 49 16 50 17 51 18 101 19 52 20 106 21 100 22
REMARK SMILES IDX 102 23 53 24 105 25 99 26 98 27 54 29 86 30 66 31 85 32
REMARK SMILES IDX 67 33 70 34 84 35 103 36 68 37 69 38 83 40 104 41 71 42
REMARK SMILES IDX 55 43 56 44 64 45 57 46 63 47 65 48 62 49 58 50 59 51 60 52
REMARK SMILES IDX 61 53 87 54 88 55 96 56 89 57 95 58 97 59 94 60 90 61 91 62
REMARK SMILES IDX 92 63 93 64 72 65 73 66 81 67 74 68 80 69 82 70 79 71 75 72
REMARK SMILES IDX 76 73 77 74 78 75 11 76 12 77 13 78 14 79 15 80 16 81 17 82
REMARK SMILES IDX 18 83 19 84 42 85 20 86 22 87 21 88 45 89 43 90 44 91 23 92
REMARK SMILES IDX 24 93 25 94 26 95 27 97 28 98 36 99 29 100 35 101 34 102
REMARK SMILES IDX 37 103 38 104 41 105 39 106 40 107 30 108 31 109 32 110
REMARK SMILES IDX 33 111
REMARK H PARENT 102 28 70 39 26 96
REMARK Flexibility Score: inf
ROOT
ATOM      1  C   UNL     1       4.113   1.629  -3.011  1.00  0.00     0.188 C 
ENDROOT
BRANCH   1   2
ATOM      2  O   UNL     1       2.787   2.023  -2.752  1.00  0.00    -0.377 OA
BRANCH   2   3
ATOM      3  C   UNL     1       2.242   1.417  -1.593  1.00  0.00     0.188 C 
BRANCH   3   4
ATOM      4  C   UNL     1       2.972   1.657  -0.256  1.00  0.00     0.188 C 
BRANCH   4   5
ATOM      5  O   UNL     1       4.286   1.244   0.081  1.00  0.00    -0.376 OA
BRANCH   5   6
ATOM      6  C   UNL     1       5.033   0.103  -0.283  1.00  0.00     0.202 C 
BRANCH   6   7
ATOM      7  C   UNL     1       4.490  -1.314  -0.445  1.00  0.00     0.261 C 
BRANCH   7   8
ATOM      8  O   UNL     1       3.137  -1.419  -0.848  1.00  0.00    -0.460 OA
BRANCH   8   9
ATOM      9  C   UNL     1       2.041  -1.364  -0.068  1.00  0.00     0.338 C 
ATOM     10  O   UNL     1       0.944  -1.501  -0.611  1.00  0.00    -0.246 OA
BRANCH   9  11
ATOM     11  C   UNL     1       2.057  -1.027   1.379  1.00  0.00     0.060 A 
ATOM     12  C   UNL     1       3.131  -1.171   2.258  1.00  0.00     0.016 A 
ATOM     13  C   UNL     1       0.815  -0.585   1.879  1.00  0.00     0.016 A 
ATOM     14  C   UNL     1       2.902  -1.153   3.616  1.00  0.00     0.010 A 
ATOM     15  C   UNL     1       0.589  -0.527   3.234  1.00  0.00     0.010 A 
ATOM     16  C   UNL     1       1.606  -0.943   4.074  1.00  0.00    -0.014 A 
BRANCH  16  17
ATOM     17  C   UNL     1       1.350  -1.191   5.473  1.00  0.00     0.031 A 
ATOM     18  C   UNL     1       2.066  -0.257   6.365  1.00  0.00     0.074 A 
ATOM     19  C   UNL     1       0.533  -2.191   5.854  1.00  0.00     0.049 A 
ATOM     20  N   UNL     1       3.104  -0.511   7.088  1.00  0.00    -0.248 NA
ATOM     21  C   UNL     1       1.750   1.175   6.253  1.00  0.00     0.031 C 
ATOM     22  C   UNL     1      -0.335  -3.030   5.023  1.00  0.00     0.029 A 
ATOM     23  N   UNL     1       0.246  -2.620   7.107  1.00  0.00    -0.354 N 
ATOM     24  C   UNL     1       3.394   0.677   7.747  1.00  0.00     0.074 A 
ATOM     25  C   UNL     1       2.704   1.706   7.019  1.00  0.00     0.031 C 
ATOM     26  C   UNL     1      -1.223  -3.678   5.813  1.00  0.00     0.029 A 
ATOM     27  C   UNL     1      -0.893  -3.414   7.203  1.00  0.00     0.049 A 
ATOM     28  H   UNL     1       0.800  -2.390   7.888  1.00  0.00     0.167 HD
ATOM     29  C   UNL     1       3.921   0.653   9.001  1.00  0.00     0.034 A 
ATOM     30  C   UNL     1      -1.547  -3.748   8.350  1.00  0.00     0.034 A 
ATOM     31  C   UNL     1       4.532  -0.634   9.273  1.00  0.00     0.049 A 
ATOM     32  C   UNL     1      -0.553  -3.602   9.450  1.00  0.00     0.074 A 
ATOM     33  C   UNL     1       5.547  -1.363   8.680  1.00  0.00     0.029 A 
ATOM     34  N   UNL     1       3.830  -1.542  10.039  1.00  0.00    -0.354 N 
ATOM     35  N   UNL     1       0.507  -4.361   9.544  1.00  0.00    -0.248 NA
ATOM     36  C   UNL     1      -0.435  -2.301  10.097  1.00  0.00     0.031 C 
ATOM     37  C   UNL     1       5.094  -2.715   8.709  1.00  0.00     0.029 A 
ATOM     38  C   UNL     1       3.883  -2.758   9.402  1.00  0.00     0.049 A 
ATOM     39  H   UNL     1       3.373  -1.352  10.890  1.00  0.00     0.167 HD
ATOM     40  C   UNL     1       1.547  -3.499   9.864  1.00  0.00     0.074 A 
ATOM     41  C   UNL     1       0.892  -2.253  10.268  1.00  0.00     0.031 C 
ATOM     42  C   UNL     1       2.835  -3.761   9.483  1.00  0.00     0.034 A 
BRANCH  29  43
ATOM     43  C   UNL     1       3.481   1.589  10.111  1.00  0.00     0.023 A 
ATOM     44  C   UNL     1       3.997   1.319  11.391  1.00  0.00     0.031 A 
ATOM     45  C   UNL     1       2.381   2.479  10.072  1.00  0.00     0.131 A 
ATOM     46  C   UNL     1       3.330   1.759  12.544  1.00  0.00     0.055 A 
ATOM     47  C   UNL     1       1.759   2.967  11.224  1.00  0.00     0.041 A 
ATOM     48  F   UNL     1       1.791   2.872   8.940  1.00  0.00    -0.206 F 
ATOM     49  C   UNL     1       2.204   2.572  12.471  1.00  0.00     0.022 A 
BRANCH  46  50
ATOM     50  S   UNL     1       3.845   1.064  14.132  1.00  0.00     0.124 S 
ATOM     51  O   UNL     1       3.758  -0.367  13.859  1.00  0.00    -0.237 OA
ATOM     52  O   UNL     1       5.189   1.613  14.275  1.00  0.00    -0.237 OA
ATOM     53  O   UNL     1       2.853   1.587  15.067  1.00  0.00    -0.744 OA
ENDBRANCH  46  50
ENDBRANCH  29  43
BRANCH  30  54
ATOM     54  C   UNL     1      -3.030  -3.741   8.547  1.00  0.00     0.023 A 
ATOM     55  C   UNL     1      -3.678  -4.387   9.624  1.00  0.00     0.031 A 
ATOM     56  C   UNL     1      -3.831  -2.876   7.763  1.00  0.00     0.131 A 
ATOM     57  C   UNL     1      -5.058  -4.162   9.869  1.00  0.00     0.055 A 
ATOM     58  C   UNL     1      -5.188  -2.658   8.010  1.00  0.00     0.041 A 
ATOM     59  F   UNL     1      -3.302  -2.143   6.771  1.00  0.00    -0.206 F 
ATOM     60  C   UNL     1      -5.807  -3.294   9.070  1.00  0.00     0.022 A 
BRANCH  57  61
ATOM     61  S   UNL     1      -5.903  -4.945  11.286  1.00  0.00     0.124 S 
ATOM     62  O   UNL     1      -5.883  -6.356  10.920  1.00  0.00    -0.237 OA
ATOM     63  O   UNL     1      -5.061  -4.553  12.411  1.00  0.00    -0.237 OA
ATOM     64  O   UNL     1      -7.232  -4.329  11.277  1.00  0.00    -0.744 OA
ENDBRANCH  57  61
ENDBRANCH  30  54
BRANCH  42  65
ATOM     65  C   UNL     1       3.161  -5.138   8.932  1.00  0.00     0.023 A 
ATOM     66  C   UNL     1       2.574  -5.721   7.783  1.00  0.00     0.031 A 
ATOM     67  C   UNL     1       4.218  -5.834   9.546  1.00  0.00     0.131 A 
ATOM     68  C   UNL     1       3.047  -6.961   7.302  1.00  0.00     0.055 A 
ATOM     69  C   UNL     1       4.695  -7.048   9.055  1.00  0.00     0.041 A 
ATOM     70  F   UNL     1       4.838  -5.319  10.620  1.00  0.00    -0.206 F 
ATOM     71  C   UNL     1       4.106  -7.620   7.934  1.00  0.00     0.022 A 
BRANCH  68  72
ATOM     72  S   UNL     1       2.284  -7.758   5.849  1.00  0.00     0.124 S 
ATOM     73  O   UNL     1       0.855  -7.675   6.126  1.00  0.00    -0.237 OA
ATOM     74  O   UNL     1       2.772  -6.935   4.746  1.00  0.00    -0.237 OA
ATOM     75  O   UNL     1       2.832  -9.116   5.879  1.00  0.00    -0.744 OA
ENDBRANCH  68  72
ENDBRANCH  42  65
ENDBRANCH  16  17
ENDBRANCH   9  11
ENDBRANCH   8   9
ENDBRANCH   7   8
ENDBRANCH   6   7
ENDBRANCH   5   6
ENDBRANCH   4   5
ENDBRANCH   3   4
ENDBRANCH   2   3
ENDBRANCH   1   2
BRANCH   1  76
ATOM     76  C   UNL     1       5.165   2.668  -2.569  1.00  0.00     0.188 C 
BRANCH  76  77
ATOM     77  O   UNL     1       4.806   3.892  -1.943  1.00  0.00    -0.376 OA
BRANCH  77  78
ATOM     78  C   UNL     1       3.608   4.573  -2.273  1.00  0.00     0.202 C 
BRANCH  78  79
ATOM     79  C   UNL     1       3.295   4.941  -3.730  1.00  0.00     0.261 C 
BRANCH  79  80
ATOM     80  O   UNL     1       3.609   3.953  -4.716  1.00  0.00    -0.460 OA
BRANCH  80  81
ATOM     81  C   UNL     1       4.824   4.049  -5.316  1.00  0.00     0.338 C 
ATOM     82  O   UNL     1       5.682   4.883  -5.141  1.00  0.00    -0.246 OA
BRANCH  81  83
ATOM     83  C   UNL     1       4.982   2.861  -6.189  1.00  0.00     0.061 A 
ATOM     84  C   UNL     1       4.007   2.641  -7.152  1.00  0.00     0.019 A 
ATOM     85  C   UNL     1       6.081   1.974  -6.039  1.00  0.00     0.038 A 
ATOM     86  C   UNL     1       4.181   1.560  -7.984  1.00  0.00    -0.043 A 
ATOM     87  C   UNL     1       6.212   0.825  -6.851  1.00  0.00     0.092 A 
ATOM     88  C   UNL     1       5.231   0.626  -7.813  1.00  0.00    -0.024 A 
ATOM     89  C   UNL     1       3.363   1.248  -9.200  1.00  0.00     0.036 C 
ATOM     90  C   UNL     1       5.029  -0.448  -8.832  1.00  0.00     0.037 C 
ATOM     91  C   UNL     1       4.383   0.389  -9.943  1.00  0.00     0.010 C 
BRANCH  87  92
ATOM     92  S   UNL     1       7.463  -0.383  -6.442  1.00  0.00     0.262 S 
ATOM     93  O   UNL     1       8.201   0.138  -5.306  1.00  0.00    -0.201 OA
ATOM     94  O   UNL     1       6.792  -1.660  -6.325  1.00  0.00    -0.201 OA
BRANCH  92  95
ATOM     95  N   UNL     1       8.660  -0.622  -7.646  1.00  0.00    -0.277 N 
ATOM     96  H   UNL     1       9.553  -0.929  -7.367  1.00  0.00     0.180 HD
BRANCH  95  97
ATOM     97  C   UNL     1       8.420  -0.393  -9.043  1.00  0.00     0.075 A 
ATOM     98  C   UNL     1       8.164  -1.505  -9.869  1.00  0.00     0.042 A 
ATOM     99  C   UNL     1       8.320   0.897  -9.581  1.00  0.00     0.089 A 
ATOM    100  C   UNL     1       7.699  -1.334 -11.190  1.00  0.00     0.058 A 
ATOM    101  C   UNL     1       7.881   1.073 -10.902  1.00  0.00     0.031 A 
ATOM    102  C   UNL     1       7.575  -0.033 -11.699  1.00  0.00     0.015 A 
BRANCH  99 103
ATOM    103  N   UNL     1       8.601   2.045  -8.803  1.00  0.00    -0.239 N 
ATOM    104  C   UNL     1       9.522   2.176  -7.789  1.00  0.00     0.115 A 
ATOM    105  N   UNL     1       7.842   3.162  -8.930  1.00  0.00    -0.177 NA
ATOM    106  C   UNL     1       9.200   3.323  -7.107  1.00  0.00     0.042 A 
ATOM    107  C   UNL     1       8.131   3.870  -7.833  1.00  0.00     0.135 A 
ENDBRANCH  99 103
BRANCH 100 108
ATOM    108  C   UNL     1       7.252  -2.526 -12.007  1.00  0.00     0.416 C 
ATOM    109  F   UNL     1       8.293  -3.274 -12.461  1.00  0.00    -0.166 F 
ATOM    110  F   UNL     1       6.459  -3.374 -11.294  1.00  0.00    -0.166 F 
ATOM    111  F   UNL     1       6.525  -2.184 -13.108  1.00  0.00    -0.166 F 
ENDBRANCH 100 108
ENDBRANCH  95  97
ENDBRANCH  92  95
ENDBRANCH  87  92
ENDBRANCH  81  83
ENDBRANCH  80  81
ENDBRANCH  79  80
ENDBRANCH  78  79
ENDBRANCH  77  78
ENDBRANCH  76  77
ENDBRANCH   1  76
TORSDOF 28
