REMARK SMILES Cc1c(Br)c(C)c2c(c1Br)O[C@H](C(F)(F)F)C(C(=O)OCCOCCOCCOCCOC(=O)c1ccc(-c3c4nc(c(-c5cc(S(=O)(=O)[O-])ccc5F)c5ccc([nH]5)c(-c5cc(S(=O)(=O)[O-])ccc5F)c5nc(c(-c6cc(S(=O)(=O)[O-])ccc6F)c6ccc3[nH]6)C=C5)C=C4)cc1)=C2
REMARK SMILES IDX 27 1 26 2 25 3 24 4 23 5 22 6 21 7 20 8 18 9 19 10 17 11
REMARK SMILES IDX 1 12 2 13 3 14 9 15 4 16 5 17 8 18 10 19 6 20 7 21 11 22
REMARK SMILES IDX 98 23 12 24 13 25 14 26 15 27 16 28 28 29 29 30 30 31 31 32
REMARK SMILES IDX 32 33 33 34 34 35 35 36 36 37 97 38 37 39 96 40 38 41 39 42
REMARK SMILES IDX 40 43 90 44 41 45 95 46 89 47 91 48 42 49 94 50 88 51 87 52
REMARK SMILES IDX 43 54 75 55 55 56 74 57 56 58 59 59 73 60 92 61 57 62 58 63
REMARK SMILES IDX 72 65 93 66 60 67 44 68 45 69 53 70 46 71 52 72 54 73 51 74
REMARK SMILES IDX 47 75 48 76 49 77 50 78 76 79 77 80 85 81 78 82 84 83 86 84
REMARK SMILES IDX 83 85 79 86 80 87 81 88 82 89 61 90 62 91 70 92 63 93 69 94
REMARK SMILES IDX 71 95 68 96 64 97 65 98 66 99 67 100
REMARK H PARENT 91 53 59 64
REMARK Flexibility Score: inf
ROOT
ATOM      1  C   UNL     1      -4.935   2.393  -8.459  1.00  0.00     0.188 C 
ENDROOT
BRANCH   1   2
ATOM      2  O   UNL     1      -3.609   2.075  -8.049  1.00  0.00    -0.377 OA
BRANCH   2   3
ATOM      3  C   UNL     1      -3.167   2.724  -6.873  1.00  0.00     0.188 C 
BRANCH   3   4
ATOM      4  C   UNL     1      -2.278   3.954  -7.135  1.00  0.00     0.188 C 
BRANCH   4   5
ATOM      5  O   UNL     1      -1.962   4.410  -8.443  1.00  0.00    -0.376 OA
BRANCH   5   6
ATOM      6  C   UNL     1      -1.816   3.539  -9.554  1.00  0.00     0.202 C 
BRANCH   6   7
ATOM      7  C   UNL     1      -0.979   2.249  -9.498  1.00  0.00     0.261 C 
BRANCH   7   8
ATOM      8  O   UNL     1      -0.859   1.628  -8.218  1.00  0.00    -0.460 OA
BRANCH   8   9
ATOM      9  C   UNL     1       0.242   1.943  -7.511  1.00  0.00     0.338 C 
ATOM     10  O   UNL     1       1.166   2.662  -7.857  1.00  0.00    -0.246 OA
BRANCH   9  11
ATOM     11  C   UNL     1       0.088   1.390  -6.151  1.00  0.00     0.087 C 
ATOM     12  C   UNL     1       0.739  -0.006   0.169  1.00  0.00     0.047 C 
ATOM     13  C   UNL     1       0.458   0.610  -1.182  1.00  0.00    -0.019 A 
ATOM     14  C   UNL     1       0.683   1.995  -1.390  1.00  0.00     0.025 A 
ATOM     15  C   UNL     1       0.041  -0.169  -2.281  1.00  0.00     0.064 A 
ATOM     16  Br  UNL     1       1.272   3.072   0.088  1.00  0.00    -0.050 Br
ATOM     17  C   UNL     1       0.533   2.585  -2.667  1.00  0.00    -0.026 A 
ATOM     18  C   UNL     1      -0.057   0.392  -3.567  1.00  0.00     0.142 A 
ATOM     19  Br  UNL     1      -0.355  -2.034  -2.089  1.00  0.00    -0.046 Br
ATOM     20  C   UNL     1       0.674   4.074  -2.898  1.00  0.00     0.046 C 
ATOM     21  C   UNL     1       0.251   1.743  -3.769  1.00  0.00     0.022 A 
ATOM     22  O   UNL     1      -0.455  -0.440  -4.580  1.00  0.00    -0.474 OA
ATOM     23  C   UNL     1       0.357   2.226  -5.142  1.00  0.00     0.027 C 
ATOM     24  C   UNL     1      -0.405  -0.012  -5.963  1.00  0.00     0.316 C 
BRANCH  24  25
ATOM     25  C   UNL     1       0.420  -1.041  -6.748  1.00  0.00     0.430 C 
ATOM     26  F   UNL     1      -0.022  -2.301  -6.519  1.00  0.00    -0.167 F 
ATOM     27  F   UNL     1       0.353  -0.838  -8.083  1.00  0.00    -0.167 F 
ATOM     28  F   UNL     1       1.727  -1.002  -6.398  1.00  0.00    -0.167 F 
ENDBRANCH  24  25
ENDBRANCH   9  11
ENDBRANCH   8   9
ENDBRANCH   7   8
ENDBRANCH   6   7
ENDBRANCH   5   6
ENDBRANCH   4   5
ENDBRANCH   3   4
ENDBRANCH   2   3
ENDBRANCH   1   2
BRANCH   1  29
ATOM     29  C   UNL     1      -5.311   3.886  -8.474  1.00  0.00     0.188 C 
BRANCH  29  30
ATOM     30  O   UNL     1      -5.263   4.486  -7.176  1.00  0.00    -0.376 OA
BRANCH  30  31
ATOM     31  C   UNL     1      -6.517   4.722  -6.541  1.00  0.00     0.202 C 
BRANCH  31  32
ATOM     32  C   UNL     1      -7.145   3.475  -5.901  1.00  0.00     0.261 C 
BRANCH  32  33
ATOM     33  O   UNL     1      -7.531   2.444  -6.824  1.00  0.00    -0.460 OA
BRANCH  33  34
ATOM     34  C   UNL     1      -8.413   2.788  -7.788  1.00  0.00     0.338 C 
ATOM     35  O   UNL     1      -8.990   3.853  -7.903  1.00  0.00    -0.246 OA
BRANCH  34  36
ATOM     36  C   UNL     1      -8.409   1.724  -8.810  1.00  0.00     0.060 A 
ATOM     37  C   UNL     1      -8.140   2.075 -10.140  1.00  0.00     0.016 A 
ATOM     38  C   UNL     1      -8.695   0.401  -8.465  1.00  0.00     0.016 A 
ATOM     39  C   UNL     1      -8.214   1.109 -11.141  1.00  0.00     0.010 A 
ATOM     40  C   UNL     1      -8.799  -0.559  -9.472  1.00  0.00     0.010 A 
ATOM     41  C   UNL     1      -8.605  -0.197 -10.817  1.00  0.00    -0.014 A 
BRANCH  41  42
ATOM     42  C   UNL     1      -9.092  -1.097 -11.889  1.00  0.00     0.031 A 
ATOM     43  C   UNL     1     -10.564  -1.069 -12.201  1.00  0.00     0.074 A 
ATOM     44  C   UNL     1      -8.260  -1.889 -12.585  1.00  0.00     0.049 A 
ATOM     45  N   UNL     1     -11.257  -1.821 -13.014  1.00  0.00    -0.248 NA
ATOM     46  C   UNL     1     -11.361  -0.049 -11.497  1.00  0.00     0.031 C 
ATOM     47  C   UNL     1      -6.808  -1.939 -12.432  1.00  0.00     0.029 A 
ATOM     48  N   UNL     1      -8.528  -2.808 -13.568  1.00  0.00    -0.354 N 
ATOM     49  C   UNL     1     -12.567  -1.364 -12.923  1.00  0.00     0.074 A 
ATOM     50  C   UNL     1     -12.579  -0.289 -11.956  1.00  0.00     0.031 C 
ATOM     51  C   UNL     1      -6.312  -2.849 -13.291  1.00  0.00     0.029 A 
ATOM     52  C   UNL     1      -7.414  -3.473 -14.021  1.00  0.00     0.049 A 
ATOM     53  H   UNL     1      -9.434  -2.974 -13.917  1.00  0.00     0.167 HD
ATOM     54  C   UNL     1     -13.663  -1.800 -13.587  1.00  0.00     0.034 A 
ATOM     55  C   UNL     1      -7.308  -4.490 -14.901  1.00  0.00     0.034 A 
ATOM     56  C   UNL     1     -13.645  -2.886 -14.530  1.00  0.00     0.049 A 
ATOM     57  C   UNL     1      -8.560  -5.044 -15.536  1.00  0.00     0.074 A 
ATOM     58  C   UNL     1     -14.703  -3.432 -15.236  1.00  0.00     0.029 A 
ATOM     59  N   UNL     1     -12.511  -3.597 -14.897  1.00  0.00    -0.354 N 
ATOM     60  N   UNL     1      -9.805  -4.649 -15.395  1.00  0.00    -0.248 NA
ATOM     61  C   UNL     1      -8.392  -6.189 -16.440  1.00  0.00     0.031 C 
ATOM     62  C   UNL     1     -14.217  -4.510 -15.983  1.00  0.00     0.029 A 
ATOM     63  C   UNL     1     -12.846  -4.594 -15.797  1.00  0.00     0.049 A 
ATOM     64  H   UNL     1     -11.601  -3.418 -14.565  1.00  0.00     0.167 HD
ATOM     65  C   UNL     1     -10.566  -5.492 -16.202  1.00  0.00     0.074 A 
ATOM     66  C   UNL     1      -9.638  -6.403 -16.840  1.00  0.00     0.031 C 
ATOM     67  C   UNL     1     -11.909  -5.512 -16.399  1.00  0.00     0.034 A 
BRANCH  54  68
ATOM     68  C   UNL     1     -14.973  -1.132 -13.268  1.00  0.00     0.023 A 
ATOM     69  C   UNL     1     -15.232   0.197 -13.643  1.00  0.00     0.031 A 
ATOM     70  C   UNL     1     -15.968  -1.830 -12.562  1.00  0.00     0.131 A 
ATOM     71  C   UNL     1     -16.442   0.801 -13.274  1.00  0.00     0.055 A 
ATOM     72  C   UNL     1     -17.195  -1.242 -12.251  1.00  0.00     0.041 A 
ATOM     73  F   UNL     1     -15.758  -3.092 -12.154  1.00  0.00    -0.206 F 
ATOM     74  C   UNL     1     -17.435   0.084 -12.601  1.00  0.00     0.022 A 
BRANCH  71  75
ATOM     75  S   UNL     1     -16.672   2.569 -13.609  1.00  0.00     0.124 S 
ATOM     76  O   UNL     1     -15.652   3.165 -12.751  1.00  0.00    -0.237 OA
ATOM     77  O   UNL     1     -16.429   2.655 -15.044  1.00  0.00    -0.237 OA
ATOM     78  O   UNL     1     -18.051   2.819 -13.195  1.00  0.00    -0.744 OA
ENDBRANCH  71  75
ENDBRANCH  54  68
BRANCH  55  79
ATOM     79  C   UNL     1      -5.979  -5.095 -15.197  1.00  0.00     0.023 A 
ATOM     80  C   UNL     1      -5.401  -4.983 -16.471  1.00  0.00     0.031 A 
ATOM     81  C   UNL     1      -5.287  -5.827 -14.217  1.00  0.00     0.131 A 
ATOM     82  C   UNL     1      -4.178  -5.617 -16.740  1.00  0.00     0.055 A 
ATOM     83  C   UNL     1      -4.052  -6.423 -14.478  1.00  0.00     0.041 A 
ATOM     84  F   UNL     1      -5.800  -5.965 -12.984  1.00  0.00    -0.206 F 
ATOM     85  C   UNL     1      -3.493  -6.326 -15.748  1.00  0.00     0.022 A 
BRANCH  82  86
ATOM     86  S   UNL     1      -3.502  -5.533 -18.422  1.00  0.00     0.124 S 
ATOM     87  O   UNL     1      -4.499  -6.280 -19.180  1.00  0.00    -0.237 OA
ATOM     88  O   UNL     1      -3.459  -4.094 -18.661  1.00  0.00    -0.237 OA
ATOM     89  O   UNL     1      -2.197  -6.178 -18.297  1.00  0.00    -0.744 OA
ENDBRANCH  82  86
ENDBRANCH  55  79
BRANCH  67  90
ATOM     90  C   UNL     1     -12.449  -6.549 -17.351  1.00  0.00     0.023 A 
ATOM     91  C   UNL     1     -12.425  -7.917 -17.031  1.00  0.00     0.031 A 
ATOM     92  C   UNL     1     -13.002  -6.165 -18.584  1.00  0.00     0.131 A 
ATOM     93  C   UNL     1     -12.901  -8.858 -17.956  1.00  0.00     0.055 A 
ATOM     94  C   UNL     1     -13.526  -7.100 -19.477  1.00  0.00     0.041 A 
ATOM     95  F   UNL     1     -13.052  -4.870 -18.937  1.00  0.00    -0.206 F 
ATOM     96  C   UNL     1     -13.467  -8.457 -19.170  1.00  0.00     0.022 A 
BRANCH  93  97
ATOM     97  S   UNL     1     -12.705 -10.621 -17.582  1.00  0.00     0.124 S 
ATOM     98  O   UNL     1     -11.255 -10.749 -17.480  1.00  0.00    -0.237 OA
ATOM     99  O   UNL     1     -13.447 -10.761 -16.333  1.00  0.00    -0.237 OA
ATOM    100  O   UNL     1     -13.306 -11.286 -18.737  1.00  0.00    -0.744 OA
ENDBRANCH  93  97
ENDBRANCH  67  90
ENDBRANCH  41  42
ENDBRANCH  34  36
ENDBRANCH  33  34
ENDBRANCH  32  33
ENDBRANCH  31  32
ENDBRANCH  30  31
ENDBRANCH  29  30
ENDBRANCH   1  29
TORSDOF 24
