REMARK SMILES O=C(Cn1c(=O)n(Cc2cccnc2)c(=O)c2sccc21)OCCOCCOCCOCCOC(=O)c1ccc(-c2c3nc(c(-c4cc(S(=O)(=O)[O-])ccc4F)c4ccc([nH]4)c(-c4cc(S(=O)(=O)[O-])ccc4F)c4nc(c(-c5cc(S(=O)(=O)[O-])ccc5F)c5ccc2[nH]5)C=C4)C=C3)cc1
REMARK SMILES IDX 28 1 27 2 26 3 25 4 24 5 23 6 22 7 2 8 1 9 3 10 4 11 5 12
REMARK SMILES IDX 21 13 6 14 7 15 17 16 20 17 15 18 18 19 19 20 16 21 8 22
REMARK SMILES IDX 9 23 10 24 14 25 11 26 13 27 12 28 29 29 30 30 31 31 32 32
REMARK SMILES IDX 33 33 34 34 35 35 36 36 37 37 38 38 99 39 39 40 98 41 40 42
REMARK SMILES IDX 41 43 42 44 92 45 43 46 97 47 91 48 93 49 44 50 96 51 90 52
REMARK SMILES IDX 89 53 45 55 77 56 57 57 76 58 58 59 61 60 75 61 94 62 59 63
REMARK SMILES IDX 60 64 74 66 95 67 62 68 46 69 47 70 55 71 48 72 54 73 56 74
REMARK SMILES IDX 53 75 49 76 50 77 51 78 52 79 78 80 79 81 87 82 80 83 86 84
REMARK SMILES IDX 88 85 85 86 81 87 82 88 83 89 84 90 63 91 64 92 72 93 65 94
REMARK SMILES IDX 71 95 73 96 70 97 66 98 67 99 68 100 69 101
REMARK H PARENT 93 54 61 65
REMARK Flexibility Score: inf
ROOT
ATOM      1  O   UNL     1       3.200  -3.124  -0.659  1.00  0.00    -0.377 OA
ENDROOT
BRANCH   1   2
ATOM      2  C   UNL     1       2.161  -2.654  -1.498  1.00  0.00     0.188 C 
BRANCH   2   3
ATOM      3  C   UNL     1       2.195  -1.137  -1.660  1.00  0.00     0.188 C 
BRANCH   3   4
ATOM      4  O   UNL     1       3.466  -0.519  -1.571  1.00  0.00    -0.376 OA
BRANCH   4   5
ATOM      5  C   UNL     1       4.269  -0.714  -0.410  1.00  0.00     0.202 C 
BRANCH   5   6
ATOM      6  C   UNL     1       3.584  -0.882   0.956  1.00  0.00     0.261 C 
BRANCH   6   7
ATOM      7  O   UNL     1       2.355  -0.184   1.139  1.00  0.00    -0.462 OA
BRANCH   7   8
ATOM      8  C   UNL     1       2.346   1.161   1.219  1.00  0.00     0.326 C 
ATOM      9  O   UNL     1       1.575   1.723   1.994  1.00  0.00    -0.250 OA
BRANCH   8  10
ATOM     10  C   UNL     1       3.194   1.933   0.226  1.00  0.00     0.250 C 
BRANCH  10  11
ATOM     11  N   UNL     1       4.281   2.794   0.688  1.00  0.00    -0.281 N 
ATOM     12  C   UNL     1       4.068   4.143   0.369  1.00  0.00     0.332 A 
ATOM     13  C   UNL     1       5.471   2.421   1.370  1.00  0.00     0.070 A 
ATOM     14  O   UNL     1       3.157   4.506  -0.381  1.00  0.00    -0.247 OA
ATOM     15  N   UNL     1       4.923   5.078   0.923  1.00  0.00    -0.254 N 
ATOM     16  C   UNL     1       6.315   3.409   1.818  1.00  0.00     0.116 A 
ATOM     17  C   UNL     1       6.100   1.169   1.663  1.00  0.00     0.039 A 
ATOM     18  C   UNL     1       6.122   4.799   1.559  1.00  0.00     0.274 A 
ATOM     19  S   UNL     1       7.615   2.877   2.774  1.00  0.00    -0.136 S 
ATOM     20  C   UNL     1       7.219   1.259   2.468  1.00  0.00     0.068 A 
ATOM     21  O   UNL     1       6.927   5.676   1.868  1.00  0.00    -0.268 OA
BRANCH  15  22
ATOM     22  C   UNL     1       4.475   6.453   0.909  1.00  0.00     0.168 C 
BRANCH  22  23
ATOM     23  C   UNL     1       3.674   6.707   2.163  1.00  0.00    -0.010 A 
ATOM     24  C   UNL     1       2.277   6.700   2.159  1.00  0.00     0.009 A 
ATOM     25  C   UNL     1       4.311   6.828   3.397  1.00  0.00     0.116 A 
ATOM     26  C   UNL     1       1.588   6.833   3.360  1.00  0.00     0.020 A 
ATOM     27  N   UNL     1       3.667   6.950   4.577  1.00  0.00    -0.264 NA
ATOM     28  C   UNL     1       2.320   6.949   4.530  1.00  0.00     0.111 A 
ENDBRANCH  22  23
ENDBRANCH  15  22
ENDBRANCH  10  11
ENDBRANCH   8  10
ENDBRANCH   7   8
ENDBRANCH   6   7
ENDBRANCH   5   6
ENDBRANCH   4   5
ENDBRANCH   3   4
ENDBRANCH   2   3
ENDBRANCH   1   2
BRANCH   1  29
ATOM     29  C   UNL     1       4.255  -3.848  -1.278  1.00  0.00     0.188 C 
BRANCH  29  30
ATOM     30  C   UNL     1       5.163  -3.188  -2.359  1.00  0.00     0.188 C 
BRANCH  30  31
ATOM     31  O   UNL     1       4.595  -2.192  -3.180  1.00  0.00    -0.376 OA
BRANCH  31  32
ATOM     32  C   UNL     1       3.935  -2.339  -4.422  1.00  0.00     0.202 C 
BRANCH  32  33
ATOM     33  C   UNL     1       3.203  -3.586  -4.901  1.00  0.00     0.261 C 
BRANCH  33  34
ATOM     34  O   UNL     1       3.291  -4.670  -4.021  1.00  0.00    -0.460 OA
BRANCH  34  35
ATOM     35  C   UNL     1       4.419  -5.386  -4.161  1.00  0.00     0.338 C 
ATOM     36  O   UNL     1       5.379  -5.125  -4.873  1.00  0.00    -0.246 OA
BRANCH  35  37
ATOM     37  C   UNL     1       4.302  -6.535  -3.273  1.00  0.00     0.060 A 
ATOM     38  C   UNL     1       5.423  -7.346  -3.139  1.00  0.00     0.016 A 
ATOM     39  C   UNL     1       3.021  -6.908  -2.824  1.00  0.00     0.016 A 
ATOM     40  C   UNL     1       5.191  -8.673  -2.909  1.00  0.00     0.010 A 
ATOM     41  C   UNL     1       2.790  -8.225  -2.600  1.00  0.00     0.010 A 
ATOM     42  C   UNL     1       3.860  -9.084  -2.802  1.00  0.00    -0.014 A 
BRANCH  42  43
ATOM     43  C   UNL     1       3.563 -10.476  -2.960  1.00  0.00     0.031 A 
ATOM     44  C   UNL     1       3.724 -11.204  -1.701  1.00  0.00     0.074 A 
ATOM     45  C   UNL     1       3.109 -10.961  -4.128  1.00  0.00     0.049 A 
ATOM     46  N   UNL     1       4.755 -11.888  -1.343  1.00  0.00    -0.248 NA
ATOM     47  C   UNL     1       2.778 -10.910  -0.613  1.00  0.00     0.031 C 
ATOM     48  C   UNL     1       2.685 -10.243  -5.333  1.00  0.00     0.029 A 
ATOM     49  N   UNL     1       2.851 -12.249  -4.439  1.00  0.00    -0.354 N 
ATOM     50  C   UNL     1       4.439 -12.349  -0.079  1.00  0.00     0.074 A 
ATOM     51  C   UNL     1       3.397 -11.491   0.415  1.00  0.00     0.031 C 
ATOM     52  C   UNL     1       2.014 -11.098  -6.144  1.00  0.00     0.029 A 
ATOM     53  C   UNL     1       2.077 -12.435  -5.576  1.00  0.00     0.049 A 
ATOM     54  H   UNL     1       3.187 -13.001  -3.900  1.00  0.00     0.167 HD
ATOM     55  C   UNL     1       4.814 -13.592   0.315  1.00  0.00     0.034 A 
ATOM     56  C   UNL     1       1.484 -13.605  -5.937  1.00  0.00     0.034 A 
ATOM     57  C   UNL     1       5.822 -14.140  -0.563  1.00  0.00     0.049 A 
ATOM     58  C   UNL     1       2.251 -14.684  -5.247  1.00  0.00     0.074 A 
ATOM     59  C   UNL     1       7.092 -13.742  -0.937  1.00  0.00     0.029 A 
ATOM     60  N   UNL     1       5.409 -15.029  -1.532  1.00  0.00    -0.354 N 
ATOM     61  N   UNL     1       3.508 -14.938  -5.499  1.00  0.00    -0.248 NA
ATOM     62  C   UNL     1       1.790 -15.114  -3.933  1.00  0.00     0.031 C 
ATOM     63  C   UNL     1       7.182 -14.038  -2.329  1.00  0.00     0.029 A 
ATOM     64  C   UNL     1       5.999 -14.669  -2.721  1.00  0.00     0.049 A 
ATOM     65  H   UNL     1       4.798 -15.789  -1.397  1.00  0.00     0.167 HD
ATOM     66  C   UNL     1       4.092 -15.163  -4.259  1.00  0.00     0.074 A 
ATOM     67  C   UNL     1       2.967 -15.341  -3.340  1.00  0.00     0.031 C 
ATOM     68  C   UNL     1       5.411 -14.885  -4.034  1.00  0.00     0.034 A 
BRANCH  55  69
ATOM     69  C   UNL     1       4.002 -14.433   1.257  1.00  0.00     0.023 A 
ATOM     70  C   UNL     1       4.603 -15.591   1.769  1.00  0.00     0.031 A 
ATOM     71  C   UNL     1       2.611 -14.296   1.489  1.00  0.00     0.131 A 
ATOM     72  C   UNL     1       3.833 -16.560   2.430  1.00  0.00     0.055 A 
ATOM     73  C   UNL     1       1.865 -15.226   2.210  1.00  0.00     0.041 A 
ATOM     74  F   UNL     1       1.878 -13.314   0.950  1.00  0.00    -0.206 F 
ATOM     75  C   UNL     1       2.471 -16.381   2.666  1.00  0.00     0.022 A 
BRANCH  72  76
ATOM     76  S   UNL     1       4.622 -18.128   2.861  1.00  0.00     0.124 S 
ATOM     77  O   UNL     1       5.068 -18.603   1.556  1.00  0.00    -0.237 OA
ATOM     78  O   UNL     1       5.667 -17.694   3.782  1.00  0.00    -0.237 OA
ATOM     79  O   UNL     1       3.537 -18.895   3.468  1.00  0.00    -0.744 OA
ENDBRANCH  72  76
ENDBRANCH  55  69
BRANCH  56  80
ATOM     80  C   UNL     1       0.105 -13.794  -6.480  1.00  0.00     0.023 A 
ATOM     81  C   UNL     1      -0.340 -15.045  -6.963  1.00  0.00     0.031 A 
ATOM     82  C   UNL     1      -0.889 -12.807  -6.292  1.00  0.00     0.131 A 
ATOM     83  C   UNL     1      -1.714 -15.270  -7.219  1.00  0.00     0.055 A 
ATOM     84  C   UNL     1      -2.244 -13.033  -6.551  1.00  0.00     0.041 A 
ATOM     85  F   UNL     1      -0.598 -11.610  -5.761  1.00  0.00    -0.206 F 
ATOM     86  C   UNL     1      -2.665 -14.271  -7.003  1.00  0.00     0.022 A 
BRANCH  83  87
ATOM     87  S   UNL     1      -2.307 -16.918  -7.723  1.00  0.00     0.124 S 
ATOM     88  O   UNL     1      -1.946 -16.953  -9.135  1.00  0.00    -0.237 OA
ATOM     89  O   UNL     1      -1.561 -17.808  -6.840  1.00  0.00    -0.237 OA
ATOM     90  O   UNL     1      -3.745 -16.856  -7.455  1.00  0.00    -0.744 OA
ENDBRANCH  83  87
ENDBRANCH  56  80
BRANCH  68  91
ATOM     91  C   UNL     1       6.300 -14.592  -5.229  1.00  0.00     0.023 A 
ATOM     92  C   UNL     1       6.170 -13.475  -6.088  1.00  0.00     0.031 A 
ATOM     93  C   UNL     1       7.427 -15.416  -5.396  1.00  0.00     0.131 A 
ATOM     94  C   UNL     1       7.155 -13.223  -7.069  1.00  0.00     0.055 A 
ATOM     95  C   UNL     1       8.406 -15.152  -6.353  1.00  0.00     0.041 A 
ATOM     96  F   UNL     1       7.619 -16.472  -4.589  1.00  0.00    -0.206 F 
ATOM     97  C   UNL     1       8.273 -14.054  -7.194  1.00  0.00     0.022 A 
BRANCH  94  98
ATOM     98  S   UNL     1       7.016 -11.785  -8.184  1.00  0.00     0.124 S 
ATOM     99  O   UNL     1       5.725 -11.989  -8.832  1.00  0.00    -0.237 OA
ATOM    100  O   UNL     1       7.100 -10.656  -7.261  1.00  0.00    -0.237 OA
ATOM    101  O   UNL     1       8.171 -11.927  -9.073  1.00  0.00    -0.744 OA
ENDBRANCH  94  98
ENDBRANCH  68  91
ENDBRANCH  42  43
ENDBRANCH  35  37
ENDBRANCH  34  35
ENDBRANCH  33  34
ENDBRANCH  32  33
ENDBRANCH  31  32
ENDBRANCH  30  31
ENDBRANCH  29  30
ENDBRANCH   1  29
TORSDOF 26
