REMARK SMILES CC(C)[NH2+][C@@]1(C(=O)OCCOCCOCCOCCOC(=O)c2ccc(-c3c4nc(c(-c5cc(S(=O)(=O)[O-])ccc5F)c5ccc([nH]5)c(-c5cc(S(=O)(=O)[O-])ccc5F)c5nc(c(-c6cc(S(=O)(=O)[O-])ccc6F)c6ccc3[nH]6)C=C5)C=C4)cc2)CCC[C@@H]1CCOC1CCOCC1
REMARK SMILES IDX 13 1 12 2 11 3 10 4 9 5 8 6 6 7 7 8 5 9 86 10 89 11 87 12
REMARK SMILES IDX 88 13 4 14 2 17 1 18 3 19 90 20 91 21 92 22 93 23 94 24
REMARK SMILES IDX 98 25 95 26 97 27 96 28 14 29 15 30 16 31 17 32 18 33 19 34
REMARK SMILES IDX 20 35 21 36 22 37 23 38 24 39 85 40 25 41 84 42 26 43 27 44
REMARK SMILES IDX 28 45 78 46 29 47 83 48 77 49 79 50 30 51 82 52 76 53 75 54
REMARK SMILES IDX 31 56 63 57 43 58 62 59 44 60 47 61 61 62 80 63 45 64 46 65
REMARK SMILES IDX 60 67 81 68 48 69 32 70 33 71 41 72 34 73 40 74 42 75 39 76
REMARK SMILES IDX 35 77 36 78 37 79 38 80 64 81 65 82 73 83 66 84 72 85 74 86
REMARK SMILES IDX 71 87 67 88 68 89 69 90 70 91 49 92 50 93 58 94 51 95 57 96
REMARK SMILES IDX 59 97 56 98 52 99 53 100 54 101 55 102
REMARK H PARENT 4 15 4 16 79 55 47 66
REMARK Flexibility Score: inf
ROOT
ATOM      1  C   UNL     1      -3.663  -0.511  -3.549  1.00  0.00     0.188 C 
ENDROOT
BRANCH   1   2
ATOM      2  C   UNL     1      -4.466  -1.059  -2.369  1.00  0.00     0.188 C 
BRANCH   2   3
ATOM      3  O   UNL     1      -5.513  -0.288  -1.781  1.00  0.00    -0.376 OA
BRANCH   3   4
ATOM      4  C   UNL     1      -6.099   0.773  -2.519  1.00  0.00     0.202 C 
BRANCH   4   5
ATOM      5  C   UNL     1      -5.396   2.133  -2.348  1.00  0.00     0.261 C 
BRANCH   5   6
ATOM      6  O   UNL     1      -3.970   2.165  -2.572  1.00  0.00    -0.459 OA
BRANCH   6   7
ATOM      7  C   UNL     1      -3.175   1.926  -1.495  1.00  0.00     0.368 C 
ATOM      8  O   UNL     1      -3.614   1.630  -0.385  1.00  0.00    -0.245 OA
BRANCH   7   9
ATOM      9  C   UNL     1      -1.609   2.129  -1.774  1.00  0.00     0.197 C 
ATOM     10  C   UNL     1      -1.402   3.535  -1.151  1.00  0.00     0.081 C 
ATOM     11  C   UNL     1      -1.053   2.448  -3.213  1.00  0.00     0.065 C 
ATOM     12  C   UNL     1      -1.936   4.489  -2.236  1.00  0.00     0.008 C 
ATOM     13  C   UNL     1      -1.790   3.745  -3.573  1.00  0.00     0.011 C 
BRANCH   9  14
ATOM     14  N   UNL     1      -0.948   1.019  -1.064  1.00  0.00    -0.330 N 
ATOM     15  H   UNL     1      -1.415   0.953  -0.160  1.00  0.00     0.347 HD
ATOM     16  H   UNL     1      -1.031   0.273  -1.754  1.00  0.00     0.347 HD
BRANCH  14  17
ATOM     17  C   UNL     1       0.474   0.969  -0.776  1.00  0.00     0.176 C 
ATOM     18  C   UNL     1       0.625   0.243   0.569  1.00  0.00     0.075 C 
ATOM     19  C   UNL     1       1.261   0.172  -1.817  1.00  0.00     0.075 C 
ENDBRANCH  14  17
ENDBRANCH   9  14
BRANCH  11  20
ATOM     20  C   UNL     1      -0.864   1.334  -4.279  1.00  0.00     0.039 C 
BRANCH  20  21
ATOM     21  C   UNL     1      -0.952   1.673  -5.776  1.00  0.00     0.161 C 
BRANCH  21  22
ATOM     22  O   UNL     1       0.314   1.999  -6.384  1.00  0.00    -0.378 OA
BRANCH  22  23
ATOM     23  C   UNL     1       0.864   3.217  -5.909  1.00  0.00     0.122 C 
ATOM     24  C   UNL     1       1.398   4.125  -7.010  1.00  0.00     0.060 C 
ATOM     25  C   UNL     1       2.002   2.962  -4.930  1.00  0.00     0.060 C 
ATOM     26  C   UNL     1       1.855   5.425  -6.343  1.00  0.00     0.163 C 
ATOM     27  C   UNL     1       2.367   4.292  -4.302  1.00  0.00     0.163 C 
ATOM     28  O   UNL     1       2.825   5.189  -5.313  1.00  0.00    -0.381 OA
ENDBRANCH  22  23
ENDBRANCH  21  22
ENDBRANCH  20  21
ENDBRANCH  11  20
ENDBRANCH   7   9
ENDBRANCH   6   7
ENDBRANCH   5   6
ENDBRANCH   4   5
ENDBRANCH   3   4
ENDBRANCH   2   3
ENDBRANCH   1   2
BRANCH   1  29
ATOM     29  O   UNL     1      -4.386   0.216  -4.524  1.00  0.00    -0.377 OA
BRANCH  29  30
ATOM     30  C   UNL     1      -4.750  -0.461  -5.715  1.00  0.00     0.188 C 
BRANCH  30  31
ATOM     31  C   UNL     1      -5.268  -1.892  -5.538  1.00  0.00     0.188 C 
BRANCH  31  32
ATOM     32  O   UNL     1      -4.303  -2.742  -4.922  1.00  0.00    -0.376 OA
BRANCH  32  33
ATOM     33  C   UNL     1      -3.518  -3.574  -5.767  1.00  0.00     0.202 C 
BRANCH  33  34
ATOM     34  C   UNL     1      -2.458  -2.888  -6.646  1.00  0.00     0.261 C 
BRANCH  34  35
ATOM     35  O   UNL     1      -2.926  -1.941  -7.621  1.00  0.00    -0.460 OA
BRANCH  35  36
ATOM     36  C   UNL     1      -3.850  -2.334  -8.523  1.00  0.00     0.338 C 
ATOM     37  O   UNL     1      -4.324  -3.450  -8.645  1.00  0.00    -0.246 OA
BRANCH  36  38
ATOM     38  C   UNL     1      -4.342  -1.117  -9.205  1.00  0.00     0.060 A 
ATOM     39  C   UNL     1      -5.678  -0.730  -9.037  1.00  0.00     0.016 A 
ATOM     40  C   UNL     1      -3.476  -0.337  -9.976  1.00  0.00     0.016 A 
ATOM     41  C   UNL     1      -6.150   0.442  -9.633  1.00  0.00     0.010 A 
ATOM     42  C   UNL     1      -3.961   0.817 -10.601  1.00  0.00     0.010 A 
ATOM     43  C   UNL     1      -5.302   1.208 -10.442  1.00  0.00    -0.014 A 
BRANCH  43  44
ATOM     44  C   UNL     1      -5.843   2.334 -11.245  1.00  0.00     0.031 A 
ATOM     45  C   UNL     1      -6.265   2.064 -12.663  1.00  0.00     0.074 A 
ATOM     46  C   UNL     1      -5.945   3.574 -10.730  1.00  0.00     0.049 A 
ATOM     47  N   UNL     1      -6.659   2.901 -13.586  1.00  0.00    -0.248 NA
ATOM     48  C   UNL     1      -6.240   0.657 -13.095  1.00  0.00     0.031 C 
ATOM     49  C   UNL     1      -5.636   3.944  -9.349  1.00  0.00     0.029 A 
ATOM     50  N   UNL     1      -6.323   4.759 -11.316  1.00  0.00    -0.354 N 
ATOM     51  C   UNL     1      -6.913   2.128 -14.714  1.00  0.00     0.074 A 
ATOM     52  C   UNL     1      -6.622   0.755 -14.360  1.00  0.00     0.031 C 
ATOM     53  C   UNL     1      -5.817   5.269  -9.201  1.00  0.00     0.029 A 
ATOM     54  C   UNL     1      -6.201   5.851 -10.486  1.00  0.00     0.049 A 
ATOM     55  H   UNL     1      -6.651   4.820 -12.242  1.00  0.00     0.167 HD
ATOM     56  C   UNL     1      -7.343   2.531 -15.933  1.00  0.00     0.034 A 
ATOM     57  C   UNL     1      -6.338   7.168 -10.750  1.00  0.00     0.034 A 
ATOM     58  C   UNL     1      -7.621   3.904 -16.272  1.00  0.00     0.049 A 
ATOM     59  C   UNL     1      -6.696   7.598 -12.158  1.00  0.00     0.074 A 
ATOM     60  C   UNL     1      -8.102   4.413 -17.465  1.00  0.00     0.029 A 
ATOM     61  N   UNL     1      -7.418   4.988 -15.430  1.00  0.00    -0.354 N 
ATOM     62  N   UNL     1      -6.966   6.855 -13.207  1.00  0.00    -0.248 NA
ATOM     63  C   UNL     1      -6.758   9.044 -12.420  1.00  0.00     0.031 C 
ATOM     64  C   UNL     1      -8.101   5.808 -17.376  1.00  0.00     0.029 A 
ATOM     65  C   UNL     1      -7.705   6.167 -16.098  1.00  0.00     0.049 A 
ATOM     66  H   UNL     1      -7.114   4.928 -14.495  1.00  0.00     0.167 HD
ATOM     67  C   UNL     1      -7.258   7.745 -14.240  1.00  0.00     0.074 A 
ATOM     68  C   UNL     1      -7.152   9.077 -13.684  1.00  0.00     0.031 C 
ATOM     69  C   UNL     1      -7.586   7.489 -15.532  1.00  0.00     0.034 A 
BRANCH  56  70
ATOM     70  C   UNL     1      -7.474   1.490 -17.015  1.00  0.00     0.023 A 
ATOM     71  C   UNL     1      -8.443   0.475 -16.962  1.00  0.00     0.031 A 
ATOM     72  C   UNL     1      -6.620   1.533 -18.132  1.00  0.00     0.131 A 
ATOM     73  C   UNL     1      -8.509  -0.479 -17.990  1.00  0.00     0.055 A 
ATOM     74  C   UNL     1      -6.735   0.623 -19.182  1.00  0.00     0.041 A 
ATOM     75  F   UNL     1      -5.659   2.467 -18.220  1.00  0.00    -0.206 F 
ATOM     76  C   UNL     1      -7.679  -0.396 -19.111  1.00  0.00     0.022 A 
BRANCH  73  77
ATOM     77  S   UNL     1      -9.628  -1.893 -17.794  1.00  0.00     0.124 S 
ATOM     78  O   UNL     1      -9.119  -2.506 -16.570  1.00  0.00    -0.237 OA
ATOM     79  O   UNL     1     -10.933  -1.251 -17.692  1.00  0.00    -0.237 OA
ATOM     80  O   UNL     1      -9.410  -2.674 -19.010  1.00  0.00    -0.744 OA
ENDBRANCH  73  77
ENDBRANCH  56  70
BRANCH  57  81
ATOM     81  C   UNL     1      -6.069   8.201  -9.703  1.00  0.00     0.023 A 
ATOM     82  C   UNL     1      -7.054   9.132  -9.335  1.00  0.00     0.031 A 
ATOM     83  C   UNL     1      -4.789   8.347  -9.137  1.00  0.00     0.131 A 
ATOM     84  C   UNL     1      -6.727  10.203  -8.488  1.00  0.00     0.055 A 
ATOM     85  C   UNL     1      -4.488   9.374  -8.239  1.00  0.00     0.041 A 
ATOM     86  F   UNL     1      -3.801   7.497  -9.459  1.00  0.00    -0.206 F 
ATOM     87  C   UNL     1      -5.455  10.322  -7.925  1.00  0.00     0.022 A 
BRANCH  84  88
ATOM     88  S   UNL     1      -7.953  11.520  -8.243  1.00  0.00     0.124 S 
ATOM     89  O   UNL     1      -8.213  11.937  -9.616  1.00  0.00    -0.237 OA
ATOM     90  O   UNL     1      -9.033  10.805  -7.573  1.00  0.00    -0.237 OA
ATOM     91  O   UNL     1      -7.244  12.494  -7.417  1.00  0.00    -0.744 OA
ENDBRANCH  84  88
ENDBRANCH  57  81
BRANCH  69  92
ATOM     92  C   UNL     1      -7.886   8.671 -16.421  1.00  0.00     0.023 A 
ATOM     93  C   UNL     1      -6.887   9.588 -16.791  1.00  0.00     0.031 A 
ATOM     94  C   UNL     1      -9.186   8.872 -16.919  1.00  0.00     0.131 A 
ATOM     95  C   UNL     1      -7.213  10.688 -17.598  1.00  0.00     0.055 A 
ATOM     96  C   UNL     1      -9.491   9.934 -17.772  1.00  0.00     0.041 A 
ATOM     97  F   UNL     1     -10.180   8.029 -16.596  1.00  0.00    -0.206 F 
ATOM     98  C   UNL     1      -8.504  10.855 -18.108  1.00  0.00     0.022 A 
BRANCH  95  99
ATOM     99  S   UNL     1      -5.942  11.941 -17.918  1.00  0.00     0.124 S 
ATOM    100  O   UNL     1      -5.638  12.415 -16.572  1.00  0.00    -0.237 OA
ATOM    101  O   UNL     1      -4.893  11.165 -18.572  1.00  0.00    -0.237 OA
ATOM    102  O   UNL     1      -6.622  12.909 -18.778  1.00  0.00    -0.744 OA
ENDBRANCH  95  99
ENDBRANCH  69  92
ENDBRANCH  43  44
ENDBRANCH  36  38
ENDBRANCH  35  36
ENDBRANCH  34  35
ENDBRANCH  33  34
ENDBRANCH  32  33
ENDBRANCH  31  32
ENDBRANCH  30  31
ENDBRANCH  29  30
ENDBRANCH   1  29
TORSDOF 29
