REMARK SMILES CS(=O)(=O)c1ccc(/C=C(/C(=O)OCCOCCOCCOCCOC(=O)c2ccc(-c3c4nc(c(-c5cc(S(=O)(=O)[O-])ccc5F)c5ccc([nH]5)c(-c5cc(S(=O)(=O)[O-])ccc5F)c5nc(c(-c6cc(S(=O)(=O)[O-])ccc6F)c6ccc3[nH]6)C=C5)C=C4)cc2)c2cccc(-c3ccc(S(C)(=O)=O)cc3)c2)cc1
REMARK SMILES IDX 19 1 18 2 17 3 16 4 15 5 14 6 13 7 11 8 12 9 10 10 9 11 8 12
REMARK SMILES IDX 5 13 6 14 108 15 7 16 107 17 2 18 1 19 3 20 4 21 91 22 92 23
REMARK SMILES IDX 106 24 93 25 95 26 94 27 96 28 97 29 105 30 98 31 104 32
REMARK SMILES IDX 99 33 100 34 101 35 102 36 103 37 20 38 21 39 22 40 23 41
REMARK SMILES IDX 24 42 25 43 26 44 27 45 28 46 29 47 90 48 30 49 89 50 31 51
REMARK SMILES IDX 32 52 33 53 83 54 34 55 88 56 82 57 84 58 35 59 87 60 81 61
REMARK SMILES IDX 80 62 36 64 68 65 48 66 67 67 49 68 52 69 66 70 85 71 50 72
REMARK SMILES IDX 51 73 65 75 86 76 53 77 37 78 38 79 46 80 39 81 45 82 47 83
REMARK SMILES IDX 44 84 40 85 41 86 42 87 43 88 69 89 70 90 78 91 71 92 77 93
REMARK SMILES IDX 79 94 76 95 72 96 73 97 74 98 75 99 54 100 55 101 63 102
REMARK SMILES IDX 56 103 62 104 64 105 61 106 57 107 58 108 59 109 60 110
REMARK H PARENT 84 63 52 74
REMARK Flexibility Score: inf
ROOT
ATOM      1  O   UNL     1       3.566   9.280  -0.534  1.00  0.00    -0.377 OA
ENDROOT
BRANCH   1   2
ATOM      2  C   UNL     1       4.595   8.378  -0.892  1.00  0.00     0.188 C 
BRANCH   2   3
ATOM      3  C   UNL     1       5.600   8.799  -1.989  1.00  0.00     0.188 C 
BRANCH   3   4
ATOM      4  O   UNL     1       5.445  10.138  -2.421  1.00  0.00    -0.376 OA
BRANCH   4   5
ATOM      5  C   UNL     1       4.847  10.368  -3.684  1.00  0.00     0.202 C 
BRANCH   5   6
ATOM      6  C   UNL     1       3.440   9.815  -3.967  1.00  0.00     0.261 C 
BRANCH   6   7
ATOM      7  O   UNL     1       3.152   8.511  -3.443  1.00  0.00    -0.460 OA
BRANCH   7   8
ATOM      8  C   UNL     1       3.657   7.450  -4.110  1.00  0.00     0.338 C 
ATOM      9  O   UNL     1       4.290   7.503  -5.154  1.00  0.00    -0.246 OA
BRANCH   8  10
ATOM     10  C   UNL     1       3.485   6.196  -3.302  1.00  0.00     0.067 C 
ATOM     11  C   UNL     1       2.296   5.968  -2.688  1.00  0.00     0.024 C 
BRANCH  11  12
ATOM     12  C   UNL     1       1.786   4.709  -2.079  1.00  0.00    -0.025 A 
ATOM     13  C   UNL     1       0.746   2.158  -1.535  1.00  0.00     0.067 A 
ATOM     14  C   UNL     1       2.105   2.402  -1.368  1.00  0.00     0.021 A 
ATOM     15  C   UNL     1      -0.123   3.202  -1.847  1.00  0.00     0.021 A 
ATOM     16  C   UNL     1       2.603   3.687  -1.580  1.00  0.00     0.009 A 
ATOM     17  C   UNL     1       0.401   4.472  -2.122  1.00  0.00     0.009 A 
BRANCH  13  18
ATOM     18  S   UNL     1       0.155   0.489  -1.433  1.00  0.00     0.175 S 
ATOM     19  C   UNL     1       0.743  -0.100   0.130  1.00  0.00     0.163 C 
ATOM     20  O   UNL     1       0.837  -0.259  -2.471  1.00  0.00    -0.224 OA
ATOM     21  O   UNL     1      -1.293   0.531  -1.364  1.00  0.00    -0.224 OA
ENDBRANCH  13  18
ENDBRANCH  11  12
BRANCH  10  22
ATOM     22  C   UNL     1       4.596   5.224  -3.321  1.00  0.00    -0.010 A 
ATOM     23  C   UNL     1       5.685   5.290  -2.437  1.00  0.00     0.009 A 
ATOM     24  C   UNL     1       4.485   4.120  -4.154  1.00  0.00     0.017 A 
ATOM     25  C   UNL     1       6.637   4.271  -2.391  1.00  0.00     0.001 A 
ATOM     26  C   UNL     1       5.397   3.056  -4.080  1.00  0.00    -0.018 A 
ATOM     27  C   UNL     1       6.487   3.151  -3.203  1.00  0.00     0.009 A 
BRANCH  26  28
ATOM     28  C   UNL     1       5.095   1.848  -4.845  1.00  0.00    -0.018 A 
ATOM     29  C   UNL     1       4.976   0.605  -4.204  1.00  0.00     0.010 A 
ATOM     30  C   UNL     1       4.750   1.952  -6.204  1.00  0.00     0.010 A 
ATOM     31  C   UNL     1       4.487  -0.501  -4.896  1.00  0.00     0.021 A 
ATOM     32  C   UNL     1       4.258   0.855  -6.901  1.00  0.00     0.021 A 
ATOM     33  C   UNL     1       4.131  -0.364  -6.240  1.00  0.00     0.067 A 
BRANCH  33  34
ATOM     34  S   UNL     1       3.507  -1.770  -7.117  1.00  0.00     0.175 S 
ATOM     35  C   UNL     1       4.946  -2.793  -7.266  1.00  0.00     0.163 C 
ATOM     36  O   UNL     1       2.558  -2.446  -6.257  1.00  0.00    -0.224 OA
ATOM     37  O   UNL     1       3.140  -1.339  -8.453  1.00  0.00    -0.224 OA
ENDBRANCH  33  34
ENDBRANCH  26  28
ENDBRANCH  10  22
ENDBRANCH   8  10
ENDBRANCH   7   8
ENDBRANCH   6   7
ENDBRANCH   5   6
ENDBRANCH   4   5
ENDBRANCH   3   4
ENDBRANCH   2   3
ENDBRANCH   1   2
BRANCH   1  38
ATOM     38  C   UNL     1       3.903  10.629  -0.235  1.00  0.00     0.188 C 
BRANCH  38  39
ATOM     39  C   UNL     1       5.331  11.012   0.228  1.00  0.00     0.188 C 
BRANCH  39  40
ATOM     40  O   UNL     1       6.175   9.920   0.562  1.00  0.00    -0.376 OA
BRANCH  40  41
ATOM     41  C   UNL     1       6.415   9.669   1.936  1.00  0.00     0.202 C 
BRANCH  41  42
ATOM     42  C   UNL     1       5.210   9.236   2.782  1.00  0.00     0.261 C 
BRANCH  42  43
ATOM     43  O   UNL     1       4.082  10.121   2.774  1.00  0.00    -0.460 OA
BRANCH  43  44
ATOM     44  C   UNL     1       4.272  11.371   3.253  1.00  0.00     0.338 C 
ATOM     45  O   UNL     1       5.306  11.828   3.713  1.00  0.00    -0.246 OA
BRANCH  44  46
ATOM     46  C   UNL     1       3.063  12.155   2.931  1.00  0.00     0.060 A 
ATOM     47  C   UNL     1       3.175  13.278   2.100  1.00  0.00     0.016 A 
ATOM     48  C   UNL     1       1.818  11.751   3.416  1.00  0.00     0.016 A 
ATOM     49  C   UNL     1       2.039  14.018   1.773  1.00  0.00     0.010 A 
ATOM     50  C   UNL     1       0.686  12.509   3.110  1.00  0.00     0.010 A 
ATOM     51  C   UNL     1       0.798  13.663   2.314  1.00  0.00    -0.014 A 
BRANCH  51  52
ATOM     52  C   UNL     1      -0.335  14.617   2.239  1.00  0.00     0.031 A 
ATOM     53  C   UNL     1      -0.588  15.503   3.426  1.00  0.00     0.074 A 
ATOM     54  C   UNL     1      -1.111  14.705   1.145  1.00  0.00     0.049 A 
ATOM     55  N   UNL     1      -1.546  16.367   3.635  1.00  0.00    -0.248 NA
ATOM     56  C   UNL     1       0.373  15.386   4.534  1.00  0.00     0.031 C 
ATOM     57  C   UNL     1      -0.933  13.932  -0.082  1.00  0.00     0.029 A 
ATOM     58  N   UNL     1      -2.215  15.483   0.899  1.00  0.00    -0.354 N 
ATOM     59  C   UNL     1      -1.310  16.890   4.902  1.00  0.00     0.074 A 
ATOM     60  C   UNL     1      -0.145  16.211   5.427  1.00  0.00     0.031 C 
ATOM     61  C   UNL     1      -1.906  14.265  -0.948  1.00  0.00     0.029 A 
ATOM     62  C   UNL     1      -2.798  15.241  -0.322  1.00  0.00     0.049 A 
ATOM     63  H   UNL     1      -2.557  16.151   1.536  1.00  0.00     0.167 HD
ATOM     64  C   UNL     1      -1.998  17.855   5.561  1.00  0.00     0.034 A 
ATOM     65  C   UNL     1      -3.937  15.727  -0.856  1.00  0.00     0.034 A 
ATOM     66  C   UNL     1      -3.171  18.502   5.027  1.00  0.00     0.049 A 
ATOM     67  C   UNL     1      -4.748  16.729  -0.067  1.00  0.00     0.074 A 
ATOM     68  C   UNL     1      -3.939  19.501   5.597  1.00  0.00     0.029 A 
ATOM     69  N   UNL     1      -3.762  18.197   3.806  1.00  0.00    -0.354 N 
ATOM     70  N   UNL     1      -4.513  17.230   1.125  1.00  0.00    -0.248 NA
ATOM     71  C   UNL     1      -5.973  17.234  -0.699  1.00  0.00     0.031 C 
ATOM     72  C   UNL     1      -5.040  19.735   4.766  1.00  0.00     0.029 A 
ATOM     73  C   UNL     1      -4.909  18.956   3.627  1.00  0.00     0.049 A 
ATOM     74  H   UNL     1      -3.417  17.537   3.162  1.00  0.00     0.167 HD
ATOM     75  C   UNL     1      -5.545  18.134   1.370  1.00  0.00     0.074 A 
ATOM     76  C   UNL     1      -6.396  18.114   0.198  1.00  0.00     0.031 C 
ATOM     77  C   UNL     1      -5.763  18.916   2.460  1.00  0.00     0.034 A 
BRANCH  64  78
ATOM     78  C   UNL     1      -1.529  18.203   6.955  1.00  0.00     0.023 A 
ATOM     79  C   UNL     1      -0.240  18.711   7.200  1.00  0.00     0.031 A 
ATOM     80  C   UNL     1      -2.359  17.961   8.063  1.00  0.00     0.131 A 
ATOM     81  C   UNL     1       0.213  18.865   8.520  1.00  0.00     0.055 A 
ATOM     82  C   UNL     1      -1.937  18.210   9.370  1.00  0.00     0.041 A 
ATOM     83  F   UNL     1      -3.590  17.451   7.898  1.00  0.00    -0.206 F 
ATOM     84  C   UNL     1      -0.636  18.644   9.606  1.00  0.00     0.022 A 
BRANCH  81  85
ATOM     85  S   UNL     1       1.980  19.169   8.796  1.00  0.00     0.124 S 
ATOM     86  O   UNL     1       2.587  18.035   8.104  1.00  0.00    -0.237 OA
ATOM     87  O   UNL     1       2.176  20.475   8.178  1.00  0.00    -0.237 OA
ATOM     88  O   UNL     1       2.109  19.141  10.252  1.00  0.00    -0.744 OA
ENDBRANCH  81  85
ENDBRANCH  64  78
BRANCH  65  89
ATOM     89  C   UNL     1      -4.405  15.243  -2.187  1.00  0.00     0.023 A 
ATOM     90  C   UNL     1      -4.498  16.106  -3.289  1.00  0.00     0.031 A 
ATOM     91  C   UNL     1      -4.795  13.902  -2.366  1.00  0.00     0.131 A 
ATOM     92  C   UNL     1      -4.997  15.628  -4.512  1.00  0.00     0.055 A 
ATOM     93  C   UNL     1      -5.241  13.420  -3.597  1.00  0.00     0.041 A 
ATOM     94  F   UNL     1      -4.731  13.035  -1.343  1.00  0.00    -0.206 F 
ATOM     95  C   UNL     1      -5.353  14.288  -4.678  1.00  0.00     0.022 A 
BRANCH  92  96
ATOM     96  S   UNL     1      -5.237  16.803  -5.874  1.00  0.00     0.124 S 
ATOM     97  O   UNL     1      -6.191  17.740  -5.292  1.00  0.00    -0.237 OA
ATOM     98  O   UNL     1      -3.885  17.308  -6.080  1.00  0.00    -0.237 OA
ATOM     99  O   UNL     1      -5.760  15.969  -6.954  1.00  0.00    -0.744 OA
ENDBRANCH  92  96
ENDBRANCH  65  89
BRANCH  77 100
ATOM    100  C   UNL     1      -6.947  19.855   2.415  1.00  0.00     0.023 A 
ATOM    101  C   UNL     1      -8.272  19.385   2.373  1.00  0.00     0.031 A 
ATOM    102  C   UNL     1      -6.743  21.247   2.417  1.00  0.00     0.131 A 
ATOM    103  C   UNL     1      -9.335  20.297   2.277  1.00  0.00     0.055 A 
ATOM    104  C   UNL     1      -7.807  22.150   2.393  1.00  0.00     0.041 A 
ATOM    105  F   UNL     1      -5.501  21.756   2.451  1.00  0.00    -0.206 F 
ATOM    106  C   UNL     1      -9.112  21.676   2.309  1.00  0.00     0.022 A 
BRANCH 103 107
ATOM    107  S   UNL     1     -11.011  19.658   2.004  1.00  0.00     0.124 S 
ATOM    108  O   UNL     1     -10.846  18.895   0.771  1.00  0.00    -0.237 OA
ATOM    109  O   UNL     1     -11.248  18.876   3.212  1.00  0.00    -0.237 OA
ATOM    110  O   UNL     1     -11.823  20.868   1.880  1.00  0.00    -0.744 OA
ENDBRANCH 103 107
ENDBRANCH  77 100
ENDBRANCH  51  52
ENDBRANCH  44  46
ENDBRANCH  43  44
ENDBRANCH  42  43
ENDBRANCH  41  42
ENDBRANCH  40  41
ENDBRANCH  39  40
ENDBRANCH  38  39
ENDBRANCH   1  38
TORSDOF 28
