REMARK SMILES C[C@@](NC(=O)c1cc(Br)c[nH]1)(C(=O)OCCOCCOCCOCCOC(=O)c1ccc(-c2c3nc(c(-c4cc(S(=O)(=O)[O-])ccc4F)c4ccc([nH]4)c(-c4cc(S(=O)(=O)[O-])ccc4F)c4nc(c(-c5cc(S(=O)(=O)[O-])ccc5F)c5ccc2[nH]5)C=C4)C=C3)cc1)C(F)(F)F
REMARK SMILES IDX 21 1 20 2 19 3 18 4 17 5 16 6 15 7 14 8 12 9 13 10 2 11 1 12
REMARK SMILES IDX 3 13 4 14 5 16 6 17 7 18 11 19 8 20 10 21 9 23 92 24 93 25
REMARK SMILES IDX 94 26 95 27 22 28 23 29 24 30 25 31 26 32 27 33 28 34 29 35
REMARK SMILES IDX 30 36 91 37 31 38 90 39 32 40 33 41 34 42 84 43 35 44 89 45
REMARK SMILES IDX 83 46 85 47 36 48 88 49 82 50 81 51 37 53 69 54 49 55 68 56
REMARK SMILES IDX 50 57 53 58 67 59 86 60 51 61 52 62 66 64 87 65 54 66 38 67
REMARK SMILES IDX 39 68 47 69 40 70 46 71 48 72 45 73 41 74 42 75 43 76 44 77
REMARK SMILES IDX 70 78 71 79 79 80 72 81 78 82 80 83 77 84 73 85 74 86 75 87
REMARK SMILES IDX 76 88 55 89 56 90 64 91 57 92 63 93 65 94 62 95 58 96 59 97
REMARK SMILES IDX 60 98 61 99
REMARK H PARENT 3 15 11 22 85 52 53 63
REMARK Flexibility Score: inf
ROOT
ATOM      1  C   UNL     1      -2.894   0.046  -2.240  1.00  0.00     0.188 C 
ENDROOT
BRANCH   1   2
ATOM      2  O   UNL     1      -1.745  -0.148  -1.415  1.00  0.00    -0.377 OA
BRANCH   2   3
ATOM      3  C   UNL     1      -1.284  -1.460  -1.153  1.00  0.00     0.188 C 
BRANCH   3   4
ATOM      4  C   UNL     1      -2.184  -2.323  -0.254  1.00  0.00     0.188 C 
BRANCH   4   5
ATOM      5  O   UNL     1      -3.474  -1.783  -0.018  1.00  0.00    -0.376 OA
BRANCH   5   6
ATOM      6  C   UNL     1      -3.673  -0.936   1.101  1.00  0.00     0.202 C 
BRANCH   6   7
ATOM      7  C   UNL     1      -2.875   0.366   1.183  1.00  0.00     0.261 C 
BRANCH   7   8
ATOM      8  O   UNL     1      -1.438   0.296   1.248  1.00  0.00    -0.461 OA
BRANCH   8   9
ATOM      9  C   UNL     1      -0.788  -0.592   2.032  1.00  0.00     0.341 C 
ATOM     10  O   UNL     1      -1.322  -1.471   2.697  1.00  0.00    -0.249 OA
BRANCH   9  11
ATOM     11  C   UNL     1       0.688  -0.238   2.133  1.00  0.00     0.231 C 
ATOM     12  C   UNL     1       1.209   0.612   0.956  1.00  0.00     0.058 C 
BRANCH  11  13
ATOM     13  N   UNL     1       1.001   0.438   3.439  1.00  0.00    -0.328 N 
ATOM     14  C   UNL     1       0.313   1.437   4.084  1.00  0.00     0.268 C 
ATOM     15  H   UNL     1       1.813   0.119   3.897  1.00  0.00     0.165 HD
ATOM     16  O   UNL     1       0.976   2.362   4.544  1.00  0.00    -0.268 OA
BRANCH  14  17
ATOM     17  C   UNL     1      -1.113   1.313   4.298  1.00  0.00     0.105 A 
ATOM     18  C   UNL     1      -2.080   2.309   4.264  1.00  0.00     0.049 A 
ATOM     19  N   UNL     1      -1.768   0.159   4.694  1.00  0.00    -0.356 N 
ATOM     20  C   UNL     1      -3.328   1.705   4.527  1.00  0.00     0.036 A 
ATOM     21  C   UNL     1      -3.122   0.373   4.767  1.00  0.00     0.098 A 
ATOM     22  H   UNL     1      -1.325  -0.697   4.896  1.00  0.00     0.166 HD
ATOM     23  Br  UNL     1      -4.979   2.581   4.430  1.00  0.00    -0.049 Br
ENDBRANCH  14  17
ENDBRANCH  11  13
BRANCH  11  24
ATOM     24  C   UNL     1       1.382  -1.615   2.054  1.00  0.00     0.422 C 
ATOM     25  F   UNL     1       1.033  -2.321   0.954  1.00  0.00    -0.168 F 
ATOM     26  F   UNL     1       2.732  -1.461   2.002  1.00  0.00    -0.168 F 
ATOM     27  F   UNL     1       1.134  -2.391   3.134  1.00  0.00    -0.168 F 
ENDBRANCH  11  24
ENDBRANCH   9  11
ENDBRANCH   8   9
ENDBRANCH   7   8
ENDBRANCH   6   7
ENDBRANCH   5   6
ENDBRANCH   4   5
ENDBRANCH   3   4
ENDBRANCH   2   3
ENDBRANCH   1   2
BRANCH   1  28
ATOM     28  C   UNL     1      -3.741  -1.139  -2.746  1.00  0.00     0.188 C 
BRANCH  28  29
ATOM     29  O   UNL     1      -2.999  -2.321  -2.992  1.00  0.00    -0.376 OA
BRANCH  29  30
ATOM     30  C   UNL     1      -2.561  -2.580  -4.313  1.00  0.00     0.202 C 
BRANCH  30  31
ATOM     31  C   UNL     1      -1.629  -1.559  -4.986  1.00  0.00     0.261 C 
BRANCH  31  32
ATOM     32  O   UNL     1      -2.091  -0.202  -5.090  1.00  0.00    -0.460 OA
BRANCH  32  33
ATOM     33  C   UNL     1      -3.277   0.038  -5.690  1.00  0.00     0.338 C 
ATOM     34  O   UNL     1      -3.997  -0.786  -6.229  1.00  0.00    -0.246 OA
BRANCH  33  35
ATOM     35  C   UNL     1      -3.665   1.438  -5.385  1.00  0.00     0.060 A 
ATOM     36  C   UNL     1      -4.872   1.688  -4.714  1.00  0.00     0.016 A 
ATOM     37  C   UNL     1      -2.827   2.500  -5.735  1.00  0.00     0.016 A 
ATOM     38  C   UNL     1      -5.263   3.000  -4.433  1.00  0.00     0.010 A 
ATOM     39  C   UNL     1      -3.235   3.814  -5.480  1.00  0.00     0.010 A 
ATOM     40  C   UNL     1      -4.473   4.072  -4.862  1.00  0.00    -0.014 A 
BRANCH  40  41
ATOM     41  C   UNL     1      -5.041   5.446  -4.889  1.00  0.00     0.031 A 
ATOM     42  C   UNL     1      -5.624   5.938  -6.189  1.00  0.00     0.074 A 
ATOM     43  C   UNL     1      -5.064   6.232  -3.797  1.00  0.00     0.049 A 
ATOM     44  N   UNL     1      -6.098   7.116  -6.498  1.00  0.00    -0.248 NA
ATOM     45  C   UNL     1      -5.672   4.962  -7.290  1.00  0.00     0.031 C 
ATOM     46  C   UNL     1      -4.595   5.848  -2.468  1.00  0.00     0.029 A 
ATOM     47  N   UNL     1      -5.497   7.527  -3.639  1.00  0.00    -0.354 N 
ATOM     48  C   UNL     1      -6.491   7.027  -7.830  1.00  0.00     0.074 A 
ATOM     49  C   UNL     1      -6.169   5.689  -8.277  1.00  0.00     0.031 C 
ATOM     50  C   UNL     1      -4.750   6.892  -1.633  1.00  0.00     0.029 A 
ATOM     51  C   UNL     1      -5.285   8.033  -2.377  1.00  0.00     0.049 A 
ATOM     52  H   UNL     1      -5.919   8.045  -4.362  1.00  0.00     0.167 HD
ATOM     53  C   UNL     1      -7.070   7.973  -8.608  1.00  0.00     0.034 A 
ATOM     54  C   UNL     1      -5.468   9.280  -1.891  1.00  0.00     0.034 A 
ATOM     55  C   UNL     1      -7.376   9.306  -8.152  1.00  0.00     0.049 A 
ATOM     56  C   UNL     1      -6.019  10.351  -2.810  1.00  0.00     0.074 A 
ATOM     57  C   UNL     1      -7.972  10.339  -8.853  1.00  0.00     0.029 A 
ATOM     58  N   UNL     1      -7.099   9.796  -6.882  1.00  0.00    -0.354 N 
ATOM     59  N   UNL     1      -6.386  10.255  -4.068  1.00  0.00    -0.248 NA
ATOM     60  C   UNL     1      -6.184  11.696  -2.241  1.00  0.00     0.031 C 
ATOM     61  C   UNL     1      -7.975  11.476  -8.040  1.00  0.00     0.029 A 
ATOM     62  C   UNL     1      -7.474  11.128  -6.795  1.00  0.00     0.049 A 
ATOM     63  H   UNL     1      -6.696   9.275  -6.151  1.00  0.00     0.167 HD
ATOM     64  C   UNL     1      -6.862  11.517  -4.423  1.00  0.00     0.074 A 
ATOM     65  C   UNL     1      -6.748  12.349  -3.245  1.00  0.00     0.031 C 
ATOM     66  C   UNL     1      -7.354  11.949  -5.614  1.00  0.00     0.034 A 
BRANCH  53  67
ATOM     67  C   UNL     1      -7.353   7.618 -10.047  1.00  0.00     0.023 A 
ATOM     68  C   UNL     1      -8.274   6.617 -10.401  1.00  0.00     0.031 A 
ATOM     69  C   UNL     1      -6.679   8.289 -11.084  1.00  0.00     0.131 A 
ATOM     70  C   UNL     1      -8.453   6.277 -11.751  1.00  0.00     0.055 A 
ATOM     71  C   UNL     1      -6.921   8.002 -12.428  1.00  0.00     0.041 A 
ATOM     72  F   UNL     1      -5.766   9.233 -10.806  1.00  0.00    -0.206 F 
ATOM     73  C   UNL     1      -7.805   6.982 -12.768  1.00  0.00     0.022 A 
BRANCH  70  74
ATOM     74  S   UNL     1      -9.444   4.813 -12.154  1.00  0.00     0.124 S 
ATOM     75  O   UNL     1      -8.721   3.762 -11.442  1.00  0.00    -0.237 OA
ATOM     76  O   UNL     1     -10.755   5.161 -11.619  1.00  0.00    -0.237 OA
ATOM     77  O   UNL     1      -9.365   4.736 -13.611  1.00  0.00    -0.744 OA
ENDBRANCH  70  74
ENDBRANCH  53  67
BRANCH  54  78
ATOM     78  C   UNL     1      -5.083   9.620  -0.488  1.00  0.00     0.023 A 
ATOM     79  C   UNL     1      -6.028  10.107   0.430  1.00  0.00     0.031 A 
ATOM     80  C   UNL     1      -3.741   9.550  -0.070  1.00  0.00     0.131 A 
ATOM     81  C   UNL     1      -5.611  10.562   1.692  1.00  0.00     0.055 A 
ATOM     82  C   UNL     1      -3.342   9.939   1.211  1.00  0.00     0.041 A 
ATOM     83  F   UNL     1      -2.790   9.105  -0.907  1.00  0.00    -0.206 F 
ATOM     84  C   UNL     1      -4.278  10.465   2.095  1.00  0.00     0.022 A 
BRANCH  81  85
ATOM     85  S   UNL     1      -6.820  11.399   2.756  1.00  0.00     0.124 S 
ATOM     86  O   UNL     1      -7.265  12.489   1.895  1.00  0.00    -0.237 OA
ATOM     87  O   UNL     1      -7.791  10.339   3.003  1.00  0.00    -0.237 OA
ATOM     88  O   UNL     1      -6.030  11.803   3.917  1.00  0.00    -0.744 OA
ENDBRANCH  81  85
ENDBRANCH  54  78
BRANCH  66  89
ATOM     89  C   UNL     1      -7.864  13.370  -5.682  1.00  0.00     0.023 A 
ATOM     90  C   UNL     1      -7.013  14.478  -5.526  1.00  0.00     0.031 A 
ATOM     91  C   UNL     1      -9.232  13.617  -5.906  1.00  0.00     0.131 A 
ATOM     92  C   UNL     1      -7.545  15.776  -5.537  1.00  0.00     0.055 A 
ATOM     93  C   UNL     1      -9.743  14.913  -5.987  1.00  0.00     0.041 A 
ATOM     94  F   UNL     1     -10.095  12.600  -6.059  1.00  0.00    -0.206 F 
ATOM     95  C   UNL     1      -8.901  16.002  -5.787  1.00  0.00     0.022 A 
BRANCH  92  96
ATOM     96  S   UNL     1      -6.458  17.167  -5.116  1.00  0.00     0.124 S 
ATOM     97  O   UNL     1      -5.989  16.792  -3.786  1.00  0.00    -0.237 OA
ATOM     98  O   UNL     1      -5.462  17.119  -6.181  1.00  0.00    -0.237 OA
ATOM     99  O   UNL     1      -7.351  18.324  -5.156  1.00  0.00    -0.744 OA
ENDBRANCH  92  96
ENDBRANCH  66  89
ENDBRANCH  40  41
ENDBRANCH  33  35
ENDBRANCH  32  33
ENDBRANCH  31  32
ENDBRANCH  30  31
ENDBRANCH  29  30
ENDBRANCH  28  29
ENDBRANCH   1  28
TORSDOF 26
