REMARK SMILES Cc1cccc(-c2ccccc2C(=O)N2CC[C@H](O)C[C@@H]2C(=O)OCCOCCOCCOCCOC(=O)c2ccc(-c3c4nc(c(-c5cc(S(=O)(=O)[O-])ccc5F)c5ccc([nH]5)c(-c5cc(S(=O)(=O)[O-])ccc5F)c5nc(c(-c6cc(S(=O)(=O)[O-])ccc6F)c6ccc3[nH]6)C=C5)C=C4)cc2)c1
REMARK SMILES IDX 30 1 29 2 28 3 27 4 26 5 25 6 24 7 22 8 23 9 21 10 15 11
REMARK SMILES IDX 16 12 17 13 20 14 18 15 13 16 14 17 12 18 7 19 8 20 9 21
REMARK SMILES IDX 11 22 10 23 6 24 1 25 2 26 3 27 102 28 4 29 5 30 19 31 31 33
REMARK SMILES IDX 32 34 33 35 34 36 35 37 36 38 37 39 38 40 39 41 40 42 101 43
REMARK SMILES IDX 41 44 100 45 42 46 43 47 44 48 94 49 45 50 99 51 93 52 95 53
REMARK SMILES IDX 46 54 98 55 92 56 91 57 47 59 79 60 59 61 78 62 60 63 63 64
REMARK SMILES IDX 77 65 96 66 61 67 62 68 76 70 97 71 64 72 48 73 49 74 57 75
REMARK SMILES IDX 50 76 56 77 58 78 55 79 51 80 52 81 53 82 54 83 80 84 81 85
REMARK SMILES IDX 89 86 82 87 88 88 90 89 87 90 83 91 84 92 85 93 86 94 65 95
REMARK SMILES IDX 66 96 74 97 67 98 73 99 75 100 72 101 68 102 69 103 70 104
REMARK SMILES IDX 71 105
REMARK H PARENT 19 32 95 58 63 69
REMARK Flexibility Score: inf
ROOT
ATOM      1  O   UNL     1      -2.158   6.001  -2.952  1.00  0.00    -0.377 OA
ENDROOT
BRANCH   1   2
ATOM      2  C   UNL     1      -0.812   6.407  -3.048  1.00  0.00     0.188 C 
BRANCH   2   3
ATOM      3  C   UNL     1      -0.326   7.619  -3.823  1.00  0.00     0.188 C 
BRANCH   3   4
ATOM      4  O   UNL     1       0.168   7.309  -5.122  1.00  0.00    -0.376 OA
BRANCH   4   5
ATOM      5  C   UNL     1      -0.885   7.076  -6.034  1.00  0.00     0.202 C 
BRANCH   5   6
ATOM      6  C   UNL     1      -0.755   5.706  -6.683  1.00  0.00     0.261 C 
BRANCH   6   7
ATOM      7  O   UNL     1      -0.516   4.713  -5.664  1.00  0.00    -0.462 OA
BRANCH   7   8
ATOM      8  C   UNL     1       0.561   3.965  -5.894  1.00  0.00     0.329 C 
ATOM      9  O   UNL     1       1.160   3.970  -6.972  1.00  0.00    -0.250 OA
BRANCH   8  10
ATOM     10  C   UNL     1       1.063   3.128  -4.687  1.00  0.00     0.198 C 
ATOM     11  N   UNL     1       0.742   3.346  -3.208  1.00  0.00    -0.325 N 
ATOM     12  C   UNL     1       1.609   4.242  -2.430  1.00  0.00     0.123 C 
ATOM     13  C   UNL     1       3.003   4.591  -2.970  1.00  0.00     0.053 C 
ATOM     14  C   UNL     1       2.583   3.150  -4.897  1.00  0.00     0.069 C 
ATOM     15  C   UNL     1       3.147   4.502  -4.474  1.00  0.00     0.118 C 
BRANCH  11  16
ATOM     16  C   UNL     1      -0.332   2.608  -2.618  1.00  0.00     0.255 C 
ATOM     17  O   UNL     1      -0.867   1.699  -3.262  1.00  0.00    -0.269 OA
BRANCH  16  18
ATOM     18  C   UNL     1      -0.900   2.842  -1.202  1.00  0.00     0.047 A 
ATOM     19  C   UNL     1      -1.356   1.761  -0.407  1.00  0.00    -0.006 A 
ATOM     20  C   UNL     1      -2.241   1.984   0.684  1.00  0.00     0.009 A 
ATOM     21  C   UNL     1      -2.571   3.260   1.092  1.00  0.00     0.001 A 
ATOM     22  C   UNL     1      -1.149   4.103  -0.674  1.00  0.00     0.014 A 
ATOM     23  C   UNL     1      -1.957   4.315   0.457  1.00  0.00     0.001 A 
BRANCH  19  24
ATOM     24  C   UNL     1      -0.677   0.466  -0.419  1.00  0.00    -0.017 A 
ATOM     25  C   UNL     1       2.927  -0.633   0.057  1.00  0.00     0.044 C 
ATOM     26  C   UNL     1       1.439  -0.702  -0.078  1.00  0.00    -0.051 A 
ATOM     27  C   UNL     1       0.743  -1.912  -0.041  1.00  0.00     0.003 A 
ATOM     28  C   UNL     1       0.720   0.473  -0.262  1.00  0.00     0.012 A 
ATOM     29  C   UNL     1      -0.649  -1.937  -0.181  1.00  0.00     0.001 A 
ATOM     30  C   UNL     1      -1.358  -0.752  -0.372  1.00  0.00     0.009 A 
ENDBRANCH  19  24
ENDBRANCH  16  18
ENDBRANCH  11  16
BRANCH  15  31
ATOM     31  O   UNL     1       2.517   5.642  -5.036  1.00  0.00    -0.393 OA
ATOM     32  H   UNL     1       1.591   5.674  -4.748  1.00  0.00     0.210 HD
ENDBRANCH  15  31
ENDBRANCH   8  10
ENDBRANCH   7   8
ENDBRANCH   6   7
ENDBRANCH   5   6
ENDBRANCH   4   5
ENDBRANCH   3   4
ENDBRANCH   2   3
ENDBRANCH   1   2
BRANCH   1  33
ATOM     33  C   UNL     1      -3.084   6.848  -2.321  1.00  0.00     0.188 C 
BRANCH  33  34
ATOM     34  C   UNL     1      -2.673   7.547  -1.058  1.00  0.00     0.188 C 
BRANCH  34  35
ATOM     35  O   UNL     1      -1.719   8.552  -1.400  1.00  0.00    -0.376 OA
BRANCH  35  36
ATOM     36  C   UNL     1      -1.268   9.290  -0.277  1.00  0.00     0.202 C 
BRANCH  36  37
ATOM     37  C   UNL     1      -2.412  10.091   0.356  1.00  0.00     0.261 C 
BRANCH  37  38
ATOM     38  O   UNL     1      -3.080  10.822  -0.701  1.00  0.00    -0.460 OA
BRANCH  38  39
ATOM     39  C   UNL     1      -4.392  10.534  -0.898  1.00  0.00     0.338 C 
ATOM     40  O   UNL     1      -5.230  10.440   0.005  1.00  0.00    -0.246 OA
BRANCH  39  41
ATOM     41  C   UNL     1      -4.655  10.151  -2.321  1.00  0.00     0.060 A 
ATOM     42  C   UNL     1      -5.824   9.445  -2.671  1.00  0.00     0.016 A 
ATOM     43  C   UNL     1      -3.631  10.248  -3.257  1.00  0.00     0.016 A 
ATOM     44  C   UNL     1      -5.899   8.704  -3.872  1.00  0.00     0.010 A 
ATOM     45  C   UNL     1      -3.695   9.478  -4.415  1.00  0.00     0.010 A 
ATOM     46  C   UNL     1      -4.791   8.633  -4.717  1.00  0.00    -0.014 A 
BRANCH  46  47
ATOM     47  C   UNL     1      -4.523   7.541  -5.718  1.00  0.00     0.031 A 
ATOM     48  C   UNL     1      -3.805   7.923  -7.016  1.00  0.00     0.074 A 
ATOM     49  C   UNL     1      -4.530   6.257  -5.249  1.00  0.00     0.049 A 
ATOM     50  N   UNL     1      -3.305   7.140  -7.919  1.00  0.00    -0.248 NA
ATOM     51  C   UNL     1      -3.584   9.327  -7.380  1.00  0.00     0.031 C 
ATOM     52  C   UNL     1      -3.511   5.245  -5.449  1.00  0.00     0.029 A 
ATOM     53  N   UNL     1      -5.317   5.598  -4.322  1.00  0.00    -0.354 N 
ATOM     54  C   UNL     1      -2.488   7.881  -8.795  1.00  0.00     0.074 A 
ATOM     55  C   UNL     1      -2.734   9.246  -8.408  1.00  0.00     0.031 C 
ATOM     56  C   UNL     1      -3.788   4.050  -4.929  1.00  0.00     0.029 A 
ATOM     57  C   UNL     1      -5.091   4.193  -4.397  1.00  0.00     0.049 A 
ATOM     58  H   UNL     1      -5.943   6.035  -3.701  1.00  0.00     0.167 HD
ATOM     59  C   UNL     1      -1.610   7.251  -9.656  1.00  0.00     0.034 A 
ATOM     60  C   UNL     1      -6.100   3.340  -4.680  1.00  0.00     0.034 A 
ATOM     61  C   UNL     1      -1.862   5.791  -9.684  1.00  0.00     0.049 A 
ATOM     62  C   UNL     1      -6.007   3.002  -6.206  1.00  0.00     0.074 A 
ATOM     63  C   UNL     1      -1.093   4.638  -9.596  1.00  0.00     0.029 A 
ATOM     64  N   UNL     1      -3.183   5.338  -9.646  1.00  0.00    -0.354 N 
ATOM     65  N   UNL     1      -5.176   3.568  -7.073  1.00  0.00    -0.248 NA
ATOM     66  C   UNL     1      -6.722   1.890  -6.832  1.00  0.00     0.031 C 
ATOM     67  C   UNL     1      -1.962   3.543  -9.298  1.00  0.00     0.029 A 
ATOM     68  C   UNL     1      -3.269   4.003  -9.322  1.00  0.00     0.049 A 
ATOM     69  H   UNL     1      -3.964   5.909  -9.830  1.00  0.00     0.167 HD
ATOM     70  C   UNL     1      -5.252   2.963  -8.307  1.00  0.00     0.074 A 
ATOM     71  C   UNL     1      -6.224   1.902  -8.084  1.00  0.00     0.031 C 
ATOM     72  C   UNL     1      -4.549   3.324  -9.438  1.00  0.00     0.034 A 
BRANCH  59  73
ATOM     73  C   UNL     1      -0.366   7.876 -10.378  1.00  0.00     0.023 A 
ATOM     74  C   UNL     1       0.569   7.031 -11.042  1.00  0.00     0.031 A 
ATOM     75  C   UNL     1       0.014   9.238 -10.414  1.00  0.00     0.131 A 
ATOM     76  C   UNL     1       1.785   7.501 -11.605  1.00  0.00     0.055 A 
ATOM     77  C   UNL     1       1.206   9.715 -11.005  1.00  0.00     0.041 A 
ATOM     78  F   UNL     1      -0.739  10.210  -9.899  1.00  0.00    -0.206 F 
ATOM     79  C   UNL     1       2.107   8.848 -11.594  1.00  0.00     0.022 A 
BRANCH  76  80
ATOM     80  S   UNL     1       2.954   6.327 -12.365  1.00  0.00     0.124 S 
ATOM     81  O   UNL     1       3.492   5.632 -11.201  1.00  0.00    -0.237 OA
ATOM     82  O   UNL     1       2.095   5.546 -13.247  1.00  0.00    -0.237 OA
ATOM     83  O   UNL     1       3.910   7.195 -13.056  1.00  0.00    -0.744 OA
ENDBRANCH  76  80
ENDBRANCH  59  73
BRANCH  60  84
ATOM     84  C   UNL     1      -7.177   3.727  -3.672  1.00  0.00     0.023 A 
ATOM     85  C   UNL     1      -6.787   3.590  -2.281  1.00  0.00     0.031 A 
ATOM     86  C   UNL     1      -8.021   4.808  -3.978  1.00  0.00     0.131 A 
ATOM     87  C   UNL     1      -7.001   4.647  -1.364  1.00  0.00     0.055 A 
ATOM     88  C   UNL     1      -8.246   5.839  -3.042  1.00  0.00     0.041 A 
ATOM     89  F   UNL     1      -8.408   5.024  -5.243  1.00  0.00    -0.206 F 
ATOM     90  C   UNL     1      -7.692   5.790  -1.761  1.00  0.00     0.022 A 
BRANCH  87  91
ATOM     91  S   UNL     1      -6.272   4.674   0.317  1.00  0.00     0.124 S 
ATOM     92  O   UNL     1      -6.004   3.270   0.606  1.00  0.00    -0.237 OA
ATOM     93  O   UNL     1      -5.098   5.528   0.139  1.00  0.00    -0.237 OA
ATOM     94  O   UNL     1      -7.339   5.271   1.117  1.00  0.00    -0.744 OA
ENDBRANCH  87  91
ENDBRANCH  60  84
BRANCH  72  95
ATOM     95  C   UNL     1      -5.007   3.067 -10.873  1.00  0.00     0.023 A 
ATOM     96  C   UNL     1      -6.278   2.577 -11.158  1.00  0.00     0.031 A 
ATOM     97  C   UNL     1      -4.244   3.458 -12.015  1.00  0.00     0.131 A 
ATOM     98  C   UNL     1      -6.711   2.392 -12.478  1.00  0.00     0.055 A 
ATOM     99  C   UNL     1      -4.724   3.384 -13.326  1.00  0.00     0.041 A 
ATOM    100  F   UNL     1      -3.004   3.958 -11.925  1.00  0.00    -0.206 F 
ATOM    101  C   UNL     1      -5.964   2.826 -13.568  1.00  0.00     0.022 A 
BRANCH  98 102
ATOM    102  S   UNL     1      -8.240   1.465 -12.706  1.00  0.00     0.124 S 
ATOM    103  O   UNL     1      -7.893   0.177 -12.110  1.00  0.00    -0.237 OA
ATOM    104  O   UNL     1      -9.206   2.266 -11.961  1.00  0.00    -0.237 OA
ATOM    105  O   UNL     1      -8.422   1.452 -14.155  1.00  0.00    -0.744 OA
ENDBRANCH  98 102
ENDBRANCH  72  95
ENDBRANCH  46  47
ENDBRANCH  39  41
ENDBRANCH  38  39
ENDBRANCH  37  38
ENDBRANCH  36  37
ENDBRANCH  35  36
ENDBRANCH  34  35
ENDBRANCH  33  34
ENDBRANCH   1  33
TORSDOF 27
