REMARK SMILES C[C@H]([NH2+][C@H](C)c1ccccn1)[C@@H](C)C(=O)OCCOCCOCCOCCOC(=O)c1ccc(-c2c3nc(c(-c4cc(S(=O)(=O)[O-])ccc4F)c4ccc([nH]4)c(-c4cc(S(=O)(=O)[O-])ccc4F)c4nc(c(-c5cc(S(=O)(=O)[O-])ccc5F)c5ccc2[nH]5)C=C4)C=C3)cc1
REMARK SMILES IDX 21 1 20 2 19 3 18 4 17 5 16 6 14 7 15 8 12 9 13 10 2 11 1 12
REMARK SMILES IDX 3 13 4 16 5 17 6 18 7 19 11 20 8 21 10 22 9 23 22 24 23 25
REMARK SMILES IDX 24 26 25 27 26 28 27 29 28 30 29 31 30 32 31 33 32 34 93 35
REMARK SMILES IDX 33 36 92 37 34 38 35 39 36 40 86 41 37 42 91 43 85 44 87 45
REMARK SMILES IDX 38 46 90 47 84 48 83 49 39 51 71 52 51 53 70 54 52 55 55 56
REMARK SMILES IDX 69 57 88 58 53 59 54 60 68 62 89 63 56 64 40 65 41 66 49 67
REMARK SMILES IDX 42 68 48 69 50 70 47 71 43 72 44 73 45 74 46 75 72 76 73 77
REMARK SMILES IDX 81 78 74 79 80 80 82 81 79 82 75 83 76 84 77 85 78 86 57 87
REMARK SMILES IDX 58 88 66 89 59 90 65 91 67 92 64 93 60 94 61 95 62 96 63 97
REMARK H PARENT 3 14 3 15 87 50 55 61
REMARK Flexibility Score: inf
ROOT
ATOM      1  C   UNL     1       7.171   0.658  -2.328  1.00  0.00     0.188 C 
ENDROOT
BRANCH   1   2
ATOM      2  C   UNL     1       7.788   1.409  -3.512  1.00  0.00     0.188 C 
BRANCH   2   3
ATOM      3  O   UNL     1       8.436   2.598  -3.126  1.00  0.00    -0.376 OA
BRANCH   3   4
ATOM      4  C   UNL     1       7.761   3.827  -3.273  1.00  0.00     0.202 C 
BRANCH   4   5
ATOM      5  C   UNL     1       6.328   4.077  -2.761  1.00  0.00     0.261 C 
BRANCH   5   6
ATOM      6  O   UNL     1       5.412   2.988  -2.573  1.00  0.00    -0.463 OA
BRANCH   6   7
ATOM      7  C   UNL     1       4.662   2.582  -3.626  1.00  0.00     0.314 C 
ATOM      8  O   UNL     1       4.883   2.921  -4.785  1.00  0.00    -0.252 OA
BRANCH   7   9
ATOM      9  C   UNL     1       3.417   1.769  -3.226  1.00  0.00     0.154 C 
ATOM     10  C   UNL     1       2.302   2.810  -3.066  1.00  0.00     0.026 C 
BRANCH   9  11
ATOM     11  C   UNL     1       3.563   0.819  -1.986  1.00  0.00     0.193 C 
ATOM     12  C   UNL     1       4.095  -0.567  -2.405  1.00  0.00     0.076 C 
BRANCH  11  13
ATOM     13  N   UNL     1       2.273   0.641  -1.294  1.00  0.00    -0.336 N 
ATOM     14  H   UNL     1       1.635   0.202  -1.958  1.00  0.00     0.347 HD
ATOM     15  H   UNL     1       2.031   1.582  -0.983  1.00  0.00     0.347 HD
BRANCH  13  16
ATOM     16  C   UNL     1       2.229  -0.169  -0.046  1.00  0.00     0.229 C 
ATOM     17  C   UNL     1       0.739  -0.091   0.351  1.00  0.00     0.082 C 
BRANCH  16  18
ATOM     18  C   UNL     1       3.154   0.209   1.128  1.00  0.00     0.097 A 
ATOM     19  C   UNL     1       2.909  -0.258   2.424  1.00  0.00     0.030 A 
ATOM     20  N   UNL     1       4.292   0.891   0.865  1.00  0.00    -0.255 NA
ATOM     21  C   UNL     1       3.808   0.031   3.453  1.00  0.00     0.004 A 
ATOM     22  C   UNL     1       5.160   1.151   1.868  1.00  0.00     0.111 A 
ATOM     23  C   UNL     1       4.958   0.753   3.172  1.00  0.00     0.020 A 
ENDBRANCH  16  18
ENDBRANCH  13  16
ENDBRANCH  11  13
ENDBRANCH   9  11
ENDBRANCH   7   9
ENDBRANCH   6   7
ENDBRANCH   5   6
ENDBRANCH   4   5
ENDBRANCH   3   4
ENDBRANCH   2   3
ENDBRANCH   1   2
BRANCH   1  24
ATOM     24  O   UNL     1       7.484   0.978  -0.981  1.00  0.00    -0.377 OA
BRANCH  24  25
ATOM     25  C   UNL     1       8.761   1.502  -0.670  1.00  0.00     0.188 C 
BRANCH  25  26
ATOM     26  C   UNL     1       9.979   0.773  -1.257  1.00  0.00     0.188 C 
BRANCH  26  27
ATOM     27  O   UNL     1       9.652  -0.372  -2.038  1.00  0.00    -0.376 OA
BRANCH  27  28
ATOM     28  C   UNL     1       9.707  -1.633  -1.382  1.00  0.00     0.202 C 
BRANCH  28  29
ATOM     29  C   UNL     1       8.735  -1.881  -0.216  1.00  0.00     0.261 C 
BRANCH  29  30
ATOM     30  O   UNL     1       8.858  -1.011   0.919  1.00  0.00    -0.460 OA
BRANCH  30  31
ATOM     31  C   UNL     1      10.039  -0.979   1.566  1.00  0.00     0.338 C 
ATOM     32  O   UNL     1      11.041  -1.632   1.309  1.00  0.00    -0.246 OA
BRANCH  31  33
ATOM     33  C   UNL     1       9.971   0.119   2.545  1.00  0.00     0.060 A 
ATOM     34  C   UNL     1      10.810   1.228   2.382  1.00  0.00     0.016 A 
ATOM     35  C   UNL     1       9.060   0.065   3.604  1.00  0.00     0.016 A 
ATOM     36  C   UNL     1      10.748   2.284   3.289  1.00  0.00     0.010 A 
ATOM     37  C   UNL     1       9.020   1.112   4.528  1.00  0.00     0.010 A 
ATOM     38  C   UNL     1       9.881   2.215   4.387  1.00  0.00    -0.014 A 
BRANCH  38  39
ATOM     39  C   UNL     1      10.022   3.206   5.481  1.00  0.00     0.031 A 
ATOM     40  C   UNL     1      10.876   2.842   6.664  1.00  0.00     0.074 A 
ATOM     41  C   UNL     1       9.446   4.418   5.402  1.00  0.00     0.049 A 
ATOM     42  N   UNL     1      11.159   3.538   7.733  1.00  0.00    -0.248 NA
ATOM     43  C   UNL     1      11.491   1.506   6.631  1.00  0.00     0.031 C 
ATOM     44  C   UNL     1       8.634   4.895   4.283  1.00  0.00     0.029 A 
ATOM     45  N   UNL     1       9.459   5.472   6.281  1.00  0.00    -0.354 N 
ATOM     46  C   UNL     1      11.989   2.728   8.501  1.00  0.00     0.074 A 
ATOM     47  C   UNL     1      12.125   1.473   7.792  1.00  0.00     0.031 C 
ATOM     48  C   UNL     1       8.222   6.147   4.548  1.00  0.00     0.029 A 
ATOM     49  C   UNL     1       8.712   6.549   5.866  1.00  0.00     0.049 A 
ATOM     50  H   UNL     1       9.957   5.457   7.130  1.00  0.00     0.167 HD
ATOM     51  C   UNL     1      12.591   3.010   9.683  1.00  0.00     0.034 A 
ATOM     52  C   UNL     1       8.440   7.714   6.489  1.00  0.00     0.034 A 
ATOM     53  C   UNL     1      12.422   4.259  10.385  1.00  0.00     0.049 A 
ATOM     54  C   UNL     1       9.047   7.972   7.848  1.00  0.00     0.074 A 
ATOM     55  C   UNL     1      12.989   4.658  11.583  1.00  0.00     0.029 A 
ATOM     56  N   UNL     1      11.611   5.306   9.963  1.00  0.00    -0.354 N 
ATOM     57  N   UNL     1       9.846   7.207   8.558  1.00  0.00    -0.248 NA
ATOM     58  C   UNL     1       8.724   9.255   8.484  1.00  0.00     0.031 C 
ATOM     59  C   UNL     1      12.457   5.906  11.925  1.00  0.00     0.029 A 
ATOM     60  C   UNL     1      11.629   6.331  10.897  1.00  0.00     0.049 A 
ATOM     61  H   UNL     1      11.098   5.319   9.123  1.00  0.00     0.167 HD
ATOM     62  C   UNL     1      10.142   7.931   9.712  1.00  0.00     0.074 A 
ATOM     63  C   UNL     1       9.451   9.199   9.590  1.00  0.00     0.031 C 
ATOM     64  C   UNL     1      10.916   7.583  10.773  1.00  0.00     0.034 A 
BRANCH  51  65
ATOM     65  C   UNL     1      13.426   1.918  10.309  1.00  0.00     0.023 A 
ATOM     66  C   UNL     1      14.580   1.412   9.683  1.00  0.00     0.031 A 
ATOM     67  C   UNL     1      13.035   1.340  11.529  1.00  0.00     0.131 A 
ATOM     68  C   UNL     1      15.252   0.311  10.236  1.00  0.00     0.055 A 
ATOM     69  C   UNL     1      13.758   0.301  12.119  1.00  0.00     0.041 A 
ATOM     70  F   UNL     1      11.928   1.761  12.161  1.00  0.00    -0.206 F 
ATOM     71  C   UNL     1      14.864  -0.231  11.464  1.00  0.00     0.022 A 
BRANCH  68  72
ATOM     72  S   UNL     1      16.539  -0.505   9.252  1.00  0.00     0.124 S 
ATOM     73  O   UNL     1      15.803  -0.859   8.040  1.00  0.00    -0.237 OA
ATOM     74  O   UNL     1      17.540   0.545   9.109  1.00  0.00    -0.237 OA
ATOM     75  O   UNL     1      16.937  -1.640  10.082  1.00  0.00    -0.744 OA
ENDBRANCH  68  72
ENDBRANCH  51  65
BRANCH  52  76
ATOM     76  C   UNL     1       7.520   8.709   5.864  1.00  0.00     0.023 A 
ATOM     77  C   UNL     1       7.962   9.993   5.505  1.00  0.00     0.031 A 
ATOM     78  C   UNL     1       6.162   8.401   5.662  1.00  0.00     0.131 A 
ATOM     79  C   UNL     1       7.047  10.933   5.003  1.00  0.00     0.055 A 
ATOM     80  C   UNL     1       5.269   9.321   5.112  1.00  0.00     0.041 A 
ATOM     81  F   UNL     1       5.684   7.191   5.993  1.00  0.00    -0.206 F 
ATOM     82  C   UNL     1       5.707  10.601   4.790  1.00  0.00     0.022 A 
BRANCH  79  83
ATOM     83  S   UNL     1       7.617  12.630   4.703  1.00  0.00     0.124 S 
ATOM     84  O   UNL     1       8.080  13.026   6.028  1.00  0.00    -0.237 OA
ATOM     85  O   UNL     1       8.652  12.428   3.695  1.00  0.00    -0.237 OA
ATOM     86  O   UNL     1       6.415  13.314   4.230  1.00  0.00    -0.744 OA
ENDBRANCH  79  83
ENDBRANCH  52  76
BRANCH  64  87
ATOM     87  C   UNL     1      11.081   8.611  11.869  1.00  0.00     0.023 A 
ATOM     88  C   UNL     1       9.995   9.038  12.655  1.00  0.00     0.031 A 
ATOM     89  C   UNL     1      12.339   9.189  12.117  1.00  0.00     0.131 A 
ATOM     90  C   UNL     1      10.174  10.060  13.600  1.00  0.00     0.055 A 
ATOM     91  C   UNL     1      12.526  10.154  13.108  1.00  0.00     0.041 A 
ATOM     92  F   UNL     1      13.413   8.824  11.397  1.00  0.00    -0.206 F 
ATOM     93  C   UNL     1      11.436  10.607  13.845  1.00  0.00     0.022 A 
BRANCH  90  94
ATOM     94  S   UNL     1       8.712  10.750  14.423  1.00  0.00     0.124 S 
ATOM     95  O   UNL     1       7.901  11.181  13.289  1.00  0.00    -0.237 OA
ATOM     96  O   UNL     1       8.204   9.604  15.170  1.00  0.00    -0.237 OA
ATOM     97  O   UNL     1       9.257  11.831  15.242  1.00  0.00    -0.744 OA
ENDBRANCH  90  94
ENDBRANCH  64  87
ENDBRANCH  38  39
ENDBRANCH  31  33
ENDBRANCH  30  31
ENDBRANCH  29  30
ENDBRANCH  28  29
ENDBRANCH  27  28
ENDBRANCH  26  27
ENDBRANCH  25  26
ENDBRANCH  24  25
ENDBRANCH   1  24
TORSDOF 27
