REMARK SMILES C[C@@H](C(=O)OCCOCCOCCOCCOC(=O)c1ccc(-c2c3nc(c(-c4cc(S(=O)(=O)[O-])ccc4F)c4ccc([nH]4)c(-c4cc(S(=O)(=O)[O-])ccc4F)c4nc(c(-c5cc(S(=O)(=O)[O-])ccc5F)c5ccc2[nH]5)C=C4)C=C3)cc1)c1ccc(-c2cccc(OC(=O)NC3CC3)c2)c(F)c1
REMARK SMILES IDX 10 1 9 2 8 3 7 4 6 5 5 6 3 7 4 8 2 9 1 10 83 11 84 12 102 13
REMARK SMILES IDX 85 14 100 15 86 16 101 17 87 18 88 19 99 20 89 21 91 22
REMARK SMILES IDX 90 23 92 24 93 25 94 26 95 27 96 29 97 30 98 31 11 32 12 33
REMARK SMILES IDX 13 34 14 35 15 36 16 37 17 38 18 39 19 40 20 41 21 42 82 43
REMARK SMILES IDX 22 44 81 45 23 46 24 47 25 48 75 49 26 50 80 51 74 52 76 53
REMARK SMILES IDX 27 54 79 55 73 56 72 57 28 59 60 60 40 61 59 62 41 63 44 64
REMARK SMILES IDX 58 65 77 66 42 67 43 68 57 70 78 71 45 72 29 73 30 74 38 75
REMARK SMILES IDX 31 76 37 77 39 78 36 79 32 80 33 81 34 82 35 83 61 84 62 85
REMARK SMILES IDX 70 86 63 87 69 88 71 89 68 90 64 91 65 92 66 93 67 94 46 95
REMARK SMILES IDX 47 96 55 97 48 98 54 99 56 100 53 101 49 102 50 103 51 104
REMARK SMILES IDX 52 105
REMARK H PARENT 95 28 76 58 44 69
REMARK Flexibility Score: inf
ROOT
ATOM      1  C   UNL     1       1.108   2.501   1.501  1.00  0.00     0.188 C 
ENDROOT
BRANCH   1   2
ATOM      2  C   UNL     1       0.245   2.552   2.778  1.00  0.00     0.188 C 
BRANCH   2   3
ATOM      3  O   UNL     1       0.845   2.829   4.033  1.00  0.00    -0.376 OA
BRANCH   3   4
ATOM      4  C   UNL     1       2.085   2.221   4.369  1.00  0.00     0.202 C 
BRANCH   4   5
ATOM      5  C   UNL     1       2.354   0.723   4.106  1.00  0.00     0.261 C 
BRANCH   5   6
ATOM      6  O   UNL     1       1.932   0.180   2.836  1.00  0.00    -0.463 OA
BRANCH   6   7
ATOM      7  C   UNL     1       0.868  -0.664   2.849  1.00  0.00     0.313 C 
ATOM      8  O   UNL     1       0.273  -0.989   3.873  1.00  0.00    -0.252 OA
BRANCH   7   9
ATOM      9  C   UNL     1       0.453  -1.191   1.456  1.00  0.00     0.126 C 
ATOM     10  C   UNL     1       1.270  -0.789   0.223  1.00  0.00     0.025 C 
BRANCH   9  11
ATOM     11  C   UNL     1      -1.052  -1.018   1.234  1.00  0.00    -0.031 A 
ATOM     12  C   UNL     1      -1.655   0.223   0.965  1.00  0.00     0.005 A 
ATOM     13  C   UNL     1      -1.891  -2.120   1.407  1.00  0.00     0.044 A 
ATOM     14  C   UNL     1      -3.046   0.386   0.996  1.00  0.00     0.012 A 
ATOM     15  C   UNL     1      -3.274  -1.962   1.395  1.00  0.00     0.131 A 
ATOM     16  C   UNL     1      -3.882  -0.705   1.244  1.00  0.00     0.018 A 
ATOM     17  F   UNL     1      -4.027  -3.058   1.577  1.00  0.00    -0.206 F 
BRANCH  16  18
ATOM     18  C   UNL     1      -5.327  -0.526   1.454  1.00  0.00    -0.012 A 
ATOM     19  C   UNL     1      -6.144   0.184   0.562  1.00  0.00     0.009 A 
ATOM     20  C   UNL     1      -5.915  -1.062   2.613  1.00  0.00     0.056 A 
ATOM     21  C   UNL     1      -7.514   0.325   0.809  1.00  0.00     0.004 A 
ATOM     22  C   UNL     1      -7.275  -0.927   2.858  1.00  0.00     0.133 A 
ATOM     23  C   UNL     1      -8.081  -0.236   1.955  1.00  0.00     0.047 A 
BRANCH  22  24
ATOM     24  O   UNL     1      -7.933  -1.470   3.988  1.00  0.00    -0.410 OA
BRANCH  24  25
ATOM     25  C   UNL     1      -7.354  -2.287   4.957  1.00  0.00     0.412 C 
ATOM     26  O   UNL     1      -6.167  -2.576   5.058  1.00  0.00    -0.224 OA
ATOM     27  N   UNL     1      -8.247  -2.809   5.855  1.00  0.00    -0.318 N 
ATOM     28  H   UNL     1      -7.857  -3.418   6.524  1.00  0.00     0.167 HD
BRANCH  27  29
ATOM     29  C   UNL     1      -9.649  -2.607   5.972  1.00  0.00     0.085 C 
ATOM     30  C   UNL     1     -10.603  -2.233   4.875  1.00  0.00     0.027 C 
ATOM     31  C   UNL     1     -10.571  -3.643   5.378  1.00  0.00     0.027 C 
ENDBRANCH  27  29
ENDBRANCH  24  25
ENDBRANCH  22  24
ENDBRANCH  16  18
ENDBRANCH   9  11
ENDBRANCH   7   9
ENDBRANCH   6   7
ENDBRANCH   5   6
ENDBRANCH   4   5
ENDBRANCH   3   4
ENDBRANCH   2   3
ENDBRANCH   1   2
BRANCH   1  32
ATOM     32  O   UNL     1       2.493   2.659   1.709  1.00  0.00    -0.377 OA
BRANCH  32  33
ATOM     33  C   UNL     1       3.004   3.973   1.555  1.00  0.00     0.188 C 
BRANCH  33  34
ATOM     34  C   UNL     1       2.112   5.148   2.000  1.00  0.00     0.188 C 
BRANCH  34  35
ATOM     35  O   UNL     1       0.799   5.123   1.446  1.00  0.00    -0.376 OA
BRANCH  35  36
ATOM     36  C   UNL     1       0.525   5.917   0.301  1.00  0.00     0.202 C 
BRANCH  36  37
ATOM     37  C   UNL     1       1.171   5.494  -1.030  1.00  0.00     0.261 C 
BRANCH  37  38
ATOM     38  O   UNL     1       2.604   5.434  -1.062  1.00  0.00    -0.460 OA
BRANCH  38  39
ATOM     39  C   UNL     1       3.287   6.556  -0.732  1.00  0.00     0.338 C 
ATOM     40  O   UNL     1       2.817   7.642  -0.477  1.00  0.00    -0.246 OA
BRANCH  39  41
ATOM     41  C   UNL     1       4.702   6.166  -0.519  1.00  0.00     0.060 A 
ATOM     42  C   UNL     1       5.285   6.404   0.733  1.00  0.00     0.016 A 
ATOM     43  C   UNL     1       5.435   5.545  -1.532  1.00  0.00     0.016 A 
ATOM     44  C   UNL     1       6.614   6.051   0.965  1.00  0.00     0.010 A 
ATOM     45  C   UNL     1       6.776   5.219  -1.309  1.00  0.00     0.010 A 
ATOM     46  C   UNL     1       7.381   5.502  -0.070  1.00  0.00    -0.014 A 
BRANCH  46  47
ATOM     47  C   UNL     1       8.857   5.440   0.067  1.00  0.00     0.031 A 
ATOM     48  C   UNL     1       9.666   6.558  -0.535  1.00  0.00     0.074 A 
ATOM     49  C   UNL     1       9.466   4.442   0.732  1.00  0.00     0.049 A 
ATOM     50  N   UNL     1      10.963   6.707  -0.601  1.00  0.00    -0.248 NA
ATOM     51  C   UNL     1       8.901   7.654  -1.149  1.00  0.00     0.031 C 
ATOM     52  C   UNL     1       8.786   3.341   1.412  1.00  0.00     0.029 A 
ATOM     53  N   UNL     1      10.800   4.194   0.941  1.00  0.00    -0.354 N 
ATOM     54  C   UNL     1      11.170   7.907  -1.273  1.00  0.00     0.074 A 
ATOM     55  C   UNL     1       9.866   8.426  -1.624  1.00  0.00     0.031 C 
ATOM     56  C   UNL     1       9.710   2.530   1.957  1.00  0.00     0.029 A 
ATOM     57  C   UNL     1      11.046   3.027   1.627  1.00  0.00     0.049 A 
ATOM     58  H   UNL     1      11.515   4.795   0.629  1.00  0.00     0.167 HD
ATOM     59  C   UNL     1      12.341   8.523  -1.566  1.00  0.00     0.034 A 
ATOM     60  C   UNL     1      12.213   2.419   1.926  1.00  0.00     0.034 A 
ATOM     61  C   UNL     1      13.633   7.985  -1.219  1.00  0.00     0.049 A 
ATOM     62  C   UNL     1      13.509   3.071   1.494  1.00  0.00     0.074 A 
ATOM     63  C   UNL     1      14.883   8.530  -1.454  1.00  0.00     0.029 A 
ATOM     64  N   UNL     1      13.844   6.770  -0.579  1.00  0.00    -0.354 N 
ATOM     65  N   UNL     1      13.694   4.209   0.863  1.00  0.00    -0.248 NA
ATOM     66  C   UNL     1      14.752   2.359   1.821  1.00  0.00     0.031 C 
ATOM     67  C   UNL     1      15.848   7.607  -1.039  1.00  0.00     0.029 A 
ATOM     68  C   UNL     1      15.204   6.529  -0.451  1.00  0.00     0.049 A 
ATOM     69  H   UNL     1      13.133   6.168  -0.262  1.00  0.00     0.167 HD
ATOM     70  C   UNL     1      15.076   4.364   0.755  1.00  0.00     0.074 A 
ATOM     71  C   UNL     1      15.672   3.211   1.396  1.00  0.00     0.031 C 
ATOM     72  C   UNL     1      15.787   5.371   0.185  1.00  0.00     0.034 A 
BRANCH  59  73
ATOM     73  C   UNL     1      12.274   9.809  -2.354  1.00  0.00     0.023 A 
ATOM     74  C   UNL     1      11.651  10.963  -1.847  1.00  0.00     0.031 A 
ATOM     75  C   UNL     1      12.820   9.871  -3.649  1.00  0.00     0.131 A 
ATOM     76  C   UNL     1      11.527  12.103  -2.655  1.00  0.00     0.055 A 
ATOM     77  C   UNL     1      12.770  11.037  -4.414  1.00  0.00     0.041 A 
ATOM     78  F   UNL     1      13.401   8.793  -4.198  1.00  0.00    -0.206 F 
ATOM     79  C   UNL     1      12.108  12.158  -3.924  1.00  0.00     0.022 A 
BRANCH  76  80
ATOM     80  S   UNL     1      10.467  13.460  -2.084  1.00  0.00     0.124 S 
ATOM     81  O   UNL     1       9.186  12.778  -1.908  1.00  0.00    -0.237 OA
ATOM     82  O   UNL     1      11.135  13.890  -0.862  1.00  0.00    -0.237 OA
ATOM     83  O   UNL     1      10.508  14.415  -3.189  1.00  0.00    -0.744 OA
ENDBRANCH  76  80
ENDBRANCH  59  73
BRANCH  60  84
ATOM     84  C   UNL     1      12.230   1.103   2.630  1.00  0.00     0.023 A 
ATOM     85  C   UNL     1      12.858   0.953   3.877  1.00  0.00     0.031 A 
ATOM     86  C   UNL     1      11.683  -0.046   2.030  1.00  0.00     0.131 A 
ATOM     87  C   UNL     1      12.972  -0.320   4.458  1.00  0.00     0.055 A 
ATOM     88  C   UNL     1      11.742  -1.300   2.642  1.00  0.00     0.041 A 
ATOM     89  F   UNL     1      11.079   0.034   0.834  1.00  0.00    -0.206 F 
ATOM     90  C   UNL     1      12.403  -1.445   3.857  1.00  0.00     0.022 A 
BRANCH  87  91
ATOM     91  S   UNL     1      13.970  -0.504   5.961  1.00  0.00     0.124 S 
ATOM     92  O   UNL     1      15.267  -0.004   5.518  1.00  0.00    -0.237 OA
ATOM     93  O   UNL     1      13.248   0.338   6.909  1.00  0.00    -0.237 OA
ATOM     94  O   UNL     1      13.914  -1.938   6.234  1.00  0.00    -0.744 OA
ENDBRANCH  87  91
ENDBRANCH  60  84
BRANCH  72  95
ATOM     95  C   UNL     1      17.294   5.300   0.284  1.00  0.00     0.023 A 
ATOM     96  C   UNL     1      18.037   4.289  -0.351  1.00  0.00     0.031 A 
ATOM     97  C   UNL     1      17.998   6.265   1.029  1.00  0.00     0.131 A 
ATOM     98  C   UNL     1      19.429   4.231  -0.180  1.00  0.00     0.055 A 
ATOM     99  C   UNL     1      19.389   6.244   1.135  1.00  0.00     0.041 A 
ATOM    100  F   UNL     1      17.343   7.252   1.661  1.00  0.00    -0.206 F 
ATOM    101  C   UNL     1      20.112   5.215   0.541  1.00  0.00     0.022 A 
BRANCH  98 102
ATOM    102  S   UNL     1      20.328   2.794  -0.825  1.00  0.00     0.124 S 
ATOM    103  O   UNL     1      19.658   1.689  -0.146  1.00  0.00    -0.237 OA
ATOM    104  O   UNL     1      20.092   2.896  -2.261  1.00  0.00    -0.237 OA
ATOM    105  O   UNL     1      21.707   3.035  -0.405  1.00  0.00    -0.744 OA
ENDBRANCH  98 102
ENDBRANCH  72  95
ENDBRANCH  46  47
ENDBRANCH  39  41
ENDBRANCH  38  39
ENDBRANCH  37  38
ENDBRANCH  36  37
ENDBRANCH  35  36
ENDBRANCH  34  35
ENDBRANCH  33  34
ENDBRANCH  32  33
ENDBRANCH   1  32
TORSDOF 28
