REMARK SMILES COc1cccc(C(=O)/C=C(/Nc2cc(C)c(C)cc2[N+](=O)[O-])C(=O)OCCOCCOCCOCCOC(=O)c2ccc(-c3c4nc(c(-c5cc(S(=O)(=O)[O-])ccc5F)c5ccc([nH]5)c(-c5cc(S(=O)(=O)[O-])ccc5F)c5nc(c(-c6cc(S(=O)(=O)[O-])ccc6F)c6ccc3[nH]6)C=C5)C=C4)cc2)c1
REMARK SMILES IDX 32 1 31 2 30 3 29 4 28 5 27 6 26 7 24 8 25 9 11 10 10 11
REMARK SMILES IDX 8 12 9 13 7 14 3 15 4 16 104 17 5 18 6 19 2 20 1 21 12 22
REMARK SMILES IDX 13 24 14 25 20 26 15 27 19 28 16 29 17 30 18 31 21 32 22 33
REMARK SMILES IDX 23 34 33 35 34 36 35 37 36 38 37 39 38 40 39 41 40 42 41 43
REMARK SMILES IDX 42 44 103 45 43 46 102 47 44 48 45 49 46 50 96 51 47 52
REMARK SMILES IDX 101 53 95 54 97 55 48 56 100 57 94 58 93 59 49 61 81 62
REMARK SMILES IDX 61 63 80 64 62 65 65 66 79 67 98 68 63 69 64 70 78 72 99 73
REMARK SMILES IDX 66 74 50 75 51 76 59 77 52 78 58 79 60 80 57 81 53 82 54 83
REMARK SMILES IDX 55 84 56 85 82 86 83 87 91 88 84 89 90 90 92 91 89 92 85 93
REMARK SMILES IDX 86 94 87 95 88 96 67 97 68 98 76 99 69 100 75 101 77 102
REMARK SMILES IDX 74 103 70 104 71 105 72 106 73 107
REMARK H PARENT 12 23 97 60 65 71
REMARK Flexibility Score: inf
ROOT
ATOM      1  O   UNL     1       2.941   1.091  -3.240  1.00  0.00    -0.377 OA
ENDROOT
BRANCH   1   2
ATOM      2  C   UNL     1       3.520  -0.060  -2.643  1.00  0.00     0.188 C 
BRANCH   2   3
ATOM      3  C   UNL     1       2.572  -1.252  -2.467  1.00  0.00     0.188 C 
BRANCH   3   4
ATOM      4  O   UNL     1       1.299  -1.009  -1.907  1.00  0.00    -0.376 OA
BRANCH   4   5
ATOM      5  C   UNL     1       0.991  -0.696  -0.562  1.00  0.00     0.202 C 
BRANCH   5   6
ATOM      6  C   UNL     1       1.998  -0.437   0.544  1.00  0.00     0.261 C 
BRANCH   6   7
ATOM      7  O   UNL     1       3.244  -0.944   0.163  1.00  0.00    -0.459 OA
BRANCH   7   8
ATOM      8  C   UNL     1       3.724  -1.946   0.911  1.00  0.00     0.354 C 
ATOM      9  O   UNL     1       3.363  -2.339   1.992  1.00  0.00    -0.244 OA
BRANCH   8  10
ATOM     10  C   UNL     1       4.913  -2.399   0.185  1.00  0.00     0.129 C 
ATOM     11  C   UNL     1       4.682  -3.511  -0.546  1.00  0.00     0.086 C 
BRANCH  11  12
ATOM     12  C   UNL     1       3.502  -4.462  -0.837  1.00  0.00     0.188 C 
ATOM     13  O   UNL     1       3.801  -5.446  -1.528  1.00  0.00    -0.289 OA
BRANCH  12  14
ATOM     14  C   UNL     1       2.014  -4.280  -0.579  1.00  0.00     0.026 A 
ATOM     15  C   UNL     1       0.007  -3.642   0.702  1.00  0.00     0.119 A 
ATOM     16  C   UNL     1      -0.825  -3.984  -0.357  1.00  0.00     0.046 A 
ATOM     17  C   UNL     1       1.397  -3.891   0.617  1.00  0.00     0.058 A 
ATOM     18  C   UNL     1      -0.259  -4.525  -1.508  1.00  0.00     0.005 A 
ATOM     19  C   UNL     1       1.139  -4.650  -1.624  1.00  0.00     0.012 A 
BRANCH  15  20
ATOM     20  O   UNL     1      -0.481  -3.087   1.860  1.00  0.00    -0.497 OA
ATOM     21  C   UNL     1      -1.227  -1.867   1.697  1.00  0.00     0.278 C 
ENDBRANCH  15  20
ENDBRANCH  12  14
ENDBRANCH  11  12
BRANCH  10  22
ATOM     22  N   UNL     1       6.028  -1.528   0.233  1.00  0.00    -0.344 N 
ATOM     23  H   UNL     1       6.804  -1.759  -0.327  1.00  0.00     0.167 HD
BRANCH  22  24
ATOM     24  C   UNL     1       6.124  -0.334   1.031  1.00  0.00     0.118 A 
ATOM     25  C   UNL     1       6.564   0.870   0.437  1.00  0.00     0.037 A 
ATOM     26  C   UNL     1       5.607  -0.200   2.340  1.00  0.00     0.292 A 
ATOM     27  C   UNL     1       6.393   2.138   1.071  1.00  0.00    -0.046 A 
ATOM     28  C   UNL     1       5.267   1.050   2.889  1.00  0.00     0.091 A 
ATOM     29  C   UNL     1       7.066   3.358   0.490  1.00  0.00     0.045 C 
ATOM     30  C   UNL     1       5.613   2.233   2.237  1.00  0.00    -0.041 A 
ATOM     31  C   UNL     1       5.227   3.543   2.879  1.00  0.00     0.045 C 
BRANCH  26  32
ATOM     32  N   UNL     1       5.576  -1.343   3.262  1.00  0.00     0.064 N 
ATOM     33  O   UNL     1       4.794  -1.286   4.223  1.00  0.00    -0.258 OA
ATOM     34  O   UNL     1       6.387  -2.261   3.067  1.00  0.00    -0.258 OA
ENDBRANCH  26  32
ENDBRANCH  22  24
ENDBRANCH  10  22
ENDBRANCH   8  10
ENDBRANCH   7   8
ENDBRANCH   6   7
ENDBRANCH   5   6
ENDBRANCH   4   5
ENDBRANCH   3   4
ENDBRANCH   2   3
ENDBRANCH   1   2
BRANCH   1  35
ATOM     35  C   UNL     1       1.864   1.645  -2.497  1.00  0.00     0.188 C 
BRANCH  35  36
ATOM     36  C   UNL     1       0.444   1.335  -3.043  1.00  0.00     0.188 C 
BRANCH  36  37
ATOM     37  O   UNL     1       0.233   0.473  -4.148  1.00  0.00    -0.376 OA
BRANCH  37  38
ATOM     38  C   UNL     1       1.132   0.510  -5.239  1.00  0.00     0.202 C 
BRANCH  38  39
ATOM     39  C   UNL     1       1.535   1.847  -5.891  1.00  0.00     0.261 C 
BRANCH  39  40
ATOM     40  O   UNL     1       1.691   2.984  -5.026  1.00  0.00    -0.460 OA
BRANCH  40  41
ATOM     41  C   UNL     1       0.606   3.792  -4.904  1.00  0.00     0.338 C 
ATOM     42  O   UNL     1      -0.452   3.677  -5.498  1.00  0.00    -0.246 OA
BRANCH  41  43
ATOM     43  C   UNL     1       0.800   4.700  -3.740  1.00  0.00     0.060 A 
ATOM     44  C   UNL     1      -0.185   4.728  -2.736  1.00  0.00     0.016 A 
ATOM     45  C   UNL     1       1.944   5.489  -3.615  1.00  0.00     0.016 A 
ATOM     46  C   UNL     1      -0.052   5.569  -1.631  1.00  0.00     0.010 A 
ATOM     47  C   UNL     1       2.053   6.371  -2.532  1.00  0.00     0.010 A 
ATOM     48  C   UNL     1       1.035   6.446  -1.562  1.00  0.00    -0.014 A 
BRANCH  48  49
ATOM     49  C   UNL     1       0.946   7.634  -0.675  1.00  0.00     0.031 A 
ATOM     50  C   UNL     1       0.438   8.913  -1.292  1.00  0.00     0.074 A 
ATOM     51  C   UNL     1       1.255   7.587   0.633  1.00  0.00     0.049 A 
ATOM     52  N   UNL     1       0.365  10.114  -0.783  1.00  0.00    -0.248 NA
ATOM     53  C   UNL     1      -0.051   8.817  -2.679  1.00  0.00     0.031 C 
ATOM     54  C   UNL     1       1.667   6.391   1.366  1.00  0.00     0.029 A 
ATOM     55  N   UNL     1       1.275   8.583   1.579  1.00  0.00    -0.354 N 
ATOM     56  C   UNL     1      -0.171  10.915  -1.786  1.00  0.00     0.074 A 
ATOM     57  C   UNL     1      -0.367  10.073  -2.945  1.00  0.00     0.031 C 
ATOM     58  C   UNL     1       1.918   6.730   2.644  1.00  0.00     0.029 A 
ATOM     59  C   UNL     1       1.734   8.172   2.809  1.00  0.00     0.049 A 
ATOM     60  H   UNL     1       0.987   9.506   1.393  1.00  0.00     0.167 HD
ATOM     61  C   UNL     1      -0.483  12.232  -1.743  1.00  0.00     0.034 A 
ATOM     62  C   UNL     1       2.006   8.888   3.921  1.00  0.00     0.034 A 
ATOM     63  C   UNL     1      -0.274  13.063  -0.586  1.00  0.00     0.049 A 
ATOM     64  C   UNL     1       1.770  10.387   3.904  1.00  0.00     0.074 A 
ATOM     65  C   UNL     1      -0.530  14.415  -0.440  1.00  0.00     0.029 A 
ATOM     66  N   UNL     1       0.243  12.622   0.624  1.00  0.00    -0.354 N 
ATOM     67  N   UNL     1       1.288  11.139   2.939  1.00  0.00    -0.248 NA
ATOM     68  C   UNL     1       2.106  11.130   5.126  1.00  0.00     0.031 C 
ATOM     69  C   UNL     1      -0.100  14.806   0.830  1.00  0.00     0.029 A 
ATOM     70  C   UNL     1       0.337  13.681   1.511  1.00  0.00     0.049 A 
ATOM     71  H   UNL     1       0.505  11.694   0.822  1.00  0.00     0.167 HD
ATOM     72  C   UNL     1       1.219  12.431   3.463  1.00  0.00     0.074 A 
ATOM     73  C   UNL     1       1.694  12.352   4.827  1.00  0.00     0.031 C 
ATOM     74  C   UNL     1       0.798  13.580   2.874  1.00  0.00     0.034 A 
BRANCH  61  75
ATOM     75  C   UNL     1      -1.040  12.860  -2.995  1.00  0.00     0.023 A 
ATOM     76  C   UNL     1      -2.292  12.488  -3.514  1.00  0.00     0.031 A 
ATOM     77  C   UNL     1      -0.309  13.848  -3.679  1.00  0.00     0.131 A 
ATOM     78  C   UNL     1      -2.753  13.064  -4.706  1.00  0.00     0.055 A 
ATOM     79  C   UNL     1      -0.808  14.473  -4.822  1.00  0.00     0.041 A 
ATOM     80  F   UNL     1       0.906  14.220  -3.246  1.00  0.00    -0.206 F 
ATOM     81  C   UNL     1      -2.034  14.076  -5.347  1.00  0.00     0.022 A 
BRANCH  78  82
ATOM     82  S   UNL     1      -4.253  12.391  -5.471  1.00  0.00     0.124 S 
ATOM     83  O   UNL     1      -3.862  11.004  -5.713  1.00  0.00    -0.237 OA
ATOM     84  O   UNL     1      -5.257  12.600  -4.435  1.00  0.00    -0.237 OA
ATOM     85  O   UNL     1      -4.418  13.204  -6.674  1.00  0.00    -0.744 OA
ENDBRANCH  78  82
ENDBRANCH  61  75
BRANCH  62  86
ATOM     86  C   UNL     1       2.587   8.239   5.137  1.00  0.00     0.023 A 
ATOM     87  C   UNL     1       1.945   8.332   6.383  1.00  0.00     0.031 A 
ATOM     88  C   UNL     1       3.850   7.620   5.099  1.00  0.00     0.131 A 
ATOM     89  C   UNL     1       2.602   7.900   7.546  1.00  0.00     0.055 A 
ATOM     90  C   UNL     1       4.466   7.121   6.249  1.00  0.00     0.041 A 
ATOM     91  F   UNL     1       4.518   7.502   3.939  1.00  0.00    -0.206 F 
ATOM     92  C   UNL     1       3.851   7.280   7.486  1.00  0.00     0.022 A 
BRANCH  89  93
ATOM     93  S   UNL     1       1.867   8.306   9.155  1.00  0.00     0.124 S 
ATOM     94  O   UNL     1       1.733   9.755   9.057  1.00  0.00    -0.237 OA
ATOM     95  O   UNL     1       0.625   7.542   9.118  1.00  0.00    -0.237 OA
ATOM     96  O   UNL     1       2.864   7.832  10.112  1.00  0.00    -0.744 OA
ENDBRANCH  89  93
ENDBRANCH  62  86
BRANCH  74  97
ATOM     97  C   UNL     1       0.757  14.827   3.727  1.00  0.00     0.023 A 
ATOM     98  C   UNL     1       1.922  15.416   4.246  1.00  0.00     0.031 A 
ATOM     99  C   UNL     1      -0.477  15.437   4.020  1.00  0.00     0.131 A 
ATOM    100  C   UNL     1       1.825  16.541   5.081  1.00  0.00     0.055 A 
ATOM    101  C   UNL     1      -0.562  16.596   4.791  1.00  0.00     0.041 A 
ATOM    102  F   UNL     1      -1.624  14.918   3.552  1.00  0.00    -0.206 F 
ATOM    103  C   UNL     1       0.592  17.146   5.339  1.00  0.00     0.022 A 
BRANCH 100 104
ATOM    104  S   UNL     1       3.322  17.141   5.910  1.00  0.00     0.124 S 
ATOM    105  O   UNL     1       3.754  15.959   6.648  1.00  0.00    -0.237 OA
ATOM    106  O   UNL     1       4.165  17.532   4.785  1.00  0.00    -0.237 OA
ATOM    107  O   UNL     1       2.837  18.246   6.735  1.00  0.00    -0.744 OA
ENDBRANCH 100 104
ENDBRANCH  74  97
ENDBRANCH  48  49
ENDBRANCH  41  43
ENDBRANCH  40  41
ENDBRANCH  39  40
ENDBRANCH  38  39
ENDBRANCH  37  38
ENDBRANCH  36  37
ENDBRANCH  35  36
ENDBRANCH   1  35
TORSDOF 29
