REMARK SMILES COc1ccc(C(=O)c2ccccc2)cc1[C@@H](C)C(=O)OCCOCCOCCOCCOC(=O)c1ccc(-c2c3nc(c(-c4cc(S(=O)(=O)[O-])ccc4F)c4ccc([nH]4)c(-c4cc(S(=O)(=O)[O-])ccc4F)c4nc(c(-c5cc(S(=O)(=O)[O-])ccc5F)c5ccc2[nH]5)C=C4)C=C3)cc1
REMARK SMILES IDX 27 1 26 2 25 3 24 4 23 5 22 6 21 7 19 8 20 9 17 10 18 11
REMARK SMILES IDX 16 12 3 13 4 14 5 15 15 16 6 17 2 18 1 19 7 20 8 21 9 22
REMARK SMILES IDX 10 23 14 24 11 25 13 26 12 27 28 28 29 29 30 30 31 31 32 32
REMARK SMILES IDX 33 33 34 34 35 35 36 36 37 37 98 38 38 39 97 40 39 41 40 42
REMARK SMILES IDX 41 43 91 44 42 45 96 46 90 47 92 48 43 49 95 50 89 51 88 52
REMARK SMILES IDX 44 54 76 55 56 56 75 57 57 58 60 59 74 60 93 61 58 62 59 63
REMARK SMILES IDX 73 65 94 66 61 67 45 68 46 69 54 70 47 71 53 72 55 73 52 74
REMARK SMILES IDX 48 75 49 76 50 77 51 78 77 79 78 80 86 81 79 82 85 83 87 84
REMARK SMILES IDX 84 85 80 86 81 87 82 88 83 89 62 90 63 91 71 92 64 93 70 94
REMARK SMILES IDX 72 95 69 96 65 97 66 98 67 99 68 100
REMARK H PARENT 92 53 60 64
REMARK Flexibility Score: inf
ROOT
ATOM      1  O   UNL     1       2.599  -4.452   1.913  1.00  0.00    -0.377 OA
ENDROOT
BRANCH   1   2
ATOM      2  C   UNL     1       1.821  -3.628   1.072  1.00  0.00     0.188 C 
BRANCH   2   3
ATOM      3  C   UNL     1       2.298  -3.525  -0.385  1.00  0.00     0.188 C 
BRANCH   3   4
ATOM      4  O   UNL     1       3.339  -4.350  -0.888  1.00  0.00    -0.376 OA
BRANCH   4   5
ATOM      5  C   UNL     1       4.432  -4.716  -0.060  1.00  0.00     0.202 C 
BRANCH   5   6
ATOM      6  C   UNL     1       5.253  -3.643   0.680  1.00  0.00     0.261 C 
BRANCH   6   7
ATOM      7  O   UNL     1       4.512  -2.598   1.341  1.00  0.00    -0.463 OA
BRANCH   7   8
ATOM      8  C   UNL     1       4.524  -1.376   0.761  1.00  0.00     0.313 C 
ATOM      9  O   UNL     1       5.124  -1.126  -0.283  1.00  0.00    -0.252 OA
BRANCH   8  10
ATOM     10  C   UNL     1       3.757  -0.282   1.506  1.00  0.00     0.130 C 
ATOM     11  C   UNL     1       4.753   0.677   2.146  1.00  0.00     0.025 C 
BRANCH  10  12
ATOM     12  C   UNL     1       2.655  -0.644   2.500  1.00  0.00     0.009 A 
ATOM     13  C   UNL     1       1.347  -0.134   2.370  1.00  0.00     0.122 A 
ATOM     14  C   UNL     1       0.343  -0.459   3.290  1.00  0.00     0.047 A 
ATOM     15  C   UNL     1       0.623  -1.306   4.362  1.00  0.00     0.016 A 
ATOM     16  C   UNL     1       2.910  -1.493   3.597  1.00  0.00     0.020 A 
ATOM     17  C   UNL     1       1.912  -1.821   4.534  1.00  0.00     0.023 A 
BRANCH  13  18
ATOM     18  O   UNL     1       1.020   0.768   1.392  1.00  0.00    -0.496 OA
ATOM     19  C   UNL     1       0.660   0.132   0.165  1.00  0.00     0.278 C 
ENDBRANCH  13  18
BRANCH  17  20
ATOM     20  C   UNL     1       2.153  -2.736   5.692  1.00  0.00     0.193 C 
ATOM     21  O   UNL     1       1.202  -3.142   6.357  1.00  0.00    -0.289 OA
BRANCH  20  22
ATOM     22  C   UNL     1       3.514  -3.203   6.044  1.00  0.00     0.022 A 
ATOM     23  C   UNL     1       3.701  -4.562   6.304  1.00  0.00     0.012 A 
ATOM     24  C   UNL     1       4.599  -2.321   6.119  1.00  0.00     0.012 A 
ATOM     25  C   UNL     1       4.982  -5.039   6.570  1.00  0.00     0.001 A 
ATOM     26  C   UNL     1       5.885  -2.814   6.344  1.00  0.00     0.001 A 
ATOM     27  C   UNL     1       6.076  -4.176   6.558  1.00  0.00     0.000 A 
ENDBRANCH  20  22
ENDBRANCH  17  20
ENDBRANCH  10  12
ENDBRANCH   8  10
ENDBRANCH   7   8
ENDBRANCH   6   7
ENDBRANCH   5   6
ENDBRANCH   4   5
ENDBRANCH   3   4
ENDBRANCH   2   3
ENDBRANCH   1   2
BRANCH   1  28
ATOM     28  C   UNL     1       2.064  -5.735   2.207  1.00  0.00     0.188 C 
BRANCH  28  29
ATOM     29  C   UNL     1       1.365  -6.481   1.054  1.00  0.00     0.188 C 
BRANCH  29  30
ATOM     30  O   UNL     1       0.341  -5.727   0.408  1.00  0.00    -0.376 OA
BRANCH  30  31
ATOM     31  C   UNL     1      -1.003  -5.905   0.836  1.00  0.00     0.202 C 
BRANCH  31  32
ATOM     32  C   UNL     1      -1.380  -5.452   2.261  1.00  0.00     0.261 C 
BRANCH  32  33
ATOM     33  O   UNL     1      -0.681  -6.085   3.344  1.00  0.00    -0.460 OA
BRANCH  33  34
ATOM     34  C   UNL     1      -0.746  -7.429   3.427  1.00  0.00     0.338 C 
ATOM     35  O   UNL     1      -1.415  -8.166   2.717  1.00  0.00    -0.246 OA
BRANCH  34  36
ATOM     36  C   UNL     1       0.302  -7.897   4.360  1.00  0.00     0.060 A 
ATOM     37  C   UNL     1       1.247  -8.815   3.884  1.00  0.00     0.016 A 
ATOM     38  C   UNL     1       0.358  -7.457   5.686  1.00  0.00     0.016 A 
ATOM     39  C   UNL     1       2.212  -9.339   4.741  1.00  0.00     0.010 A 
ATOM     40  C   UNL     1       1.316  -8.002   6.552  1.00  0.00     0.010 A 
ATOM     41  C   UNL     1       2.222  -8.977   6.093  1.00  0.00    -0.014 A 
BRANCH  41  42
ATOM     42  C   UNL     1       3.057  -9.763   7.040  1.00  0.00     0.031 A 
ATOM     43  C   UNL     1       2.395 -10.826   7.876  1.00  0.00     0.074 A 
ATOM     44  C   UNL     1       4.391  -9.600   7.099  1.00  0.00     0.049 A 
ATOM     45  N   UNL     1       2.927 -11.663   8.729  1.00  0.00    -0.248 NA
ATOM     46  C   UNL     1       0.942 -10.979   7.709  1.00  0.00     0.031 C 
ATOM     47  C   UNL     1       5.163  -8.675   6.274  1.00  0.00     0.029 A 
ATOM     48  N   UNL     1       5.335 -10.201   7.895  1.00  0.00    -0.354 N 
ATOM     49  C   UNL     1       1.880 -12.459   9.181  1.00  0.00     0.074 A 
ATOM     50  C   UNL     1       0.674 -11.960   8.557  1.00  0.00     0.031 C 
ATOM     51  C   UNL     1       6.454  -8.724   6.648  1.00  0.00     0.029 A 
ATOM     52  C   UNL     1       6.601  -9.688   7.734  1.00  0.00     0.049 A 
ATOM     53  H   UNL     1       5.125 -10.931   8.521  1.00  0.00     0.167 HD
ATOM     54  C   UNL     1       1.925 -13.525  10.019  1.00  0.00     0.034 A 
ATOM     55  C   UNL     1       7.745  -9.956   8.394  1.00  0.00     0.034 A 
ATOM     56  C   UNL     1       3.133 -13.995  10.653  1.00  0.00     0.049 A 
ATOM     57  C   UNL     1       7.748 -11.057   9.425  1.00  0.00     0.074 A 
ATOM     58  C   UNL     1       3.294 -15.074  11.505  1.00  0.00     0.029 A 
ATOM     59  N   UNL     1       4.384 -13.404  10.526  1.00  0.00    -0.354 N 
ATOM     60  N   UNL     1       6.758 -11.827   9.816  1.00  0.00    -0.248 NA
ATOM     61  C   UNL     1       9.033 -11.352  10.070  1.00  0.00     0.031 C 
ATOM     62  C   UNL     1       4.617 -15.080  11.962  1.00  0.00     0.029 A 
ATOM     63  C   UNL     1       5.310 -14.066  11.320  1.00  0.00     0.049 A 
ATOM     64  H   UNL     1       4.585 -12.628   9.954  1.00  0.00     0.167 HD
ATOM     65  C   UNL     1       7.314 -12.729  10.721  1.00  0.00     0.074 A 
ATOM     66  C   UNL     1       8.726 -12.415  10.799  1.00  0.00     0.031 C 
ATOM     67  C   UNL     1       6.713 -13.731  11.416  1.00  0.00     0.034 A 
BRANCH  54  68
ATOM     68  C   UNL     1       0.618 -14.216  10.331  1.00  0.00     0.023 A 
ATOM     69  C   UNL     1      -0.141 -14.856   9.334  1.00  0.00     0.031 A 
ATOM     70  C   UNL     1       0.108 -14.210  11.641  1.00  0.00     0.131 A 
ATOM     71  C   UNL     1      -1.397 -15.398   9.648  1.00  0.00     0.055 A 
ATOM     72  C   UNL     1      -1.103 -14.825  11.963  1.00  0.00     0.041 A 
ATOM     73  F   UNL     1       0.773 -13.592  12.630  1.00  0.00    -0.206 F 
ATOM     74  C   UNL     1      -1.871 -15.411  10.962  1.00  0.00     0.022 A 
BRANCH  71  75
ATOM     75  S   UNL     1      -2.469 -15.951   8.293  1.00  0.00     0.124 S 
ATOM     76  O   UNL     1      -2.584 -14.734   7.492  1.00  0.00    -0.237 OA
ATOM     77  O   UNL     1      -1.695 -17.035   7.700  1.00  0.00    -0.237 OA
ATOM     78  O   UNL     1      -3.697 -16.358   8.972  1.00  0.00    -0.744 OA
ENDBRANCH  71  75
ENDBRANCH  54  68
BRANCH  55  79
ATOM     79  C   UNL     1       8.980  -9.165   8.118  1.00  0.00     0.023 A 
ATOM     80  C   UNL     1      10.133  -9.767   7.591  1.00  0.00     0.031 A 
ATOM     81  C   UNL     1       9.040  -7.797   8.440  1.00  0.00     0.131 A 
ATOM     82  C   UNL     1      11.312  -9.017   7.451  1.00  0.00     0.055 A 
ATOM     83  C   UNL     1      10.199  -7.043   8.252  1.00  0.00     0.041 A 
ATOM     84  F   UNL     1       7.963  -7.169   8.941  1.00  0.00    -0.206 F 
ATOM     85  C   UNL     1      11.349  -7.657   7.767  1.00  0.00     0.022 A 
BRANCH  82  86
ATOM     86  S   UNL     1      12.825  -9.868   6.927  1.00  0.00     0.124 S 
ATOM     87  O   UNL     1      12.964 -10.890   7.958  1.00  0.00    -0.237 OA
ATOM     88  O   UNL     1      12.458 -10.343   5.597  1.00  0.00    -0.237 OA
ATOM     89  O   UNL     1      13.835  -8.812   6.952  1.00  0.00    -0.744 OA
ENDBRANCH  82  86
ENDBRANCH  55  79
BRANCH  67  90
ATOM     90  C   UNL     1       7.604 -14.583  12.293  1.00  0.00     0.023 A 
ATOM     91  C   UNL     1       8.316 -14.035  13.375  1.00  0.00     0.031 A 
ATOM     92  C   UNL     1       7.788 -15.948  12.011  1.00  0.00     0.131 A 
ATOM     93  C   UNL     1       9.246 -14.822  14.072  1.00  0.00     0.055 A 
ATOM     94  C   UNL     1       8.650 -16.748  12.764  1.00  0.00     0.041 A 
ATOM     95  F   UNL     1       7.141 -16.530  10.988  1.00  0.00    -0.206 F 
ATOM     96  C   UNL     1       9.403 -16.180  13.787  1.00  0.00     0.022 A 
BRANCH  93  97
ATOM     97  S   UNL     1      10.362 -14.005  15.246  1.00  0.00     0.124 S 
ATOM     98  O   UNL     1      10.980 -12.980  14.410  1.00  0.00    -0.237 OA
ATOM     99  O   UNL     1       9.439 -13.521  16.268  1.00  0.00    -0.237 OA
ATOM    100  O   UNL     1      11.255 -15.079  15.674  1.00  0.00    -0.744 OA
ENDBRANCH  93  97
ENDBRANCH  67  90
ENDBRANCH  41  42
ENDBRANCH  34  36
ENDBRANCH  33  34
ENDBRANCH  32  33
ENDBRANCH  31  32
ENDBRANCH  30  31
ENDBRANCH  29  30
ENDBRANCH  28  29
ENDBRANCH   1  28
TORSDOF 27
