REMARK SMILES CCc1ccc2[nH]c(C(=O)c3cc(C)ccn3)c(CC(=O)OCCOCCOCCOCCOC(=O)c3ccc(-c4c5nc(c(-c6cc(S(=O)(=O)[O-])ccc6F)c6ccc([nH]6)c(-c6cc(S(=O)(=O)[O-])ccc6F)c6nc(c(-c7cc(S(=O)(=O)[O-])ccc7F)c7ccc4[nH]7)C=C6)C=C5)cc3)c2c1
REMARK SMILES IDX 28 1 27 2 26 3 25 4 24 5 23 6 22 7 20 8 21 9 19 10 18 11
REMARK SMILES IDX 3 12 4 13 101 14 5 15 100 16 6 17 7 18 8 19 2 21 1 22 9 23
REMARK SMILES IDX 10 24 11 25 12 26 17 27 13 28 16 29 14 30 15 31 29 32 30 33
REMARK SMILES IDX 31 34 32 35 33 36 34 37 35 38 36 39 37 40 38 41 99 42 39 43
REMARK SMILES IDX 98 44 40 45 41 46 42 47 92 48 43 49 97 50 91 51 93 52 44 53
REMARK SMILES IDX 96 54 90 55 89 56 45 58 77 59 57 60 76 61 58 62 61 63 75 64
REMARK SMILES IDX 94 65 59 66 60 67 74 69 95 70 62 71 46 72 47 73 55 74 48 75
REMARK SMILES IDX 54 76 56 77 53 78 49 79 50 80 51 81 52 82 78 83 79 84 87 85
REMARK SMILES IDX 80 86 86 87 88 88 85 89 81 90 82 91 83 92 84 93 63 94 64 95
REMARK SMILES IDX 72 96 65 97 71 98 73 99 70 100 66 101 67 102 68 103 69 104
REMARK H PARENT 7 20 93 57 61 68
REMARK Flexibility Score: inf
ROOT
ATOM      1  O   UNL     1       3.963   7.840  -2.836  1.00  0.00    -0.377 OA
ENDROOT
BRANCH   1   2
ATOM      2  C   UNL     1       2.642   8.095  -2.413  1.00  0.00     0.188 C 
BRANCH   2   3
ATOM      3  C   UNL     1       2.021   9.434  -1.956  1.00  0.00     0.188 C 
BRANCH   3   4
ATOM      4  O   UNL     1       2.602  10.216  -0.934  1.00  0.00    -0.376 OA
BRANCH   4   5
ATOM      5  C   UNL     1       2.978   9.684   0.317  1.00  0.00     0.202 C 
BRANCH   5   6
ATOM      6  C   UNL     1       2.315   8.458   0.974  1.00  0.00     0.261 C 
BRANCH   6   7
ATOM      7  O   UNL     1       1.566   7.573   0.118  1.00  0.00    -0.463 OA
BRANCH   7   8
ATOM      8  C   UNL     1       0.217   7.589   0.214  1.00  0.00     0.310 C 
ATOM      9  O   UNL     1      -0.377   8.227   1.083  1.00  0.00    -0.252 OA
BRANCH   8  10
ATOM     10  C   UNL     1      -0.564   6.803  -0.841  1.00  0.00     0.161 C 
BRANCH  10  11
ATOM     11  C   UNL     1       0.110   5.968  -1.924  1.00  0.00     0.000 A 
ATOM     12  C   UNL     1       0.876   2.333  -0.886  1.00  0.00    -0.048 A 
ATOM     13  C   UNL     1       1.434   1.960  -2.113  1.00  0.00     0.006 A 
ATOM     14  C   UNL     1       0.485   3.676  -0.689  1.00  0.00     0.014 A 
ATOM     15  C   UNL     1       1.572   2.876  -3.160  1.00  0.00     0.027 A 
ATOM     16  C   UNL     1       0.551   4.605  -1.749  1.00  0.00     0.004 A 
ATOM     17  C   UNL     1       1.085   4.170  -2.955  1.00  0.00     0.046 A 
ATOM     18  N   UNL     1       1.021   5.229  -3.820  1.00  0.00    -0.352 N 
ATOM     19  C   UNL     1       0.216   6.231  -3.310  1.00  0.00     0.093 A 
ATOM     20  H   UNL     1       1.484   5.272  -4.687  1.00  0.00     0.167 HD
BRANCH  12  21
ATOM     21  C   UNL     1       0.600   1.353   0.234  1.00  0.00     0.032 C 
ATOM     22  C   UNL     1       1.027  -0.094   0.017  1.00  0.00     0.009 C 
ENDBRANCH  12  21
BRANCH  19  23
ATOM     23  C   UNL     1      -0.303   7.361  -4.099  1.00  0.00     0.227 C 
ATOM     24  O   UNL     1      -1.075   8.187  -3.615  1.00  0.00    -0.285 OA
BRANCH  23  25
ATOM     25  C   UNL     1       0.143   7.589  -5.528  1.00  0.00     0.113 A 
ATOM     26  C   UNL     1       0.076   6.609  -6.520  1.00  0.00     0.036 A 
ATOM     27  N   UNL     1       0.604   8.844  -5.779  1.00  0.00    -0.253 NA
ATOM     28  C   UNL     1       0.541   6.919  -7.810  1.00  0.00    -0.047 A 
ATOM     29  C   UNL     1       1.035   9.118  -7.029  1.00  0.00     0.112 A 
ATOM     30  C   UNL     1       0.522   5.922  -8.932  1.00  0.00     0.044 C 
ATOM     31  C   UNL     1       1.056   8.193  -8.054  1.00  0.00     0.023 A 
ENDBRANCH  23  25
ENDBRANCH  19  23
ENDBRANCH  10  11
ENDBRANCH   8  10
ENDBRANCH   7   8
ENDBRANCH   6   7
ENDBRANCH   5   6
ENDBRANCH   4   5
ENDBRANCH   3   4
ENDBRANCH   2   3
ENDBRANCH   1   2
BRANCH   1  32
ATOM     32  C   UNL     1       5.002   8.597  -2.277  1.00  0.00     0.188 C 
BRANCH  32  33
ATOM     33  C   UNL     1       5.176   9.929  -3.002  1.00  0.00     0.188 C 
BRANCH  33  34
ATOM     34  O   UNL     1       4.017  10.322  -3.720  1.00  0.00    -0.376 OA
BRANCH  34  35
ATOM     35  C   UNL     1       3.940   9.995  -5.104  1.00  0.00     0.202 C 
BRANCH  35  36
ATOM     36  C   UNL     1       4.009   8.529  -5.591  1.00  0.00     0.261 C 
BRANCH  36  37
ATOM     37  O   UNL     1       5.177   7.787  -5.236  1.00  0.00    -0.460 OA
BRANCH  37  38
ATOM     38  C   UNL     1       6.355   8.239  -5.697  1.00  0.00     0.338 C 
ATOM     39  O   UNL     1       6.543   9.159  -6.473  1.00  0.00    -0.246 OA
BRANCH  38  40
ATOM     40  C   UNL     1       7.379   7.551  -4.897  1.00  0.00     0.060 A 
ATOM     41  C   UNL     1       8.186   8.327  -4.059  1.00  0.00     0.016 A 
ATOM     42  C   UNL     1       7.472   6.155  -4.902  1.00  0.00     0.016 A 
ATOM     43  C   UNL     1       9.092   7.707  -3.212  1.00  0.00     0.010 A 
ATOM     44  C   UNL     1       8.415   5.535  -4.085  1.00  0.00     0.010 A 
ATOM     45  C   UNL     1       9.239   6.315  -3.259  1.00  0.00    -0.014 A 
BRANCH  45  46
ATOM     46  C   UNL     1      10.437   5.729  -2.630  1.00  0.00     0.031 A 
ATOM     47  C   UNL     1      11.656   5.579  -3.492  1.00  0.00     0.074 A 
ATOM     48  C   UNL     1      10.449   5.428  -1.321  1.00  0.00     0.049 A 
ATOM     49  N   UNL     1      12.837   5.117  -3.189  1.00  0.00    -0.248 NA
ATOM     50  C   UNL     1      11.520   6.016  -4.893  1.00  0.00     0.031 C 
ATOM     51  C   UNL     1       9.324   5.610  -0.404  1.00  0.00     0.029 A 
ATOM     52  N   UNL     1      11.446   4.917  -0.536  1.00  0.00    -0.354 N 
ATOM     53  C   UNL     1      13.586   5.211  -4.357  1.00  0.00     0.074 A 
ATOM     54  C   UNL     1      12.714   5.734  -5.384  1.00  0.00     0.031 C 
ATOM     55  C   UNL     1       9.696   5.210   0.824  1.00  0.00     0.029 A 
ATOM     56  C   UNL     1      11.068   4.710   0.769  1.00  0.00     0.049 A 
ATOM     57  H   UNL     1      12.349   4.716  -0.874  1.00  0.00     0.167 HD
ATOM     58  C   UNL     1      14.888   4.894  -4.545  1.00  0.00     0.034 A 
ATOM     59  C   UNL     1      11.755   4.155   1.787  1.00  0.00     0.034 A 
ATOM     60  C   UNL     1      15.717   4.347  -3.502  1.00  0.00     0.049 A 
ATOM     61  C   UNL     1      13.177   3.712   1.525  1.00  0.00     0.074 A 
ATOM     62  C   UNL     1      17.044   3.968  -3.563  1.00  0.00     0.029 A 
ATOM     63  N   UNL     1      15.285   4.087  -2.205  1.00  0.00    -0.354 N 
ATOM     64  N   UNL     1      13.880   3.802   0.417  1.00  0.00    -0.248 NA
ATOM     65  C   UNL     1      13.898   3.105   2.648  1.00  0.00     0.031 C 
ATOM     66  C   UNL     1      17.390   3.403  -2.330  1.00  0.00     0.029 A 
ATOM     67  C   UNL     1      16.309   3.518  -1.468  1.00  0.00     0.049 A 
ATOM     68  H   UNL     1      14.383   4.280  -1.861  1.00  0.00     0.167 HD
ATOM     69  C   UNL     1      15.138   3.290   0.722  1.00  0.00     0.074 A 
ATOM     70  C   UNL     1      15.099   2.914   2.121  1.00  0.00     0.031 C 
ATOM     71  C   UNL     1      16.230   3.143  -0.074  1.00  0.00     0.034 A 
BRANCH  58  72
ATOM     72  C   UNL     1      15.448   5.063  -5.936  1.00  0.00     0.023 A 
ATOM     73  C   UNL     1      15.527   6.321  -6.560  1.00  0.00     0.031 A 
ATOM     74  C   UNL     1      15.862   3.938  -6.671  1.00  0.00     0.131 A 
ATOM     75  C   UNL     1      15.940   6.415  -7.898  1.00  0.00     0.055 A 
ATOM     76  C   UNL     1      16.352   4.048  -7.974  1.00  0.00     0.041 A 
ATOM     77  F   UNL     1      15.777   2.707  -6.143  1.00  0.00    -0.206 F 
ATOM     78  C   UNL     1      16.380   5.290  -8.600  1.00  0.00     0.022 A 
BRANCH  75  79
ATOM     79  S   UNL     1      15.751   8.002  -8.758  1.00  0.00     0.124 S 
ATOM     80  O   UNL     1      14.312   8.229  -8.642  1.00  0.00    -0.237 OA
ATOM     81  O   UNL     1      16.603   8.889  -7.976  1.00  0.00    -0.237 OA
ATOM     82  O   UNL     1      16.222   7.717 -10.112  1.00  0.00    -0.744 OA
ENDBRANCH  75  79
ENDBRANCH  58  72
BRANCH  59  83
ATOM     83  C   UNL     1      11.113   3.947   3.118  1.00  0.00     0.023 A 
ATOM     84  C   UNL     1      11.624   4.548   4.279  1.00  0.00     0.031 A 
ATOM     85  C   UNL     1      10.003   3.093   3.257  1.00  0.00     0.131 A 
ATOM     86  C   UNL     1      11.059   4.250   5.530  1.00  0.00     0.055 A 
ATOM     87  C   UNL     1       9.407   2.847   4.495  1.00  0.00     0.041 A 
ATOM     88  F   UNL     1       9.475   2.484   2.183  1.00  0.00    -0.206 F 
ATOM     89  C   UNL     1       9.945   3.417   5.644  1.00  0.00     0.022 A 
BRANCH  86  90
ATOM     90  S   UNL     1      11.869   4.889   7.022  1.00  0.00     0.124 S 
ATOM     91  O   UNL     1      13.217   4.353   6.881  1.00  0.00    -0.237 OA
ATOM     92  O   UNL     1      11.729   6.331   6.848  1.00  0.00    -0.237 OA
ATOM     93  O   UNL     1      11.079   4.315   8.110  1.00  0.00    -0.744 OA
ENDBRANCH  86  90
ENDBRANCH  59  83
BRANCH  71  94
ATOM     94  C   UNL     1      17.477   2.592   0.574  1.00  0.00     0.023 A 
ATOM     95  C   UNL     1      17.531   1.280   1.074  1.00  0.00     0.031 A 
ATOM     96  C   UNL     1      18.623   3.397   0.699  1.00  0.00     0.131 A 
ATOM     97  C   UNL     1      18.683   0.835   1.737  1.00  0.00     0.055 A 
ATOM     98  C   UNL     1      19.793   2.922   1.291  1.00  0.00     0.041 A 
ATOM     99  F   UNL     1      18.626   4.659   0.241  1.00  0.00    -0.206 F 
ATOM    100  C   UNL     1      19.822   1.639   1.830  1.00  0.00     0.022 A 
BRANCH  97 101
ATOM    101  S   UNL     1      18.632  -0.769   2.581  1.00  0.00     0.124 S 
ATOM    102  O   UNL     1      17.513  -0.590   3.501  1.00  0.00    -0.237 OA
ATOM    103  O   UNL     1      18.406  -1.696   1.477  1.00  0.00    -0.237 OA
ATOM    104  O   UNL     1      19.946  -0.866   3.213  1.00  0.00    -0.744 OA
ENDBRANCH  97 101
ENDBRANCH  71  94
ENDBRANCH  45  46
ENDBRANCH  38  40
ENDBRANCH  37  38
ENDBRANCH  36  37
ENDBRANCH  35  36
ENDBRANCH  34  35
ENDBRANCH  33  34
ENDBRANCH  32  33
ENDBRANCH   1  32
TORSDOF 27
