REMARK SMILES O=C(OCCOCCOCCOCCOC(=O)[C@@H]1[C@@H](C(=O)Nc2cccc([N+](=O)[O-])c2)[C@@H]2C=C[C@H]1O2)c1ccc(-c2c3nc(c(-c4cc(S(=O)(=O)[O-])ccc4F)c4ccc([nH]4)c(-c4cc(S(=O)(=O)[O-])ccc4F)c4nc(c(-c5cc(S(=O)(=O)[O-])ccc5F)c5ccc2[nH]5)C=C4)C=C3)cc1
REMARK SMILES IDX 9 1 8 2 7 3 6 4 5 5 4 6 3 7 2 8 1 9 37 10 38 11 99 12 39 13
REMARK SMILES IDX 98 14 40 15 41 16 42 17 92 18 43 19 97 20 91 21 93 22 44 23
REMARK SMILES IDX 96 24 90 25 89 26 45 28 77 29 57 30 76 31 58 32 61 33 75 34
REMARK SMILES IDX 94 35 59 36 60 37 74 39 95 40 62 41 46 42 47 43 55 44 48 45
REMARK SMILES IDX 54 46 56 47 53 48 49 49 50 50 51 51 52 52 78 53 79 54 87 55
REMARK SMILES IDX 80 56 86 57 88 58 85 59 81 60 82 61 83 62 84 63 63 64 64 65
REMARK SMILES IDX 72 66 65 67 71 68 73 69 70 70 66 71 67 72 68 73 69 74 10 75
REMARK SMILES IDX 11 76 12 77 13 78 14 79 15 80 16 81 17 82 18 83 19 84 35 85
REMARK SMILES IDX 32 86 34 87 36 88 33 89 20 90 21 91 22 92 23 94 24 95 31 96
REMARK SMILES IDX 25 97 27 98 26 99 28 100 29 101 30 102
REMARK H PARENT 93 27 61 38 22 93
REMARK Flexibility Score: inf
ROOT
ATOM      1  O   UNL     1       3.118  -3.669  -0.103  1.00  0.00    -0.377 OA
ENDROOT
BRANCH   1   2
ATOM      2  C   UNL     1       2.150  -2.623  -0.234  1.00  0.00     0.188 C 
BRANCH   2   3
ATOM      3  C   UNL     1       2.402  -1.424   0.680  1.00  0.00     0.188 C 
BRANCH   3   4
ATOM      4  O   UNL     1       3.608  -0.771   0.287  1.00  0.00    -0.376 OA
BRANCH   4   5
ATOM      5  C   UNL     1       4.458  -0.352   1.356  1.00  0.00     0.202 C 
BRANCH   5   6
ATOM      6  C   UNL     1       4.222   1.097   1.762  1.00  0.00     0.261 C 
BRANCH   6   7
ATOM      7  O   UNL     1       2.825   1.419   1.723  1.00  0.00    -0.460 OA
BRANCH   7   8
ATOM      8  C   UNL     1       2.136   1.895   0.655  1.00  0.00     0.338 C 
ATOM      9  O   UNL     1       0.920   2.049   0.771  1.00  0.00    -0.246 OA
BRANCH   8  10
ATOM     10  C   UNL     1       2.769   2.305  -0.640  1.00  0.00     0.060 A 
ATOM     11  C   UNL     1       3.877   1.702  -1.246  1.00  0.00     0.016 A 
ATOM     12  C   UNL     1       2.138   3.354  -1.328  1.00  0.00     0.016 A 
ATOM     13  C   UNL     1       4.392   2.158  -2.454  1.00  0.00     0.010 A 
ATOM     14  C   UNL     1       2.641   3.818  -2.544  1.00  0.00     0.010 A 
ATOM     15  C   UNL     1       3.794   3.240  -3.087  1.00  0.00    -0.014 A 
BRANCH  15  16
ATOM     16  C   UNL     1       4.528   3.910  -4.173  1.00  0.00     0.031 A 
ATOM     17  C   UNL     1       5.299   5.140  -3.808  1.00  0.00     0.074 A 
ATOM     18  C   UNL     1       4.563   3.389  -5.408  1.00  0.00     0.049 A 
ATOM     19  N   UNL     1       5.861   6.032  -4.572  1.00  0.00    -0.248 NA
ATOM     20  C   UNL     1       5.446   5.395  -2.365  1.00  0.00     0.031 C 
ATOM     21  C   UNL     1       3.970   2.111  -5.800  1.00  0.00     0.029 A 
ATOM     22  N   UNL     1       5.118   3.874  -6.561  1.00  0.00    -0.354 N 
ATOM     23  C   UNL     1       6.388   6.983  -3.705  1.00  0.00     0.074 A 
ATOM     24  C   UNL     1       6.077   6.555  -2.360  1.00  0.00     0.031 C 
ATOM     25  C   UNL     1       4.171   1.925  -7.116  1.00  0.00     0.029 A 
ATOM     26  C   UNL     1       4.835   3.104  -7.664  1.00  0.00     0.049 A 
ATOM     27  H   UNL     1       5.666   4.692  -6.597  1.00  0.00     0.167 HD
ATOM     28  C   UNL     1       7.050   8.122  -4.022  1.00  0.00     0.034 A 
ATOM     29  C   UNL     1       5.031   3.372  -8.970  1.00  0.00     0.034 A 
ATOM     30  C   UNL     1       7.299   8.507  -5.388  1.00  0.00     0.049 A 
ATOM     31  C   UNL     1       5.671   4.692  -9.322  1.00  0.00     0.074 A 
ATOM     32  C   UNL     1       7.867   9.665  -5.881  1.00  0.00     0.029 A 
ATOM     33  N   UNL     1       6.971   7.719  -6.490  1.00  0.00    -0.354 N 
ATOM     34  N   UNL     1       6.080   5.648  -8.515  1.00  0.00    -0.248 NA
ATOM     35  C   UNL     1       5.866   4.980 -10.746  1.00  0.00     0.031 C 
ATOM     36  C   UNL     1       7.828   9.602  -7.281  1.00  0.00     0.029 A 
ATOM     37  C   UNL     1       7.304   8.373  -7.662  1.00  0.00     0.049 A 
ATOM     38  H   UNL     1       6.562   6.825  -6.442  1.00  0.00     0.167 HD
ATOM     39  C   UNL     1       6.593   6.648  -9.334  1.00  0.00     0.074 A 
ATOM     40  C   UNL     1       6.448   6.172 -10.698  1.00  0.00     0.031 C 
ATOM     41  C   UNL     1       7.136   7.848  -8.999  1.00  0.00     0.034 A 
BRANCH  28  42
ATOM     42  C   UNL     1       7.395   9.041  -2.873  1.00  0.00     0.023 A 
ATOM     43  C   UNL     1       8.245   8.635  -1.827  1.00  0.00     0.031 A 
ATOM     44  C   UNL     1       6.733  10.274  -2.738  1.00  0.00     0.131 A 
ATOM     45  C   UNL     1       8.310   9.391  -0.644  1.00  0.00     0.055 A 
ATOM     46  C   UNL     1       6.880  11.069  -1.599  1.00  0.00     0.041 A 
ATOM     47  F   UNL     1       5.885  10.702  -3.686  1.00  0.00    -0.206 F 
ATOM     48  C   UNL     1       7.650  10.617  -0.532  1.00  0.00     0.022 A 
BRANCH  45  49
ATOM     49  S   UNL     1       9.080   8.643   0.821  1.00  0.00     0.124 S 
ATOM     50  O   UNL     1       8.299   7.416   0.973  1.00  0.00    -0.237 OA
ATOM     51  O   UNL     1      10.465   8.470   0.396  1.00  0.00    -0.237 OA
ATOM     52  O   UNL     1       8.867   9.639   1.869  1.00  0.00    -0.744 OA
ENDBRANCH  45  49
ENDBRANCH  28  42
BRANCH  29  53
ATOM     53  C   UNL     1       4.522   2.429 -10.008  1.00  0.00     0.023 A 
ATOM     54  C   UNL     1       5.388   1.738 -10.870  1.00  0.00     0.031 A 
ATOM     55  C   UNL     1       3.139   2.190 -10.136  1.00  0.00     0.131 A 
ATOM     56  C   UNL     1       4.861   0.847 -11.823  1.00  0.00     0.055 A 
ATOM     57  C   UNL     1       2.625   1.273 -11.054  1.00  0.00     0.041 A 
ATOM     58  F   UNL     1       2.265   2.825  -9.340  1.00  0.00    -0.206 F 
ATOM     59  C   UNL     1       3.488   0.598 -11.909  1.00  0.00     0.022 A 
BRANCH  56  60
ATOM     60  S   UNL     1       5.995   0.033 -12.984  1.00  0.00     0.124 S 
ATOM     61  O   UNL     1       6.592   1.175 -13.667  1.00  0.00    -0.237 OA
ATOM     62  O   UNL     1       6.872  -0.708 -12.083  1.00  0.00    -0.237 OA
ATOM     63  O   UNL     1       5.110  -0.791 -13.804  1.00  0.00    -0.744 OA
ENDBRANCH  56  60
ENDBRANCH  29  53
BRANCH  41  64
ATOM     64  C   UNL     1       7.657   8.693 -10.128  1.00  0.00     0.023 A 
ATOM     65  C   UNL     1       6.792   9.373 -11.000  1.00  0.00     0.031 A 
ATOM     66  C   UNL     1       9.043   8.856 -10.294  1.00  0.00     0.131 A 
ATOM     67  C   UNL     1       7.326  10.168 -12.023  1.00  0.00     0.055 A 
ATOM     68  C   UNL     1       9.568   9.685 -11.284  1.00  0.00     0.041 A 
ATOM     69  F   UNL     1       9.906   8.227  -9.479  1.00  0.00    -0.206 F 
ATOM     70  C   UNL     1       8.707  10.342 -12.159  1.00  0.00     0.022 A 
BRANCH  67  71
ATOM     71  S   UNL     1       6.193  10.950 -13.202  1.00  0.00     0.124 S 
ATOM     72  O   UNL     1       5.583   9.791 -13.847  1.00  0.00    -0.237 OA
ATOM     73  O   UNL     1       5.319  11.729 -12.331  1.00  0.00    -0.237 OA
ATOM     74  O   UNL     1       7.078  11.741 -14.055  1.00  0.00    -0.744 OA
ENDBRANCH  67  71
ENDBRANCH  41  64
ENDBRANCH  15  16
ENDBRANCH   8  10
ENDBRANCH   7   8
ENDBRANCH   6   7
ENDBRANCH   5   6
ENDBRANCH   4   5
ENDBRANCH   3   4
ENDBRANCH   2   3
ENDBRANCH   1   2
BRANCH   1  75
ATOM     75  C   UNL     1       4.484  -3.315  -0.307  1.00  0.00     0.188 C 
BRANCH  75  76
ATOM     76  C   UNL     1       4.928  -2.924  -1.728  1.00  0.00     0.188 C 
BRANCH  76  77
ATOM     77  O   UNL     1       3.896  -2.345  -2.520  1.00  0.00    -0.376 OA
BRANCH  77  78
ATOM     78  C   UNL     1       3.691  -2.994  -3.776  1.00  0.00     0.202 C 
BRANCH  78  79
ATOM     79  C   UNL     1       2.861  -4.289  -3.703  1.00  0.00     0.261 C 
BRANCH  79  80
ATOM     80  O   UNL     1       3.142  -5.093  -2.544  1.00  0.00    -0.463 OA
BRANCH  80  81
ATOM     81  C   UNL     1       4.118  -6.029  -2.653  1.00  0.00     0.312 C 
ATOM     82  O   UNL     1       4.695  -6.311  -3.681  1.00  0.00    -0.252 OA
BRANCH  81  83
ATOM     83  C   UNL     1       4.526  -6.554  -1.292  1.00  0.00     0.147 C 
ATOM     84  C   UNL     1       5.139  -7.965  -1.399  1.00  0.00     0.129 C 
ATOM     85  C   UNL     1       3.409  -6.782  -0.268  1.00  0.00     0.157 C 
ATOM     86  C   UNL     1       4.342  -8.740  -0.338  1.00  0.00     0.155 C 
ATOM     87  C   UNL     1       2.359  -7.725  -0.776  1.00  0.00     0.004 C 
ATOM     88  O   UNL     1       4.102  -7.697   0.637  1.00  0.00    -0.365 OA
ATOM     89  C   UNL     1       2.932  -8.935  -0.819  1.00  0.00     0.004 C 
BRANCH  84  90
ATOM     90  C   UNL     1       6.635  -8.003  -1.085  1.00  0.00     0.231 C 
ATOM     91  O   UNL     1       7.243  -7.049  -0.597  1.00  0.00    -0.274 OA
ATOM     92  N   UNL     1       7.321  -9.184  -1.259  1.00  0.00    -0.325 N 
ATOM     93  H   UNL     1       8.256  -9.201  -0.950  1.00  0.00     0.169 HD
BRANCH  92  94
ATOM     94  C   UNL     1       6.829 -10.362  -1.829  1.00  0.00     0.048 A 
ATOM     95  C   UNL     1       6.993 -11.553  -1.123  1.00  0.00     0.026 A 
ATOM     96  C   UNL     1       6.087 -10.342  -3.009  1.00  0.00     0.111 A 
ATOM     97  C   UNL     1       6.274 -12.686  -1.508  1.00  0.00     0.009 A 
ATOM     98  C   UNL     1       5.330 -11.459  -3.359  1.00  0.00     0.271 A 
ATOM     99  C   UNL     1       5.411 -12.633  -2.605  1.00  0.00     0.086 A 
BRANCH  98 100
ATOM    100  N   UNL     1       4.366 -11.353  -4.458  1.00  0.00     0.062 N 
ATOM    101  O   UNL     1       3.846 -12.401  -4.865  1.00  0.00    -0.258 OA
ATOM    102  O   UNL     1       4.100 -10.221  -4.883  1.00  0.00    -0.258 OA
ENDBRANCH  98 100
ENDBRANCH  92  94
ENDBRANCH  84  90
ENDBRANCH  81  83
ENDBRANCH  80  81
ENDBRANCH  79  80
ENDBRANCH  78  79
ENDBRANCH  77  78
ENDBRANCH  76  77
ENDBRANCH  75  76
ENDBRANCH   1  75
TORSDOF 26
