REMARK SMILES C[C@@H](NC(=O)[C@H]1CC=CC[C@@H]1C(=O)OCCOCCOCCOCCOC(=O)c1ccc(-c2c3nc(c(-c4cc(S(=O)(=O)[O-])ccc4F)c4ccc([nH]4)c(-c4cc(S(=O)(=O)[O-])ccc4F)c4nc(c(-c5cc(S(=O)(=O)[O-])ccc5F)c5ccc2[nH]5)C=C4)C=C3)cc1)c1ccc(-n2ccnc2)cc1
REMARK SMILES IDX 19 1 18 2 17 3 16 4 15 5 14 6 12 7 13 8 11 9 6 10 7 11 8 12
REMARK SMILES IDX 10 13 9 14 4 15 3 16 5 18 2 19 1 20 92 21 93 22 102 23 94 24
REMARK SMILES IDX 101 25 95 26 96 27 97 28 100 29 98 30 99 31 20 32 21 33
REMARK SMILES IDX 22 34 23 35 24 36 25 37 26 38 27 39 28 40 29 41 30 42 91 43
REMARK SMILES IDX 31 44 90 45 32 46 33 47 34 48 84 49 35 50 89 51 83 52 85 53
REMARK SMILES IDX 36 54 88 55 82 56 81 57 37 59 69 60 49 61 68 62 50 63 53 64
REMARK SMILES IDX 67 65 86 66 51 67 52 68 66 70 87 71 54 72 38 73 39 74 47 75
REMARK SMILES IDX 40 76 46 77 48 78 45 79 41 80 42 81 43 82 44 83 70 84 71 85
REMARK SMILES IDX 79 86 72 87 78 88 80 89 77 90 73 91 74 92 75 93 76 94 55 95
REMARK SMILES IDX 56 96 64 97 57 98 63 99 65 100 62 101 58 102 59 103 60 104
REMARK SMILES IDX 61 105
REMARK H PARENT 3 17 85 58 53 69
REMARK Flexibility Score: inf
ROOT
ATOM      1  C   UNL     1      -5.092   5.419  -0.333  1.00  0.00     0.188 C 
ENDROOT
BRANCH   1   2
ATOM      2  C   UNL     1      -5.720   5.624  -1.718  1.00  0.00     0.188 C 
BRANCH   2   3
ATOM      3  O   UNL     1      -6.799   4.783  -2.092  1.00  0.00    -0.376 OA
BRANCH   3   4
ATOM      4  C   UNL     1      -6.494   3.398  -2.308  1.00  0.00     0.202 C 
BRANCH   4   5
ATOM      5  C   UNL     1      -5.283   3.107  -3.198  1.00  0.00     0.261 C 
BRANCH   5   6
ATOM      6  O   UNL     1      -4.024   3.323  -2.500  1.00  0.00    -0.463 OA
BRANCH   6   7
ATOM      7  C   UNL     1      -3.021   3.759  -3.300  1.00  0.00     0.310 C 
ATOM      8  O   UNL     1      -3.151   3.945  -4.509  1.00  0.00    -0.252 OA
BRANCH   7   9
ATOM      9  C   UNL     1      -1.712   4.115  -2.609  1.00  0.00     0.115 C 
ATOM     10  C   UNL     1      -1.275   3.358  -1.322  1.00  0.00     0.097 C 
ATOM     11  C   UNL     1      -1.479   4.136  -0.013  1.00  0.00     0.041 C 
ATOM     12  C   UNL     1      -1.395   5.625  -0.096  1.00  0.00    -0.030 C 
ATOM     13  C   UNL     1      -1.559   5.650  -2.586  1.00  0.00     0.043 C 
ATOM     14  C   UNL     1      -1.430   6.300  -1.247  1.00  0.00    -0.030 C 
BRANCH  10  15
ATOM     15  C   UNL     1       0.217   3.015  -1.439  1.00  0.00     0.224 C 
ATOM     16  N   UNL     1       0.832   1.982  -0.820  1.00  0.00    -0.349 N 
ATOM     17  H   UNL     1       1.712   1.815  -1.228  1.00  0.00     0.164 HD
ATOM     18  O   UNL     1       0.966   3.700  -2.149  1.00  0.00    -0.275 OA
BRANCH  16  19
ATOM     19  C   UNL     1       0.590   1.026   0.281  1.00  0.00     0.109 C 
ATOM     20  C   UNL     1       1.533  -0.170   0.046  1.00  0.00     0.036 C 
BRANCH  19  21
ATOM     21  C   UNL     1      -0.845   0.592   0.455  1.00  0.00    -0.026 A 
ATOM     22  C   UNL     1      -1.680   1.270   1.363  1.00  0.00     0.008 A 
ATOM     23  C   UNL     1      -1.397  -0.432  -0.324  1.00  0.00     0.008 A 
ATOM     24  C   UNL     1      -3.064   1.088   1.332  1.00  0.00     0.027 A 
ATOM     25  C   UNL     1      -2.770  -0.625  -0.357  1.00  0.00     0.027 A 
ATOM     26  C   UNL     1      -3.599   0.201   0.399  1.00  0.00     0.046 A 
BRANCH  26  27
ATOM     27  N   UNL     1      -4.973   0.207   0.107  1.00  0.00    -0.306 N 
ATOM     28  C   UNL     1      -6.013   0.374   0.973  1.00  0.00     0.113 A 
ATOM     29  C   UNL     1      -5.532   0.111  -1.144  1.00  0.00     0.204 A 
ATOM     30  C   UNL     1      -7.156   0.271   0.217  1.00  0.00     0.131 A 
ATOM     31  N   UNL     1      -6.845   0.166  -1.111  1.00  0.00    -0.245 NA
ENDBRANCH  26  27
ENDBRANCH  19  21
ENDBRANCH  16  19
ENDBRANCH  10  15
ENDBRANCH   7   9
ENDBRANCH   6   7
ENDBRANCH   5   6
ENDBRANCH   4   5
ENDBRANCH   3   4
ENDBRANCH   2   3
ENDBRANCH   1   2
BRANCH   1  32
ATOM     32  O   UNL     1      -5.266   4.148   0.279  1.00  0.00    -0.377 OA
BRANCH  32  33
ATOM     33  C   UNL     1      -6.496   4.045   0.989  1.00  0.00     0.188 C 
BRANCH  33  34
ATOM     34  C   UNL     1      -6.533   4.688   2.383  1.00  0.00     0.188 C 
BRANCH  34  35
ATOM     35  O   UNL     1      -5.507   5.615   2.714  1.00  0.00    -0.376 OA
BRANCH  35  36
ATOM     36  C   UNL     1      -4.205   5.074   2.941  1.00  0.00     0.202 C 
BRANCH  36  37
ATOM     37  C   UNL     1      -4.016   4.361   4.282  1.00  0.00     0.261 C 
BRANCH  37  38
ATOM     38  O   UNL     1      -4.428   2.981   4.204  1.00  0.00    -0.460 OA
BRANCH  38  39
ATOM     39  C   UNL     1      -5.514   2.640   4.948  1.00  0.00     0.338 C 
ATOM     40  O   UNL     1      -6.183   3.375   5.641  1.00  0.00    -0.246 OA
BRANCH  39  41
ATOM     41  C   UNL     1      -5.870   1.234   4.656  1.00  0.00     0.060 A 
ATOM     42  C   UNL     1      -7.191   0.937   4.294  1.00  0.00     0.016 A 
ATOM     43  C   UNL     1      -4.918   0.214   4.753  1.00  0.00     0.016 A 
ATOM     44  C   UNL     1      -7.563  -0.388   4.031  1.00  0.00     0.010 A 
ATOM     45  C   UNL     1      -5.295  -1.110   4.504  1.00  0.00     0.010 A 
ATOM     46  C   UNL     1      -6.622  -1.423   4.154  1.00  0.00    -0.014 A 
BRANCH  46  47
ATOM     47  C   UNL     1      -7.066  -2.842   4.161  1.00  0.00     0.031 A 
ATOM     48  C   UNL     1      -7.486  -3.421   5.481  1.00  0.00     0.074 A 
ATOM     49  C   UNL     1      -7.079  -3.609   3.054  1.00  0.00     0.049 A 
ATOM     50  N   UNL     1      -7.875  -4.633   5.773  1.00  0.00    -0.248 NA
ATOM     51  C   UNL     1      -7.445  -2.502   6.630  1.00  0.00     0.031 C 
ATOM     52  C   UNL     1      -6.714  -3.163   1.716  1.00  0.00     0.029 A 
ATOM     53  N   UNL     1      -7.409  -4.933   2.878  1.00  0.00    -0.354 N 
ATOM     54  C   UNL     1      -8.135  -4.622   7.137  1.00  0.00     0.074 A 
ATOM     55  C   UNL     1      -7.811  -3.297   7.621  1.00  0.00     0.031 C 
ATOM     56  C   UNL     1      -6.848  -4.183   0.852  1.00  0.00     0.029 A 
ATOM     57  C   UNL     1      -7.259  -5.378   1.583  1.00  0.00     0.049 A 
ATOM     58  H   UNL     1      -7.723  -5.510   3.612  1.00  0.00     0.167 HD
ATOM     59  C   UNL     1      -8.609  -5.623   7.916  1.00  0.00     0.034 A 
ATOM     60  C   UNL     1      -7.413  -6.610   1.053  1.00  0.00     0.034 A 
ATOM     61  C   UNL     1      -8.872  -6.954   7.432  1.00  0.00     0.049 A 
ATOM     62  C   UNL     1      -7.830  -7.742   1.966  1.00  0.00     0.074 A 
ATOM     63  C   UNL     1      -9.345  -8.047   8.134  1.00  0.00     0.029 A 
ATOM     64  N   UNL     1      -8.657  -7.381   6.127  1.00  0.00    -0.354 N 
ATOM     65  N   UNL     1      -8.105  -7.710   3.250  1.00  0.00    -0.248 NA
ATOM     66  C   UNL     1      -7.959  -9.073   1.358  1.00  0.00     0.031 C 
ATOM     67  C   UNL     1      -9.334  -9.153   7.278  1.00  0.00     0.029 A 
ATOM     68  C   UNL     1      -8.948  -8.731   6.015  1.00  0.00     0.049 A 
ATOM     69  H   UNL     1      -8.344  -6.808   5.390  1.00  0.00     0.167 HD
ATOM     70  C   UNL     1      -8.480  -9.008   3.591  1.00  0.00     0.074 A 
ATOM     71  C   UNL     1      -8.404  -9.793   2.377  1.00  0.00     0.031 C 
ATOM     72  C   UNL     1      -8.861  -9.504   4.797  1.00  0.00     0.034 A 
BRANCH  59  73
ATOM     73  C   UNL     1      -8.799  -5.312   9.379  1.00  0.00     0.023 A 
ATOM     74  C   UNL     1      -9.705  -4.325   9.807  1.00  0.00     0.031 A 
ATOM     75  C   UNL     1      -8.010  -5.950  10.351  1.00  0.00     0.131 A 
ATOM     76  C   UNL     1      -9.733  -3.941  11.155  1.00  0.00     0.055 A 
ATOM     77  C   UNL     1      -8.111  -5.629  11.705  1.00  0.00     0.041 A 
ATOM     78  F   UNL     1      -7.105  -6.876   9.997  1.00  0.00    -0.206 F 
ATOM     79  C   UNL     1      -8.963  -4.606  12.112  1.00  0.00     0.022 A 
BRANCH  76  80
ATOM     80  S   UNL     1     -10.652  -2.444  11.607  1.00  0.00     0.124 S 
ATOM     81  O   UNL     1      -9.995  -1.435  10.779  1.00  0.00    -0.237 OA
ATOM     82  O   UNL     1     -12.019  -2.787  11.231  1.00  0.00    -0.237 OA
ATOM     83  O   UNL     1     -10.412  -2.314  13.042  1.00  0.00    -0.744 OA
ENDBRANCH  76  80
ENDBRANCH  59  73
BRANCH  60  84
ATOM     84  C   UNL     1      -7.142  -6.870  -0.395  1.00  0.00     0.023 A 
ATOM     85  C   UNL     1      -8.149  -7.354  -1.248  1.00  0.00     0.031 A 
ATOM     86  C   UNL     1      -5.850  -6.717  -0.931  1.00  0.00     0.131 A 
ATOM     87  C   UNL     1      -7.838  -7.716  -2.570  1.00  0.00     0.055 A 
ATOM     88  C   UNL     1      -5.559  -7.021  -2.263  1.00  0.00     0.041 A 
ATOM     89  F   UNL     1      -4.844  -6.269  -0.163  1.00  0.00    -0.206 F 
ATOM     90  C   UNL     1      -6.553  -7.539  -3.087  1.00  0.00     0.022 A 
BRANCH  87  91
ATOM     91  S   UNL     1      -9.112  -8.530  -3.574  1.00  0.00     0.124 S 
ATOM     92  O   UNL     1      -9.425  -9.701  -2.763  1.00  0.00    -0.237 OA
ATOM     93  O   UNL     1     -10.145  -7.502  -3.645  1.00  0.00    -0.237 OA
ATOM     94  O   UNL     1      -8.426  -8.808  -4.834  1.00  0.00    -0.744 OA
ENDBRANCH  87  91
ENDBRANCH  60  84
BRANCH  72  95
ATOM     95  C   UNL     1      -9.284 -10.953   4.846  1.00  0.00     0.023 A 
ATOM     96  C   UNL     1      -8.382 -12.002   4.599  1.00  0.00     0.031 A 
ATOM     97  C   UNL     1     -10.617 -11.286   5.148  1.00  0.00     0.131 A 
ATOM     98  C   UNL     1      -8.837 -13.330   4.601  1.00  0.00     0.055 A 
ATOM     99  C   UNL     1     -11.048 -12.611   5.219  1.00  0.00     0.041 A 
ATOM    100  F   UNL     1     -11.524 -10.325   5.389  1.00  0.00    -0.206 F 
ATOM    101  C   UNL     1     -10.159 -13.642   4.931  1.00  0.00     0.022 A 
BRANCH  98 102
ATOM    102  S   UNL     1      -7.702 -14.640   4.069  1.00  0.00     0.124 S 
ATOM    103  O   UNL     1      -7.351 -14.207   2.720  1.00  0.00    -0.237 OA
ATOM    104  O   UNL     1      -6.637 -14.555   5.063  1.00  0.00    -0.237 OA
ATOM    105  O   UNL     1      -8.519 -15.851   4.139  1.00  0.00    -0.744 OA
ENDBRANCH  98 102
ENDBRANCH  72  95
ENDBRANCH  46  47
ENDBRANCH  39  41
ENDBRANCH  38  39
ENDBRANCH  37  38
ENDBRANCH  36  37
ENDBRANCH  35  36
ENDBRANCH  34  35
ENDBRANCH  33  34
ENDBRANCH  32  33
ENDBRANCH   1  32
TORSDOF 27
