REMARK SMILES O=C(OCCOCCOCCOCCOC(=O)c1ccnc(Sc2ccc3nnnn3n2)c1)c1ccc(-c2c3nc(c(-c4cc(S(=O)(=O)[O-])ccc4F)c4ccc([nH]4)c(-c4cc(S(=O)(=O)[O-])ccc4F)c4nc(c(-c5cc(S(=O)(=O)[O-])ccc5F)c5ccc2[nH]5)C=C4)C=C3)cc1
REMARK SMILES IDX 8 1 7 2 6 3 5 4 4 5 3 6 2 7 1 8 34 9 35 10 96 11 36 12 95 13
REMARK SMILES IDX 37 14 38 15 39 16 89 17 40 18 94 19 88 20 90 21 41 22 93 23
REMARK SMILES IDX 87 24 86 25 42 27 74 28 54 29 73 30 55 31 58 32 72 33 91 34
REMARK SMILES IDX 56 35 57 36 71 38 92 39 59 40 43 41 44 42 52 43 45 44 51 45
REMARK SMILES IDX 53 46 50 47 46 48 47 49 48 50 49 51 75 52 76 53 84 54 77 55
REMARK SMILES IDX 83 56 85 57 82 58 78 59 79 60 80 61 81 62 60 63 61 64 69 65
REMARK SMILES IDX 62 66 68 67 70 68 67 69 63 70 64 71 65 72 66 73 9 74 10 75
REMARK SMILES IDX 11 76 12 77 13 78 14 79 15 80 16 81 17 82 18 83 19 84 33 85
REMARK SMILES IDX 20 86 22 87 21 88 23 89 24 90 25 91 32 92 26 93 31 94 27 95
REMARK SMILES IDX 30 96 28 97 29 98
REMARK H PARENT 90 26 58 37
REMARK Flexibility Score: inf
ROOT
ATOM      1  C   UNL     1       1.887  -1.175  -2.428  1.00  0.00     0.188 C 
ENDROOT
BRANCH   1   2
ATOM      2  C   UNL     1       2.434  -0.158  -1.431  1.00  0.00     0.188 C 
BRANCH   2   3
ATOM      3  O   UNL     1       3.757  -0.444  -0.973  1.00  0.00    -0.376 OA
BRANCH   3   4
ATOM      4  C   UNL     1       3.907  -1.492  -0.021  1.00  0.00     0.202 C 
BRANCH   4   5
ATOM      5  C   UNL     1       4.055  -0.978   1.405  1.00  0.00     0.261 C 
BRANCH   5   6
ATOM      6  O   UNL     1       2.952  -0.113   1.706  1.00  0.00    -0.460 OA
BRANCH   6   7
ATOM      7  C   UNL     1       2.968   1.179   1.284  1.00  0.00     0.338 C 
ATOM      8  O   UNL     1       1.938   1.787   1.018  1.00  0.00    -0.246 OA
BRANCH   7   9
ATOM      9  C   UNL     1       4.261   1.879   1.320  1.00  0.00     0.060 A 
ATOM     10  C   UNL     1       5.232   1.817   0.306  1.00  0.00     0.016 A 
ATOM     11  C   UNL     1       4.455   2.671   2.437  1.00  0.00     0.016 A 
ATOM     12  C   UNL     1       6.404   2.561   0.403  1.00  0.00     0.010 A 
ATOM     13  C   UNL     1       5.625   3.396   2.533  1.00  0.00     0.010 A 
ATOM     14  C   UNL     1       6.576   3.400   1.497  1.00  0.00    -0.014 A 
BRANCH  14  15
ATOM     15  C   UNL     1       7.641   4.428   1.466  1.00  0.00     0.031 A 
ATOM     16  C   UNL     1       7.118   5.780   1.837  1.00  0.00     0.074 A 
ATOM     17  C   UNL     1       8.944   4.110   1.622  1.00  0.00     0.049 A 
ATOM     18  N   UNL     1       6.844   6.019   3.085  1.00  0.00    -0.248 NA
ATOM     19  C   UNL     1       6.474   6.716   0.916  1.00  0.00     0.031 C 
ATOM     20  C   UNL     1       9.388   2.826   2.185  1.00  0.00     0.029 A 
ATOM     21  N   UNL     1      10.083   4.886   1.599  1.00  0.00    -0.354 N 
ATOM     22  C   UNL     1       5.846   6.966   3.116  1.00  0.00     0.074 A 
ATOM     23  C   UNL     1       5.734   7.463   1.761  1.00  0.00     0.031 C 
ATOM     24  C   UNL     1      10.632   2.983   2.677  1.00  0.00     0.029 A 
ATOM     25  C   UNL     1      11.119   4.321   2.352  1.00  0.00     0.049 A 
ATOM     26  H   UNL     1      10.158   5.738   1.111  1.00  0.00     0.167 HD
ATOM     27  C   UNL     1       5.103   7.178   4.237  1.00  0.00     0.034 A 
ATOM     28  C   UNL     1      11.939   5.049   3.162  1.00  0.00     0.034 A 
ATOM     29  C   UNL     1       5.312   6.235   5.310  1.00  0.00     0.049 A 
ATOM     30  C   UNL     1      10.973   5.440   4.268  1.00  0.00     0.074 A 
ATOM     31  C   UNL     1       4.656   5.146   5.848  1.00  0.00     0.029 A 
ATOM     32  N   UNL     1       6.503   6.282   5.996  1.00  0.00    -0.354 N 
ATOM     33  N   UNL     1      10.497   4.669   5.212  1.00  0.00    -0.248 NA
ATOM     34  C   UNL     1      10.266   6.712   4.119  1.00  0.00     0.031 C 
ATOM     35  C   UNL     1       5.672   4.353   6.481  1.00  0.00     0.029 A 
ATOM     36  C   UNL     1       6.894   4.991   6.272  1.00  0.00     0.049 A 
ATOM     37  H   UNL     1       6.993   7.099   6.247  1.00  0.00     0.167 HD
ATOM     38  C   UNL     1       9.271   5.237   5.583  1.00  0.00     0.074 A 
ATOM     39  C   UNL     1       9.232   6.525   4.925  1.00  0.00     0.031 C 
ATOM     40  C   UNL     1       8.286   4.563   6.254  1.00  0.00     0.034 A 
BRANCH  27  41
ATOM     41  C   UNL     1       4.356   8.431   4.468  1.00  0.00     0.023 A 
ATOM     42  C   UNL     1       3.001   8.648   4.189  1.00  0.00     0.031 A 
ATOM     43  C   UNL     1       5.078   9.424   5.160  1.00  0.00     0.131 A 
ATOM     44  C   UNL     1       2.411   9.851   4.622  1.00  0.00     0.055 A 
ATOM     45  C   UNL     1       4.487  10.601   5.595  1.00  0.00     0.041 A 
ATOM     46  F   UNL     1       6.375   9.227   5.458  1.00  0.00    -0.206 F 
ATOM     47  C   UNL     1       3.143  10.817   5.330  1.00  0.00     0.022 A 
BRANCH  44  48
ATOM     48  S   UNL     1       0.656  10.221   4.332  1.00  0.00     0.124 S 
ATOM     49  O   UNL     1       0.169  10.494   5.683  1.00  0.00    -0.237 OA
ATOM     50  O   UNL     1       0.736  11.384   3.451  1.00  0.00    -0.237 OA
ATOM     51  O   UNL     1       0.139   9.004   3.716  1.00  0.00    -0.744 OA
ENDBRANCH  44  48
ENDBRANCH  27  41
BRANCH  28  52
ATOM     52  C   UNL     1      12.799   6.070   2.463  1.00  0.00     0.023 A 
ATOM     53  C   UNL     1      12.989   7.380   2.930  1.00  0.00     0.031 A 
ATOM     54  C   UNL     1      13.429   5.738   1.243  1.00  0.00     0.131 A 
ATOM     55  C   UNL     1      13.565   8.351   2.095  1.00  0.00     0.055 A 
ATOM     56  C   UNL     1      14.065   6.691   0.443  1.00  0.00     0.041 A 
ATOM     57  F   UNL     1      13.418   4.473   0.790  1.00  0.00    -0.206 F 
ATOM     58  C   UNL     1      14.097   8.017   0.850  1.00  0.00     0.022 A 
BRANCH  55  59
ATOM     59  S   UNL     1      13.547  10.100   2.579  1.00  0.00     0.124 S 
ATOM     60  O   UNL     1      14.866  10.560   2.151  1.00  0.00    -0.237 OA
ATOM     61  O   UNL     1      12.420  10.599   1.798  1.00  0.00    -0.237 OA
ATOM     62  O   UNL     1      13.343  10.048   4.022  1.00  0.00    -0.744 OA
ENDBRANCH  55  59
ENDBRANCH  28  52
BRANCH  40  63
ATOM     63  C   UNL     1       8.681   3.225   6.818  1.00  0.00     0.023 A 
ATOM     64  C   UNL     1       8.052   2.021   6.438  1.00  0.00     0.031 A 
ATOM     65  C   UNL     1       9.680   3.163   7.806  1.00  0.00     0.131 A 
ATOM     66  C   UNL     1       8.406   0.817   7.069  1.00  0.00     0.055 A 
ATOM     67  C   UNL     1      10.065   1.957   8.391  1.00  0.00     0.041 A 
ATOM     68  F   UNL     1      10.277   4.284   8.245  1.00  0.00    -0.206 F 
ATOM     69  C   UNL     1       9.422   0.778   8.030  1.00  0.00     0.022 A 
BRANCH  66  70
ATOM     70  S   UNL     1       7.540  -0.738   6.701  1.00  0.00     0.124 S 
ATOM     71  O   UNL     1       8.637  -1.691   6.542  1.00  0.00    -0.237 OA
ATOM     72  O   UNL     1       6.731  -0.925   7.904  1.00  0.00    -0.237 OA
ATOM     73  O   UNL     1       6.789  -0.457   5.481  1.00  0.00    -0.744 OA
ENDBRANCH  66  70
ENDBRANCH  40  63
ENDBRANCH  14  15
ENDBRANCH   7   9
ENDBRANCH   6   7
ENDBRANCH   5   6
ENDBRANCH   4   5
ENDBRANCH   3   4
ENDBRANCH   2   3
ENDBRANCH   1   2
BRANCH   1  74
ATOM     74  O   UNL     1       2.692  -1.502  -3.549  1.00  0.00    -0.377 OA
BRANCH  74  75
ATOM     75  C   UNL     1       4.075  -1.683  -3.331  1.00  0.00     0.188 C 
BRANCH  75  76
ATOM     76  C   UNL     1       4.995  -0.502  -3.719  1.00  0.00     0.188 C 
BRANCH  76  77
ATOM     77  O   UNL     1       4.485   0.668  -4.339  1.00  0.00    -0.376 OA
BRANCH  77  78
ATOM     78  C   UNL     1       3.364   0.592  -5.202  1.00  0.00     0.202 C 
BRANCH  78  79
ATOM     79  C   UNL     1       3.424  -0.335  -6.431  1.00  0.00     0.261 C 
BRANCH  79  80
ATOM     80  O   UNL     1       3.820  -1.697  -6.177  1.00  0.00    -0.460 OA
BRANCH  80  81
ATOM     81  C   UNL     1       5.057  -2.086  -6.594  1.00  0.00     0.338 C 
ATOM     82  O   UNL     1       5.862  -1.445  -7.224  1.00  0.00    -0.246 OA
BRANCH  81  83
ATOM     83  C   UNL     1       5.345  -3.416  -5.993  1.00  0.00     0.064 A 
ATOM     84  C   UNL     1       4.446  -4.462  -6.179  1.00  0.00     0.036 A 
ATOM     85  C   UNL     1       6.461  -3.568  -5.148  1.00  0.00     0.051 A 
ATOM     86  C   UNL     1       4.692  -5.628  -5.491  1.00  0.00     0.113 A 
ATOM     87  C   UNL     1       6.600  -4.764  -4.460  1.00  0.00     0.103 A 
ATOM     88  N   UNL     1       5.726  -5.787  -4.638  1.00  0.00    -0.249 NA
BRANCH  87  89
ATOM     89  S   UNL     1       7.952  -5.187  -3.401  1.00  0.00    -0.048 SA
BRANCH  89  90
ATOM     90  C   UNL     1       8.300  -3.832  -2.357  1.00  0.00     0.125 A 
ATOM     91  C   UNL     1       7.293  -3.526  -1.297  1.00  0.00     0.042 A 
ATOM     92  N   UNL     1       9.469  -3.289  -2.478  1.00  0.00    -0.140 NA
ATOM     93  C   UNL     1       7.655  -2.644  -0.349  1.00  0.00     0.056 A 
ATOM     94  N   UNL     1       9.734  -2.405  -1.482  1.00  0.00    -0.109 N 
ATOM     95  C   UNL     1       8.930  -2.049  -0.422  1.00  0.00     0.200 A 
ATOM     96  N   UNL     1      10.913  -1.782  -1.372  1.00  0.00    -0.022 NA
ATOM     97  N   UNL     1       9.587  -1.196   0.329  1.00  0.00    -0.107 NA
ATOM     98  N   UNL     1      10.819  -1.046  -0.270  1.00  0.00    -0.022 NA
ENDBRANCH  89  90
ENDBRANCH  87  89
ENDBRANCH  81  83
ENDBRANCH  80  81
ENDBRANCH  79  80
ENDBRANCH  78  79
ENDBRANCH  77  78
ENDBRANCH  76  77
ENDBRANCH  75  76
ENDBRANCH  74  75
ENDBRANCH   1  74
TORSDOF 25
