REMARK SMILES CC(C)(C)[NH2+]Cc1ccn(CC(C)(C)C(=O)OCCOCCOCCOCCOC(=O)c2ccc(-c3c4nc(c(-c5cc(S(=O)(=O)[O-])ccc5F)c5ccc([nH]5)c(-c5cc(S(=O)(=O)[O-])ccc5F)c5nc(c(-c6cc(S(=O)(=O)[O-])ccc6F)c6ccc3[nH]6)C=C5)C=C4)cc2)c1
REMARK SMILES IDX 22 1 21 2 20 3 19 4 18 5 17 6 15 7 16 8 12 9 13 10 14 11
REMARK SMILES IDX 11 12 10 13 7 14 8 15 95 16 9 17 6 18 5 19 2 22 1 23 3 24
REMARK SMILES IDX 4 25 23 26 24 27 25 28 26 29 27 30 28 31 29 32 30 33 31 34
REMARK SMILES IDX 32 35 33 36 94 37 34 38 93 39 35 40 36 41 37 42 87 43 38 44
REMARK SMILES IDX 92 45 86 46 88 47 39 48 91 49 85 50 84 51 40 53 72 54 52 55
REMARK SMILES IDX 71 56 53 57 56 58 70 59 89 60 54 61 55 62 69 64 90 65 57 66
REMARK SMILES IDX 41 67 42 68 50 69 43 70 49 71 51 72 48 73 44 74 45 75 46 76
REMARK SMILES IDX 47 77 73 78 74 79 82 80 75 81 81 82 83 83 80 84 76 85 77 86
REMARK SMILES IDX 78 87 79 88 58 89 59 90 67 91 60 92 66 93 68 94 65 95 61 96
REMARK SMILES IDX 62 97 63 98 64 99
REMARK H PARENT 5 20 5 21 88 52 56 63
REMARK Flexibility Score: inf
ROOT
ATOM      1  C   UNL     1       7.407  -1.957   6.014  1.00  0.00     0.188 C 
ENDROOT
BRANCH   1   2
ATOM      2  C   UNL     1       7.123  -2.192   4.521  1.00  0.00     0.188 C 
BRANCH   2   3
ATOM      3  O   UNL     1       8.272  -2.010   3.699  1.00  0.00    -0.376 OA
BRANCH   3   4
ATOM      4  C   UNL     1       8.335  -0.773   2.998  1.00  0.00     0.202 C 
BRANCH   4   5
ATOM      5  C   UNL     1       8.394   0.501   3.850  1.00  0.00     0.261 C 
BRANCH   5   6
ATOM      6  O   UNL     1       7.317   0.581   4.806  1.00  0.00    -0.463 OA
BRANCH   6   7
ATOM      7  C   UNL     1       6.324   1.471   4.616  1.00  0.00     0.313 C 
ATOM      8  O   UNL     1       6.237   2.187   3.626  1.00  0.00    -0.252 OA
BRANCH   7   9
ATOM      9  C   UNL     1       5.324   1.470   5.795  1.00  0.00     0.080 C 
ATOM     10  C   UNL     1       4.711   2.884   5.889  1.00  0.00     0.025 C 
ATOM     11  C   UNL     1       6.033   1.254   7.161  1.00  0.00     0.025 C 
BRANCH   9  12
ATOM     12  C   UNL     1       4.233   0.369   5.614  1.00  0.00     0.139 C 
BRANCH  12  13
ATOM     13  N   UNL     1       3.671   0.153   4.290  1.00  0.00    -0.353 N 
ATOM     14  C   UNL     1       2.897  -0.874   2.453  1.00  0.00     0.024 A 
ATOM     15  C   UNL     1       3.162   0.489   2.168  1.00  0.00     0.029 A 
ATOM     16  C   UNL     1       3.274  -1.063   3.776  1.00  0.00     0.095 A 
ATOM     17  C   UNL     1       3.433   1.113   3.356  1.00  0.00     0.086 A 
BRANCH  14  18
ATOM     18  C   UNL     1       2.328  -1.855   1.483  1.00  0.00     0.299 C 
BRANCH  18  19
ATOM     19  N   UNL     1       0.865  -1.891   1.557  1.00  0.00    -0.338 N 
ATOM     20  H   UNL     1       0.562  -2.698   1.012  1.00  0.00     0.347 HD
ATOM     21  H   UNL     1       0.681  -1.909   2.561  1.00  0.00     0.347 HD
BRANCH  19  22
ATOM     22  C   UNL     1       0.074  -0.736   1.087  1.00  0.00     0.088 C 
ATOM     23  C   UNL     1       0.571  -0.118  -0.233  1.00  0.00     0.078 C 
ATOM     24  C   UNL     1      -0.087   0.352   2.171  1.00  0.00     0.078 C 
ATOM     25  C   UNL     1      -1.339  -1.297   0.816  1.00  0.00     0.078 C 
ENDBRANCH  19  22
ENDBRANCH  18  19
ENDBRANCH  14  18
ENDBRANCH  12  13
ENDBRANCH   9  12
ENDBRANCH   7   9
ENDBRANCH   6   7
ENDBRANCH   5   6
ENDBRANCH   4   5
ENDBRANCH   3   4
ENDBRANCH   2   3
ENDBRANCH   1   2
BRANCH   1  26
ATOM     26  O   UNL     1       8.634  -1.310   6.303  1.00  0.00    -0.377 OA
BRANCH  26  27
ATOM     27  C   UNL     1       9.832  -2.083   6.290  1.00  0.00     0.188 C 
BRANCH  27  28
ATOM     28  C   UNL     1       9.890  -3.482   5.636  1.00  0.00     0.188 C 
BRANCH  28  29
ATOM     29  O   UNL     1       8.701  -4.257   5.742  1.00  0.00    -0.376 OA
BRANCH  29  30
ATOM     30  C   UNL     1       8.617  -5.248   6.754  1.00  0.00     0.202 C 
BRANCH  30  31
ATOM     31  C   UNL     1       8.534  -4.733   8.198  1.00  0.00     0.261 C 
BRANCH  31  32
ATOM     32  O   UNL     1       9.671  -4.012   8.671  1.00  0.00    -0.460 OA
BRANCH  32  33
ATOM     33  C   UNL     1      10.834  -4.666   8.550  1.00  0.00     0.338 C 
ATOM     34  O   UNL     1      11.053  -5.721   7.962  1.00  0.00    -0.246 OA
BRANCH  33  35
ATOM     35  C   UNL     1      11.883  -3.996   9.286  1.00  0.00     0.060 A 
ATOM     36  C   UNL     1      13.157  -4.014   8.711  1.00  0.00     0.016 A 
ATOM     37  C   UNL     1      11.655  -3.733  10.639  1.00  0.00     0.016 A 
ATOM     38  C   UNL     1      14.247  -3.920   9.543  1.00  0.00     0.010 A 
ATOM     39  C   UNL     1      12.749  -3.678  11.475  1.00  0.00     0.010 A 
ATOM     40  C   UNL     1      14.030  -3.826  10.922  1.00  0.00    -0.014 A 
BRANCH  40  41
ATOM     41  C   UNL     1      15.205  -3.820  11.797  1.00  0.00     0.031 A 
ATOM     42  C   UNL     1      15.736  -2.402  11.990  1.00  0.00     0.074 A 
ATOM     43  C   UNL     1      15.617  -5.046  12.242  1.00  0.00     0.049 A 
ATOM     44  N   UNL     1      16.928  -1.996  12.290  1.00  0.00    -0.248 NA
ATOM     45  C   UNL     1      14.833  -1.248  11.704  1.00  0.00     0.031 C 
ATOM     46  C   UNL     1      14.969  -6.336  11.894  1.00  0.00     0.029 A 
ATOM     47  N   UNL     1      16.641  -5.472  13.060  1.00  0.00    -0.354 N 
ATOM     48  C   UNL     1      16.837  -0.608  12.521  1.00  0.00     0.074 A 
ATOM     49  C   UNL     1      15.593  -0.185  11.964  1.00  0.00     0.031 C 
ATOM     50  C   UNL     1      15.640  -7.379  12.431  1.00  0.00     0.029 A 
ATOM     51  C   UNL     1      16.754  -6.882  13.215  1.00  0.00     0.049 A 
ATOM     52  H   UNL     1      17.253  -4.844  13.507  1.00  0.00     0.167 HD
ATOM     53  C   UNL     1      17.695   0.063  13.341  1.00  0.00     0.034 A 
ATOM     54  C   UNL     1      17.684  -7.603  13.915  1.00  0.00     0.034 A 
ATOM     55  C   UNL     1      18.714  -0.823  13.807  1.00  0.00     0.049 A 
ATOM     56  C   UNL     1      18.458  -6.601  14.664  1.00  0.00     0.074 A 
ATOM     57  C   UNL     1      19.751  -1.472  13.191  1.00  0.00     0.029 A 
ATOM     58  N   UNL     1      18.537  -1.365  15.061  1.00  0.00    -0.354 N 
ATOM     59  N   UNL     1      18.018  -5.951  15.699  1.00  0.00    -0.248 NA
ATOM     60  C   UNL     1      19.802  -6.241  14.196  1.00  0.00     0.031 C 
ATOM     61  C   UNL     1      19.874  -2.675  13.917  1.00  0.00     0.029 A 
ATOM     62  C   UNL     1      19.004  -2.653  15.016  1.00  0.00     0.049 A 
ATOM     63  H   UNL     1      18.147  -0.912  15.844  1.00  0.00     0.167 HD
ATOM     64  C   UNL     1      18.893  -4.898  15.791  1.00  0.00     0.074 A 
ATOM     65  C   UNL     1      20.095  -5.303  15.094  1.00  0.00     0.031 C 
ATOM     66  C   UNL     1      18.403  -3.636  15.899  1.00  0.00     0.034 A 
BRANCH  53  67
ATOM     67  C   UNL     1      17.583   1.402  14.026  1.00  0.00     0.023 A 
ATOM     68  C   UNL     1      18.742   1.828  14.719  1.00  0.00     0.031 A 
ATOM     69  C   UNL     1      16.398   2.091  14.320  1.00  0.00     0.131 A 
ATOM     70  C   UNL     1      18.670   2.753  15.764  1.00  0.00     0.055 A 
ATOM     71  C   UNL     1      16.348   3.089  15.306  1.00  0.00     0.041 A 
ATOM     72  F   UNL     1      15.229   1.779  13.747  1.00  0.00    -0.206 F 
ATOM     73  C   UNL     1      17.475   3.392  16.066  1.00  0.00     0.022 A 
BRANCH  70  74
ATOM     74  S   UNL     1      20.119   2.917  16.845  1.00  0.00     0.124 S 
ATOM     75  O   UNL     1      20.368   1.533  17.232  1.00  0.00    -0.237 OA
ATOM     76  O   UNL     1      21.100   3.515  15.945  1.00  0.00    -0.237 OA
ATOM     77  O   UNL     1      19.643   3.789  17.916  1.00  0.00    -0.744 OA
ENDBRANCH  70  74
ENDBRANCH  53  67
BRANCH  54  78
ATOM     78  C   UNL     1      18.109  -9.049  14.103  1.00  0.00     0.023 A 
ATOM     79  C   UNL     1      17.462 -10.181  13.579  1.00  0.00     0.031 A 
ATOM     80  C   UNL     1      19.309  -9.334  14.829  1.00  0.00     0.131 A 
ATOM     81  C   UNL     1      18.034 -11.475  13.738  1.00  0.00     0.055 A 
ATOM     82  C   UNL     1      19.899 -10.594  14.924  1.00  0.00     0.041 A 
ATOM     83  F   UNL     1      19.989  -8.388  15.489  1.00  0.00    -0.206 F 
ATOM     84  C   UNL     1      19.266 -11.676  14.365  1.00  0.00     0.022 A 
BRANCH  81  85
ATOM     85  S   UNL     1      17.211 -12.970  13.115  1.00  0.00     0.124 S 
ATOM     86  O   UNL     1      16.588 -13.498  14.325  1.00  0.00    -0.237 OA
ATOM     87  O   UNL     1      16.299 -12.455  12.100  1.00  0.00    -0.237 OA
ATOM     88  O   UNL     1      18.328 -13.760  12.597  1.00  0.00    -0.744 OA
ENDBRANCH  81  85
ENDBRANCH  54  78
BRANCH  66  89
ATOM     89  C   UNL     1      17.018  -3.552  16.543  1.00  0.00     0.023 A 
ATOM     90  C   UNL     1      16.788  -4.086  17.827  1.00  0.00     0.031 A 
ATOM     91  C   UNL     1      15.883  -3.065  15.870  1.00  0.00     0.131 A 
ATOM     92  C   UNL     1      15.485  -4.144  18.365  1.00  0.00     0.055 A 
ATOM     93  C   UNL     1      14.590  -3.111  16.404  1.00  0.00     0.041 A 
ATOM     94  F   UNL     1      15.986  -2.532  14.655  1.00  0.00    -0.206 F 
ATOM     95  C   UNL     1      14.383  -3.661  17.658  1.00  0.00     0.022 A 
BRANCH  92  96
ATOM     96  S   UNL     1      15.228  -4.842  20.021  1.00  0.00     0.124 S 
ATOM     97  O   UNL     1      15.477  -6.264  19.813  1.00  0.00    -0.237 OA
ATOM     98  O   UNL     1      16.219  -4.130  20.823  1.00  0.00    -0.237 OA
ATOM     99  O   UNL     1      13.838  -4.500  20.325  1.00  0.00    -0.744 OA
ENDBRANCH  92  96
ENDBRANCH  66  89
ENDBRANCH  40  41
ENDBRANCH  33  35
ENDBRANCH  32  33
ENDBRANCH  31  32
ENDBRANCH  30  31
ENDBRANCH  29  30
ENDBRANCH  28  29
ENDBRANCH  27  28
ENDBRANCH  26  27
ENDBRANCH   1  26
TORSDOF 28
