REMARK SMILES CCOc1cc(N2CCOCC2)ccc1[C@H]([NH3+])C(=O)OCCOCCOCCOCCOC(=O)c1ccc(-c2c3nc(c(-c4cc(S(=O)(=O)[O-])ccc4F)c4ccc([nH]4)c(-c4cc(S(=O)(=O)[O-])ccc4F)c4nc(c(-c5cc(S(=O)(=O)[O-])ccc5F)c5ccc2[nH]5)C=C4)C=C3)cc1
REMARK SMILES IDX 26 1 25 2 24 3 23 4 22 5 21 6 20 7 18 8 19 9 16 10 15 11
REMARK SMILES IDX 4 12 5 13 6 14 14 15 13 16 3 17 2 18 1 19 7 20 8 21 12 22
REMARK SMILES IDX 9 23 11 24 10 25 17 26 27 30 28 31 29 32 30 33 31 34 32 35
REMARK SMILES IDX 33 36 34 37 35 38 36 39 97 40 37 41 96 42 38 43 39 44 40 45
REMARK SMILES IDX 90 46 41 47 95 48 89 49 91 50 42 51 94 52 88 53 87 54 43 56
REMARK SMILES IDX 75 57 55 58 74 59 56 60 59 61 73 62 92 63 57 64 58 65 72 67
REMARK SMILES IDX 93 68 60 69 44 70 45 71 53 72 46 73 52 74 54 75 51 76 47 77
REMARK SMILES IDX 48 78 49 79 50 80 76 81 77 82 85 83 78 84 84 85 86 86 83 87
REMARK SMILES IDX 79 88 80 89 81 90 82 91 61 92 62 93 70 94 63 95 69 96 71 97
REMARK SMILES IDX 68 98 64 99 65 100 66 101 67 102
REMARK H PARENT 17 27 17 28 17 29 91 55 59 66
REMARK Flexibility Score: inf
ROOT
ATOM      1  O   UNL     1       4.697   1.627  -1.468  1.00  0.00    -0.377 OA
ENDROOT
BRANCH   1   2
ATOM      2  C   UNL     1       3.402   2.111  -1.161  1.00  0.00     0.188 C 
BRANCH   2   3
ATOM      3  C   UNL     1       3.245   2.895   0.155  1.00  0.00     0.188 C 
BRANCH   3   4
ATOM      4  O   UNL     1       4.463   3.375   0.712  1.00  0.00    -0.376 OA
BRANCH   4   5
ATOM      5  C   UNL     1       4.970   2.783   1.898  1.00  0.00     0.202 C 
BRANCH   5   6
ATOM      6  C   UNL     1       5.825   1.504   1.719  1.00  0.00     0.261 C 
BRANCH   6   7
ATOM      7  O   UNL     1       5.258   0.433   0.948  1.00  0.00    -0.459 OA
BRANCH   7   8
ATOM      8  C   UNL     1       3.999   0.082   1.309  1.00  0.00     0.369 C 
ATOM      9  O   UNL     1       3.411   0.672   2.207  1.00  0.00    -0.245 OA
BRANCH   8  10
ATOM     10  C   UNL     1       3.336  -0.971   0.377  1.00  0.00     0.326 C 
BRANCH  10  11
ATOM     11  C   UNL     1       2.821  -2.210   1.094  1.00  0.00     0.063 A 
ATOM     12  C   UNL     1       2.540  -2.274   2.465  1.00  0.00     0.131 A 
ATOM     13  C   UNL     1       2.709  -3.488   3.126  1.00  0.00     0.072 A 
ATOM     14  C   UNL     1       3.011  -4.652   2.421  1.00  0.00     0.040 A 
ATOM     15  C   UNL     1       2.753  -3.408   0.371  1.00  0.00     0.016 A 
ATOM     16  C   UNL     1       2.858  -4.618   1.037  1.00  0.00     0.027 A 
BRANCH  12  17
ATOM     17  O   UNL     1       2.432  -1.195   3.284  1.00  0.00    -0.493 OA
BRANCH  17  18
ATOM     18  C   UNL     1       1.177  -0.508   3.374  1.00  0.00     0.226 C 
ATOM     19  C   UNL     1       0.465  -0.105   2.087  1.00  0.00     0.049 C 
ENDBRANCH  17  18
ENDBRANCH  12  17
BRANCH  14  20
ATOM     20  N   UNL     1       3.545  -5.747   3.048  1.00  0.00    -0.367 N 
ATOM     21  C   UNL     1       4.574  -6.574   2.407  1.00  0.00     0.145 C 
ATOM     22  C   UNL     1       3.047  -6.276   4.309  1.00  0.00     0.145 C 
ATOM     23  C   UNL     1       3.995  -7.976   2.192  1.00  0.00     0.181 C 
ATOM     24  C   UNL     1       2.509  -7.688   4.028  1.00  0.00     0.181 C 
ATOM     25  O   UNL     1       3.506  -8.541   3.426  1.00  0.00    -0.378 OA
ENDBRANCH  14  20
ENDBRANCH  10  11
BRANCH  10  26
ATOM     26  N   UNL     1       4.265  -1.321  -0.742  1.00  0.00    -0.342 N 
ATOM     27  H   UNL     1       5.104  -1.760  -0.363  1.00  0.00     0.345 HD
ATOM     28  H   UNL     1       4.524  -0.474  -1.247  1.00  0.00     0.345 HD
ATOM     29  H   UNL     1       3.801  -1.968  -1.379  1.00  0.00     0.345 HD
ENDBRANCH  10  26
ENDBRANCH   8  10
ENDBRANCH   7   8
ENDBRANCH   6   7
ENDBRANCH   5   6
ENDBRANCH   4   5
ENDBRANCH   3   4
ENDBRANCH   2   3
ENDBRANCH   1   2
BRANCH   1  30
ATOM     30  C   UNL     1       5.754   2.577  -1.651  1.00  0.00     0.188 C 
BRANCH  30  31
ATOM     31  C   UNL     1       5.458   4.093  -1.751  1.00  0.00     0.188 C 
BRANCH  31  32
ATOM     32  O   UNL     1       4.195   4.403  -2.315  1.00  0.00    -0.376 OA
BRANCH  32  33
ATOM     33  C   UNL     1       4.162   4.738  -3.692  1.00  0.00     0.202 C 
BRANCH  33  34
ATOM     34  C   UNL     1       4.689   3.689  -4.684  1.00  0.00     0.261 C 
BRANCH  34  35
ATOM     35  O   UNL     1       6.069   3.296  -4.555  1.00  0.00    -0.460 OA
BRANCH  35  36
ATOM     36  C   UNL     1       7.024   4.253  -4.515  1.00  0.00     0.338 C 
ATOM     37  O   UNL     1       6.863   5.450  -4.680  1.00  0.00    -0.246 OA
BRANCH  36  38
ATOM     38  C   UNL     1       8.264   3.628  -3.988  1.00  0.00     0.060 A 
ATOM     39  C   UNL     1       8.873   4.165  -2.843  1.00  0.00     0.016 A 
ATOM     40  C   UNL     1       8.810   2.504  -4.609  1.00  0.00     0.016 A 
ATOM     41  C   UNL     1      10.054   3.609  -2.347  1.00  0.00     0.010 A 
ATOM     42  C   UNL     1      10.009   1.966  -4.131  1.00  0.00     0.010 A 
ATOM     43  C   UNL     1      10.659   2.543  -3.024  1.00  0.00    -0.014 A 
BRANCH  43  44
ATOM     44  C   UNL     1      12.080   2.209  -2.747  1.00  0.00     0.031 A 
ATOM     45  C   UNL     1      13.125   2.826  -3.643  1.00  0.00     0.074 A 
ATOM     46  C   UNL     1      12.444   1.407  -1.729  1.00  0.00     0.049 A 
ATOM     47  N   UNL     1      14.418   2.638  -3.668  1.00  0.00    -0.248 NA
ATOM     48  C   UNL     1      12.638   3.784  -4.651  1.00  0.00     0.031 C 
ATOM     49  C   UNL     1      11.533   0.803  -0.758  1.00  0.00     0.029 A 
ATOM     50  N   UNL     1      13.685   0.953  -1.350  1.00  0.00    -0.354 N 
ATOM     51  C   UNL     1      14.895   3.436  -4.703  1.00  0.00     0.074 A 
ATOM     52  C   UNL     1      13.752   4.095  -5.294  1.00  0.00     0.031 C 
ATOM     53  C   UNL     1      12.246   0.046   0.097  1.00  0.00     0.029 A 
ATOM     54  C   UNL     1      13.656   0.072  -0.293  1.00  0.00     0.049 A 
ATOM     55  H   UNL     1      14.518   1.233  -1.794  1.00  0.00     0.167 HD
ATOM     56  C   UNL     1      16.172   3.601  -5.123  1.00  0.00     0.034 A 
ATOM     57  C   UNL     1      14.649  -0.652   0.268  1.00  0.00     0.034 A 
ATOM     58  C   UNL     1      17.302   2.942  -4.522  1.00  0.00     0.049 A 
ATOM     59  C   UNL     1      16.056  -0.513  -0.281  1.00  0.00     0.074 A 
ATOM     60  C   UNL     1      18.641   3.066  -4.849  1.00  0.00     0.029 A 
ATOM     61  N   UNL     1      17.229   2.027  -3.481  1.00  0.00    -0.354 N 
ATOM     62  N   UNL     1      16.496   0.262  -1.248  1.00  0.00    -0.248 NA
ATOM     63  C   UNL     1      17.099  -1.340   0.341  1.00  0.00     0.031 C 
ATOM     64  C   UNL     1      19.366   2.163  -4.067  1.00  0.00     0.029 A 
ATOM     65  C   UNL     1      18.494   1.546  -3.185  1.00  0.00     0.049 A 
ATOM     66  H   UNL     1      16.400   1.760  -3.021  1.00  0.00     0.167 HD
ATOM     67  C   UNL     1      17.872   0.044  -1.312  1.00  0.00     0.074 A 
ATOM     68  C   UNL     1      18.190  -0.919  -0.281  1.00  0.00     0.031 C 
ATOM     69  C   UNL     1      18.794   0.592  -2.145  1.00  0.00     0.034 A 
BRANCH  56  70
ATOM     70  C   UNL     1      16.410   4.476  -6.328  1.00  0.00     0.023 A 
ATOM     71  C   UNL     1      16.185   5.863  -6.304  1.00  0.00     0.031 A 
ATOM     72  C   UNL     1      16.893   3.905  -7.519  1.00  0.00     0.131 A 
ATOM     73  C   UNL     1      16.407   6.625  -7.462  1.00  0.00     0.055 A 
ATOM     74  C   UNL     1      17.178   4.678  -8.644  1.00  0.00     0.041 A 
ATOM     75  F   UNL     1      17.097   2.580  -7.607  1.00  0.00    -0.206 F 
ATOM     76  C   UNL     1      16.929   6.046  -8.622  1.00  0.00     0.022 A 
BRANCH  73  77
ATOM     77  S   UNL     1      15.912   8.370  -7.466  1.00  0.00     0.124 S 
ATOM     78  O   UNL     1      14.475   8.269  -7.222  1.00  0.00    -0.237 OA
ATOM     79  O   UNL     1      16.707   8.927  -6.378  1.00  0.00    -0.237 OA
ATOM     80  O   UNL     1      16.279   8.827  -8.804  1.00  0.00    -0.744 OA
ENDBRANCH  73  77
ENDBRANCH  56  70
BRANCH  57  81
ATOM     81  C   UNL     1      14.372  -1.627   1.369  1.00  0.00     0.023 A 
ATOM     82  C   UNL     1      15.022  -1.524   2.611  1.00  0.00     0.031 A 
ATOM     83  C   UNL     1      13.546  -2.745   1.155  1.00  0.00     0.131 A 
ATOM     84  C   UNL     1      14.899  -2.557   3.555  1.00  0.00     0.055 A 
ATOM     85  C   UNL     1      13.368  -3.732   2.127  1.00  0.00     0.041 A 
ATOM     86  F   UNL     1      12.908  -2.906  -0.016  1.00  0.00    -0.206 F 
ATOM     87  C   UNL     1      14.065  -3.652   3.328  1.00  0.00     0.022 A 
BRANCH  84  88
ATOM     88  S   UNL     1      15.969  -2.521   5.022  1.00  0.00     0.124 S 
ATOM     89  O   UNL     1      17.293  -2.426   4.419  1.00  0.00    -0.237 OA
ATOM     90  O   UNL     1      15.492  -1.329   5.715  1.00  0.00    -0.237 OA
ATOM     91  O   UNL     1      15.674  -3.788   5.688  1.00  0.00    -0.744 OA
ENDBRANCH  84  88
ENDBRANCH  57  81
BRANCH  69  92
ATOM     92  C   UNL     1      20.241   0.216  -1.927  1.00  0.00     0.023 A 
ATOM     93  C   UNL     1      20.711  -1.093  -2.131  1.00  0.00     0.031 A 
ATOM     94  C   UNL     1      21.165   1.191  -1.507  1.00  0.00     0.131 A 
ATOM     95  C   UNL     1      22.052  -1.404  -1.858  1.00  0.00     0.055 A 
ATOM     96  C   UNL     1      22.512   0.891  -1.305  1.00  0.00     0.041 A 
ATOM     97  F   UNL     1      20.773   2.458  -1.296  1.00  0.00    -0.206 F 
ATOM     98  C   UNL     1      22.960  -0.417  -1.466  1.00  0.00     0.022 A 
BRANCH  95  99
ATOM     99  S   UNL     1      22.576  -3.139  -1.929  1.00  0.00     0.124 S 
ATOM    100  O   UNL     1      21.681  -3.766  -0.963  1.00  0.00    -0.237 OA
ATOM    101  O   UNL     1      22.343  -3.480  -3.329  1.00  0.00    -0.237 OA
ATOM    102  O   UNL     1      23.982  -3.090  -1.531  1.00  0.00    -0.744 OA
ENDBRANCH  95  99
ENDBRANCH  69  92
ENDBRANCH  43  44
ENDBRANCH  36  38
ENDBRANCH  35  36
ENDBRANCH  34  35
ENDBRANCH  33  34
ENDBRANCH  32  33
ENDBRANCH  31  32
ENDBRANCH  30  31
ENDBRANCH   1  30
TORSDOF 28
