REMARK SMILES CCCc1cc(N2CCC(C(=O)OCCOCCOCCOCCOC(=O)c3ccc(-c4c5nc(c(-c6cc(S(=O)(=O)[O-])ccc6F)c6ccc([nH]6)c(-c6cc(S(=O)(=O)[O-])ccc6F)c6nc(c(-c7cc(S(=O)(=O)[O-])ccc7F)c7ccc4[nH]7)C=C6)C=C5)cc3)CC2)nc(CC)n1
REMARK SMILES IDX 19 1 18 2 17 3 16 4 15 5 14 6 13 7 11 8 12 9 10 10 7 11 8 12
REMARK SMILES IDX 92 13 9 14 91 15 6 16 4 17 5 18 97 19 94 20 93 21 3 22 2 23
REMARK SMILES IDX 1 24 95 25 96 26 20 27 21 28 22 29 23 30 24 31 25 32 26 33
REMARK SMILES IDX 27 34 28 35 29 36 90 37 30 38 89 39 31 40 32 41 33 42 83 43
REMARK SMILES IDX 34 44 88 45 82 46 84 47 35 48 87 49 81 50 80 51 36 53 68 54
REMARK SMILES IDX 48 55 67 56 49 57 52 58 66 59 85 60 50 61 51 62 65 64 86 65
REMARK SMILES IDX 53 66 37 67 38 68 46 69 39 70 45 71 47 72 44 73 40 74 41 75
REMARK SMILES IDX 42 76 43 77 69 78 70 79 78 80 71 81 77 82 79 83 76 84 72 85
REMARK SMILES IDX 73 86 74 87 75 88 54 89 55 90 63 91 56 92 62 93 64 94 61 95
REMARK SMILES IDX 57 96 58 97 59 98 60 99
REMARK H PARENT 84 52 52 63
REMARK Flexibility Score: inf
ROOT
ATOM      1  O   UNL     1       1.212 -10.304  -2.240  1.00  0.00    -0.377 OA
ENDROOT
BRANCH   1   2
ATOM      2  C   UNL     1       2.486 -10.335  -2.847  1.00  0.00     0.188 C 
BRANCH   2   3
ATOM      3  C   UNL     1       3.623 -10.878  -1.975  1.00  0.00     0.188 C 
BRANCH   3   4
ATOM      4  O   UNL     1       3.371 -11.648  -0.812  1.00  0.00    -0.376 OA
BRANCH   4   5
ATOM      5  C   UNL     1       2.380 -11.277   0.136  1.00  0.00     0.202 C 
BRANCH   5   6
ATOM      6  C   UNL     1       2.223  -9.844   0.670  1.00  0.00     0.261 C 
BRANCH   6   7
ATOM      7  O   UNL     1       2.098  -8.799  -0.305  1.00  0.00    -0.463 OA
BRANCH   7   8
ATOM      8  C   UNL     1       3.192  -8.032  -0.482  1.00  0.00     0.309 C 
ATOM      9  O   UNL     1       4.257  -8.191   0.108  1.00  0.00    -0.252 OA
BRANCH   8  10
ATOM     10  C   UNL     1       3.017  -6.906  -1.479  1.00  0.00     0.103 C 
ATOM     11  N   UNL     1       2.123  -4.464  -2.631  1.00  0.00    -0.356 N 
ATOM     12  C   UNL     1       1.884  -5.694  -3.360  1.00  0.00     0.119 C 
ATOM     13  C   UNL     1       3.176  -4.420  -1.625  1.00  0.00     0.119 C 
ATOM     14  C   UNL     1       1.797  -6.886  -2.411  1.00  0.00     0.037 C 
ATOM     15  C   UNL     1       3.041  -5.603  -0.680  1.00  0.00     0.037 C 
BRANCH  11  16
ATOM     16  C   UNL     1       1.115  -3.520  -2.578  1.00  0.00     0.132 A 
ATOM     17  C   UNL     1       0.449  -1.262  -2.578  1.00  0.00     0.046 A 
ATOM     18  C   UNL     1       1.461  -2.188  -2.645  1.00  0.00     0.070 A 
ATOM     19  N   UNL     1      -0.841  -1.618  -2.457  1.00  0.00    -0.238 NA
ATOM     20  C   UNL     1      -1.098  -2.939  -2.380  1.00  0.00     0.130 A 
ATOM     21  N   UNL     1      -0.165  -3.907  -2.464  1.00  0.00    -0.216 NA
BRANCH  17  22
ATOM     22  C   UNL     1       0.787   0.202  -2.539  1.00  0.00     0.056 C 
BRANCH  22  23
ATOM     23  C   UNL     1       0.399   0.849  -1.208  1.00  0.00     0.003 C 
ATOM     24  C   UNL     1       1.027   0.171   0.005  1.00  0.00     0.004 C 
ENDBRANCH  22  23
ENDBRANCH  17  22
BRANCH  20  25
ATOM     25  C   UNL     1      -2.522  -3.349  -2.117  1.00  0.00     0.074 C 
ATOM     26  C   UNL     1      -3.012  -2.833  -0.770  1.00  0.00     0.012 C 
ENDBRANCH  20  25
ENDBRANCH  11  16
ENDBRANCH   8  10
ENDBRANCH   7   8
ENDBRANCH   6   7
ENDBRANCH   5   6
ENDBRANCH   4   5
ENDBRANCH   3   4
ENDBRANCH   2   3
ENDBRANCH   1   2
BRANCH   1  27
ATOM     27  C   UNL     1       0.329 -11.396  -2.480  1.00  0.00     0.188 C 
BRANCH  27  28
ATOM     28  C   UNL     1       0.935 -12.780  -2.788  1.00  0.00     0.188 C 
BRANCH  28  29
ATOM     29  O   UNL     1       1.938 -12.766  -3.795  1.00  0.00    -0.376 OA
BRANCH  29  30
ATOM     30  C   UNL     1       1.561 -13.004  -5.144  1.00  0.00     0.202 C 
BRANCH  30  31
ATOM     31  C   UNL     1       0.564 -12.040  -5.812  1.00  0.00     0.261 C 
BRANCH  31  32
ATOM     32  O   UNL     1      -0.743 -11.940  -5.224  1.00  0.00    -0.460 OA
BRANCH  32  33
ATOM     33  C   UNL     1      -1.451 -13.074  -5.046  1.00  0.00     0.338 C 
ATOM     34  O   UNL     1      -1.136 -14.195  -5.412  1.00  0.00    -0.246 OA
BRANCH  33  35
ATOM     35  C   UNL     1      -2.581 -12.769  -4.142  1.00  0.00     0.060 A 
ATOM     36  C   UNL     1      -2.682 -13.461  -2.928  1.00  0.00     0.016 A 
ATOM     37  C   UNL     1      -3.541 -11.816  -4.491  1.00  0.00     0.016 A 
ATOM     38  C   UNL     1      -3.765 -13.234  -2.079  1.00  0.00     0.010 A 
ATOM     39  C   UNL     1      -4.640 -11.608  -3.651  1.00  0.00     0.010 A 
ATOM     40  C   UNL     1      -4.777 -12.343  -2.459  1.00  0.00    -0.014 A 
BRANCH  40  41
ATOM     41  C   UNL     1      -6.066 -12.344  -1.722  1.00  0.00     0.031 A 
ATOM     42  C   UNL     1      -7.210 -13.139  -2.298  1.00  0.00     0.074 A 
ATOM     43  C   UNL     1      -6.214 -11.684  -0.558  1.00  0.00     0.049 A 
ATOM     44  N   UNL     1      -8.443 -13.245  -1.877  1.00  0.00    -0.248 NA
ATOM     45  C   UNL     1      -6.921 -13.918  -3.514  1.00  0.00     0.031 C 
ATOM     46  C   UNL     1      -5.164 -10.930   0.125  1.00  0.00     0.029 A 
ATOM     47  N   UNL     1      -7.314 -11.533   0.252  1.00  0.00    -0.354 N 
ATOM     48  C   UNL     1      -9.081 -14.084  -2.785  1.00  0.00     0.074 A 
ATOM     49  C   UNL     1      -8.104 -14.446  -3.788  1.00  0.00     0.031 C 
ATOM     50  C   UNL     1      -5.676 -10.381   1.241  1.00  0.00     0.029 A 
ATOM     51  C   UNL     1      -7.100 -10.704   1.329  1.00  0.00     0.049 A 
ATOM     52  H   UNL     1      -8.175 -11.978   0.077  1.00  0.00     0.167 HD
ATOM     53  C   UNL     1     -10.366 -14.511  -2.781  1.00  0.00     0.034 A 
ATOM     54  C   UNL     1      -7.963 -10.231   2.254  1.00  0.00     0.034 A 
ATOM     55  C   UNL     1     -11.327 -14.146  -1.770  1.00  0.00     0.049 A 
ATOM     56  C   UNL     1      -9.415 -10.661   2.186  1.00  0.00     0.074 A 
ATOM     57  C   UNL     1     -12.643 -14.556  -1.653  1.00  0.00     0.029 A 
ATOM     58  N   UNL     1     -11.085 -13.277  -0.716  1.00  0.00    -0.354 N 
ATOM     59  N   UNL     1      -9.998 -11.478   1.337  1.00  0.00    -0.248 NA
ATOM     60  C   UNL     1     -10.322 -10.115   3.205  1.00  0.00     0.031 C 
ATOM     61  C   UNL     1     -13.222 -13.863  -0.586  1.00  0.00     0.029 A 
ATOM     62  C   UNL     1     -12.241 -13.101   0.027  1.00  0.00     0.049 A 
ATOM     63  H   UNL     1     -10.219 -12.848  -0.525  1.00  0.00     0.167 HD
ATOM     64  C   UNL     1     -11.327 -11.571   1.750  1.00  0.00     0.074 A 
ATOM     65  C   UNL     1     -11.453 -10.745   2.930  1.00  0.00     0.031 C 
ATOM     66  C   UNL     1     -12.351 -12.278   1.207  1.00  0.00     0.034 A 
BRANCH  53  67
ATOM     67  C   UNL     1     -10.835 -15.364  -3.933  1.00  0.00     0.023 A 
ATOM     68  C   UNL     1     -10.357 -16.668  -4.146  1.00  0.00     0.031 A 
ATOM     69  C   UNL     1     -11.809 -14.864  -4.816  1.00  0.00     0.131 A 
ATOM     70  C   UNL     1     -10.831 -17.414  -5.236  1.00  0.00     0.055 A 
ATOM     71  C   UNL     1     -12.328 -15.636  -5.856  1.00  0.00     0.041 A 
ATOM     72  F   UNL     1     -12.279 -13.614  -4.677  1.00  0.00    -0.206 F 
ATOM     73  C   UNL     1     -11.834 -16.918  -6.074  1.00  0.00     0.022 A 
BRANCH  70  74
ATOM     74  S   UNL     1     -10.052 -19.009  -5.606  1.00  0.00     0.124 S 
ATOM     75  O   UNL     1      -8.667 -18.613  -5.848  1.00  0.00    -0.237 OA
ATOM     76  O   UNL     1     -10.294 -19.771  -4.386  1.00  0.00    -0.237 OA
ATOM     77  O   UNL     1     -10.774 -19.478  -6.787  1.00  0.00    -0.744 OA
ENDBRANCH  70  74
ENDBRANCH  53  67
BRANCH  54  78
ATOM     78  C   UNL     1      -7.524  -9.243   3.288  1.00  0.00     0.023 A 
ATOM     79  C   UNL     1      -7.673  -9.507   4.659  1.00  0.00     0.031 A 
ATOM     80  C   UNL     1      -7.056  -7.970   2.915  1.00  0.00     0.131 A 
ATOM     81  C   UNL     1      -7.438  -8.490   5.599  1.00  0.00     0.055 A 
ATOM     82  C   UNL     1      -6.749  -6.987   3.858  1.00  0.00     0.041 A 
ATOM     83  F   UNL     1      -6.902  -7.653   1.619  1.00  0.00    -0.206 F 
ATOM     84  C   UNL     1      -6.961  -7.237   5.210  1.00  0.00     0.022 A 
BRANCH  81  85
ATOM     85  S   UNL     1      -7.915  -8.780   7.327  1.00  0.00     0.124 S 
ATOM     86  O   UNL     1      -9.319  -9.148   7.186  1.00  0.00    -0.237 OA
ATOM     87  O   UNL     1      -7.006  -9.852   7.715  1.00  0.00    -0.237 OA
ATOM     88  O   UNL     1      -7.668  -7.490   7.968  1.00  0.00    -0.744 OA
ENDBRANCH  81  85
ENDBRANCH  54  78
BRANCH  66  89
ATOM     89  C   UNL     1     -13.681 -12.242   1.925  1.00  0.00     0.023 A 
ATOM     90  C   UNL     1     -14.434 -11.061   2.043  1.00  0.00     0.031 A 
ATOM     91  C   UNL     1     -14.201 -13.416   2.500  1.00  0.00     0.131 A 
ATOM     92  C   UNL     1     -15.634 -11.068   2.772  1.00  0.00     0.055 A 
ATOM     93  C   UNL     1     -15.430 -13.432   3.160  1.00  0.00     0.041 A 
ATOM     94  F   UNL     1     -13.524 -14.574   2.422  1.00  0.00    -0.206 F 
ATOM     95  C   UNL     1     -16.146 -12.250   3.312  1.00  0.00     0.022 A 
BRANCH  92  96
ATOM     96  S   UNL     1     -16.467  -9.489   3.094  1.00  0.00     0.124 S 
ATOM     97  O   UNL     1     -15.427  -8.733   3.784  1.00  0.00    -0.237 OA
ATOM     98  O   UNL     1     -16.801  -9.032   1.749  1.00  0.00    -0.237 OA
ATOM     99  O   UNL     1     -17.611  -9.867   3.921  1.00  0.00    -0.744 OA
ENDBRANCH  92  96
ENDBRANCH  66  89
ENDBRANCH  40  41
ENDBRANCH  33  35
ENDBRANCH  32  33
ENDBRANCH  31  32
ENDBRANCH  30  31
ENDBRANCH  29  30
ENDBRANCH  28  29
ENDBRANCH  27  28
ENDBRANCH   1  27
TORSDOF 27
