REMARK SMILES O=C(OCCOCCOCCOCCOC(=O)c1ccccc1C(=O)Nc1ccc(Cl)cn1)c1ccc(-c2c3nc(c(-c4cc(S(=O)(=O)[O-])ccc4F)c4ccc([nH]4)c(-c4cc(S(=O)(=O)[O-])ccc4F)c4nc(c(-c5cc(S(=O)(=O)[O-])ccc5F)c5ccc2[nH]5)C=C4)C=C3)cc1
REMARK SMILES IDX 8 1 7 2 6 3 5 4 4 5 3 6 2 7 1 8 34 9 35 10 96 11 36 12 95 13
REMARK SMILES IDX 37 14 38 15 39 16 89 17 40 18 94 19 88 20 90 21 41 22 93 23
REMARK SMILES IDX 87 24 86 25 42 27 74 28 54 29 73 30 55 31 58 32 72 33 91 34
REMARK SMILES IDX 56 35 57 36 71 38 92 39 59 40 43 41 44 42 52 43 45 44 51 45
REMARK SMILES IDX 53 46 50 47 46 48 47 49 48 50 49 51 75 52 76 53 84 54 77 55
REMARK SMILES IDX 83 56 85 57 82 58 78 59 79 60 80 61 81 62 60 63 61 64 69 65
REMARK SMILES IDX 62 66 68 67 70 68 67 69 63 70 64 71 65 72 66 73 9 74 10 75
REMARK SMILES IDX 11 76 12 77 13 78 14 79 15 80 16 81 17 82 18 83 19 84 23 85
REMARK SMILES IDX 20 86 22 87 21 88 24 89 25 90 26 91 27 93 28 94 33 95 29 96
REMARK SMILES IDX 32 97 30 98 31 99
REMARK H PARENT 90 26 58 37 26 92
REMARK Flexibility Score: inf
ROOT
ATOM      1  C   UNL     1       1.937  -0.248  -2.267  1.00  0.00     0.188 C 
ENDROOT
BRANCH   1   2
ATOM      2  C   UNL     1       2.054  -0.575  -0.794  1.00  0.00     0.188 C 
BRANCH   2   3
ATOM      3  O   UNL     1       3.373  -0.376  -0.318  1.00  0.00    -0.376 OA
BRANCH   3   4
ATOM      4  C   UNL     1       4.291  -1.469  -0.338  1.00  0.00     0.202 C 
BRANCH   4   5
ATOM      5  C   UNL     1       3.921  -2.514   0.704  1.00  0.00     0.261 C 
BRANCH   5   6
ATOM      6  O   UNL     1       3.784  -1.864   1.979  1.00  0.00    -0.460 OA
BRANCH   6   7
ATOM      7  C   UNL     1       2.626  -1.179   2.182  1.00  0.00     0.338 C 
ATOM      8  O   UNL     1       1.492  -1.565   1.954  1.00  0.00    -0.246 OA
BRANCH   7   9
ATOM      9  C   UNL     1       2.992   0.162   2.690  1.00  0.00     0.060 A 
ATOM     10  C   UNL     1       4.089   0.827   2.126  1.00  0.00     0.016 A 
ATOM     11  C   UNL     1       2.322   0.718   3.776  1.00  0.00     0.016 A 
ATOM     12  C   UNL     1       4.620   1.945   2.705  1.00  0.00     0.010 A 
ATOM     13  C   UNL     1       2.880   1.837   4.401  1.00  0.00     0.010 A 
ATOM     14  C   UNL     1       4.079   2.382   3.906  1.00  0.00    -0.014 A 
BRANCH  14  15
ATOM     15  C   UNL     1       5.045   3.087   4.763  1.00  0.00     0.031 A 
ATOM     16  C   UNL     1       5.741   2.264   5.813  1.00  0.00     0.074 A 
ATOM     17  C   UNL     1       5.489   4.301   4.397  1.00  0.00     0.049 A 
ATOM     18  N   UNL     1       6.598   2.628   6.724  1.00  0.00    -0.248 NA
ATOM     19  C   UNL     1       5.439   0.819   5.825  1.00  0.00     0.031 C 
ATOM     20  C   UNL     1       5.043   5.038   3.209  1.00  0.00     0.029 A 
ATOM     21  N   UNL     1       6.455   5.096   4.940  1.00  0.00    -0.354 N 
ATOM     22  C   UNL     1       6.880   1.476   7.454  1.00  0.00     0.074 A 
ATOM     23  C   UNL     1       6.114   0.399   6.879  1.00  0.00     0.031 C 
ATOM     24  C   UNL     1       5.755   6.171   3.106  1.00  0.00     0.029 A 
ATOM     25  C   UNL     1       6.621   6.284   4.272  1.00  0.00     0.049 A 
ATOM     26  H   UNL     1       6.982   4.843   5.733  1.00  0.00     0.167 HD
ATOM     27  C   UNL     1       7.699   1.354   8.524  1.00  0.00     0.034 A 
ATOM     28  C   UNL     1       7.352   7.359   4.618  1.00  0.00     0.034 A 
ATOM     29  C   UNL     1       8.449   2.472   9.033  1.00  0.00     0.049 A 
ATOM     30  C   UNL     1       8.137   7.255   5.901  1.00  0.00     0.074 A 
ATOM     31  C   UNL     1       9.238   2.553  10.162  1.00  0.00     0.029 A 
ATOM     32  N   UNL     1       8.494   3.723   8.419  1.00  0.00    -0.354 N 
ATOM     33  N   UNL     1       8.281   6.218   6.701  1.00  0.00    -0.248 NA
ATOM     34  C   UNL     1       8.845   8.459   6.338  1.00  0.00     0.031 C 
ATOM     35  C   UNL     1       9.692   3.873  10.273  1.00  0.00     0.029 A 
ATOM     36  C   UNL     1       9.271   4.591   9.161  1.00  0.00     0.049 A 
ATOM     37  H   UNL     1       8.038   3.954   7.578  1.00  0.00     0.167 HD
ATOM     38  C   UNL     1       9.125   6.638   7.722  1.00  0.00     0.074 A 
ATOM     39  C   UNL     1       9.469   8.016   7.420  1.00  0.00     0.031 C 
ATOM     40  C   UNL     1       9.580   5.959   8.809  1.00  0.00     0.034 A 
BRANCH  27  41
ATOM     41  C   UNL     1       7.678   0.034   9.260  1.00  0.00     0.023 A 
ATOM     42  C   UNL     1       8.092  -1.175   8.671  1.00  0.00     0.031 A 
ATOM     43  C   UNL     1       7.107  -0.027  10.545  1.00  0.00     0.131 A 
ATOM     44  C   UNL     1       7.845  -2.394   9.326  1.00  0.00     0.055 A 
ATOM     45  C   UNL     1       6.946  -1.233  11.228  1.00  0.00     0.041 A 
ATOM     46  F   UNL     1       6.654   1.086  11.144  1.00  0.00    -0.206 F 
ATOM     47  C   UNL     1       7.299  -2.429  10.611  1.00  0.00     0.022 A 
BRANCH  44  48
ATOM     48  S   UNL     1       8.077  -3.943   8.407  1.00  0.00     0.124 S 
ATOM     49  O   UNL     1       7.144  -3.770   7.296  1.00  0.00    -0.237 OA
ATOM     50  O   UNL     1       9.494  -3.899   8.063  1.00  0.00    -0.237 OA
ATOM     51  O   UNL     1       7.702  -4.975   9.371  1.00  0.00    -0.744 OA
ENDBRANCH  44  48
ENDBRANCH  27  41
BRANCH  28  52
ATOM     52  C   UNL     1       7.296   8.618   3.820  1.00  0.00     0.023 A 
ATOM     53  C   UNL     1       8.457   9.201   3.292  1.00  0.00     0.031 A 
ATOM     54  C   UNL     1       6.076   9.296   3.621  1.00  0.00     0.131 A 
ATOM     55  C   UNL     1       8.383  10.442   2.637  1.00  0.00     0.055 A 
ATOM     56  C   UNL     1       5.999  10.496   2.913  1.00  0.00     0.041 A 
ATOM     57  F   UNL     1       4.930   8.798   4.112  1.00  0.00    -0.206 F 
ATOM     58  C   UNL     1       7.161  11.086   2.431  1.00  0.00     0.022 A 
BRANCH  55  59
ATOM     59  S   UNL     1       9.928  11.262   2.154  1.00  0.00     0.124 S 
ATOM     60  O   UNL     1      10.636  11.333   3.427  1.00  0.00    -0.237 OA
ATOM     61  O   UNL     1      10.469  10.332   1.169  1.00  0.00    -0.237 OA
ATOM     62  O   UNL     1       9.478  12.544   1.617  1.00  0.00    -0.744 OA
ENDBRANCH  55  59
ENDBRANCH  28  52
BRANCH  40  63
ATOM     63  C   UNL     1      10.548   6.694   9.696  1.00  0.00     0.023 A 
ATOM     64  C   UNL     1      10.165   7.827  10.430  1.00  0.00     0.031 A 
ATOM     65  C   UNL     1      11.880   6.253   9.793  1.00  0.00     0.131 A 
ATOM     66  C   UNL     1      11.124   8.529  11.168  1.00  0.00     0.055 A 
ATOM     67  C   UNL     1      12.809   6.907  10.597  1.00  0.00     0.041 A 
ATOM     68  F   UNL     1      12.295   5.175   9.109  1.00  0.00    -0.206 F 
ATOM     69  C   UNL     1      12.438   8.064  11.277  1.00  0.00     0.022 A 
BRANCH  66  70
ATOM     70  S   UNL     1      10.663  10.132  11.878  1.00  0.00     0.124 S 
ATOM     71  O   UNL     1      10.216  10.866  10.698  1.00  0.00    -0.237 OA
ATOM     72  O   UNL     1       9.622   9.763  12.831  1.00  0.00    -0.237 OA
ATOM     73  O   UNL     1      11.908  10.612  12.473  1.00  0.00    -0.744 OA
ENDBRANCH  66  70
ENDBRANCH  40  63
ENDBRANCH  14  15
ENDBRANCH   7   9
ENDBRANCH   6   7
ENDBRANCH   5   6
ENDBRANCH   4   5
ENDBRANCH   3   4
ENDBRANCH   2   3
ENDBRANCH   1   2
BRANCH   1  74
ATOM     74  O   UNL     1       3.132  -0.617  -2.926  1.00  0.00    -0.377 OA
BRANCH  74  75
ATOM     75  C   UNL     1       4.163   0.374  -2.972  1.00  0.00     0.188 C 
BRANCH  75  76
ATOM     76  C   UNL     1       4.324   1.552  -1.970  1.00  0.00     0.188 C 
BRANCH  76  77
ATOM     77  O   UNL     1       3.131   2.277  -1.693  1.00  0.00    -0.376 OA
BRANCH  77  78
ATOM     78  C   UNL     1       2.921   3.470  -2.437  1.00  0.00     0.202 C 
BRANCH  78  79
ATOM     79  C   UNL     1       2.288   3.248  -3.816  1.00  0.00     0.261 C 
BRANCH  79  80
ATOM     80  O   UNL     1       3.054   2.640  -4.883  1.00  0.00    -0.460 OA
BRANCH  80  81
ATOM     81  C   UNL     1       4.392   2.751  -4.963  1.00  0.00     0.339 C 
ATOM     82  O   UNL     1       5.169   3.233  -4.155  1.00  0.00    -0.246 OA
BRANCH  81  83
ATOM     83  C   UNL     1       4.888   2.041  -6.142  1.00  0.00     0.072 A 
ATOM     84  C   UNL     1       5.804   0.993  -5.903  1.00  0.00     0.016 A 
ATOM     85  C   UNL     1       4.428   2.314  -7.426  1.00  0.00     0.054 A 
ATOM     86  C   UNL     1       6.149   0.108  -6.918  1.00  0.00     0.001 A 
ATOM     87  C   UNL     1       4.777   1.395  -8.439  1.00  0.00     0.015 A 
ATOM     88  C   UNL     1       5.611   0.295  -8.184  1.00  0.00     0.001 A 
BRANCH  85  89
ATOM     89  C   UNL     1       3.477   3.404  -7.786  1.00  0.00     0.257 C 
ATOM     90  O   UNL     1       2.678   3.156  -8.696  1.00  0.00    -0.269 OA
ATOM     91  N   UNL     1       3.343   4.609  -7.140  1.00  0.00    -0.307 N 
ATOM     92  H   UNL     1       2.513   5.072  -7.399  1.00  0.00     0.171 HD
BRANCH  91  93
ATOM     93  C   UNL     1       4.077   5.348  -6.213  1.00  0.00     0.132 A 
ATOM     94  C   UNL     1       5.456   5.289  -6.061  1.00  0.00     0.049 A 
ATOM     95  N   UNL     1       3.284   6.048  -5.370  1.00  0.00    -0.238 NA
ATOM     96  C   UNL     1       6.021   5.827  -4.892  1.00  0.00     0.026 A 
ATOM     97  C   UNL     1       3.851   6.529  -4.234  1.00  0.00     0.134 A 
ATOM     98  C   UNL     1       5.195   6.407  -3.936  1.00  0.00     0.059 A 
ATOM     99  Cl  UNL     1       5.795   6.861  -2.395  1.00  0.00    -0.083 Cl
ENDBRANCH  91  93
ENDBRANCH  85  89
ENDBRANCH  81  83
ENDBRANCH  80  81
ENDBRANCH  79  80
ENDBRANCH  78  79
ENDBRANCH  77  78
ENDBRANCH  76  77
ENDBRANCH  75  76
ENDBRANCH  74  75
ENDBRANCH   1  74
TORSDOF 25
