REMARK SMILES C[C@@H]1CN(C(=O)Nc2ccc(O)c(C(=O)OCCOCCOCCOCCOC(=O)c3ccc(-c4c5nc(c(-c6cc(S(=O)(=O)[O-])ccc6F)c6ccc([nH]6)c(-c6cc(S(=O)(=O)[O-])ccc6F)c6nc(c(-c7cc(S(=O)(=O)[O-])ccc7F)c7ccc4[nH]7)C=C6)C=C5)cc3)c2)C[C@@H]1C
REMARK SMILES IDX 23 1 22 2 21 3 20 4 19 5 18 6 17 7 16 8 14 9 15 10 13 11
REMARK SMILES IDX 8 12 9 13 94 14 10 15 11 16 7 17 5 18 6 19 4 21 1 22 2 23
REMARK SMILES IDX 3 24 96 25 95 26 97 27 12 28 24 30 25 31 26 32 27 33 28 34
REMARK SMILES IDX 29 35 30 36 31 37 32 38 93 39 33 40 92 41 34 42 35 43 36 44
REMARK SMILES IDX 86 45 37 46 91 47 85 48 87 49 38 50 90 51 84 52 83 53 39 55
REMARK SMILES IDX 71 56 51 57 70 58 52 59 55 60 69 61 88 62 53 63 54 64 68 66
REMARK SMILES IDX 89 67 56 68 40 69 41 70 49 71 42 72 48 73 50 74 47 75 43 76
REMARK SMILES IDX 44 77 45 78 46 79 72 80 73 81 81 82 74 83 80 84 82 85 79 86
REMARK SMILES IDX 75 87 76 88 77 89 78 90 57 91 58 92 66 93 59 94 65 95 67 96
REMARK SMILES IDX 64 97 60 98 61 99 62 100 63 101
REMARK H PARENT 7 20 12 29 87 54 55 65
REMARK Flexibility Score: inf
ROOT
ATOM      1  C   UNL     1       6.497   4.129  -7.458  1.00  0.00     0.188 C 
ENDROOT
BRANCH   1   2
ATOM      2  O   UNL     1       5.366   4.039  -6.595  1.00  0.00    -0.377 OA
BRANCH   2   3
ATOM      3  C   UNL     1       5.277   4.886  -5.459  1.00  0.00     0.188 C 
BRANCH   3   4
ATOM      4  C   UNL     1       6.496   5.062  -4.524  1.00  0.00     0.188 C 
BRANCH   4   5
ATOM      5  O   UNL     1       7.723   4.635  -5.077  1.00  0.00    -0.376 OA
BRANCH   5   6
ATOM      6  C   UNL     1       8.362   3.461  -4.612  1.00  0.00     0.202 C 
BRANCH   6   7
ATOM      7  C   UNL     1       7.598   2.144  -4.415  1.00  0.00     0.261 C 
BRANCH   7   8
ATOM      8  O   UNL     1       6.199   2.273  -4.181  1.00  0.00    -0.460 OA
BRANCH   8   9
ATOM      9  C   UNL     1       5.771   2.320  -2.902  1.00  0.00     0.342 C 
ATOM     10  O   UNL     1       6.460   2.312  -1.895  1.00  0.00    -0.246 OA
BRANCH   9  11
ATOM     11  C   UNL     1       4.339   2.689  -2.928  1.00  0.00     0.103 A 
ATOM     12  C   UNL     1       2.610   4.159  -2.117  1.00  0.00     0.044 A 
ATOM     13  C   UNL     1       1.732   3.668  -3.087  1.00  0.00     0.030 A 
ATOM     14  C   UNL     1       3.935   3.733  -2.085  1.00  0.00     0.045 A 
ATOM     15  C   UNL     1       2.133   2.632  -3.932  1.00  0.00     0.049 A 
ATOM     16  C   UNL     1       3.424   2.117  -3.823  1.00  0.00     0.130 A 
BRANCH  12  17
ATOM     17  N   UNL     1       2.167   5.030  -1.123  1.00  0.00    -0.308 N 
ATOM     18  C   UNL     1       1.208   4.847  -0.168  1.00  0.00     0.321 C 
ATOM     19  O   UNL     1       0.880   5.834   0.497  1.00  0.00    -0.248 OA
ATOM     20  H   UNL     1       2.612   5.908  -1.106  1.00  0.00     0.171 HD
BRANCH  18  21
ATOM     21  N   UNL     1       0.737   3.592   0.132  1.00  0.00    -0.324 N 
ATOM     22  C   UNL     1       0.998  -0.114   0.295  1.00  0.00     0.010 C 
ATOM     23  C   UNL     1       0.348   1.258   0.373  1.00  0.00     0.010 C 
ATOM     24  C   UNL     1       1.107   2.300  -0.435  1.00  0.00     0.125 C 
ATOM     25  C   UNL     1       0.221   1.930   1.746  1.00  0.00     0.010 C 
ATOM     26  C   UNL     1      -0.073   3.383   1.328  1.00  0.00     0.125 C 
ATOM     27  C   UNL     1       1.473   1.849   2.628  1.00  0.00     0.010 C 
ENDBRANCH  18  21
ENDBRANCH  12  17
BRANCH  16  28
ATOM     28  O   UNL     1       3.780   1.038  -4.577  1.00  0.00    -0.507 OA
ATOM     29  H   UNL     1       3.165   0.659  -5.173  1.00  0.00     0.293 HD
ENDBRANCH  16  28
ENDBRANCH   9  11
ENDBRANCH   8   9
ENDBRANCH   7   8
ENDBRANCH   6   7
ENDBRANCH   5   6
ENDBRANCH   4   5
ENDBRANCH   3   4
ENDBRANCH   2   3
ENDBRANCH   1   2
BRANCH   1  30
ATOM     30  C   UNL     1       7.261   5.464  -7.638  1.00  0.00     0.188 C 
BRANCH  30  31
ATOM     31  O   UNL     1       6.677   6.577  -6.980  1.00  0.00    -0.376 OA
BRANCH  31  32
ATOM     32  C   UNL     1       6.002   7.529  -7.783  1.00  0.00     0.202 C 
BRANCH  32  33
ATOM     33  C   UNL     1       4.786   7.043  -8.586  1.00  0.00     0.261 C 
BRANCH  33  34
ATOM     34  O   UNL     1       4.998   5.914  -9.447  1.00  0.00    -0.460 OA
BRANCH  34  35
ATOM     35  C   UNL     1       5.840   6.080 -10.495  1.00  0.00     0.338 C 
ATOM     36  O   UNL     1       6.442   7.086 -10.795  1.00  0.00    -0.246 OA
BRANCH  35  37
ATOM     37  C   UNL     1       6.039   4.743 -11.102  1.00  0.00     0.060 A 
ATOM     38  C   UNL     1       7.311   4.155 -11.075  1.00  0.00     0.016 A 
ATOM     39  C   UNL     1       4.957   4.062 -11.662  1.00  0.00     0.016 A 
ATOM     40  C   UNL     1       7.503   2.882 -11.616  1.00  0.00     0.010 A 
ATOM     41  C   UNL     1       5.157   2.800 -12.227  1.00  0.00     0.010 A 
ATOM     42  C   UNL     1       6.434   2.211 -12.224  1.00  0.00    -0.014 A 
BRANCH  42  43
ATOM     43  C   UNL     1       6.670   0.975 -13.010  1.00  0.00     0.031 A 
ATOM     44  C   UNL     1       6.795   1.096 -14.504  1.00  0.00     0.074 A 
ATOM     45  C   UNL     1       6.758  -0.230 -12.417  1.00  0.00     0.049 A 
ATOM     46  N   UNL     1       6.880   0.160 -15.411  1.00  0.00    -0.248 NA
ATOM     47  C   UNL     1       6.819   2.465 -15.044  1.00  0.00     0.031 C 
ATOM     48  C   UNL     1       6.718  -0.467 -10.975  1.00  0.00     0.029 A 
ATOM     49  N   UNL     1       6.885  -1.485 -12.960  1.00  0.00    -0.354 N 
ATOM     50  C   UNL     1       6.952   0.823 -16.632  1.00  0.00     0.074 A 
ATOM     51  C   UNL     1       6.877   2.240 -16.347  1.00  0.00     0.031 C 
ATOM     52  C   UNL     1       6.806  -1.790 -10.749  1.00  0.00     0.029 A 
ATOM     53  C   UNL     1       6.853  -2.497 -12.028  1.00  0.00     0.049 A 
ATOM     54  H   UNL     1       6.989  -1.645 -13.926  1.00  0.00     0.167 HD
ATOM     55  C   UNL     1       7.068   0.294 -17.875  1.00  0.00     0.034 A 
ATOM     56  C   UNL     1       6.825  -3.836 -12.194  1.00  0.00     0.034 A 
ATOM     57  C   UNL     1       7.131  -1.122 -18.140  1.00  0.00     0.049 A 
ATOM     58  C   UNL     1       6.842  -4.401 -13.598  1.00  0.00     0.074 A 
ATOM     59  C   UNL     1       7.271  -1.763 -19.358  1.00  0.00     0.029 A 
ATOM     60  N   UNL     1       7.036  -2.118 -17.177  1.00  0.00    -0.354 N 
ATOM     61  N   UNL     1       6.916  -3.766 -14.746  1.00  0.00    -0.248 NA
ATOM     62  C   UNL     1       6.771  -5.863 -13.726  1.00  0.00     0.031 C 
ATOM     63  C   UNL     1       7.170  -3.140 -19.142  1.00  0.00     0.029 A 
ATOM     64  C   UNL     1       7.066  -3.367 -17.779  1.00  0.00     0.049 A 
ATOM     65  H   UNL     1       6.959  -1.961 -16.208  1.00  0.00     0.167 HD
ATOM     66  C   UNL     1       6.939  -4.756 -15.728  1.00  0.00     0.074 A 
ATOM     67  C   UNL     1       6.886  -6.027 -15.036  1.00  0.00     0.031 C 
ATOM     68  C   UNL     1       7.003  -4.628 -17.079  1.00  0.00     0.034 A 
BRANCH  55  69
ATOM     69  C   UNL     1       7.064   1.250 -19.043  1.00  0.00     0.023 A 
ATOM     70  C   UNL     1       8.084   2.197 -19.237  1.00  0.00     0.031 A 
ATOM     71  C   UNL     1       6.009   1.218 -19.973  1.00  0.00     0.131 A 
ATOM     72  C   UNL     1       7.996   3.112 -20.298  1.00  0.00     0.055 A 
ATOM     73  C   UNL     1       5.970   2.076 -21.072  1.00  0.00     0.041 A 
ATOM     74  F   UNL     1       4.992   0.355 -19.823  1.00  0.00    -0.206 F 
ATOM     75  C   UNL     1       6.961   3.039 -21.233  1.00  0.00     0.022 A 
BRANCH  72  76
ATOM     76  S   UNL     1       9.179   4.485 -20.362  1.00  0.00     0.124 S 
ATOM     77  O   UNL     1       8.947   5.135 -19.074  1.00  0.00    -0.237 OA
ATOM     78  O   UNL     1      10.455   3.796 -20.509  1.00  0.00    -0.237 OA
ATOM     79  O   UNL     1       8.748   5.256 -21.526  1.00  0.00    -0.744 OA
ENDBRANCH  72  76
ENDBRANCH  55  69
BRANCH  56  80
ATOM     80  C   UNL     1       6.724  -4.752 -11.018  1.00  0.00     0.023 A 
ATOM     81  C   UNL     1       7.720  -5.706 -10.757  1.00  0.00     0.031 A 
ATOM     82  C   UNL     1       5.589  -4.744 -10.186  1.00  0.00     0.131 A 
ATOM     83  C   UNL     1       7.539  -6.646  -9.730  1.00  0.00     0.055 A 
ATOM     84  C   UNL     1       5.444  -5.639  -9.125  1.00  0.00     0.041 A 
ATOM     85  F   UNL     1       4.598  -3.862 -10.395  1.00  0.00    -0.206 F 
ATOM     86  C   UNL     1       6.415  -6.609  -8.902  1.00  0.00     0.022 A 
BRANCH  83  87
ATOM     87  S   UNL     1       8.742  -7.994  -9.566  1.00  0.00     0.124 S 
ATOM     88  O   UNL     1       8.667  -8.619 -10.882  1.00  0.00    -0.237 OA
ATOM     89  O   UNL     1       9.972  -7.267  -9.270  1.00  0.00    -0.237 OA
ATOM     90  O   UNL     1       8.210  -8.792  -8.463  1.00  0.00    -0.744 OA
ENDBRANCH  83  87
ENDBRANCH  56  80
BRANCH  68  91
ATOM     91  C   UNL     1       7.072  -5.900 -17.893  1.00  0.00     0.023 A 
ATOM     92  C   UNL     1       6.008  -6.818 -17.933  1.00  0.00     0.031 A 
ATOM     93  C   UNL     1       8.227  -6.199 -18.640  1.00  0.00     0.131 A 
ATOM     94  C   UNL     1       6.143  -8.016 -18.651  1.00  0.00     0.055 A 
ATOM     95  C   UNL     1       8.328  -7.358 -19.411  1.00  0.00     0.041 A 
ATOM     96  F   UNL     1       9.278  -5.363 -18.639  1.00  0.00    -0.206 F 
ATOM     97  C   UNL     1       7.287  -8.282 -19.407  1.00  0.00     0.022 A 
BRANCH  94  98
ATOM     98  S   UNL     1       4.845  -9.274 -18.500  1.00  0.00     0.124 S 
ATOM     99  O   UNL     1       4.826  -9.518 -17.061  1.00  0.00    -0.237 OA
ATOM    100  O   UNL     1       3.679  -8.587 -19.045  1.00  0.00    -0.237 OA
ATOM    101  O   UNL     1       5.345 -10.383 -19.310  1.00  0.00    -0.744 OA
ENDBRANCH  94  98
ENDBRANCH  68  91
ENDBRANCH  42  43
ENDBRANCH  35  37
ENDBRANCH  34  35
ENDBRANCH  33  34
ENDBRANCH  32  33
ENDBRANCH  31  32
ENDBRANCH  30  31
ENDBRANCH   1  30
TORSDOF 26
