REMARK SMILES CCOc1cc(C(=O)OCCOCCOCCOCCOC(=O)c2ccc(-c3c4nc(c(-c5cc(S(=O)(=O)[O-])ccc5F)c5ccc([nH]5)c(-c5cc(S(=O)(=O)[O-])ccc5F)c5nc(c(-c6cc(S(=O)(=O)[O-])ccc6F)c6ccc3[nH]6)C=C5)C=C4)cc2)cc(I)c1OCC
REMARK SMILES IDX 16 1 15 2 14 3 13 4 12 5 11 6 10 7 9 8 7 9 8 10 6 11 4 12
REMARK SMILES IDX 5 13 90 14 88 15 87 16 89 17 3 18 2 19 1 20 91 21 92 22
REMARK SMILES IDX 93 23 17 24 18 25 19 26 20 27 21 28 22 29 23 30 24 31 25 32
REMARK SMILES IDX 86 33 26 34 85 35 27 36 28 37 29 38 79 39 30 40 84 41 78 42
REMARK SMILES IDX 80 43 31 44 83 45 77 46 76 47 32 49 64 50 44 51 63 52 45 53
REMARK SMILES IDX 48 54 62 55 81 56 46 57 47 58 61 60 82 61 49 62 33 63 34 64
REMARK SMILES IDX 42 65 35 66 41 67 43 68 40 69 36 70 37 71 38 72 39 73 65 74
REMARK SMILES IDX 66 75 74 76 67 77 73 78 75 79 72 80 68 81 69 82 70 83 71 84
REMARK SMILES IDX 50 85 51 86 59 87 52 88 58 89 60 90 57 91 53 92 54 93 55 94
REMARK SMILES IDX 56 95
REMARK H PARENT 80 48 48 59
REMARK Flexibility Score: inf
ROOT
ATOM      1  C   UNL     1       7.977  -1.339  -0.740  1.00  0.00     0.188 C 
ENDROOT
BRANCH   1   2
ATOM      2  O   UNL     1       7.050  -0.907   0.259  1.00  0.00    -0.377 OA
BRANCH   2   3
ATOM      3  C   UNL     1       5.662  -0.948  -0.022  1.00  0.00     0.188 C 
BRANCH   3   4
ATOM      4  C   UNL     1       5.171   0.131  -1.006  1.00  0.00     0.188 C 
BRANCH   4   5
ATOM      5  O   UNL     1       6.199   0.691  -1.800  1.00  0.00    -0.376 OA
BRANCH   5   6
ATOM      6  C   UNL     1       6.848   1.894  -1.430  1.00  0.00     0.202 C 
BRANCH   6   7
ATOM      7  C   UNL     1       7.236   2.254   0.015  1.00  0.00     0.261 C 
BRANCH   7   8
ATOM      8  O   UNL     1       6.397   1.770   1.064  1.00  0.00    -0.460 OA
BRANCH   8   9
ATOM      9  C   UNL     1       5.229   2.401   1.284  1.00  0.00     0.338 C 
ATOM     10  O   UNL     1       4.777   3.357   0.676  1.00  0.00    -0.246 OA
BRANCH   9  11
ATOM     11  C   UNL     1       4.472   1.572   2.248  1.00  0.00     0.065 A 
ATOM     12  C   UNL     1       2.458   0.377   2.791  1.00  0.00     0.163 A 
ATOM     13  C   UNL     1       3.143   1.281   1.978  1.00  0.00     0.066 A 
ATOM     14  C   UNL     1       3.049  -0.192   3.953  1.00  0.00     0.174 A 
ATOM     15  C   UNL     1       4.385   0.158   4.238  1.00  0.00     0.060 A 
ATOM     16  C   UNL     1       5.091   1.010   3.364  1.00  0.00     0.034 A 
ATOM     17  I   UNL     1       5.598  -0.408   5.877  1.00  0.00    -0.040 I 
BRANCH  12  18
ATOM     18  O   UNL     1       1.122   0.178   2.515  1.00  0.00    -0.490 OA
BRANCH  18  19
ATOM     19  C   UNL     1       0.877  -0.774   1.470  1.00  0.00     0.226 C 
ATOM     20  C   UNL     1       0.903  -0.141   0.084  1.00  0.00     0.049 C 
ENDBRANCH  18  19
ENDBRANCH  12  18
BRANCH  14  21
ATOM     21  O   UNL     1       2.193  -1.050   4.588  1.00  0.00    -0.489 OA
BRANCH  21  22
ATOM     22  C   UNL     1       2.367  -1.476   5.929  1.00  0.00     0.226 C 
ATOM     23  C   UNL     1       3.035  -2.842   5.966  1.00  0.00     0.049 C 
ENDBRANCH  21  22
ENDBRANCH  14  21
ENDBRANCH   9  11
ENDBRANCH   8   9
ENDBRANCH   7   8
ENDBRANCH   6   7
ENDBRANCH   5   6
ENDBRANCH   4   5
ENDBRANCH   3   4
ENDBRANCH   2   3
ENDBRANCH   1   2
BRANCH   1  24
ATOM     24  C   UNL     1       7.557  -1.681  -2.193  1.00  0.00     0.188 C 
BRANCH  24  25
ATOM     25  O   UNL     1       6.232  -2.177  -2.329  1.00  0.00    -0.376 OA
BRANCH  25  26
ATOM     26  C   UNL     1       6.065  -3.548  -2.638  1.00  0.00     0.202 C 
BRANCH  26  27
ATOM     27  C   UNL     1       6.459  -4.537  -1.533  1.00  0.00     0.261 C 
BRANCH  27  28
ATOM     28  O   UNL     1       7.803  -4.426  -1.045  1.00  0.00    -0.460 OA
BRANCH  28  29
ATOM     29  C   UNL     1       8.798  -4.696  -1.921  1.00  0.00     0.338 C 
ATOM     30  O   UNL     1       8.673  -5.035  -3.084  1.00  0.00    -0.246 OA
BRANCH  29  31
ATOM     31  C   UNL     1      10.074  -4.325  -1.275  1.00  0.00     0.060 A 
ATOM     32  C   UNL     1      10.879  -3.340  -1.862  1.00  0.00     0.016 A 
ATOM     33  C   UNL     1      10.464  -4.941  -0.083  1.00  0.00     0.016 A 
ATOM     34  C   UNL     1      12.095  -2.992  -1.273  1.00  0.00     0.010 A 
ATOM     35  C   UNL     1      11.691  -4.604   0.494  1.00  0.00     0.010 A 
ATOM     36  C   UNL     1      12.528  -3.651  -0.114  1.00  0.00    -0.014 A 
BRANCH  36  37
ATOM     37  C   UNL     1      13.931  -3.499   0.348  1.00  0.00     0.031 A 
ATOM     38  C   UNL     1      14.920  -4.571  -0.028  1.00  0.00     0.074 A 
ATOM     39  C   UNL     1      14.329  -2.430   1.062  1.00  0.00     0.049 A 
ATOM     40  N   UNL     1      16.170  -4.712   0.327  1.00  0.00    -0.248 NA
ATOM     41  C   UNL     1      14.423  -5.628  -0.923  1.00  0.00     0.031 C 
ATOM     42  C   UNL     1      13.480  -1.301   1.438  1.00  0.00     0.029 A 
ATOM     43  N   UNL     1      15.553  -2.126   1.608  1.00  0.00    -0.354 N 
ATOM     44  C   UNL     1      16.613  -5.867  -0.309  1.00  0.00     0.074 A 
ATOM     45  C   UNL     1      15.482  -6.415  -1.026  1.00  0.00     0.031 C 
ATOM     46  C   UNL     1      14.206  -0.435   2.169  1.00  0.00     0.029 A 
ATOM     47  C   UNL     1      15.556  -0.969   2.352  1.00  0.00     0.049 A 
ATOM     48  H   UNL     1      16.353  -2.685   1.479  1.00  0.00     0.167 HD
ATOM     49  C   UNL     1      17.854  -6.413  -0.309  1.00  0.00     0.034 A 
ATOM     50  C   UNL     1      16.525  -0.425   3.119  1.00  0.00     0.034 A 
ATOM     51  C   UNL     1      18.968  -5.870   0.428  1.00  0.00     0.049 A 
ATOM     52  C   UNL     1      17.868  -1.120   3.203  1.00  0.00     0.074 A 
ATOM     53  C   UNL     1      20.260  -6.357   0.519  1.00  0.00     0.029 A 
ATOM     54  N   UNL     1      18.921  -4.721   1.206  1.00  0.00    -0.354 N 
ATOM     55  N   UNL     1      18.272  -2.220   2.606  1.00  0.00    -0.248 NA
ATOM     56  C   UNL     1      18.889  -0.496   4.056  1.00  0.00     0.031 C 
ATOM     57  C   UNL     1      20.973  -5.545   1.406  1.00  0.00     0.029 A 
ATOM     58  C   UNL     1      20.154  -4.498   1.799  1.00  0.00     0.049 A 
ATOM     59  H   UNL     1      18.128  -4.148   1.320  1.00  0.00     0.167 HD
ATOM     60  C   UNL     1      19.605  -2.389   2.981  1.00  0.00     0.074 A 
ATOM     61  C   UNL     1      19.939  -1.273   3.838  1.00  0.00     0.031 C 
ATOM     62  C   UNL     1      20.476  -3.375   2.646  1.00  0.00     0.034 A 
BRANCH  49  63
ATOM     63  C   UNL     1      18.055  -7.678  -1.105  1.00  0.00     0.023 A 
ATOM     64  C   UNL     1      17.918  -7.695  -2.503  1.00  0.00     0.031 A 
ATOM     65  C   UNL     1      18.376  -8.885  -0.459  1.00  0.00     0.131 A 
ATOM     66  C   UNL     1      18.042  -8.904  -3.204  1.00  0.00     0.055 A 
ATOM     67  C   UNL     1      18.578 -10.069  -1.171  1.00  0.00     0.041 A 
ATOM     68  F   UNL     1      18.493  -8.936   0.877  1.00  0.00    -0.206 F 
ATOM     69  C   UNL     1      18.399 -10.085  -2.551  1.00  0.00     0.022 A 
BRANCH  66  70
ATOM     70  S   UNL     1      17.600  -8.934  -4.963  1.00  0.00     0.124 S 
ATOM     71  O   UNL     1      16.202  -8.511  -4.922  1.00  0.00    -0.237 OA
ATOM     72  O   UNL     1      18.539  -7.980  -5.541  1.00  0.00    -0.237 OA
ATOM     73  O   UNL     1      17.811 -10.329  -5.345  1.00  0.00    -0.744 OA
ENDBRANCH  66  70
ENDBRANCH  49  63
BRANCH  50  74
ATOM     74  C   UNL     1      16.267   0.807   3.925  1.00  0.00     0.023 A 
ATOM     75  C   UNL     1      17.045   1.965   3.755  1.00  0.00     0.031 A 
ATOM     76  C   UNL     1      15.309   0.809   4.955  1.00  0.00     0.131 A 
ATOM     77  C   UNL     1      16.906   3.041   4.647  1.00  0.00     0.055 A 
ATOM     78  C   UNL     1      15.122   1.911   5.792  1.00  0.00     0.041 A 
ATOM     79  F   UNL     1      14.542  -0.271   5.173  1.00  0.00    -0.206 F 
ATOM     80  C   UNL     1      15.939   3.029   5.654  1.00  0.00     0.022 A 
BRANCH  77  81
ATOM     81  S   UNL     1      18.109   4.397   4.563  1.00  0.00     0.124 S 
ATOM     82  O   UNL     1      19.371   3.680   4.708  1.00  0.00    -0.237 OA
ATOM     83  O   UNL     1      17.837   4.960   3.244  1.00  0.00    -0.237 OA
ATOM     84  O   UNL     1      17.740   5.249   5.691  1.00  0.00    -0.744 OA
ENDBRANCH  77  81
ENDBRANCH  50  74
BRANCH  62  85
ATOM     85  C   UNL     1      21.895  -3.252   3.152  1.00  0.00     0.023 A 
ATOM     86  C   UNL     1      22.207  -3.317   4.521  1.00  0.00     0.031 A 
ATOM     87  C   UNL     1      22.952  -3.062   2.244  1.00  0.00     0.131 A 
ATOM     88  C   UNL     1      23.532  -3.133   4.946  1.00  0.00     0.055 A 
ATOM     89  C   UNL     1      24.277  -2.951   2.667  1.00  0.00     0.041 A 
ATOM     90  F   UNL     1      22.715  -2.990   0.924  1.00  0.00    -0.206 F 
ATOM     91  C   UNL     1      24.572  -2.971   4.027  1.00  0.00     0.022 A 
BRANCH  88  92
ATOM     92  S   UNL     1      23.868  -3.008   6.724  1.00  0.00     0.124 S 
ATOM     93  O   UNL     1      23.025  -1.883   7.114  1.00  0.00    -0.237 OA
ATOM     94  O   UNL     1      23.450  -4.318   7.214  1.00  0.00    -0.237 OA
ATOM     95  O   UNL     1      25.307  -2.756   6.785  1.00  0.00    -0.744 OA
ENDBRANCH  88  92
ENDBRANCH  62  85
ENDBRANCH  36  37
ENDBRANCH  29  31
ENDBRANCH  28  29
ENDBRANCH  27  28
ENDBRANCH  26  27
ENDBRANCH  25  26
ENDBRANCH  24  25
ENDBRANCH   1  24
TORSDOF 27
