REMARK SMILES C[C@@H](C(=O)OCCOCCOCCOCCOC(=O)c1ccc(-c2c3nc(c(-c4cc(S(=O)(=O)[O-])ccc4F)c4ccc([nH]4)c(-c4cc(S(=O)(=O)[O-])ccc4F)c4nc(c(-c5cc(S(=O)(=O)[O-])ccc5F)c5ccc2[nH]5)C=C4)C=C3)cc1)c1ccc2c3cc(Cl)ccc3n(C(=O)c3ccc(Cl)cc3)c2c1
REMARK SMILES IDX 11 1 10 2 9 3 8 4 7 5 6 6 5 7 3 8 4 9 2 10 1 11 83 12 84 13
REMARK SMILES IDX 105 14 85 15 104 16 86 17 94 18 87 19 93 20 88 21 92 22
REMARK SMILES IDX 89 23 91 24 90 25 95 26 96 27 97 28 98 29 103 30 99 31
REMARK SMILES IDX 102 32 100 33 101 34 12 35 13 36 14 37 15 38 16 39 17 40
REMARK SMILES IDX 18 41 19 42 20 43 21 44 82 45 22 46 81 47 23 48 24 49 25 50
REMARK SMILES IDX 75 51 26 52 80 53 74 54 76 55 27 56 79 57 73 58 72 59 28 61
REMARK SMILES IDX 60 62 40 63 59 64 41 65 44 66 58 67 77 68 42 69 43 70 57 72
REMARK SMILES IDX 78 73 45 74 29 75 30 76 38 77 31 78 37 79 39 80 36 81 32 82
REMARK SMILES IDX 33 83 34 84 35 85 61 86 62 87 70 88 63 89 69 90 71 91 68 92
REMARK SMILES IDX 64 93 65 94 66 95 67 96 46 97 47 98 55 99 48 100 54 101
REMARK SMILES IDX 56 102 53 103 49 104 50 105 51 106 52 107
REMARK H PARENT 76 60 44 71
REMARK Flexibility Score: inf
ROOT
ATOM      1  O   UNL     1       2.179   0.315  -2.743  1.00  0.00    -0.377 OA
ENDROOT
BRANCH   1   2
ATOM      2  C   UNL     1       0.766   0.372  -2.731  1.00  0.00     0.188 C 
BRANCH   2   3
ATOM      3  C   UNL     1       0.139   1.683  -3.229  1.00  0.00     0.188 C 
BRANCH   3   4
ATOM      4  O   UNL     1       0.873   2.415  -4.187  1.00  0.00    -0.376 OA
BRANCH   4   5
ATOM      5  C   UNL     1       1.963   3.243  -3.807  1.00  0.00     0.202 C 
BRANCH   5   6
ATOM      6  C   UNL     1       2.549   3.389  -2.386  1.00  0.00     0.261 C 
BRANCH   6   7
ATOM      7  O   UNL     1       2.005   2.545  -1.368  1.00  0.00    -0.463 OA
BRANCH   7   8
ATOM      8  C   UNL     1       1.385   3.134  -0.321  1.00  0.00     0.313 C 
ATOM      9  O   UNL     1       1.280   4.348  -0.177  1.00  0.00    -0.252 OA
BRANCH   8  10
ATOM     10  C   UNL     1       0.717   2.118   0.624  1.00  0.00     0.126 C 
ATOM     11  C   UNL     1       1.559   0.844   0.810  1.00  0.00     0.025 C 
BRANCH  10  12
ATOM     12  C   UNL     1      -0.782   1.936   0.327  1.00  0.00    -0.032 A 
ATOM     13  C   UNL     1      -1.549   3.067   0.020  1.00  0.00     0.005 A 
ATOM     14  C   UNL     1      -1.444   0.693   0.404  1.00  0.00     0.032 A 
ATOM     15  C   UNL     1      -2.905   2.975  -0.291  1.00  0.00     0.011 A 
ATOM     16  C   UNL     1      -2.849   0.608   0.188  1.00  0.00     0.057 A 
ATOM     17  C   UNL     1      -3.562   1.736  -0.202  1.00  0.00     0.008 A 
ATOM     18  N   UNL     1      -3.765  -0.470   0.289  1.00  0.00    -0.276 N 
ATOM     19  C   UNL     1      -4.920   1.368  -0.354  1.00  0.00     0.009 A 
ATOM     20  C   UNL     1      -5.060   0.060   0.127  1.00  0.00     0.057 A 
ATOM     21  C   UNL     1      -6.053   2.117  -0.741  1.00  0.00     0.031 A 
ATOM     22  C   UNL     1      -6.351  -0.434   0.412  1.00  0.00     0.029 A 
ATOM     23  C   UNL     1      -7.320   1.597  -0.517  1.00  0.00     0.041 A 
ATOM     24  C   UNL     1      -7.469   0.356   0.089  1.00  0.00     0.023 A 
ATOM     25  Cl  UNL     1      -8.703   2.536  -0.928  1.00  0.00    -0.084 Cl
BRANCH  18  26
ATOM     26  C   UNL     1      -3.369  -1.808   0.591  1.00  0.00     0.262 C 
ATOM     27  O   UNL     1      -2.213  -1.944   1.000  1.00  0.00    -0.268 OA
BRANCH  26  28
ATOM     28  C   UNL     1      -4.105  -3.104   0.466  1.00  0.00     0.040 A 
ATOM     29  C   UNL     1      -3.568  -4.194   1.191  1.00  0.00     0.015 A 
ATOM     30  C   UNL     1      -5.154  -3.360  -0.421  1.00  0.00     0.015 A 
ATOM     31  C   UNL     1      -4.052  -5.494   1.036  1.00  0.00     0.021 A 
ATOM     32  C   UNL     1      -5.665  -4.665  -0.553  1.00  0.00     0.021 A 
ATOM     33  C   UNL     1      -5.105  -5.725   0.163  1.00  0.00     0.041 A 
ATOM     34  Cl  UNL     1      -5.688  -7.328  -0.058  1.00  0.00    -0.084 Cl
ENDBRANCH  26  28
ENDBRANCH  18  26
ENDBRANCH  10  12
ENDBRANCH   8  10
ENDBRANCH   7   8
ENDBRANCH   6   7
ENDBRANCH   5   6
ENDBRANCH   4   5
ENDBRANCH   3   4
ENDBRANCH   2   3
ENDBRANCH   1   2
BRANCH   1  35
ATOM     35  C   UNL     1       2.857   0.038  -3.964  1.00  0.00     0.188 C 
BRANCH  35  36
ATOM     36  C   UNL     1       2.109  -0.020  -5.313  1.00  0.00     0.188 C 
BRANCH  36  37
ATOM     37  O   UNL     1       0.787  -0.534  -5.251  1.00  0.00    -0.376 OA
BRANCH  37  38
ATOM     38  C   UNL     1       0.581  -1.901  -5.570  1.00  0.00     0.202 C 
BRANCH  38  39
ATOM     39  C   UNL     1       1.252  -2.950  -4.668  1.00  0.00     0.261 C 
BRANCH  39  40
ATOM     40  O   UNL     1       2.686  -2.910  -4.597  1.00  0.00    -0.460 OA
BRANCH  40  41
ATOM     41  C   UNL     1       3.377  -3.031  -5.750  1.00  0.00     0.338 C 
ATOM     42  O   UNL     1       2.913  -3.230  -6.862  1.00  0.00    -0.246 OA
BRANCH  41  43
ATOM     43  C   UNL     1       4.785  -2.679  -5.473  1.00  0.00     0.060 A 
ATOM     44  C   UNL     1       5.361  -1.596  -6.148  1.00  0.00     0.016 A 
ATOM     45  C   UNL     1       5.531  -3.413  -4.548  1.00  0.00     0.016 A 
ATOM     46  C   UNL     1       6.700  -1.268  -5.929  1.00  0.00     0.010 A 
ATOM     47  C   UNL     1       6.878  -3.097  -4.346  1.00  0.00     0.010 A 
ATOM     48  C   UNL     1       7.478  -2.045  -5.062  1.00  0.00    -0.014 A 
BRANCH  48  49
ATOM     49  C   UNL     1       8.956  -1.897  -5.066  1.00  0.00     0.031 A 
ATOM     50  C   UNL     1       9.765  -2.877  -5.874  1.00  0.00     0.074 A 
ATOM     51  C   UNL     1       9.568  -0.903  -4.397  1.00  0.00     0.049 A 
ATOM     52  N   UNL     1      11.062  -3.000  -5.981  1.00  0.00    -0.248 NA
ATOM     53  C   UNL     1       8.999  -3.854  -6.664  1.00  0.00     0.031 C 
ATOM     54  C   UNL     1       8.892   0.139  -3.628  1.00  0.00     0.029 A 
ATOM     55  N   UNL     1      10.904  -0.616  -4.252  1.00  0.00    -0.354 N 
ATOM     56  C   UNL     1      11.269  -4.069  -6.846  1.00  0.00     0.074 A 
ATOM     57  C   UNL     1       9.964  -4.585  -7.198  1.00  0.00     0.031 C 
ATOM     58  C   UNL     1       9.818   0.946  -3.080  1.00  0.00     0.029 A 
ATOM     59  C   UNL     1      11.152   0.451  -3.420  1.00  0.00     0.049 A 
ATOM     60  H   UNL     1      11.616  -1.126  -4.701  1.00  0.00     0.167 HD
ATOM     61  C   UNL     1      12.441  -4.568  -7.313  1.00  0.00     0.034 A 
ATOM     62  C   UNL     1      12.320   0.948  -2.960  1.00  0.00     0.034 A 
ATOM     63  C   UNL     1      13.734  -4.053  -6.938  1.00  0.00     0.049 A 
ATOM     64  C   UNL     1      13.616   0.308  -3.407  1.00  0.00     0.074 A 
ATOM     65  C   UNL     1      14.984  -4.482  -7.349  1.00  0.00     0.029 A 
ATOM     66  N   UNL     1      13.948  -3.004  -6.053  1.00  0.00    -0.354 N 
ATOM     67  N   UNL     1      13.801  -0.706  -4.223  1.00  0.00    -0.248 NA
ATOM     68  C   UNL     1      14.859   0.883  -2.876  1.00  0.00     0.031 C 
ATOM     69  C   UNL     1      15.950  -3.752  -6.651  1.00  0.00     0.029 A 
ATOM     70  C   UNL     1      15.308  -2.798  -5.877  1.00  0.00     0.049 A 
ATOM     71  H   UNL     1      13.237  -2.483  -5.614  1.00  0.00     0.167 HD
ATOM     72  C   UNL     1      15.182  -0.862  -4.329  1.00  0.00     0.074 A 
ATOM     73  C   UNL     1      15.780   0.168  -3.506  1.00  0.00     0.031 C 
ATOM     74  C   UNL     1      15.893  -1.770  -5.047  1.00  0.00     0.034 A 
BRANCH  61  75
ATOM     75  C   UNL     1      12.368  -5.764  -8.232  1.00  0.00     0.023 A 
ATOM     76  C   UNL     1      11.738  -5.698  -9.488  1.00  0.00     0.031 A 
ATOM     77  C   UNL     1      12.909  -7.000  -7.833  1.00  0.00     0.131 A 
ATOM     78  C   UNL     1      11.600  -6.858 -10.264  1.00  0.00     0.055 A 
ATOM     79  C   UNL     1      12.845  -8.130  -8.650  1.00  0.00     0.041 A 
ATOM     80  F   UNL     1      13.497  -7.133  -6.634  1.00  0.00    -0.206 F 
ATOM     81  C   UNL     1      12.174  -8.068  -9.867  1.00  0.00     0.022 A 
BRANCH  78  82
ATOM     82  S   UNL     1      10.526  -6.800 -11.725  1.00  0.00     0.124 S 
ATOM     83  O   UNL     1       9.254  -6.386 -11.139  1.00  0.00    -0.237 OA
ATOM     84  O   UNL     1      11.193  -5.814 -12.568  1.00  0.00    -0.237 OA
ATOM     85  O   UNL     1      10.555  -8.172 -12.226  1.00  0.00    -0.744 OA
ENDBRANCH  78  82
ENDBRANCH  61  75
BRANCH  62  86
ATOM     86  C   UNL     1      12.331   2.077  -1.982  1.00  0.00     0.023 A 
ATOM     87  C   UNL     1      12.949   3.301  -2.285  1.00  0.00     0.031 A 
ATOM     88  C   UNL     1      11.780   1.920  -0.697  1.00  0.00     0.131 A 
ATOM     89  C   UNL     1      13.045   4.299  -1.302  1.00  0.00     0.055 A 
ATOM     90  C   UNL     1      11.822   2.940   0.256  1.00  0.00     0.041 A 
ATOM     91  F   UNL     1      11.186   0.768  -0.348  1.00  0.00    -0.206 F 
ATOM     92  C   UNL     1      12.471   4.134  -0.040  1.00  0.00     0.022 A 
BRANCH  89  93
ATOM     93  S   UNL     1      14.025   5.783  -1.662  1.00  0.00     0.124 S 
ATOM     94  O   UNL     1      15.330   5.209  -1.967  1.00  0.00    -0.237 OA
ATOM     95  O   UNL     1      13.298   6.360  -2.788  1.00  0.00    -0.237 OA
ATOM     96  O   UNL     1      13.954   6.548  -0.419  1.00  0.00    -0.744 OA
ENDBRANCH  89  93
ENDBRANCH  62  86
BRANCH  74  97
ATOM     97  C   UNL     1      17.401  -1.653  -5.019  1.00  0.00     0.023 A 
ATOM     98  C   UNL     1      18.144  -1.860  -3.844  1.00  0.00     0.031 A 
ATOM     99  C   UNL     1      18.104  -1.327  -6.194  1.00  0.00     0.131 A 
ATOM    100  C   UNL     1      19.537  -1.681  -3.856  1.00  0.00     0.055 A 
ATOM    101  C   UNL     1      19.495  -1.220  -6.216  1.00  0.00     0.041 A 
ATOM    102  F   UNL     1      17.448  -1.113  -7.346  1.00  0.00    -0.206 F 
ATOM    103  C   UNL     1      20.218  -1.383  -5.039  1.00  0.00     0.022 A 
BRANCH 100 104
ATOM    104  S   UNL     1      20.437  -1.738  -2.283  1.00  0.00     0.124 S 
ATOM    105  O   UNL     1      19.769  -0.694  -1.513  1.00  0.00    -0.237 OA
ATOM    106  O   UNL     1      20.201  -3.108  -1.837  1.00  0.00    -0.237 OA
ATOM    107  O   UNL     1      21.816  -1.441  -2.665  1.00  0.00    -0.744 OA
ENDBRANCH 100 104
ENDBRANCH  74  97
ENDBRANCH  48  49
ENDBRANCH  41  43
ENDBRANCH  40  41
ENDBRANCH  39  40
ENDBRANCH  38  39
ENDBRANCH  37  38
ENDBRANCH  36  37
ENDBRANCH  35  36
ENDBRANCH   1  35
TORSDOF 26
