REMARK SMILES COc1ccc(OC)c(C[NH2+][C@@H](C(=O)OCCOCCOCCOCCOC(=O)c2ccc(-c3c4nc(c(-c5cc(S(=O)(=O)[O-])ccc5F)c5ccc([nH]5)c(-c5cc(S(=O)(=O)[O-])ccc5F)c5nc(c(-c6cc(S(=O)(=O)[O-])ccc6F)c6ccc3[nH]6)C=C5)C=C4)cc2)C(C)C)c1
REMARK SMILES IDX 20 1 19 2 18 3 17 4 16 5 15 6 13 7 14 8 12 9 11 10 10 13
REMARK SMILES IDX 9 14 3 15 4 16 96 17 5 18 6 19 2 20 1 21 7 22 8 23 93 24
REMARK SMILES IDX 94 25 95 26 21 27 22 28 23 29 24 30 25 31 26 32 27 33 28 34
REMARK SMILES IDX 29 35 30 36 31 37 92 38 32 39 91 40 33 41 34 42 35 43 85 44
REMARK SMILES IDX 36 45 90 46 84 47 86 48 37 49 89 50 83 51 82 52 38 54 70 55
REMARK SMILES IDX 50 56 69 57 51 58 54 59 68 60 87 61 52 62 53 63 67 65 88 66
REMARK SMILES IDX 55 67 39 68 40 69 48 70 41 71 47 72 49 73 46 74 42 75 43 76
REMARK SMILES IDX 44 77 45 78 71 79 72 80 80 81 73 82 79 83 81 84 78 85 74 86
REMARK SMILES IDX 75 87 76 88 77 89 56 90 57 91 65 92 58 93 64 94 66 95 63 96
REMARK SMILES IDX 59 97 60 98 61 99 62 100
REMARK H PARENT 11 11 11 12 86 53 54 64
REMARK Flexibility Score: inf
ROOT
ATOM      1  C   UNL     1       5.775  -0.982  -3.607  1.00  0.00     0.188 C 
ENDROOT
BRANCH   1   2
ATOM      2  C   UNL     1       7.295  -1.052  -3.822  1.00  0.00     0.188 C 
BRANCH   2   3
ATOM      3  O   UNL     1       8.164  -1.230  -2.715  1.00  0.00    -0.376 OA
BRANCH   3   4
ATOM      4  C   UNL     1       8.234  -0.257  -1.677  1.00  0.00     0.202 C 
BRANCH   4   5
ATOM      5  C   UNL     1       7.939   1.243  -1.878  1.00  0.00     0.261 C 
BRANCH   5   6
ATOM      6  O   UNL     1       6.949   1.541  -2.865  1.00  0.00    -0.459 OA
BRANCH   6   7
ATOM      7  C   UNL     1       7.280   2.377  -3.876  1.00  0.00     0.365 C 
ATOM      8  O   UNL     1       8.341   2.991  -3.938  1.00  0.00    -0.245 OA
BRANCH   7   9
ATOM      9  C   UNL     1       6.220   2.437  -5.008  1.00  0.00     0.296 C 
BRANCH   9  10
ATOM     10  N   UNL     1       4.885   1.918  -4.640  1.00  0.00    -0.330 N 
ATOM     11  H   UNL     1       4.298   1.971  -5.472  1.00  0.00     0.347 HD
ATOM     12  H   UNL     1       5.065   0.979  -4.284  1.00  0.00     0.347 HD
BRANCH  10  13
ATOM     13  C   UNL     1       4.169   2.582  -3.564  1.00  0.00     0.302 C 
BRANCH  13  14
ATOM     14  C   UNL     1       2.709   2.154  -3.560  1.00  0.00     0.052 A 
ATOM     15  C   UNL     1       0.938   0.938  -2.374  1.00  0.00     0.119 A 
ATOM     16  C   UNL     1       0.065   1.145  -3.430  1.00  0.00     0.050 A 
ATOM     17  C   UNL     1       2.253   1.407  -2.448  1.00  0.00     0.059 A 
ATOM     18  C   UNL     1       0.495   1.867  -4.541  1.00  0.00     0.051 A 
ATOM     19  C   UNL     1       1.799   2.387  -4.612  1.00  0.00     0.127 A 
BRANCH  15  20
ATOM     20  O   UNL     1       0.449   0.227  -1.313  1.00  0.00    -0.497 OA
ATOM     21  C   UNL     1       0.728   0.858  -0.064  1.00  0.00     0.278 C 
ENDBRANCH  15  20
BRANCH  19  22
ATOM     22  O   UNL     1       2.062   2.973  -5.823  1.00  0.00    -0.496 OA
ATOM     23  C   UNL     1       2.841   4.159  -5.835  1.00  0.00     0.278 C 
ENDBRANCH  19  22
ENDBRANCH  13  14
ENDBRANCH  10  13
ENDBRANCH   9  10
BRANCH   9  24
ATOM     24  C   UNL     1       6.675   1.635  -6.277  1.00  0.00     0.053 C 
ATOM     25  C   UNL     1       5.833   1.997  -7.512  1.00  0.00     0.014 C 
ATOM     26  C   UNL     1       8.157   1.790  -6.633  1.00  0.00     0.014 C 
ENDBRANCH   9  24
ENDBRANCH   7   9
ENDBRANCH   6   7
ENDBRANCH   5   6
ENDBRANCH   4   5
ENDBRANCH   3   4
ENDBRANCH   2   3
ENDBRANCH   1   2
BRANCH   1  27
ATOM     27  O   UNL     1       5.383  -0.511  -2.336  1.00  0.00    -0.377 OA
BRANCH  27  28
ATOM     28  C   UNL     1       5.145  -1.469  -1.316  1.00  0.00     0.188 C 
BRANCH  28  29
ATOM     29  C   UNL     1       5.785  -2.872  -1.407  1.00  0.00     0.188 C 
BRANCH  29  30
ATOM     30  O   UNL     1       5.738  -3.493  -2.685  1.00  0.00    -0.376 OA
BRANCH  30  31
ATOM     31  C   UNL     1       4.650  -4.357  -2.984  1.00  0.00     0.202 C 
BRANCH  31  32
ATOM     32  C   UNL     1       3.235  -3.753  -3.004  1.00  0.00     0.261 C 
BRANCH  32  33
ATOM     33  O   UNL     1       2.753  -3.223  -1.760  1.00  0.00    -0.460 OA
BRANCH  33  34
ATOM     34  C   UNL     1       2.757  -4.031  -0.682  1.00  0.00     0.338 C 
ATOM     35  O   UNL     1       3.071  -5.213  -0.647  1.00  0.00    -0.246 OA
BRANCH  34  36
ATOM     36  C   UNL     1       2.496  -3.198   0.504  1.00  0.00     0.060 A 
ATOM     37  C   UNL     1       3.496  -3.041   1.472  1.00  0.00     0.016 A 
ATOM     38  C   UNL     1       1.255  -2.585   0.665  1.00  0.00     0.016 A 
ATOM     39  C   UNL     1       3.246  -2.293   2.623  1.00  0.00     0.010 A 
ATOM     40  C   UNL     1       1.001  -1.857   1.830  1.00  0.00     0.010 A 
ATOM     41  C   UNL     1       1.982  -1.728   2.831  1.00  0.00    -0.014 A 
BRANCH  41  42
ATOM     42  C   UNL     1       1.616  -1.202   4.173  1.00  0.00     0.031 A 
ATOM     43  C   UNL     1       0.671  -2.018   5.018  1.00  0.00     0.074 A 
ATOM     44  C   UNL     1       2.132  -0.054   4.654  1.00  0.00     0.049 A 
ATOM     45  N   UNL     1       0.173  -1.761   6.199  1.00  0.00    -0.248 NA
ATOM     46  C   UNL     1       0.210  -3.288   4.435  1.00  0.00     0.031 C 
ATOM     47  C   UNL     1       3.075   0.814   3.949  1.00  0.00     0.029 A 
ATOM     48  N   UNL     1       1.937   0.576   5.860  1.00  0.00    -0.354 N 
ATOM     49  C   UNL     1      -0.671  -2.828   6.491  1.00  0.00     0.074 A 
ATOM     50  C   UNL     1      -0.670  -3.695   5.333  1.00  0.00     0.031 C 
ATOM     51  C   UNL     1       3.387   1.855   4.742  1.00  0.00     0.029 A 
ATOM     52  C   UNL     1       2.641   1.751   5.996  1.00  0.00     0.049 A 
ATOM     53  H   UNL     1       1.347   0.219   6.563  1.00  0.00     0.167 HD
ATOM     54  C   UNL     1      -1.363  -3.082   7.629  1.00  0.00     0.034 A 
ATOM     55  C   UNL     1       2.669   2.642   7.010  1.00  0.00     0.034 A 
ATOM     56  C   UNL     1      -1.345  -2.219   8.782  1.00  0.00     0.049 A 
ATOM     57  C   UNL     1       1.839   2.371   8.246  1.00  0.00     0.074 A 
ATOM     58  C   UNL     1      -1.991  -2.388   9.994  1.00  0.00     0.029 A 
ATOM     59  N   UNL     1      -0.647  -1.021   8.868  1.00  0.00    -0.354 N 
ATOM     60  N   UNL     1       1.057   1.350   8.514  1.00  0.00    -0.248 NA
ATOM     61  C   UNL     1       1.909   3.370   9.322  1.00  0.00     0.031 C 
ATOM     62  C   UNL     1      -1.749  -1.258  10.781  1.00  0.00     0.029 A 
ATOM     63  C   UNL     1      -0.874  -0.426  10.100  1.00  0.00     0.049 A 
ATOM     64  H   UNL     1      -0.076  -0.648   8.158  1.00  0.00     0.167 HD
ATOM     65  C   UNL     1       0.576   1.567   9.805  1.00  0.00     0.074 A 
ATOM     66  C   UNL     1       1.171   2.804  10.264  1.00  0.00     0.031 C 
ATOM     67  C   UNL     1      -0.278   0.812  10.546  1.00  0.00     0.034 A 
BRANCH  54  68
ATOM     68  C   UNL     1      -2.224  -4.323   7.651  1.00  0.00     0.023 A 
ATOM     69  C   UNL     1      -1.674  -5.609   7.507  1.00  0.00     0.031 A 
ATOM     70  C   UNL     1      -3.621  -4.215   7.764  1.00  0.00     0.131 A 
ATOM     71  C   UNL     1      -2.518  -6.723   7.390  1.00  0.00     0.055 A 
ATOM     72  C   UNL     1      -4.450  -5.338   7.743  1.00  0.00     0.041 A 
ATOM     73  F   UNL     1      -4.208  -3.013   7.877  1.00  0.00    -0.206 F 
ATOM     74  C   UNL     1      -3.901  -6.600   7.537  1.00  0.00     0.022 A 
BRANCH  71  75
ATOM     75  S   UNL     1      -1.796  -8.305   6.874  1.00  0.00     0.124 S 
ATOM     76  O   UNL     1      -1.204  -7.951   5.586  1.00  0.00    -0.237 OA
ATOM     77  O   UNL     1      -0.856  -8.589   7.952  1.00  0.00    -0.237 OA
ATOM     78  O   UNL     1      -2.949  -9.199   6.798  1.00  0.00    -0.744 OA
ENDBRANCH  71  75
ENDBRANCH  54  68
BRANCH  55  79
ATOM     79  C   UNL     1       3.485   3.891   6.911  1.00  0.00     0.023 A 
ATOM     80  C   UNL     1       4.525   4.157   7.818  1.00  0.00     0.031 A 
ATOM     81  C   UNL     1       3.183   4.878   5.955  1.00  0.00     0.131 A 
ATOM     82  C   UNL     1       5.184   5.397   7.788  1.00  0.00     0.055 A 
ATOM     83  C   UNL     1       3.882   6.085   5.890  1.00  0.00     0.041 A 
ATOM     84  F   UNL     1       2.196   4.682   5.066  1.00  0.00    -0.206 F 
ATOM     85  C   UNL     1       4.880   6.357   6.820  1.00  0.00     0.022 A 
BRANCH  82  86
ATOM     86  S   UNL     1       6.377   5.783   9.101  1.00  0.00     0.124 S 
ATOM     87  O   UNL     1       5.553   5.655  10.296  1.00  0.00    -0.237 OA
ATOM     88  O   UNL     1       7.388   4.749   8.903  1.00  0.00    -0.237 OA
ATOM     89  O   UNL     1       6.808   7.142   8.780  1.00  0.00    -0.744 OA
ENDBRANCH  82  86
ENDBRANCH  55  79
BRANCH  67  90
ATOM     90  C   UNL     1      -0.570   1.278  11.955  1.00  0.00     0.023 A 
ATOM     91  C   UNL     1      -1.224   2.494  12.217  1.00  0.00     0.031 A 
ATOM     92  C   UNL     1      -0.169   0.497  13.055  1.00  0.00     0.131 A 
ATOM     93  C   UNL     1      -1.389   2.929  13.541  1.00  0.00     0.055 A 
ATOM     94  C   UNL     1      -0.406   0.898  14.370  1.00  0.00     0.041 A 
ATOM     95  F   UNL     1       0.462  -0.674  12.869  1.00  0.00    -0.206 F 
ATOM     96  C   UNL     1      -1.004   2.130  14.619  1.00  0.00     0.022 A 
BRANCH  93  97
ATOM     97  S   UNL     1      -1.998   4.613  13.833  1.00  0.00     0.124 S 
ATOM     98  O   UNL     1      -1.036   5.416  13.085  1.00  0.00    -0.237 OA
ATOM     99  O   UNL     1      -3.347   4.557  13.280  1.00  0.00    -0.237 OA
ATOM    100  O   UNL     1      -1.928   4.756  15.286  1.00  0.00    -0.744 OA
ENDBRANCH  93  97
ENDBRANCH  67  90
ENDBRANCH  41  42
ENDBRANCH  34  36
ENDBRANCH  33  34
ENDBRANCH  32  33
ENDBRANCH  31  32
ENDBRANCH  30  31
ENDBRANCH  29  30
ENDBRANCH  28  29
ENDBRANCH  27  28
ENDBRANCH   1  27
TORSDOF 29
