REMARK SMILES Cc1cc(Cl)ccc1-c1ccc(C(=O)OCCOCCOCCOCCOC(=O)c2ccc(-c3c4nc(c(-c5cc(S(=O)(=O)[O-])ccc5F)c5ccc([nH]5)c(-c5cc(S(=O)(=O)[O-])ccc5F)c5nc(c(-c6cc(S(=O)(=O)[O-])ccc6F)c6ccc3[nH]6)C=C5)C=C4)cc2)c(Cl)c1
REMARK SMILES IDX 22 1 21 2 20 3 19 4 18 5 17 6 16 7 15 8 13 9 14 10 12 11
REMARK SMILES IDX 9 12 10 13 95 14 11 15 93 16 94 17 8 18 1 19 2 20 3 21 4 22
REMARK SMILES IDX 7 23 5 24 6 25 23 26 24 27 25 28 26 29 27 30 28 31 29 32
REMARK SMILES IDX 30 33 31 34 92 35 32 36 91 37 33 38 34 39 35 40 85 41 36 42
REMARK SMILES IDX 90 43 84 44 86 45 37 46 89 47 83 48 82 49 38 51 70 52 50 53
REMARK SMILES IDX 69 54 51 55 54 56 68 57 87 58 52 59 53 60 67 62 88 63 55 64
REMARK SMILES IDX 39 65 40 66 48 67 41 68 47 69 49 70 46 71 42 72 43 73 44 74
REMARK SMILES IDX 45 75 71 76 72 77 80 78 73 79 79 80 81 81 78 82 74 83 75 84
REMARK SMILES IDX 76 85 77 86 56 87 57 88 65 89 58 90 64 91 66 92 63 93 59 94
REMARK SMILES IDX 60 95 61 96 62 97
REMARK H PARENT 86 50 54 61
REMARK Flexibility Score: inf
ROOT
ATOM      1  C   UNL     1      -9.940  -1.300   2.677  1.00  0.00     0.188 C 
ENDROOT
BRANCH   1   2
ATOM      2  O   UNL     1      -8.595  -1.416   2.216  1.00  0.00    -0.377 OA
BRANCH   2   3
ATOM      3  C   UNL     1      -8.190  -0.745   1.038  1.00  0.00     0.188 C 
BRANCH   3   4
ATOM      4  C   UNL     1      -8.866  -1.161  -0.285  1.00  0.00     0.188 C 
BRANCH   4   5
ATOM      5  O   UNL     1     -10.102  -1.828  -0.142  1.00  0.00    -0.376 OA
BRANCH   5   6
ATOM      6  C   UNL     1     -10.190  -3.241  -0.107  1.00  0.00     0.202 C 
BRANCH   6   7
ATOM      7  C   UNL     1      -9.092  -4.171   0.435  1.00  0.00     0.261 C 
BRANCH   7   8
ATOM      8  O   UNL     1      -7.785  -3.616   0.562  1.00  0.00    -0.460 OA
BRANCH   8   9
ATOM      9  C   UNL     1      -6.938  -3.774  -0.473  1.00  0.00     0.339 C 
ATOM     10  O   UNL     1      -7.177  -4.309  -1.542  1.00  0.00    -0.246 OA
BRANCH   9  11
ATOM     11  C   UNL     1      -5.725  -2.968  -0.217  1.00  0.00     0.078 A 
ATOM     12  C   UNL     1      -3.381  -1.426   0.040  1.00  0.00    -0.017 A 
ATOM     13  C   UNL     1      -4.179  -1.314  -1.105  1.00  0.00     0.010 A 
ATOM     14  C   UNL     1      -3.821  -2.259   1.086  1.00  0.00     0.030 A 
ATOM     15  C   UNL     1      -5.337  -2.083  -1.236  1.00  0.00     0.018 A 
ATOM     16  C   UNL     1      -4.979  -3.036   0.961  1.00  0.00     0.056 A 
ATOM     17  Cl  UNL     1      -5.351  -4.112   2.259  1.00  0.00    -0.083 Cl
BRANCH  12  18
ATOM     18  C   UNL     1      -2.023  -0.855   0.069  1.00  0.00    -0.015 A 
ATOM     19  C   UNL     1      -2.761   1.609   0.077  1.00  0.00     0.045 C 
ATOM     20  C   UNL     1      -1.720   0.522   0.063  1.00  0.00    -0.042 A 
ATOM     21  C   UNL     1      -0.368   0.927   0.032  1.00  0.00     0.024 A 
ATOM     22  C   UNL     1       0.664  -0.011   0.013  1.00  0.00     0.041 A 
ATOM     23  C   UNL     1      -0.953  -1.779   0.052  1.00  0.00     0.010 A 
ATOM     24  Cl  UNL     1       2.302   0.511  -0.034  1.00  0.00    -0.084 Cl
ATOM     25  C   UNL     1       0.377  -1.366   0.025  1.00  0.00     0.021 A 
ENDBRANCH  12  18
ENDBRANCH   9  11
ENDBRANCH   8   9
ENDBRANCH   7   8
ENDBRANCH   6   7
ENDBRANCH   5   6
ENDBRANCH   4   5
ENDBRANCH   3   4
ENDBRANCH   2   3
ENDBRANCH   1   2
BRANCH   1  26
ATOM     26  C   UNL     1     -10.970  -0.340   2.033  1.00  0.00     0.188 C 
BRANCH  26  27
ATOM     27  O   UNL     1     -10.411   0.706   1.252  1.00  0.00    -0.376 OA
BRANCH  27  28
ATOM     28  C   UNL     1     -10.443   2.018   1.784  1.00  0.00     0.202 C 
BRANCH  28  29
ATOM     29  C   UNL     1      -9.582   2.270   3.030  1.00  0.00     0.261 C 
BRANCH  29  30
ATOM     30  O   UNL     1      -9.838   1.411   4.151  1.00  0.00    -0.460 OA
BRANCH  30  31
ATOM     31  C   UNL     1     -11.061   1.510   4.716  1.00  0.00     0.338 C 
ATOM     32  O   UNL     1     -11.959   2.267   4.376  1.00  0.00    -0.246 OA
BRANCH  31  33
ATOM     33  C   UNL     1     -11.212   0.409   5.686  1.00  0.00     0.060 A 
ATOM     34  C   UNL     1     -12.273  -0.490   5.523  1.00  0.00     0.016 A 
ATOM     35  C   UNL     1     -10.322   0.271   6.755  1.00  0.00     0.016 A 
ATOM     36  C   UNL     1     -12.486  -1.492   6.468  1.00  0.00     0.010 A 
ATOM     37  C   UNL     1     -10.547  -0.726   7.710  1.00  0.00     0.010 A 
ATOM     38  C   UNL     1     -11.661  -1.577   7.597  1.00  0.00    -0.014 A 
BRANCH  38  39
ATOM     39  C   UNL     1     -12.123  -2.380   8.758  1.00  0.00     0.031 A 
ATOM     40  C   UNL     1     -12.819  -1.660   9.883  1.00  0.00     0.074 A 
ATOM     41  C   UNL     1     -12.009  -3.719   8.779  1.00  0.00     0.049 A 
ATOM     42  N   UNL     1     -13.357  -2.137  10.976  1.00  0.00    -0.248 NA
ATOM     43  C   UNL     1     -12.917  -0.198   9.752  1.00  0.00     0.031 C 
ATOM     44  C   UNL     1     -11.408  -4.532   7.725  1.00  0.00     0.029 A 
ATOM     45  N   UNL     1     -12.415  -4.631   9.721  1.00  0.00    -0.354 N 
ATOM     46  C   UNL     1     -13.862  -1.035  11.660  1.00  0.00     0.074 A 
ATOM     47  C   UNL     1     -13.505   0.136  10.888  1.00  0.00     0.031 C 
ATOM     48  C   UNL     1     -11.503  -5.829   8.070  1.00  0.00     0.029 A 
ATOM     49  C   UNL     1     -12.138  -5.934   9.382  1.00  0.00     0.049 A 
ATOM     50  H   UNL     1     -12.861  -4.376  10.560  1.00  0.00     0.167 HD
ATOM     51  C   UNL     1     -14.577  -1.001  12.812  1.00  0.00     0.034 A 
ATOM     52  C   UNL     1     -12.370  -7.077  10.059  1.00  0.00     0.034 A 
ATOM     53  C   UNL     1     -14.901  -2.175  13.585  1.00  0.00     0.049 A 
ATOM     54  C   UNL     1     -13.064  -7.008  11.400  1.00  0.00     0.074 A 
ATOM     55  C   UNL     1     -15.605  -2.261  14.774  1.00  0.00     0.029 A 
ATOM     56  N   UNL     1     -14.528  -3.473  13.254  1.00  0.00    -0.354 N 
ATOM     57  N   UNL     1     -13.538  -5.962  12.040  1.00  0.00    -0.248 NA
ATOM     58  C   UNL     1     -13.265  -8.282  12.102  1.00  0.00     0.031 C 
ATOM     59  C   UNL     1     -15.583  -3.593  15.202  1.00  0.00     0.029 A 
ATOM     60  C   UNL     1     -14.957  -4.359  14.232  1.00  0.00     0.049 A 
ATOM     61  H   UNL     1     -14.032  -3.727  12.442  1.00  0.00     0.167 HD
ATOM     62  C   UNL     1     -14.138  -6.462  13.195  1.00  0.00     0.074 A 
ATOM     63  C   UNL     1     -13.972  -7.900  13.155  1.00  0.00     0.031 C 
ATOM     64  C   UNL     1     -14.778  -5.794  14.191  1.00  0.00     0.034 A 
BRANCH  51  65
ATOM     65  C   UNL     1     -14.991   0.363  13.321  1.00  0.00     0.023 A 
ATOM     66  C   UNL     1     -15.812   1.218  12.562  1.00  0.00     0.031 A 
ATOM     67  C   UNL     1     -14.496   0.849  14.543  1.00  0.00     0.131 A 
ATOM     68  C   UNL     1     -16.020   2.542  12.978  1.00  0.00     0.055 A 
ATOM     69  C   UNL     1     -14.793   2.134  15.002  1.00  0.00     0.041 A 
ATOM     70  F   UNL     1     -13.686   0.094  15.303  1.00  0.00    -0.206 F 
ATOM     71  C   UNL     1     -15.541   2.997  14.207  1.00  0.00     0.022 A 
BRANCH  68  72
ATOM     72  S   UNL     1     -16.747   3.714  11.798  1.00  0.00     0.124 S 
ATOM     73  O   UNL     1     -15.827   3.603  10.668  1.00  0.00    -0.237 OA
ATOM     74  O   UNL     1     -18.083   3.168  11.592  1.00  0.00    -0.237 OA
ATOM     75  O   UNL     1     -16.696   4.991  12.507  1.00  0.00    -0.744 OA
ENDBRANCH  68  72
ENDBRANCH  51  65
BRANCH  52  76
ATOM     76  C   UNL     1     -11.948  -8.393   9.495  1.00  0.00     0.023 A 
ATOM     77  C   UNL     1     -12.893  -9.386   9.190  1.00  0.00     0.031 A 
ATOM     78  C   UNL     1     -10.588  -8.699   9.310  1.00  0.00     0.131 A 
ATOM     79  C   UNL     1     -12.465 -10.652   8.761  1.00  0.00     0.055 A 
ATOM     80  C   UNL     1     -10.170  -9.941   8.828  1.00  0.00     0.041 A 
ATOM     81  F   UNL     1      -9.642  -7.789   9.592  1.00  0.00    -0.206 F 
ATOM     82  C   UNL     1     -11.111 -10.931   8.563  1.00  0.00     0.022 A 
BRANCH  79  83
ATOM     83  S   UNL     1     -13.702 -11.962   8.549  1.00  0.00     0.124 S 
ATOM     84  O   UNL     1     -14.270 -12.052   9.889  1.00  0.00    -0.237 OA
ATOM     85  O   UNL     1     -14.569 -11.396   7.520  1.00  0.00    -0.237 OA
ATOM     86  O   UNL     1     -12.908 -13.114   8.127  1.00  0.00    -0.744 OA
ENDBRANCH  79  83
ENDBRANCH  52  76
BRANCH  64  87
ATOM     87  C   UNL     1     -15.405  -6.628  15.288  1.00  0.00     0.023 A 
ATOM     88  C   UNL     1     -14.641  -7.448  16.136  1.00  0.00     0.031 A 
ATOM     89  C   UNL     1     -16.803  -6.630  15.459  1.00  0.00     0.131 A 
ATOM     90  C   UNL     1     -15.280  -8.298  17.052  1.00  0.00     0.055 A 
ATOM     91  C   UNL     1     -17.427  -7.416  16.429  1.00  0.00     0.041 A 
ATOM     92  F   UNL     1     -17.590  -5.871  14.679  1.00  0.00    -0.206 F 
ATOM     93  C   UNL     1     -16.666  -8.273  17.219  1.00  0.00     0.022 A 
BRANCH  90  94
ATOM     94  S   UNL     1     -14.287  -9.545  17.921  1.00  0.00     0.124 S 
ATOM     95  O   UNL     1     -13.647 -10.247  16.813  1.00  0.00    -0.237 OA
ATOM     96  O   UNL     1     -13.410  -8.723  18.748  1.00  0.00    -0.237 OA
ATOM     97  O   UNL     1     -15.282 -10.324  18.656  1.00  0.00    -0.744 OA
ENDBRANCH  90  94
ENDBRANCH  64  87
ENDBRANCH  38  39
ENDBRANCH  31  33
ENDBRANCH  30  31
ENDBRANCH  29  30
ENDBRANCH  28  29
ENDBRANCH  27  28
ENDBRANCH  26  27
ENDBRANCH   1  26
TORSDOF 24
