REMARK SMILES C[C@@H](C(=O)OCCOCCOCCOCCOC(=O)c1ccc(-c2c3nc(c(-c4cc(S(=O)(=O)[O-])ccc4F)c4ccc([nH]4)c(-c4cc(S(=O)(=O)[O-])ccc4F)c4nc(c(-c5cc(S(=O)(=O)[O-])ccc5F)c5ccc2[nH]5)C=C4)C=C3)cc1)c1ccc(C[C@@H]2CCC[C@@H]2O)cc1F
REMARK SMILES IDX 10 1 9 2 8 3 7 4 6 5 5 6 3 7 4 8 2 9 1 10 83 11 84 12 95 13
REMARK SMILES IDX 85 14 94 15 96 16 86 17 87 18 88 19 89 20 92 21 90 22 91 23
REMARK SMILES IDX 93 24 11 26 12 27 13 28 14 29 15 30 16 31 17 32 18 33 19 34
REMARK SMILES IDX 20 35 21 36 82 37 22 38 81 39 23 40 24 41 25 42 75 43 26 44
REMARK SMILES IDX 80 45 74 46 76 47 27 48 79 49 73 50 72 51 28 53 60 54 40 55
REMARK SMILES IDX 59 56 41 57 44 58 58 59 77 60 42 61 43 62 57 64 78 65 45 66
REMARK SMILES IDX 29 67 30 68 38 69 31 70 37 71 39 72 36 73 32 74 33 75 34 76
REMARK SMILES IDX 35 77 61 78 62 79 70 80 63 81 69 82 71 83 68 84 64 85 65 86
REMARK SMILES IDX 66 87 67 88 46 89 47 90 55 91 48 92 54 93 56 94 53 95 49 96
REMARK SMILES IDX 50 97 51 98 52 99
REMARK H PARENT 93 25 76 52 44 63
REMARK Flexibility Score: inf
ROOT
ATOM      1  C   UNL     1      -8.343   4.242   5.016  1.00  0.00     0.188 C 
ENDROOT
BRANCH   1   2
ATOM      2  C   UNL     1      -9.072   4.524   3.695  1.00  0.00     0.188 C 
BRANCH   2   3
ATOM      3  O   UNL     1      -9.849   5.702   3.651  1.00  0.00    -0.376 OA
BRANCH   3   4
ATOM      4  C   UNL     1     -11.154   5.739   4.213  1.00  0.00     0.202 C 
BRANCH   4   5
ATOM      5  C   UNL     1     -11.790   4.646   5.101  1.00  0.00     0.261 C 
BRANCH   5   6
ATOM      6  O   UNL     1     -11.030   3.447   5.272  1.00  0.00    -0.463 OA
BRANCH   6   7
ATOM      7  C   UNL     1     -11.577   2.260   4.921  1.00  0.00     0.313 C 
ATOM      8  O   UNL     1     -12.698   2.120   4.446  1.00  0.00    -0.252 OA
BRANCH   7   9
ATOM      9  C   UNL     1     -10.608   1.097   5.155  1.00  0.00     0.129 C 
ATOM     10  C   UNL     1      -9.804   1.258   6.466  1.00  0.00     0.025 C 
BRANCH   9  11
ATOM     11  C   UNL     1      -9.741   0.692   3.958  1.00  0.00     0.002 A 
ATOM     12  C   UNL     1      -8.764  -0.307   4.113  1.00  0.00     0.008 A 
ATOM     13  C   UNL     1      -9.903   1.207   2.667  1.00  0.00     0.127 A 
ATOM     14  C   UNL     1      -7.978  -0.740   3.035  1.00  0.00     0.004 A 
ATOM     15  C   UNL     1      -9.087   0.818   1.599  1.00  0.00     0.043 A 
ATOM     16  F   UNL     1     -10.857   2.107   2.398  1.00  0.00    -0.207 F 
ATOM     17  C   UNL     1      -8.109  -0.167   1.767  1.00  0.00    -0.045 A 
BRANCH  17  18
ATOM     18  C   UNL     1      -7.312  -0.655   0.579  1.00  0.00     0.041 C 
BRANCH  18  19
ATOM     19  C   UNL     1      -5.795  -0.379   0.491  1.00  0.00     0.022 C 
ATOM     20  C   UNL     1      -4.942  -1.021   1.587  1.00  0.00     0.007 C 
ATOM     21  C   UNL     1      -5.354   1.086   0.530  1.00  0.00     0.117 C 
ATOM     22  C   UNL     1      -4.639   0.081   2.607  1.00  0.00     0.003 C 
ATOM     23  C   UNL     1      -5.154   1.387   2.009  1.00  0.00     0.032 C 
BRANCH  21  24
ATOM     24  O   UNL     1      -6.263   1.949  -0.120  1.00  0.00    -0.393 OA
ATOM     25  H   UNL     1      -7.134   1.879   0.302  1.00  0.00     0.210 HD
ENDBRANCH  21  24
ENDBRANCH  18  19
ENDBRANCH  17  18
ENDBRANCH   9  11
ENDBRANCH   7   9
ENDBRANCH   6   7
ENDBRANCH   5   6
ENDBRANCH   4   5
ENDBRANCH   3   4
ENDBRANCH   2   3
ENDBRANCH   1   2
BRANCH   1  26
ATOM     26  O   UNL     1      -8.900   4.895   6.140  1.00  0.00    -0.377 OA
BRANCH  26  27
ATOM     27  C   UNL     1      -8.540   6.256   6.370  1.00  0.00     0.188 C 
BRANCH  27  28
ATOM     28  C   UNL     1      -7.897   7.120   5.260  1.00  0.00     0.188 C 
BRANCH  28  29
ATOM     29  O   UNL     1      -6.940   6.447   4.450  1.00  0.00    -0.376 OA
BRANCH  29  30
ATOM     30  C   UNL     1      -5.564   6.644   4.739  1.00  0.00     0.202 C 
BRANCH  30  31
ATOM     31  C   UNL     1      -5.053   6.071   6.071  1.00  0.00     0.261 C 
BRANCH  31  32
ATOM     32  O   UNL     1      -5.649   6.611   7.260  1.00  0.00    -0.460 OA
BRANCH  32  33
ATOM     33  C   UNL     1      -5.574   7.947   7.446  1.00  0.00     0.338 C 
ATOM     34  O   UNL     1      -4.987   8.750   6.742  1.00  0.00    -0.246 OA
BRANCH  33  35
ATOM     35  C   UNL     1      -6.502   8.302   8.539  1.00  0.00     0.060 A 
ATOM     36  C   UNL     1      -7.541   9.206   8.280  1.00  0.00     0.016 A 
ATOM     37  C   UNL     1      -6.352   7.739   9.808  1.00  0.00     0.016 A 
ATOM     38  C   UNL     1      -8.412   9.579   9.304  1.00  0.00     0.010 A 
ATOM     39  C   UNL     1      -7.211   8.132  10.838  1.00  0.00     0.010 A 
ATOM     40  C   UNL     1      -8.222   9.081  10.599  1.00  0.00    -0.014 A 
BRANCH  40  41
ATOM     41  C   UNL     1      -8.925   9.717  11.741  1.00  0.00     0.031 A 
ATOM     42  C   UNL     1      -8.185  10.760  12.534  1.00  0.00     0.074 A 
ATOM     43  C   UNL     1     -10.195   9.401  12.053  1.00  0.00     0.049 A 
ATOM     44  N   UNL     1      -8.553  11.410  13.606  1.00  0.00    -0.248 NA
ATOM     45  C   UNL     1      -6.840  11.109  12.048  1.00  0.00     0.031 C 
ATOM     46  C   UNL     1     -11.032   8.450  11.325  1.00  0.00     0.029 A 
ATOM     47  N   UNL     1     -10.998   9.846  13.074  1.00  0.00    -0.354 N 
ATOM     48  C   UNL     1      -7.485  12.242  13.928  1.00  0.00     0.074 A 
ATOM     49  C   UNL     1      -6.441  11.979  12.961  1.00  0.00     0.031 C 
ATOM     50  C   UNL     1     -12.231   8.375  11.931  1.00  0.00     0.029 A 
ATOM     51  C   UNL     1     -12.230   9.236  13.113  1.00  0.00     0.049 A 
ATOM     52  H   UNL     1     -10.718  10.537  13.717  1.00  0.00     0.167 HD
ATOM     53  C   UNL     1      -7.389  13.148  14.931  1.00  0.00     0.034 A 
ATOM     54  C   UNL     1     -13.227   9.341  14.017  1.00  0.00     0.034 A 
ATOM     55  C   UNL     1      -8.433  13.383  15.898  1.00  0.00     0.049 A 
ATOM     56  C   UNL     1     -13.058  10.279  15.191  1.00  0.00     0.074 A 
ATOM     57  C   UNL     1      -8.444  14.278  16.953  1.00  0.00     0.029 A 
ATOM     58  N   UNL     1      -9.647  12.708  15.938  1.00  0.00    -0.354 N 
ATOM     59  N   UNL     1     -12.044  11.062  15.486  1.00  0.00    -0.248 NA
ATOM     60  C   UNL     1     -14.169  10.351  16.148  1.00  0.00     0.031 C 
ATOM     61  C   UNL     1      -9.624  14.085  17.678  1.00  0.00     0.029 A 
ATOM     62  C   UNL     1     -10.396  13.139  17.023  1.00  0.00     0.049 A 
ATOM     63  H   UNL     1      -9.933  12.023  15.291  1.00  0.00     0.167 HD
ATOM     64  C   UNL     1     -12.415  11.745  16.644  1.00  0.00     0.074 A 
ATOM     65  C   UNL     1     -13.747  11.289  16.984  1.00  0.00     0.031 C 
ATOM     66  C   UNL     1     -11.721  12.669  17.358  1.00  0.00     0.034 A 
BRANCH  53  67
ATOM     67  C   UNL     1      -6.085  13.899  15.062  1.00  0.00     0.023 A 
ATOM     68  C   UNL     1      -5.619  14.758  14.050  1.00  0.00     0.031 A 
ATOM     69  C   UNL     1      -5.275  13.721  16.197  1.00  0.00     0.131 A 
ATOM     70  C   UNL     1      -4.348  15.342  14.159  1.00  0.00     0.055 A 
ATOM     71  C   UNL     1      -4.051  14.376  16.340  1.00  0.00     0.041 A 
ATOM     72  F   UNL     1      -5.653  12.893  17.183  1.00  0.00    -0.206 F 
ATOM     73  C   UNL     1      -3.572  15.180  15.309  1.00  0.00     0.022 A 
BRANCH  70  74
ATOM     74  S   UNL     1      -3.654  16.183  12.709  1.00  0.00     0.124 S 
ATOM     75  O   UNL     1      -3.685  15.119  11.708  1.00  0.00    -0.237 OA
ATOM     76  O   UNL     1      -4.591  17.281  12.503  1.00  0.00    -0.237 OA
ATOM     77  O   UNL     1      -2.316  16.576  13.148  1.00  0.00    -0.744 OA
ENDBRANCH  70  74
ENDBRANCH  53  67
BRANCH  54  78
ATOM     78  C   UNL     1     -14.458   8.505  13.886  1.00  0.00     0.023 A 
ATOM     79  C   UNL     1     -15.723   9.091  13.719  1.00  0.00     0.031 A 
ATOM     80  C   UNL     1     -14.391   7.104  13.989  1.00  0.00     0.131 A 
ATOM     81  C   UNL     1     -16.872   8.283  13.706  1.00  0.00     0.055 A 
ATOM     82  C   UNL     1     -15.530   6.301  13.916  1.00  0.00     0.041 A 
ATOM     83  F   UNL     1     -13.208   6.491  14.159  1.00  0.00    -0.206 F 
ATOM     84  C   UNL     1     -16.783   6.892  13.787  1.00  0.00     0.022 A 
BRANCH  81  85
ATOM     85  S   UNL     1     -18.499   9.085  13.676  1.00  0.00     0.124 S 
ATOM     86  O   UNL     1     -18.450   9.900  14.885  1.00  0.00    -0.237 OA
ATOM     87  O   UNL     1     -18.456   9.811  12.411  1.00  0.00    -0.237 OA
ATOM     88  O   UNL     1     -19.433   7.962  13.717  1.00  0.00    -0.744 OA
ENDBRANCH  81  85
ENDBRANCH  54  78
BRANCH  66  89
ATOM     89  C   UNL     1     -12.415  13.291  18.548  1.00  0.00     0.023 A 
ATOM     90  C   UNL     1     -12.761  12.542  19.686  1.00  0.00     0.031 A 
ATOM     91  C   UNL     1     -12.734  14.662  18.541  1.00  0.00     0.131 A 
ATOM     92  C   UNL     1     -13.456  13.153  20.742  1.00  0.00     0.055 A 
ATOM     93  C   UNL     1     -13.363  15.279  19.623  1.00  0.00     0.041 A 
ATOM     94  F   UNL     1     -12.432  15.429  17.480  1.00  0.00    -0.206 F 
ATOM     95  C   UNL     1     -13.741  14.521  20.726  1.00  0.00     0.022 A 
BRANCH  92  96
ATOM     96  S   UNL     1     -14.075  12.115  22.095  1.00  0.00     0.124 S 
ATOM     97  O   UNL     1     -14.918  11.160  21.383  1.00  0.00    -0.237 OA
ATOM     98  O   UNL     1     -12.844  11.577  22.665  1.00  0.00    -0.237 OA
ATOM     99  O   UNL     1     -14.792  13.058  22.951  1.00  0.00    -0.744 OA
ENDBRANCH  92  96
ENDBRANCH  66  89
ENDBRANCH  40  41
ENDBRANCH  33  35
ENDBRANCH  32  33
ENDBRANCH  31  32
ENDBRANCH  30  31
ENDBRANCH  29  30
ENDBRANCH  28  29
ENDBRANCH  27  28
ENDBRANCH  26  27
ENDBRANCH   1  26
TORSDOF 27
