REMARK SMILES Cc1cc(F)c(-c2ccc(F)c(C(=O)OCCOCCOCCOCCOC(=O)c3ccc(-c4c5nc(c(-c6cc(S(=O)(=O)[O-])ccc6F)c6ccc([nH]6)c(-c6cc(S(=O)(=O)[O-])ccc6F)c6nc(c(-c7cc(S(=O)(=O)[O-])ccc7F)c7ccc4[nH]7)C=C6)C=C5)cc3)c2)cc1F
REMARK SMILES IDX 22 1 21 2 20 3 19 4 18 5 17 6 16 7 15 8 13 9 14 10 12 11
REMARK SMILES IDX 7 12 8 13 93 14 9 15 10 16 11 17 6 18 1 19 2 20 3 21 95 22
REMARK SMILES IDX 4 23 94 24 96 25 5 26 23 27 24 28 25 29 26 30 27 31 28 32
REMARK SMILES IDX 29 33 30 34 31 35 92 36 32 37 91 38 33 39 34 40 35 41 85 42
REMARK SMILES IDX 36 43 90 44 84 45 86 46 37 47 89 48 83 49 82 50 38 52 70 53
REMARK SMILES IDX 50 54 69 55 51 56 54 57 68 58 87 59 52 60 53 61 67 63 88 64
REMARK SMILES IDX 55 65 39 66 40 67 48 68 41 69 47 70 49 71 46 72 42 73 43 74
REMARK SMILES IDX 44 75 45 76 71 77 72 78 80 79 73 80 79 81 81 82 78 83 74 84
REMARK SMILES IDX 75 85 76 86 77 87 56 88 57 89 65 90 58 91 64 92 66 93 63 94
REMARK SMILES IDX 59 95 60 96 61 97 62 98
REMARK H PARENT 86 51 54 62
REMARK Flexibility Score: inf
ROOT
ATOM      1  C   UNL     1       0.050  -7.135   6.828  1.00  0.00     0.188 C 
ENDROOT
BRANCH   1   2
ATOM      2  O   UNL     1      -0.221  -6.875   5.453  1.00  0.00    -0.377 OA
BRANCH   2   3
ATOM      3  C   UNL     1      -1.323  -7.507   4.831  1.00  0.00     0.188 C 
BRANCH   3   4
ATOM      4  C   UNL     1      -1.272  -9.042   4.740  1.00  0.00     0.188 C 
BRANCH   4   5
ATOM      5  O   UNL     1      -0.239  -9.629   5.525  1.00  0.00    -0.376 OA
BRANCH   5   6
ATOM      6  C   UNL     1       0.845 -10.209   4.809  1.00  0.00     0.202 C 
BRANCH   6   7
ATOM      7  C   UNL     1       1.802  -9.223   4.126  1.00  0.00     0.261 C 
BRANCH   7   8
ATOM      8  O   UNL     1       1.167  -8.308   3.220  1.00  0.00    -0.460 OA
BRANCH   8   9
ATOM      9  C   UNL     1       0.708  -8.797   2.047  1.00  0.00     0.341 C 
ATOM     10  O   UNL     1       0.829  -9.935   1.633  1.00  0.00    -0.246 OA
BRANCH   9  11
ATOM     11  C   UNL     1      -0.135  -7.744   1.444  1.00  0.00     0.096 A 
ATOM     12  C   UNL     1      -0.574  -5.386   0.942  1.00  0.00    -0.014 A 
ATOM     13  C   UNL     1      -1.858  -5.764   0.501  1.00  0.00     0.012 A 
ATOM     14  C   UNL     1       0.275  -6.399   1.428  1.00  0.00     0.027 A 
ATOM     15  C   UNL     1      -2.271  -7.098   0.525  1.00  0.00     0.041 A 
ATOM     16  C   UNL     1      -1.405  -8.082   0.986  1.00  0.00     0.137 A 
ATOM     17  F   UNL     1      -1.854  -9.344   1.049  1.00  0.00    -0.206 F 
BRANCH  12  18
ATOM     18  C   UNL     1      -0.132  -3.979   0.857  1.00  0.00     0.020 A 
ATOM     19  C   UNL     1       1.035   0.158   0.237  1.00  0.00     0.047 C 
ATOM     20  C   UNL     1       0.662  -1.267   0.510  1.00  0.00    -0.012 A 
ATOM     21  C   UNL     1       1.525  -2.309   0.165  1.00  0.00     0.046 A 
ATOM     22  C   UNL     1      -0.587  -1.592   1.041  1.00  0.00     0.126 A 
ATOM     23  C   UNL     1       1.129  -3.636   0.340  1.00  0.00     0.131 A 
ATOM     24  C   UNL     1      -0.979  -2.919   1.227  1.00  0.00     0.051 A 
ATOM     25  F   UNL     1      -1.450  -0.617   1.360  1.00  0.00    -0.207 F 
ATOM     26  F   UNL     1       1.980  -4.597  -0.053  1.00  0.00    -0.206 F 
ENDBRANCH  12  18
ENDBRANCH   9  11
ENDBRANCH   8   9
ENDBRANCH   7   8
ENDBRANCH   6   7
ENDBRANCH   5   6
ENDBRANCH   4   5
ENDBRANCH   3   4
ENDBRANCH   2   3
ENDBRANCH   1   2
BRANCH   1  27
ATOM     27  C   UNL     1      -0.909  -7.945   7.732  1.00  0.00     0.188 C 
BRANCH  27  28
ATOM     28  O   UNL     1      -2.278  -7.914   7.344  1.00  0.00    -0.376 OA
BRANCH  28  29
ATOM     29  C   UNL     1      -3.158  -7.187   8.188  1.00  0.00     0.202 C 
BRANCH  29  30
ATOM     30  C   UNL     1      -3.067  -5.668   8.013  1.00  0.00     0.261 C 
BRANCH  30  31
ATOM     31  O   UNL     1      -1.796  -5.092   8.349  1.00  0.00    -0.460 OA
BRANCH  31  32
ATOM     32  C   UNL     1      -1.357  -5.245   9.619  1.00  0.00     0.338 C 
ATOM     33  O   UNL     1      -1.937  -5.799  10.535  1.00  0.00    -0.246 OA
BRANCH  32  34
ATOM     34  C   UNL     1       0.046  -4.783   9.654  1.00  0.00     0.060 A 
ATOM     35  C   UNL     1       0.383  -3.527   9.142  1.00  0.00     0.016 A 
ATOM     36  C   UNL     1       1.038  -5.633  10.160  1.00  0.00     0.016 A 
ATOM     37  C   UNL     1       1.713  -3.110   9.161  1.00  0.00     0.010 A 
ATOM     38  C   UNL     1       2.372  -5.215  10.172  1.00  0.00     0.010 A 
ATOM     39  C   UNL     1       2.714  -3.941   9.694  1.00  0.00    -0.014 A 
BRANCH  39  40
ATOM     40  C   UNL     1       4.069  -3.385   9.931  1.00  0.00     0.031 A 
ATOM     41  C   UNL     1       5.224  -3.671   9.021  1.00  0.00     0.074 A 
ATOM     42  C   UNL     1       4.231  -2.589  11.006  1.00  0.00     0.049 A 
ATOM     43  N   UNL     1       6.430  -3.165   9.052  1.00  0.00    -0.248 NA
ATOM     44  C   UNL     1       5.007  -4.645   7.941  1.00  0.00     0.031 C 
ATOM     45  C   UNL     1       3.173  -2.269  11.967  1.00  0.00     0.029 A 
ATOM     46  N   UNL     1       5.321  -1.898  11.469  1.00  0.00    -0.354 N 
ATOM     47  C   UNL     1       7.114  -3.736   7.986  1.00  0.00     0.074 A 
ATOM     48  C   UNL     1       6.200  -4.665   7.355  1.00  0.00     0.031 C 
ATOM     49  C   UNL     1       3.657  -1.422  12.886  1.00  0.00     0.029 A 
ATOM     50  C   UNL     1       5.066  -1.161  12.602  1.00  0.00     0.049 A 
ATOM     51  H   UNL     1       6.203  -1.926  11.031  1.00  0.00     0.167 HD
ATOM     52  C   UNL     1       8.380  -3.485   7.572  1.00  0.00     0.034 A 
ATOM     53  C   UNL     1       5.868  -0.357  13.328  1.00  0.00     0.034 A 
ATOM     54  C   UNL     1       9.275  -2.559   8.226  1.00  0.00     0.049 A 
ATOM     55  C   UNL     1       7.283  -0.130  12.860  1.00  0.00     0.074 A 
ATOM     56  C   UNL     1      10.560  -2.207   7.849  1.00  0.00     0.029 A 
ATOM     57  N   UNL     1       8.994  -1.848   9.384  1.00  0.00    -0.354 N 
ATOM     58  N   UNL     1       7.878  -0.588  11.784  1.00  0.00    -0.248 NA
ATOM     59  C   UNL     1       8.132   0.736  13.690  1.00  0.00     0.031 C 
ATOM     60  C   UNL     1      11.080  -1.343   8.813  1.00  0.00     0.029 A 
ATOM     61  C   UNL     1      10.094  -1.087   9.751  1.00  0.00     0.049 A 
ATOM     62  H   UNL     1       8.140  -1.879   9.872  1.00  0.00     0.167 HD
ATOM     63  C   UNL     1       9.157  -0.038  11.790  1.00  0.00     0.074 A 
ATOM     64  C   UNL     1       9.239   0.806  12.963  1.00  0.00     0.031 C 
ATOM     65  C   UNL     1      10.168  -0.223  10.905  1.00  0.00     0.034 A 
BRANCH  52  66
ATOM     66  C   UNL     1       8.899  -4.169   6.330  1.00  0.00     0.023 A 
ATOM     67  C   UNL     1      10.025  -5.012   6.403  1.00  0.00     0.031 A 
ATOM     68  C   UNL     1       8.411  -3.821   5.058  1.00  0.00     0.131 A 
ATOM     69  C   UNL     1      10.660  -5.429   5.226  1.00  0.00     0.055 A 
ATOM     70  C   UNL     1       9.023  -4.274   3.888  1.00  0.00     0.041 A 
ATOM     71  F   UNL     1       7.345  -3.013   4.935  1.00  0.00    -0.206 F 
ATOM     72  C   UNL     1      10.163  -5.068   3.969  1.00  0.00     0.022 A 
BRANCH  69  73
ATOM     73  S   UNL     1      12.203  -6.383   5.278  1.00  0.00     0.124 S 
ATOM     74  O   UNL     1      11.853  -7.564   4.491  1.00  0.00    -0.237 OA
ATOM     75  O   UNL     1      13.148  -5.469   4.643  1.00  0.00    -0.237 OA
ATOM     76  O   UNL     1      12.416  -6.628   6.700  1.00  0.00    -0.744 OA
ENDBRANCH  69  73
ENDBRANCH  52  66
BRANCH  53  77
ATOM     77  C   UNL     1       5.315   0.345  14.523  1.00  0.00     0.023 A 
ATOM     78  C   UNL     1       4.803  -0.375  15.618  1.00  0.00     0.031 A 
ATOM     79  C   UNL     1       5.210   1.746  14.547  1.00  0.00     0.131 A 
ATOM     80  C   UNL     1       4.163   0.305  16.662  1.00  0.00     0.055 A 
ATOM     81  C   UNL     1       4.637   2.424  15.624  1.00  0.00     0.041 A 
ATOM     82  F   UNL     1       5.666   2.476  13.518  1.00  0.00    -0.206 F 
ATOM     83  C   UNL     1       4.094   1.702  16.681  1.00  0.00     0.022 A 
BRANCH  80  84
ATOM     84  S   UNL     1       3.281  -0.605  17.961  1.00  0.00     0.124 S 
ATOM     85  O   UNL     1       4.038  -0.241  19.154  1.00  0.00    -0.237 OA
ATOM     86  O   UNL     1       1.938  -0.036  17.867  1.00  0.00    -0.237 OA
ATOM     87  O   UNL     1       3.393  -1.998  17.540  1.00  0.00    -0.744 OA
ENDBRANCH  80  84
ENDBRANCH  53  77
BRANCH  65  88
ATOM     88  C   UNL     1      11.474   0.505  11.131  1.00  0.00     0.023 A 
ATOM     89  C   UNL     1      11.949   1.414  10.165  1.00  0.00     0.031 A 
ATOM     90  C   UNL     1      12.315   0.186  12.211  1.00  0.00     0.131 A 
ATOM     91  C   UNL     1      13.245   1.935  10.274  1.00  0.00     0.055 A 
ATOM     92  C   UNL     1      13.585   0.749  12.344  1.00  0.00     0.041 A 
ATOM     93  F   UNL     1      11.915  -0.684  13.153  1.00  0.00    -0.206 F 
ATOM     94  C   UNL     1      14.061   1.615  11.363  1.00  0.00     0.022 A 
BRANCH  91  95
ATOM     95  S   UNL     1      13.954   2.967   8.961  1.00  0.00     0.124 S 
ATOM     96  O   UNL     1      14.241   4.209   9.675  1.00  0.00    -0.237 OA
ATOM     97  O   UNL     1      15.126   2.193   8.561  1.00  0.00    -0.237 OA
ATOM     98  O   UNL     1      12.889   3.055   7.967  1.00  0.00    -0.744 OA
ENDBRANCH  91  95
ENDBRANCH  65  88
ENDBRANCH  39  40
ENDBRANCH  32  34
ENDBRANCH  31  32
ENDBRANCH  30  31
ENDBRANCH  29  30
ENDBRANCH  28  29
ENDBRANCH  27  28
ENDBRANCH   1  27
TORSDOF 24
