REMARK SMILES CC(C)[C@H](NC(=O)[C@H](Cc1ccccc1)n1c(=O)[nH]c2ccccc2c1=O)C(=O)OCCOCCOCCOCCOC(=O)c1ccc(-c2c3nc(c(-c4cc(S(=O)(=O)[O-])ccc4F)c4ccc([nH]4)c(-c4cc(S(=O)(=O)[O-])ccc4F)c4nc(c(-c5cc(S(=O)(=O)[O-])ccc5F)c5ccc2[nH]5)C=C4)C=C3)cc1
REMARK SMILES IDX 35 1 34 2 33 3 32 4 31 5 30 6 28 7 29 8 4 9 2 10 1 11 3 12
REMARK SMILES IDX 5 13 6 14 7 16 8 17 16 18 17 19 26 20 18 21 19 22 25 23
REMARK SMILES IDX 27 24 20 25 24 27 21 28 23 29 22 30 9 31 10 32 11 33 15 34
REMARK SMILES IDX 12 35 14 36 13 37 36 38 37 39 38 40 39 41 40 42 41 43 42 44
REMARK SMILES IDX 43 45 44 46 45 47 46 48 107 49 47 50 106 51 48 52 49 53
REMARK SMILES IDX 50 54 100 55 51 56 105 57 99 58 101 59 52 60 104 61 98 62
REMARK SMILES IDX 97 63 53 65 85 66 65 67 84 68 66 69 69 70 83 71 102 72 67 73
REMARK SMILES IDX 68 74 82 76 103 77 70 78 54 79 55 80 63 81 56 82 62 83 64 84
REMARK SMILES IDX 61 85 57 86 58 87 59 88 60 89 86 90 87 91 95 92 88 93 94 94
REMARK SMILES IDX 96 95 93 96 89 97 90 98 91 99 92 100 71 101 72 102 80 103
REMARK SMILES IDX 73 104 79 105 81 106 78 107 74 108 75 109 76 110 77 111
REMARK H PARENT 5 15 19 26 101 64 69 75
REMARK Flexibility Score: inf
ROOT
ATOM      1  C   UNL     1      -5.563   6.190  -3.009  1.00  0.00     0.188 C 
ENDROOT
BRANCH   1   2
ATOM      2  C   UNL     1      -5.972   4.767  -3.406  1.00  0.00     0.188 C 
BRANCH   2   3
ATOM      3  O   UNL     1      -6.589   3.883  -2.485  1.00  0.00    -0.376 OA
BRANCH   3   4
ATOM      4  C   UNL     1      -6.124   3.741  -1.149  1.00  0.00     0.202 C 
BRANCH   4   5
ATOM      5  C   UNL     1      -4.634   3.607  -0.772  1.00  0.00     0.261 C 
BRANCH   5   6
ATOM      6  O   UNL     1      -3.711   4.434  -1.496  1.00  0.00    -0.462 OA
BRANCH   6   7
ATOM      7  C   UNL     1      -2.945   3.801  -2.422  1.00  0.00     0.328 C 
ATOM      8  O   UNL     1      -2.970   2.589  -2.601  1.00  0.00    -0.250 OA
BRANCH   7   9
ATOM      9  C   UNL     1      -2.248   4.804  -3.390  1.00  0.00     0.194 C 
BRANCH   9  10
ATOM     10  C   UNL     1      -1.004   4.276  -4.112  1.00  0.00     0.017 C 
ATOM     11  C   UNL     1      -1.188   2.888  -4.734  1.00  0.00     0.010 C 
ATOM     12  C   UNL     1      -0.519   5.245  -5.193  1.00  0.00     0.010 C 
ENDBRANCH   9  10
BRANCH   9  13
ATOM     13  N   UNL     1      -2.174   6.218  -2.971  1.00  0.00    -0.341 N 
ATOM     14  C   UNL     1      -1.565   7.002  -2.064  1.00  0.00     0.244 C 
ATOM     15  H   UNL     1      -2.762   6.765  -3.541  1.00  0.00     0.164 HD
ATOM     16  O   UNL     1      -2.181   8.065  -1.888  1.00  0.00    -0.273 OA
BRANCH  14  17
ATOM     17  C   UNL     1      -0.369   6.627  -1.177  1.00  0.00     0.189 C 
BRANCH  17  18
ATOM     18  N   UNL     1       0.801   6.025  -1.853  1.00  0.00    -0.247 N 
ATOM     19  C   UNL     1       1.516   6.776  -2.765  1.00  0.00     0.329 A 
ATOM     20  C   UNL     1       1.113   4.689  -1.606  1.00  0.00     0.264 A 
ATOM     21  O   UNL     1       1.079   7.740  -3.385  1.00  0.00    -0.248 OA
ATOM     22  N   UNL     1       2.759   6.324  -3.107  1.00  0.00    -0.307 N 
ATOM     23  C   UNL     1       2.201   4.105  -2.428  1.00  0.00     0.064 A 
ATOM     24  O   UNL     1       0.491   3.957  -0.842  1.00  0.00    -0.268 OA
ATOM     25  C   UNL     1       3.081   4.975  -3.054  1.00  0.00     0.055 A 
ATOM     26  H   UNL     1       3.442   6.970  -3.398  1.00  0.00     0.171 HD
ATOM     27  C   UNL     1       2.280   2.735  -2.688  1.00  0.00     0.016 A 
ATOM     28  C   UNL     1       4.151   4.494  -3.807  1.00  0.00     0.027 A 
ATOM     29  C   UNL     1       3.287   2.251  -3.529  1.00  0.00     0.001 A 
ATOM     30  C   UNL     1       4.245   3.124  -4.051  1.00  0.00     0.002 A 
ENDBRANCH  17  18
BRANCH  17  31
ATOM     31  C   UNL     1      -0.003   7.788  -0.186  1.00  0.00     0.071 C 
BRANCH  31  32
ATOM     32  C   UNL     1       0.750   9.021  -0.667  1.00  0.00    -0.045 A 
ATOM     33  C   UNL     1       0.351   9.778  -1.778  1.00  0.00     0.004 A 
ATOM     34  C   UNL     1       1.881   9.461   0.036  1.00  0.00     0.004 A 
ATOM     35  C   UNL     1       1.132  10.829  -2.268  1.00  0.00     0.000 A 
ATOM     36  C   UNL     1       2.642  10.541  -0.426  1.00  0.00     0.000 A 
ATOM     37  C   UNL     1       2.287  11.203  -1.598  1.00  0.00     0.000 A 
ENDBRANCH  31  32
ENDBRANCH  17  31
ENDBRANCH  14  17
ENDBRANCH   9  13
ENDBRANCH   7   9
ENDBRANCH   6   7
ENDBRANCH   5   6
ENDBRANCH   4   5
ENDBRANCH   3   4
ENDBRANCH   2   3
ENDBRANCH   1   2
BRANCH   1  38
ATOM     38  O   UNL     1      -5.448   6.397  -1.622  1.00  0.00    -0.377 OA
BRANCH  38  39
ATOM     39  C   UNL     1      -6.529   7.065  -0.983  1.00  0.00     0.188 C 
BRANCH  39  40
ATOM     40  C   UNL     1      -7.954   6.802  -1.516  1.00  0.00     0.188 C 
BRANCH  40  41
ATOM     41  O   UNL     1      -8.099   6.960  -2.923  1.00  0.00    -0.376 OA
BRANCH  41  42
ATOM     42  C   UNL     1      -8.537   8.212  -3.435  1.00  0.00     0.202 C 
BRANCH  42  43
ATOM     43  C   UNL     1      -7.677   9.464  -3.181  1.00  0.00     0.261 C 
BRANCH  43  44
ATOM     44  O   UNL     1      -7.409   9.807  -1.814  1.00  0.00    -0.460 OA
BRANCH  44  45
ATOM     45  C   UNL     1      -8.459   9.980  -0.986  1.00  0.00     0.338 C 
ATOM     46  O   UNL     1      -9.640   9.950  -1.292  1.00  0.00    -0.246 OA
BRANCH  45  47
ATOM     47  C   UNL     1      -7.945   9.991   0.401  1.00  0.00     0.060 A 
ATOM     48  C   UNL     1      -8.434   9.042   1.310  1.00  0.00     0.016 A 
ATOM     49  C   UNL     1      -6.987  10.924   0.804  1.00  0.00     0.016 A 
ATOM     50  C   UNL     1      -8.004   9.055   2.636  1.00  0.00     0.010 A 
ATOM     51  C   UNL     1      -6.578  10.955   2.141  1.00  0.00     0.010 A 
ATOM     52  C   UNL     1      -7.116  10.047   3.071  1.00  0.00    -0.014 A 
BRANCH  52  53
ATOM     53  C   UNL     1      -6.952  10.286   4.527  1.00  0.00     0.031 A 
ATOM     54  C   UNL     1      -7.785  11.371   5.158  1.00  0.00     0.074 A 
ATOM     55  C   UNL     1      -6.127   9.539   5.281  1.00  0.00     0.049 A 
ATOM     56  N   UNL     1      -7.788  11.812   6.389  1.00  0.00    -0.248 NA
ATOM     57  C   UNL     1      -8.742  12.053   4.271  1.00  0.00     0.031 C 
ATOM     58  C   UNL     1      -5.322   8.419   4.798  1.00  0.00     0.029 A 
ATOM     59  N   UNL     1      -5.827   9.617   6.619  1.00  0.00    -0.354 N 
ATOM     60  C   UNL     1      -8.740  12.827   6.423  1.00  0.00     0.074 A 
ATOM     61  C   UNL     1      -9.263  12.960   5.081  1.00  0.00     0.031 C 
ATOM     62  C   UNL     1      -4.610   7.921   5.824  1.00  0.00     0.029 A 
ATOM     63  C   UNL     1      -4.873   8.713   7.026  1.00  0.00     0.049 A 
ATOM     64  H   UNL     1      -6.255  10.259   7.230  1.00  0.00     0.167 HD
ATOM     65  C   UNL     1      -9.146  13.573   7.479  1.00  0.00     0.034 A 
ATOM     66  C   UNL     1      -4.263   8.567   8.221  1.00  0.00     0.034 A 
ATOM     67  C   UNL     1      -8.602  13.437   8.807  1.00  0.00     0.049 A 
ATOM     68  C   UNL     1      -4.652   9.485   9.359  1.00  0.00     0.074 A 
ATOM     69  C   UNL     1      -8.941  14.137   9.951  1.00  0.00     0.029 A 
ATOM     70  N   UNL     1      -7.595  12.551   9.168  1.00  0.00    -0.354 N 
ATOM     71  N   UNL     1      -5.552  10.443   9.381  1.00  0.00    -0.248 NA
ATOM     72  C   UNL     1      -3.947   9.298  10.634  1.00  0.00     0.031 C 
ATOM     73  C   UNL     1      -8.082  13.736  10.980  1.00  0.00     0.029 A 
ATOM     74  C   UNL     1      -7.274  12.715  10.506  1.00  0.00     0.049 A 
ATOM     75  H   UNL     1      -7.171  11.901   8.562  1.00  0.00     0.167 HD
ATOM     76  C   UNL     1      -5.545  10.943  10.683  1.00  0.00     0.074 A 
ATOM     77  C   UNL     1      -4.562  10.172  11.416  1.00  0.00     0.031 C 
ATOM     78  C   UNL     1      -6.287  11.943  11.226  1.00  0.00     0.034 A 
BRANCH  65  79
ATOM     79  C   UNL     1     -10.181  14.640   7.218  1.00  0.00     0.023 A 
ATOM     80  C   UNL     1     -11.480  14.326   6.780  1.00  0.00     0.031 A 
ATOM     81  C   UNL     1      -9.854  15.998   7.382  1.00  0.00     0.131 A 
ATOM     82  C   UNL     1     -12.377  15.354   6.455  1.00  0.00     0.055 A 
ATOM     83  C   UNL     1     -10.779  17.014   7.139  1.00  0.00     0.041 A 
ATOM     84  F   UNL     1      -8.621  16.362   7.771  1.00  0.00    -0.206 F 
ATOM     85  C   UNL     1     -12.045  16.696   6.658  1.00  0.00     0.022 A 
BRANCH  82  86
ATOM     86  S   UNL     1     -13.928  14.921   5.621  1.00  0.00     0.124 S 
ATOM     87  O   UNL     1     -13.440  14.238   4.425  1.00  0.00    -0.237 OA
ATOM     88  O   UNL     1     -14.594  14.081   6.609  1.00  0.00    -0.237 OA
ATOM     89  O   UNL     1     -14.559  16.216   5.375  1.00  0.00    -0.744 OA
ENDBRANCH  82  86
ENDBRANCH  65  79
BRANCH  66  90
ATOM     90  C   UNL     1      -3.185   7.550   8.406  1.00  0.00     0.023 A 
ATOM     91  C   UNL     1      -3.312   6.516   9.348  1.00  0.00     0.031 A 
ATOM     92  C   UNL     1      -1.974   7.644   7.695  1.00  0.00     0.131 A 
ATOM     93  C   UNL     1      -2.231   5.654   9.592  1.00  0.00     0.055 A 
ATOM     94  C   UNL     1      -0.926   6.745   7.896  1.00  0.00     0.041 A 
ATOM     95  F   UNL     1      -1.792   8.619   6.790  1.00  0.00    -0.206 F 
ATOM     96  C   UNL     1      -1.045   5.751   8.861  1.00  0.00     0.022 A 
BRANCH  93  97
ATOM     97  S   UNL     1      -2.356   4.469  10.961  1.00  0.00     0.124 S 
ATOM     98  O   UNL     1      -2.602   5.353  12.095  1.00  0.00    -0.237 OA
ATOM     99  O   UNL     1      -3.478   3.637  10.540  1.00  0.00    -0.237 OA
ATOM    100  O   UNL     1      -1.054   3.806  10.957  1.00  0.00    -0.744 OA
ENDBRANCH  93  97
ENDBRANCH  66  90
BRANCH  78 101
ATOM    101  C   UNL     1      -6.108  12.219  12.701  1.00  0.00     0.023 A 
ATOM    102  C   UNL     1      -4.899  12.706  13.229  1.00  0.00     0.031 A 
ATOM    103  C   UNL     1      -7.172  11.991  13.594  1.00  0.00     0.131 A 
ATOM    104  C   UNL     1      -4.765  12.891  14.614  1.00  0.00     0.055 A 
ATOM    105  C   UNL     1      -7.055  12.245  14.961  1.00  0.00     0.041 A 
ATOM    106  F   UNL     1      -8.349  11.523  13.150  1.00  0.00    -0.206 F 
ATOM    107  C   UNL     1      -5.841  12.684  15.480  1.00  0.00     0.022 A 
BRANCH 104 108
ATOM    108  S   UNL     1      -3.131  13.308  15.284  1.00  0.00     0.124 S 
ATOM    109  O   UNL     1      -2.317  12.194  14.812  1.00  0.00    -0.237 OA
ATOM    110  O   UNL     1      -2.861  14.602  14.665  1.00  0.00    -0.237 OA
ATOM    111  O   UNL     1      -3.352  13.347  16.728  1.00  0.00    -0.744 OA
ENDBRANCH 104 108
ENDBRANCH  78 101
ENDBRANCH  52  53
ENDBRANCH  45  47
ENDBRANCH  44  45
ENDBRANCH  43  44
ENDBRANCH  42  43
ENDBRANCH  41  42
ENDBRANCH  40  41
ENDBRANCH  39  40
ENDBRANCH  38  39
ENDBRANCH   1  38
TORSDOF 29
