REMARK SMILES CC1(C)CSC[C@@H]([N@H+]2CCC[C@H](CCC(=O)OCCOCCOCCOCCOC(=O)c3ccc(-c4c5nc(c(-c6cc(S(=O)(=O)[O-])ccc6F)c6ccc([nH]6)c(-c6cc(S(=O)(=O)[O-])ccc6F)c6nc(c(-c7cc(S(=O)(=O)[O-])ccc7F)c7ccc4[nH]7)C=C6)C=C5)cc3)C2)C1
REMARK SMILES IDX 23 1 22 2 21 3 20 4 19 5 18 6 17 7 15 8 16 9 14 10 13 11
REMARK SMILES IDX 12 12 8 13 9 14 95 15 10 17 11 18 7 19 1 20 2 21 3 22 4 23
REMARK SMILES IDX 96 24 5 25 6 26 24 27 25 28 26 29 27 30 28 31 29 32 30 33
REMARK SMILES IDX 31 34 32 35 33 36 94 37 34 38 93 39 35 40 36 41 37 42 87 43
REMARK SMILES IDX 38 44 92 45 86 46 88 47 39 48 91 49 85 50 84 51 40 53 72 54
REMARK SMILES IDX 52 55 71 56 53 57 56 58 70 59 89 60 54 61 55 62 69 64 90 65
REMARK SMILES IDX 57 66 41 67 42 68 50 69 43 70 49 71 51 72 48 73 44 74 45 75
REMARK SMILES IDX 46 76 47 77 73 78 74 79 82 80 75 81 81 82 83 83 80 84 76 85
REMARK SMILES IDX 77 86 78 87 79 88 58 89 59 90 67 91 60 92 66 93 68 94 65 95
REMARK SMILES IDX 61 96 62 97 63 98 64 99
REMARK H PARENT 8 16 88 52 56 63
REMARK Flexibility Score: inf
ROOT
ATOM      1  O   UNL     1       4.104   0.788  -1.703  1.00  0.00    -0.377 OA
ENDROOT
BRANCH   1   2
ATOM      2  C   UNL     1       5.187   0.341  -2.503  1.00  0.00     0.188 C 
BRANCH   2   3
ATOM      3  C   UNL     1       4.847  -0.248  -3.874  1.00  0.00     0.188 C 
BRANCH   3   4
ATOM      4  O   UNL     1       3.906   0.463  -4.665  1.00  0.00    -0.376 OA
BRANCH   4   5
ATOM      5  C   UNL     1       2.537   0.067  -4.507  1.00  0.00     0.202 C 
BRANCH   5   6
ATOM      6  C   UNL     1       2.158  -1.316  -5.063  1.00  0.00     0.261 C 
BRANCH   6   7
ATOM      7  O   UNL     1       2.193  -2.349  -4.045  1.00  0.00    -0.463 OA
BRANCH   7   8
ATOM      8  C   UNL     1       3.168  -3.287  -4.114  1.00  0.00     0.305 C 
ATOM      9  O   UNL     1       4.016  -3.347  -4.998  1.00  0.00    -0.252 OA
BRANCH   8  10
ATOM     10  C   UNL     1       3.068  -4.323  -3.007  1.00  0.00     0.123 C 
BRANCH  10  11
ATOM     11  C   UNL     1       3.175  -3.905  -1.534  1.00  0.00     0.021 C 
BRANCH  11  12
ATOM     12  C   UNL     1       2.064  -3.046  -0.884  1.00  0.00     0.045 C 
ATOM     13  N   UNL     1      -0.418  -2.536  -0.787  1.00  0.00    -0.332 N 
ATOM     14  C   UNL     1      -0.202  -1.254  -1.436  1.00  0.00     0.262 C 
ATOM     15  C   UNL     1       0.625  -3.490  -1.186  1.00  0.00     0.265 C 
ATOM     16  H   UNL     1      -1.296  -2.905  -1.155  1.00  0.00     0.348 HD
ATOM     17  C   UNL     1       1.142  -0.644  -1.077  1.00  0.00     0.062 C 
ATOM     18  C   UNL     1       2.340  -1.570  -1.156  1.00  0.00     0.015 C 
BRANCH  13  19
ATOM     19  C   UNL     1      -0.855  -2.528   0.635  1.00  0.00     0.194 C 
ATOM     20  C   UNL     1      -0.194   0.711   1.505  1.00  0.00     0.012 C 
ATOM     21  C   UNL     1      -0.306  -0.537   2.389  1.00  0.00    -0.021 C 
ATOM     22  C   UNL     1       0.703  -0.309   3.540  1.00  0.00     0.012 C 
ATOM     23  C   UNL     1      -1.728  -0.602   2.957  1.00  0.00     0.076 C 
ATOM     24  C   UNL     1       0.051  -1.894   1.725  1.00  0.00     0.073 C 
ATOM     25  S   UNL     1      -2.947  -0.734   1.630  1.00  0.00    -0.155 SA
ATOM     26  C   UNL     1      -2.375  -2.229   0.780  1.00  0.00     0.134 C 
ENDBRANCH  13  19
ENDBRANCH  11  12
ENDBRANCH  10  11
ENDBRANCH   8  10
ENDBRANCH   7   8
ENDBRANCH   6   7
ENDBRANCH   5   6
ENDBRANCH   4   5
ENDBRANCH   3   4
ENDBRANCH   2   3
ENDBRANCH   1   2
BRANCH   1  27
ATOM     27  C   UNL     1       3.611   2.105  -1.938  1.00  0.00     0.188 C 
BRANCH  27  28
ATOM     28  C   UNL     1       4.631   3.249  -2.009  1.00  0.00     0.188 C 
BRANCH  28  29
ATOM     29  O   UNL     1       5.431   3.593  -0.881  1.00  0.00    -0.376 OA
BRANCH  29  30
ATOM     30  C   UNL     1       5.765   2.605   0.076  1.00  0.00     0.202 C 
BRANCH  30  31
ATOM     31  C   UNL     1       4.948   2.729   1.364  1.00  0.00     0.261 C 
BRANCH  31  32
ATOM     32  O   UNL     1       3.535   2.852   1.149  1.00  0.00    -0.460 OA
BRANCH  32  33
ATOM     33  C   UNL     1       3.082   4.119   1.018  1.00  0.00     0.338 C 
ATOM     34  O   UNL     1       3.739   5.159   1.004  1.00  0.00    -0.246 OA
BRANCH  33  35
ATOM     35  C   UNL     1       1.618   4.093   0.960  1.00  0.00     0.060 A 
ATOM     36  C   UNL     1       0.933   4.302  -0.244  1.00  0.00     0.016 A 
ATOM     37  C   UNL     1       0.920   3.918   2.152  1.00  0.00     0.016 A 
ATOM     38  C   UNL     1      -0.469   4.329  -0.256  1.00  0.00     0.010 A 
ATOM     39  C   UNL     1      -0.473   3.945   2.133  1.00  0.00     0.010 A 
ATOM     40  C   UNL     1      -1.189   4.156   0.933  1.00  0.00    -0.014 A 
BRANCH  40  41
ATOM     41  C   UNL     1      -2.668   4.348   1.021  1.00  0.00     0.031 A 
ATOM     42  C   UNL     1      -3.166   5.478   1.888  1.00  0.00     0.074 A 
ATOM     43  C   UNL     1      -3.558   3.524   0.430  1.00  0.00     0.049 A 
ATOM     44  N   UNL     1      -4.364   5.716   2.351  1.00  0.00    -0.248 NA
ATOM     45  C   UNL     1      -2.146   6.444   2.327  1.00  0.00     0.031 C 
ATOM     46  C   UNL     1      -3.235   2.412  -0.462  1.00  0.00     0.029 A 
ATOM     47  N   UNL     1      -4.933   3.477   0.529  1.00  0.00    -0.354 N 
ATOM     48  C   UNL     1      -4.231   6.833   3.169  1.00  0.00     0.074 A 
ATOM     49  C   UNL     1      -2.826   7.174   3.194  1.00  0.00     0.031 C 
ATOM     50  C   UNL     1      -4.371   1.774  -0.802  1.00  0.00     0.029 A 
ATOM     51  C   UNL     1      -5.501   2.400  -0.118  1.00  0.00     0.049 A 
ATOM     52  H   UNL     1      -5.460   4.151   1.016  1.00  0.00     0.167 HD
ATOM     53  C   UNL     1      -5.194   7.532   3.818  1.00  0.00     0.034 A 
ATOM     54  C   UNL     1      -6.775   1.946  -0.122  1.00  0.00     0.034 A 
ATOM     55  C   UNL     1      -6.594   7.207   3.755  1.00  0.00     0.049 A 
ATOM     56  C   UNL     1      -7.826   2.689   0.672  1.00  0.00     0.074 A 
ATOM     57  C   UNL     1      -7.660   7.881   4.322  1.00  0.00     0.029 A 
ATOM     58  N   UNL     1      -7.124   6.112   3.085  1.00  0.00    -0.354 N 
ATOM     59  N   UNL     1      -7.694   3.754   1.429  1.00  0.00    -0.248 NA
ATOM     60  C   UNL     1      -9.202   2.174   0.603  1.00  0.00     0.031 C 
ATOM     61  C   UNL     1      -8.826   7.155   4.057  1.00  0.00     0.029 A 
ATOM     62  C   UNL     1      -8.499   6.075   3.252  1.00  0.00     0.049 A 
ATOM     63  H   UNL     1      -6.600   5.457   2.568  1.00  0.00     0.167 HD
ATOM     64  C   UNL     1      -8.975   4.061   1.884  1.00  0.00     0.074 A 
ATOM     65  C   UNL     1      -9.865   3.066   1.325  1.00  0.00     0.031 C 
ATOM     66  C   UNL     1      -9.380   5.086   2.677  1.00  0.00     0.034 A 
BRANCH  53  67
ATOM     67  C   UNL     1      -4.744   8.693   4.672  1.00  0.00     0.023 A 
ATOM     68  C   UNL     1      -4.068   9.797   4.122  1.00  0.00     0.031 A 
ATOM     69  C   UNL     1      -4.937   8.667   6.064  1.00  0.00     0.131 A 
ATOM     70  C   UNL     1      -3.519  10.772   4.966  1.00  0.00     0.055 A 
ATOM     71  C   UNL     1      -4.473   9.693   6.889  1.00  0.00     0.041 A 
ATOM     72  F   UNL     1      -5.556   7.630   6.650  1.00  0.00    -0.206 F 
ATOM     73  C   UNL     1      -3.741  10.743   6.344  1.00  0.00     0.022 A 
BRANCH  70  74
ATOM     74  S   UNL     1      -2.362  11.974   4.254  1.00  0.00     0.124 S 
ATOM     75  O   UNL     1      -1.326  11.099   3.712  1.00  0.00    -0.237 OA
ATOM     76  O   UNL     1      -3.190  12.668   3.275  1.00  0.00    -0.237 OA
ATOM     77  O   UNL     1      -1.951  12.776   5.405  1.00  0.00    -0.744 OA
ENDBRANCH  70  74
ENDBRANCH  53  67
BRANCH  54  78
ATOM     78  C   UNL     1      -7.144   0.695  -0.855  1.00  0.00     0.023 A 
ATOM     79  C   UNL     1      -8.013   0.716  -1.959  1.00  0.00     0.031 A 
ATOM     80  C   UNL     1      -6.692  -0.557  -0.405  1.00  0.00     0.131 A 
ATOM     81  C   UNL     1      -8.426  -0.492  -2.550  1.00  0.00     0.055 A 
ATOM     82  C   UNL     1      -7.053  -1.750  -1.035  1.00  0.00     0.041 A 
ATOM     83  F   UNL     1      -5.912  -0.642   0.680  1.00  0.00    -0.206 F 
ATOM     84  C   UNL     1      -7.935  -1.723  -2.109  1.00  0.00     0.022 A 
BRANCH  81  85
ATOM     85  S   UNL     1      -9.697  -0.443  -3.844  1.00  0.00     0.124 S 
ATOM     86  O   UNL     1     -10.815   0.174  -3.140  1.00  0.00    -0.237 OA
ATOM     87  O   UNL     1      -9.056   0.371  -4.871  1.00  0.00    -0.237 OA
ATOM     88  O   UNL     1      -9.882  -1.850  -4.195  1.00  0.00    -0.744 OA
ENDBRANCH  81  85
ENDBRANCH  54  78
BRANCH  66  89
ATOM     89  C   UNL     1     -10.861   5.246   2.919  1.00  0.00     0.023 A 
ATOM     90  C   UNL     1     -11.597   4.343   3.704  1.00  0.00     0.031 A 
ATOM     91  C   UNL     1     -11.534   6.360   2.383  1.00  0.00     0.131 A 
ATOM     92  C   UNL     1     -12.970   4.557   3.909  1.00  0.00     0.055 A 
ATOM     93  C   UNL     1     -12.885   6.597   2.635  1.00  0.00     0.041 A 
ATOM     94  F   UNL     1     -10.878   7.253   1.623  1.00  0.00    -0.206 F 
ATOM     95  C   UNL     1     -13.612   5.688   3.397  1.00  0.00     0.022 A 
BRANCH  92  96
ATOM     96  S   UNL     1     -13.927   3.308   4.812  1.00  0.00     0.124 S 
ATOM     97  O   UNL     1     -13.754   2.127   3.973  1.00  0.00    -0.237 OA
ATOM     98  O   UNL     1     -13.256   3.274   6.107  1.00  0.00    -0.237 OA
ATOM     99  O   UNL     1     -15.280   3.861   4.832  1.00  0.00    -0.744 OA
ENDBRANCH  92  96
ENDBRANCH  66  89
ENDBRANCH  40  41
ENDBRANCH  33  35
ENDBRANCH  32  33
ENDBRANCH  31  32
ENDBRANCH  30  31
ENDBRANCH  29  30
ENDBRANCH  28  29
ENDBRANCH  27  28
ENDBRANCH   1  27
TORSDOF 26
