REMARK SMILES Cc1cccc(N2C(=O)/C(=C/c3ccc(C(=O)OCCOCCOCCOCCOC(=O)c4ccc(-c5c6nc(c(-c7cc(S(=O)(=O)[O-])ccc7F)c7ccc([nH]7)c(-c7cc(S(=O)(=O)[O-])ccc7F)c7nc(c(-c8cc(S(=O)(=O)[O-])ccc8F)c8ccc5[nH]8)C=C7)C=C6)cc4)cc3)c3ccccc3C2=O)c1
REMARK SMILES IDX 25 1 24 2 23 3 22 4 21 5 20 6 19 7 18 8 16 9 17 10 15 11
REMARK SMILES IDX 12 12 13 13 97 14 14 15 96 16 11 17 7 18 8 19 104 20 9 21
REMARK SMILES IDX 10 22 103 23 105 24 98 25 102 26 99 27 101 28 100 29 6 30
REMARK SMILES IDX 1 31 2 32 3 33 106 34 4 35 5 36 26 37 27 38 28 39 29 40
REMARK SMILES IDX 30 41 31 42 32 43 33 44 34 45 95 46 35 47 94 48 36 49 37 50
REMARK SMILES IDX 38 51 88 52 39 53 93 54 87 55 89 56 40 57 92 58 86 59 85 60
REMARK SMILES IDX 41 62 73 63 53 64 72 65 54 66 57 67 71 68 90 69 55 70 56 71
REMARK SMILES IDX 70 73 91 74 58 75 42 76 43 77 51 78 44 79 50 80 52 81 49 82
REMARK SMILES IDX 45 83 46 84 47 85 48 86 74 87 75 88 83 89 76 90 82 91 84 92
REMARK SMILES IDX 81 93 77 94 78 95 79 96 80 97 59 98 60 99 68 100 61 101
REMARK SMILES IDX 67 102 69 103 66 104 62 105 63 106 64 107 65 108
REMARK H PARENT 89 61 57 72
REMARK Flexibility Score: inf
ROOT
ATOM      1  C   UNL     1      -2.905  11.365   2.747  1.00  0.00     0.188 C 
ENDROOT
BRANCH   1   2
ATOM      2  O   UNL     1      -2.707  10.897   1.411  1.00  0.00    -0.377 OA
BRANCH   2   3
ATOM      3  C   UNL     1      -1.336  10.667   1.117  1.00  0.00     0.188 C 
BRANCH   3   4
ATOM      4  C   UNL     1      -0.981  11.043  -0.316  1.00  0.00     0.188 C 
BRANCH   4   5
ATOM      5  O   UNL     1      -1.042  12.430  -0.641  1.00  0.00    -0.376 OA
BRANCH   5   6
ATOM      6  C   UNL     1      -2.343  12.881  -1.034  1.00  0.00     0.202 C 
BRANCH   6   7
ATOM      7  C   UNL     1      -2.747  12.469  -2.452  1.00  0.00     0.261 C 
BRANCH   7   8
ATOM      8  O   UNL     1      -3.112  11.086  -2.495  1.00  0.00    -0.460 OA
BRANCH   8   9
ATOM      9  C   UNL     1      -2.504  10.362  -3.460  1.00  0.00     0.338 C 
ATOM     10  O   UNL     1      -1.889  10.772  -4.424  1.00  0.00    -0.246 OA
BRANCH   9  11
ATOM     11  C   UNL     1      -2.337   9.005  -2.907  1.00  0.00     0.060 A 
ATOM     12  C   UNL     1      -1.686   6.729  -1.421  1.00  0.00    -0.025 A 
ATOM     13  C   UNL     1      -0.697   7.433  -2.126  1.00  0.00     0.009 A 
ATOM     14  C   UNL     1      -3.019   7.155  -1.508  1.00  0.00     0.009 A 
ATOM     15  C   UNL     1      -1.020   8.549  -2.881  1.00  0.00     0.016 A 
ATOM     16  C   UNL     1      -3.344   8.313  -2.228  1.00  0.00     0.016 A 
BRANCH  12  17
ATOM     17  C   UNL     1      -1.214   5.532  -0.718  1.00  0.00     0.022 C 
ATOM     18  N   UNL     1      -1.661   2.447   0.663  1.00  0.00    -0.242 N 
ATOM     19  C   UNL     1      -0.879   3.610   0.613  1.00  0.00     0.265 C 
ATOM     20  C   UNL     1      -3.031   2.545   1.020  1.00  0.00     0.265 C 
ATOM     21  O   UNL     1       0.334   3.731   0.768  1.00  0.00    -0.268 OA
ATOM     22  C   UNL     1      -1.672   4.846   0.343  1.00  0.00     0.049 C 
ATOM     23  C   UNL     1      -3.530   3.869   1.510  1.00  0.00     0.048 A 
ATOM     24  O   UNL     1      -3.864   1.640   1.018  1.00  0.00    -0.268 OA
ATOM     25  C   UNL     1      -2.839   5.036   1.181  1.00  0.00    -0.000 A 
ATOM     26  C   UNL     1      -4.672   3.936   2.319  1.00  0.00     0.014 A 
ATOM     27  C   UNL     1      -3.234   6.260   1.733  1.00  0.00     0.010 A 
ATOM     28  C   UNL     1      -5.082   5.163   2.844  1.00  0.00     0.001 A 
ATOM     29  C   UNL     1      -4.355   6.320   2.564  1.00  0.00     0.001 A 
BRANCH  18  30
ATOM     30  C   UNL     1      -1.033   1.145   0.400  1.00  0.00     0.053 A 
ATOM     31  C   UNL     1       2.491  -0.327  -0.063  1.00  0.00     0.044 C 
ATOM     32  C   UNL     1       0.995  -0.242   0.024  1.00  0.00    -0.049 A 
ATOM     33  C   UNL     1       0.216  -1.387  -0.091  1.00  0.00     0.003 A 
ATOM     34  C   UNL     1       0.364   0.996   0.261  1.00  0.00     0.030 A 
ATOM     35  C   UNL     1      -1.165  -1.282   0.007  1.00  0.00     0.002 A 
ATOM     36  C   UNL     1      -1.774  -0.039   0.243  1.00  0.00     0.027 A 
ENDBRANCH  18  30
ENDBRANCH  12  17
ENDBRANCH   9  11
ENDBRANCH   8   9
ENDBRANCH   7   8
ENDBRANCH   6   7
ENDBRANCH   5   6
ENDBRANCH   4   5
ENDBRANCH   3   4
ENDBRANCH   2   3
ENDBRANCH   1   2
BRANCH   1  37
ATOM     37  C   UNL     1      -2.861  12.888   2.798  1.00  0.00     0.188 C 
BRANCH  37  38
ATOM     38  O   UNL     1      -1.679  13.505   2.290  1.00  0.00    -0.376 OA
BRANCH  38  39
ATOM     39  C   UNL     1      -0.571  13.635   3.167  1.00  0.00     0.202 C 
BRANCH  39  40
ATOM     40  C   UNL     1      -0.836  14.468   4.430  1.00  0.00     0.261 C 
BRANCH  40  41
ATOM     41  O   UNL     1      -1.335  15.769   4.067  1.00  0.00    -0.460 OA
BRANCH  41  42
ATOM     42  C   UNL     1      -2.600  16.034   4.500  1.00  0.00     0.338 C 
ATOM     43  O   UNL     1      -2.958  16.026   5.663  1.00  0.00    -0.246 OA
BRANCH  42  44
ATOM     44  C   UNL     1      -3.508  16.157   3.324  1.00  0.00     0.060 A 
ATOM     45  C   UNL     1      -4.876  15.869   3.466  1.00  0.00     0.016 A 
ATOM     46  C   UNL     1      -2.955  16.269   2.052  1.00  0.00     0.016 A 
ATOM     47  C   UNL     1      -5.641  15.518   2.340  1.00  0.00     0.010 A 
ATOM     48  C   UNL     1      -3.696  15.853   0.960  1.00  0.00     0.010 A 
ATOM     49  C   UNL     1      -5.024  15.411   1.089  1.00  0.00    -0.014 A 
BRANCH  49  50
ATOM     50  C   UNL     1      -5.540  14.602  -0.043  1.00  0.00     0.031 A 
ATOM     51  C   UNL     1      -5.409  15.084  -1.461  1.00  0.00     0.074 A 
ATOM     52  C   UNL     1      -5.775  13.281   0.183  1.00  0.00     0.049 A 
ATOM     53  N   UNL     1      -5.768  14.417  -2.508  1.00  0.00    -0.248 NA
ATOM     54  C   UNL     1      -4.867  16.393  -1.834  1.00  0.00     0.031 C 
ATOM     55  C   UNL     1      -5.623  12.187  -0.776  1.00  0.00     0.029 A 
ATOM     56  N   UNL     1      -6.168  12.615   1.342  1.00  0.00    -0.354 N 
ATOM     57  C   UNL     1      -5.151  14.973  -3.614  1.00  0.00     0.074 A 
ATOM     58  C   UNL     1      -4.734  16.274  -3.161  1.00  0.00     0.031 C 
ATOM     59  C   UNL     1      -5.944  11.014  -0.213  1.00  0.00     0.029 A 
ATOM     60  C   UNL     1      -6.639  11.333   1.005  1.00  0.00     0.049 A 
ATOM     61  H   UNL     1      -6.122  12.983   2.254  1.00  0.00     0.167 HD
ATOM     62  C   UNL     1      -4.915  14.195  -4.719  1.00  0.00     0.034 A 
ATOM     63  C   UNL     1      -7.960  11.023   1.186  1.00  0.00     0.034 A 
ATOM     64  C   UNL     1      -5.625  12.902  -4.647  1.00  0.00     0.049 A 
ATOM     65  C   UNL     1      -8.724  10.918  -0.131  1.00  0.00     0.074 A 
ATOM     66  C   UNL     1      -5.279  11.580  -4.874  1.00  0.00     0.029 A 
ATOM     67  N   UNL     1      -6.929  12.860  -4.152  1.00  0.00    -0.354 N 
ATOM     68  N   UNL     1      -8.235  11.338  -1.274  1.00  0.00    -0.248 NA
ATOM     69  C   UNL     1     -10.023  10.279  -0.319  1.00  0.00     0.031 C 
ATOM     70  C   UNL     1      -6.319  10.751  -4.359  1.00  0.00     0.029 A 
ATOM     71  C   UNL     1      -7.356  11.569  -3.940  1.00  0.00     0.049 A 
ATOM     72  H   UNL     1      -7.478  13.658  -3.976  1.00  0.00     0.167 HD
ATOM     73  C   UNL     1      -9.062  11.021  -2.312  1.00  0.00     0.074 A 
ATOM     74  C   UNL     1     -10.184  10.370  -1.656  1.00  0.00     0.031 C 
ATOM     75  C   UNL     1      -8.753  11.315  -3.614  1.00  0.00     0.034 A 
BRANCH  62  76
ATOM     76  C   UNL     1      -3.859  14.478  -5.801  1.00  0.00     0.023 A 
ATOM     77  C   UNL     1      -3.789  13.651  -6.953  1.00  0.00     0.031 A 
ATOM     78  C   UNL     1      -2.817  15.430  -5.705  1.00  0.00     0.131 A 
ATOM     79  C   UNL     1      -2.741  13.766  -7.897  1.00  0.00     0.055 A 
ATOM     80  C   UNL     1      -1.822  15.596  -6.684  1.00  0.00     0.041 A 
ATOM     81  F   UNL     1      -2.657  16.213  -4.631  1.00  0.00    -0.206 F 
ATOM     82  C   UNL     1      -1.771  14.755  -7.781  1.00  0.00     0.022 A 
BRANCH  79  83
ATOM     83  S   UNL     1      -2.623  12.589  -9.282  1.00  0.00     0.124 S 
ATOM     84  O   UNL     1      -2.201  11.361  -8.618  1.00  0.00    -0.237 OA
ATOM     85  O   UNL     1      -3.977  12.598  -9.824  1.00  0.00    -0.237 OA
ATOM     86  O   UNL     1      -1.614  13.192 -10.155  1.00  0.00    -0.744 OA
ENDBRANCH  79  83
ENDBRANCH  62  76
BRANCH  63  87
ATOM     87  C   UNL     1      -8.382  11.379   2.580  1.00  0.00     0.023 A 
ATOM     88  C   UNL     1      -7.676  10.649   3.571  1.00  0.00     0.031 A 
ATOM     89  C   UNL     1      -8.767  12.693   2.895  1.00  0.00     0.131 A 
ATOM     90  C   UNL     1      -7.107  11.321   4.663  1.00  0.00     0.055 A 
ATOM     91  C   UNL     1      -8.273  13.334   4.044  1.00  0.00     0.041 A 
ATOM     92  F   UNL     1      -9.449  13.434   2.010  1.00  0.00    -0.206 F 
ATOM     93  C   UNL     1      -7.380  12.672   4.891  1.00  0.00     0.022 A 
BRANCH  90  94
ATOM     94  S   UNL     1      -5.725  10.540   5.568  1.00  0.00     0.124 S 
ATOM     95  O   UNL     1      -6.362  10.143   6.817  1.00  0.00    -0.237 OA
ATOM     96  O   UNL     1      -5.317   9.445   4.691  1.00  0.00    -0.237 OA
ATOM     97  O   UNL     1      -4.753  11.629   5.659  1.00  0.00    -0.744 OA
ENDBRANCH  90  94
ENDBRANCH  63  87
BRANCH  75  98
ATOM     98  C   UNL     1      -9.737  11.388  -4.765  1.00  0.00     0.023 A 
ATOM     99  C   UNL     1     -11.119  11.432  -4.569  1.00  0.00     0.031 A 
ATOM    100  C   UNL     1      -9.301  11.593  -6.104  1.00  0.00     0.131 A 
ATOM    101  C   UNL     1     -11.998  11.608  -5.651  1.00  0.00     0.055 A 
ATOM    102  C   UNL     1     -10.172  11.853  -7.163  1.00  0.00     0.041 A 
ATOM    103  F   UNL     1      -8.006  11.580  -6.449  1.00  0.00    -0.206 F 
ATOM    104  C   UNL     1     -11.536  11.851  -6.942  1.00  0.00     0.022 A 
BRANCH 101 105
ATOM    105  S   UNL     1     -13.768  11.459  -5.325  1.00  0.00     0.124 S 
ATOM    106  O   UNL     1     -13.870  10.074  -4.873  1.00  0.00    -0.237 OA
ATOM    107  O   UNL     1     -13.985  12.475  -4.300  1.00  0.00    -0.237 OA
ATOM    108  O   UNL     1     -14.383  11.738  -6.620  1.00  0.00    -0.744 OA
ENDBRANCH 101 105
ENDBRANCH  75  98
ENDBRANCH  49  50
ENDBRANCH  42  44
ENDBRANCH  41  42
ENDBRANCH  40  41
ENDBRANCH  39  40
ENDBRANCH  38  39
ENDBRANCH  37  38
ENDBRANCH   1  37
TORSDOF 25
