REMARK SMILES CCN(CC)c1ccc(NC(=O)c2ccc(OC)cc2)cc1C(=O)OCCOCCOCCOCCOC(=O)c1ccc(-c2c3nc(c(-c4cc(S(=O)(=O)[O-])ccc4F)c4ccc([nH]4)c(-c4cc(S(=O)(=O)[O-])ccc4F)c4nc(c(-c5cc(S(=O)(=O)[O-])ccc5F)c5ccc2[nH]5)C=C4)C=C3)cc1
REMARK SMILES IDX 31 1 30 2 29 3 28 4 27 5 26 6 25 7 23 8 24 9 22 10 6 11 7 12
REMARK SMILES IDX 8 13 21 14 9 15 3 16 2 17 1 18 4 19 5 20 10 21 11 22 12 24
REMARK SMILES IDX 13 25 14 26 20 27 15 28 19 29 16 30 17 31 18 32 32 33 33 34
REMARK SMILES IDX 34 35 35 36 36 37 37 38 38 39 39 40 40 41 41 42 102 43 42 44
REMARK SMILES IDX 101 45 43 46 44 47 45 48 95 49 46 50 100 51 94 52 96 53
REMARK SMILES IDX 47 54 99 55 93 56 92 57 48 59 80 60 60 61 79 62 61 63 64 64
REMARK SMILES IDX 78 65 97 66 62 67 63 68 77 70 98 71 65 72 49 73 50 74 58 75
REMARK SMILES IDX 51 76 57 77 59 78 56 79 52 80 53 81 54 82 55 83 81 84 82 85
REMARK SMILES IDX 90 86 83 87 89 88 91 89 88 90 84 91 85 92 86 93 87 94 66 95
REMARK SMILES IDX 67 96 75 97 68 98 74 99 76 100 73 101 69 102 70 103 71 104
REMARK SMILES IDX 72 105
REMARK H PARENT 10 23 96 58 64 69
REMARK Flexibility Score: inf
ROOT
ATOM      1  O   UNL     1       1.641  -2.828   2.309  1.00  0.00    -0.377 OA
ENDROOT
BRANCH   1   2
ATOM      2  C   UNL     1       2.471  -2.032   1.485  1.00  0.00     0.188 C 
BRANCH   2   3
ATOM      3  C   UNL     1       3.475  -1.130   2.222  1.00  0.00     0.188 C 
BRANCH   3   4
ATOM      4  O   UNL     1       3.003  -0.028   2.990  1.00  0.00    -0.376 OA
BRANCH   4   5
ATOM      5  C   UNL     1       2.170   0.972   2.408  1.00  0.00     0.202 C 
BRANCH   5   6
ATOM      6  C   UNL     1       2.533   1.507   1.023  1.00  0.00     0.261 C 
BRANCH   6   7
ATOM      7  O   UNL     1       2.440   0.450   0.060  1.00  0.00    -0.460 OA
BRANCH   7   8
ATOM      8  C   UNL     1       3.192   0.566  -1.053  1.00  0.00     0.340 C 
ATOM      9  O   UNL     1       3.815   1.555  -1.405  1.00  0.00    -0.246 OA
BRANCH   8  10
ATOM     10  C   UNL     1       3.406  -0.787  -1.622  1.00  0.00     0.085 A 
ATOM     11  C   UNL     1       2.383  -1.681  -2.025  1.00  0.00     0.051 A 
ATOM     12  C   UNL     1       2.827  -2.976  -2.353  1.00  0.00     0.029 A 
ATOM     13  C   UNL     1       4.176  -3.347  -2.362  1.00  0.00     0.028 A 
ATOM     14  C   UNL     1       4.772  -1.166  -1.621  1.00  0.00     0.044 A 
ATOM     15  C   UNL     1       5.164  -2.426  -2.053  1.00  0.00     0.042 A 
BRANCH  11  16
ATOM     16  N   UNL     1       1.025  -1.387  -2.108  1.00  0.00    -0.371 N 
BRANCH  16  17
ATOM     17  C   UNL     1       0.555  -0.101  -2.647  1.00  0.00     0.113 C 
ATOM     18  C   UNL     1      -0.119   0.760  -1.587  1.00  0.00     0.027 C 
ENDBRANCH  16  17
BRANCH  16  19
ATOM     19  C   UNL     1      -0.009  -2.425  -1.903  1.00  0.00     0.113 C 
ATOM     20  C   UNL     1      -0.444  -3.110  -3.197  1.00  0.00     0.027 C 
ENDBRANCH  16  19
ENDBRANCH  11  16
BRANCH  15  21
ATOM     21  N   UNL     1       6.539  -2.713  -2.148  1.00  0.00    -0.322 N 
ATOM     22  C   UNL     1       7.188  -3.620  -2.969  1.00  0.00     0.255 C 
ATOM     23  H   UNL     1       7.122  -2.196  -1.546  1.00  0.00     0.170 HD
ATOM     24  O   UNL     1       8.355  -3.940  -2.760  1.00  0.00    -0.269 OA
BRANCH  22  25
ATOM     25  C   UNL     1       6.496  -4.146  -4.171  1.00  0.00     0.040 A 
ATOM     26  C   UNL     1       6.474  -5.523  -4.401  1.00  0.00     0.017 A 
ATOM     27  C   UNL     1       5.812  -3.278  -5.032  1.00  0.00     0.017 A 
ATOM     28  C   UNL     1       5.672  -6.032  -5.426  1.00  0.00     0.047 A 
ATOM     29  C   UNL     1       4.999  -3.794  -6.042  1.00  0.00     0.047 A 
ATOM     30  C   UNL     1       4.894  -5.175  -6.212  1.00  0.00     0.118 A 
BRANCH  30  31
ATOM     31  O   UNL     1       4.078  -5.785  -7.125  1.00  0.00    -0.497 OA
ATOM     32  C   UNL     1       2.883  -5.070  -7.436  1.00  0.00     0.278 C 
ENDBRANCH  30  31
ENDBRANCH  22  25
ENDBRANCH  15  21
ENDBRANCH   8  10
ENDBRANCH   7   8
ENDBRANCH   6   7
ENDBRANCH   5   6
ENDBRANCH   4   5
ENDBRANCH   3   4
ENDBRANCH   2   3
ENDBRANCH   1   2
BRANCH   1  33
ATOM     33  C   UNL     1       0.552  -2.137   2.899  1.00  0.00     0.188 C 
BRANCH  33  34
ATOM     34  C   UNL     1       0.749  -1.826   4.390  1.00  0.00     0.188 C 
BRANCH  34  35
ATOM     35  O   UNL     1       1.385  -2.737   5.286  1.00  0.00    -0.376 OA
BRANCH  35  36
ATOM     36  C   UNL     1       1.938  -3.949   4.808  1.00  0.00     0.202 C 
BRANCH  36  37
ATOM     37  C   UNL     1       0.943  -5.101   4.601  1.00  0.00     0.261 C 
BRANCH  37  38
ATOM     38  O   UNL     1      -0.326  -4.725   4.047  1.00  0.00    -0.460 OA
BRANCH  38  39
ATOM     39  C   UNL     1      -1.256  -4.355   4.963  1.00  0.00     0.338 C 
ATOM     40  O   UNL     1      -1.135  -4.359   6.175  1.00  0.00    -0.246 OA
BRANCH  39  41
ATOM     41  C   UNL     1      -2.446  -3.811   4.272  1.00  0.00     0.060 A 
ATOM     42  C   UNL     1      -2.967  -2.591   4.722  1.00  0.00     0.016 A 
ATOM     43  C   UNL     1      -3.082  -4.516   3.246  1.00  0.00     0.016 A 
ATOM     44  C   UNL     1      -4.152  -2.094   4.181  1.00  0.00     0.010 A 
ATOM     45  C   UNL     1      -4.284  -4.029   2.720  1.00  0.00     0.010 A 
ATOM     46  C   UNL     1      -4.842  -2.837   3.215  1.00  0.00    -0.014 A 
BRANCH  46  47
ATOM     47  C   UNL     1      -6.248  -2.482   2.905  1.00  0.00     0.031 A 
ATOM     48  C   UNL     1      -7.340  -3.164   3.683  1.00  0.00     0.074 A 
ATOM     49  C   UNL     1      -6.548  -1.558   1.977  1.00  0.00     0.049 A 
ATOM     50  N   UNL     1      -8.637  -3.039   3.587  1.00  0.00    -0.248 NA
ATOM     51  C   UNL     1      -6.898  -4.122   4.707  1.00  0.00     0.031 C 
ATOM     52  C   UNL     1      -5.574  -0.808   1.187  1.00  0.00     0.029 A 
ATOM     53  N   UNL     1      -7.765  -1.102   1.537  1.00  0.00    -0.354 N 
ATOM     54  C   UNL     1      -9.170  -3.901   4.541  1.00  0.00     0.074 A 
ATOM     55  C   UNL     1      -8.052  -4.574   5.168  1.00  0.00     0.031 C 
ATOM     56  C   UNL     1      -6.234  -0.002   0.337  1.00  0.00     0.029 A 
ATOM     57  C   UNL     1      -7.673  -0.199   0.506  1.00  0.00     0.049 A 
ATOM     58  H   UNL     1      -8.622  -1.394   1.923  1.00  0.00     0.167 HD
ATOM     59  C   UNL     1     -10.470  -4.104   4.870  1.00  0.00     0.034 A 
ATOM     60  C   UNL     1      -8.640   0.377  -0.236  1.00  0.00     0.034 A 
ATOM     61  C   UNL     1     -11.571  -3.449   4.208  1.00  0.00     0.049 A 
ATOM     62  C   UNL     1     -10.084   0.076   0.082  1.00  0.00     0.074 A 
ATOM     63  C   UNL     1     -12.926  -3.566   4.460  1.00  0.00     0.029 A 
ATOM     64  N   UNL     1     -11.442  -2.567   3.140  1.00  0.00    -0.354 N 
ATOM     65  N   UNL     1     -10.579  -0.721   1.002  1.00  0.00    -0.248 NA
ATOM     66  C   UNL     1     -11.098   0.761  -0.730  1.00  0.00     0.031 C 
ATOM     67  C   UNL     1     -13.617  -2.816   3.500  1.00  0.00     0.029 A 
ATOM     68  C   UNL     1     -12.692  -2.166   2.696  1.00  0.00     0.049 A 
ATOM     69  H   UNL     1     -10.585  -2.271   2.755  1.00  0.00     0.167 HD
ATOM     70  C   UNL     1     -11.964  -0.619   0.890  1.00  0.00     0.074 A 
ATOM     71  C   UNL     1     -12.223   0.327  -0.178  1.00  0.00     0.031 C 
ATOM     72  C   UNL     1     -12.934  -1.243   1.609  1.00  0.00     0.034 A 
BRANCH  59  73
ATOM     73  C   UNL     1     -10.748  -5.129   5.946  1.00  0.00     0.023 A 
ATOM     74  C   UNL     1     -10.266  -4.972   7.259  1.00  0.00     0.031 A 
ATOM     75  C   UNL     1     -11.426  -6.320   5.635  1.00  0.00     0.131 A 
ATOM     76  C   UNL     1     -10.378  -6.027   8.178  1.00  0.00     0.055 A 
ATOM     77  C   UNL     1     -11.613  -7.330   6.581  1.00  0.00     0.041 A 
ATOM     78  F   UNL     1     -11.889  -6.539   4.394  1.00  0.00    -0.206 F 
ATOM     79  C   UNL     1     -11.069  -7.197   7.854  1.00  0.00     0.022 A 
BRANCH  76  80
ATOM     80  S   UNL     1      -9.441  -5.926   9.729  1.00  0.00     0.124 S 
ATOM     81  O   UNL     1      -8.083  -5.705   9.241  1.00  0.00    -0.237 OA
ATOM     82  O   UNL     1     -10.072  -4.797  10.403  1.00  0.00    -0.237 OA
ATOM     83  O   UNL     1      -9.666  -7.230  10.350  1.00  0.00    -0.744 OA
ENDBRANCH  76  80
ENDBRANCH  59  73
BRANCH  60  84
ATOM     84  C   UNL     1      -8.271   1.249  -1.386  1.00  0.00     0.023 A 
ATOM     85  C   UNL     1      -8.530   2.627  -1.379  1.00  0.00     0.031 A 
ATOM     86  C   UNL     1      -7.650   0.697  -2.522  1.00  0.00     0.131 A 
ATOM     87  C   UNL     1      -8.188   3.406  -2.498  1.00  0.00     0.055 A 
ATOM     88  C   UNL     1      -7.278   1.481  -3.614  1.00  0.00     0.041 A 
ATOM     89  F   UNL     1      -7.375  -0.616  -2.574  1.00  0.00    -0.206 F 
ATOM     90  C   UNL     1      -7.554   2.844  -3.609  1.00  0.00     0.022 A 
BRANCH  87  91
ATOM     91  S   UNL     1      -8.613   5.170  -2.497  1.00  0.00     0.124 S 
ATOM     92  O   UNL     1     -10.069   5.125  -2.422  1.00  0.00    -0.237 OA
ATOM     93  O   UNL     1      -7.922   5.647  -1.304  1.00  0.00    -0.237 OA
ATOM     94  O   UNL     1      -8.065   5.651  -3.764  1.00  0.00    -0.744 OA
ENDBRANCH  87  91
ENDBRANCH  60  84
BRANCH  72  95
ATOM     95  C   UNL     1     -14.365  -0.897   1.276  1.00  0.00     0.023 A 
ATOM     96  C   UNL     1     -14.951  -1.264   0.052  1.00  0.00     0.031 A 
ATOM     97  C   UNL     1     -15.154  -0.188   2.200  1.00  0.00     0.131 A 
ATOM     98  C   UNL     1     -16.269  -0.877  -0.236  1.00  0.00     0.055 A 
ATOM     99  C   UNL     1     -16.483   0.143   1.932  1.00  0.00     0.041 A 
ATOM    100  F   UNL     1     -14.646   0.190   3.384  1.00  0.00    -0.206 F 
ATOM    101  C   UNL     1     -17.044  -0.191   0.703  1.00  0.00     0.022 A 
BRANCH  98 102
ATOM    102  S   UNL     1     -16.933  -1.207  -1.892  1.00  0.00     0.124 S 
ATOM    103  O   UNL     1     -15.985  -0.497  -2.745  1.00  0.00    -0.237 OA
ATOM    104  O   UNL     1     -16.887  -2.663  -1.963  1.00  0.00    -0.237 OA
ATOM    105  O   UNL     1     -18.275  -0.631  -1.844  1.00  0.00    -0.744 OA
ENDBRANCH  98 102
ENDBRANCH  72  95
ENDBRANCH  46  47
ENDBRANCH  39  41
ENDBRANCH  38  39
ENDBRANCH  37  38
ENDBRANCH  36  37
ENDBRANCH  35  36
ENDBRANCH  34  35
ENDBRANCH  33  34
ENDBRANCH   1  33
TORSDOF 29
