REMARK SMILES [NH3+][C@@]1(C(=O)OCCOCCOCCOCCOC(=O)c2ccc(-c3c4nc(c(-c5cc(S(=O)(=O)[O-])ccc5F)c5ccc([nH]5)c(-c5cc(S(=O)(=O)[O-])ccc5F)c5nc(c(-c6cc(S(=O)(=O)[O-])ccc6F)c6ccc3[nH]6)C=C5)C=C4)cc2)CC[C@@H](Sc2ccc(Cl)c(Cl)c2)C1
REMARK SMILES IDX 12 1 11 2 10 3 9 4 8 5 7 6 6 7 5 8 3 9 4 10 2 11 83 12 95 13
REMARK SMILES IDX 84 14 85 15 1 16 86 20 87 21 88 22 94 23 89 24 92 25 90 26
REMARK SMILES IDX 93 27 91 28 13 29 14 30 15 31 16 32 17 33 18 34 19 35 20 36
REMARK SMILES IDX 21 37 82 38 22 39 81 40 23 41 24 42 25 43 75 44 26 45 80 46
REMARK SMILES IDX 74 47 76 48 27 49 79 50 73 51 72 52 28 54 60 55 40 56 59 57
REMARK SMILES IDX 41 58 44 59 58 60 77 61 42 62 43 63 57 65 78 66 45 67 29 68
REMARK SMILES IDX 30 69 38 70 31 71 37 72 39 73 36 74 32 75 33 76 34 77 35 78
REMARK SMILES IDX 61 79 62 80 70 81 63 82 69 83 71 84 68 85 64 86 65 87 66 88
REMARK SMILES IDX 67 89 46 90 47 91 55 92 48 93 54 94 56 95 53 96 49 97 50 98
REMARK SMILES IDX 51 99 52 100
REMARK H PARENT 1 17 1 18 1 19 76 53 44 64
REMARK Flexibility Score: inf
ROOT
ATOM      1  C   UNL     1      -4.008  -1.038   2.052  1.00  0.00     0.188 C 
ENDROOT
BRANCH   1   2
ATOM      2  O   UNL     1      -2.691  -0.677   2.429  1.00  0.00    -0.377 OA
BRANCH   2   3
ATOM      3  C   UNL     1      -1.833  -0.451   1.341  1.00  0.00     0.188 C 
BRANCH   3   4
ATOM      4  C   UNL     1      -2.104   0.622   0.292  1.00  0.00     0.188 C 
BRANCH   4   5
ATOM      5  O   UNL     1      -3.161   0.476  -0.634  1.00  0.00    -0.376 OA
BRANCH   5   6
ATOM      6  C   UNL     1      -3.516  -0.710  -1.318  1.00  0.00     0.202 C 
BRANCH   6   7
ATOM      7  C   UNL     1      -2.577  -1.850  -1.776  1.00  0.00     0.261 C 
BRANCH   7   8
ATOM      8  O   UNL     1      -1.429  -2.185  -0.981  1.00  0.00    -0.459 OA
BRANCH   8   9
ATOM      9  C   UNL     1      -0.277  -1.576  -1.361  1.00  0.00     0.368 C 
ATOM     10  O   UNL     1      -0.211  -0.827  -2.333  1.00  0.00    -0.245 OA
BRANCH   9  11
ATOM     11  C   UNL     1       0.965  -1.914  -0.454  1.00  0.00     0.193 C 
ATOM     12  C   UNL     1       1.715  -3.077  -1.114  1.00  0.00     0.082 C 
ATOM     13  C   UNL     1       0.773  -2.388   1.006  1.00  0.00     0.095 C 
ATOM     14  C   UNL     1       1.197  -4.322  -0.398  1.00  0.00     0.022 C 
ATOM     15  C   UNL     1       0.995  -3.900   1.051  1.00  0.00     0.059 C 
BRANCH  11  16
ATOM     16  N   UNL     1       1.806  -0.691  -0.445  1.00  0.00    -0.343 N 
ATOM     17  H   UNL     1       1.942  -0.365  -1.402  1.00  0.00     0.345 HD
ATOM     18  H   UNL     1       2.711  -0.904  -0.026  1.00  0.00     0.345 HD
ATOM     19  H   UNL     1       1.342   0.036   0.099  1.00  0.00     0.345 HD
ENDBRANCH  11  16
BRANCH  15  20
ATOM     20  S   UNL     1       2.290  -4.416   2.261  1.00  0.00    -0.122 SA
BRANCH  20  21
ATOM     21  C   UNL     1       3.777  -3.744   1.558  1.00  0.00     0.009 A 
ATOM     22  C   UNL     1       4.607  -4.573   0.801  1.00  0.00     0.017 A 
ATOM     23  C   UNL     1       4.139  -2.410   1.760  1.00  0.00     0.037 A 
ATOM     24  C   UNL     1       5.752  -4.055   0.190  1.00  0.00     0.023 A 
ATOM     25  C   UNL     1       5.267  -1.880   1.126  1.00  0.00     0.060 A 
ATOM     26  C   UNL     1       6.074  -2.703   0.335  1.00  0.00     0.059 A 
ATOM     27  Cl  UNL     1       5.585  -0.195   1.337  1.00  0.00    -0.083 Cl
ATOM     28  Cl  UNL     1       7.474  -2.117  -0.487  1.00  0.00    -0.083 Cl
ENDBRANCH  20  21
ENDBRANCH  15  20
ENDBRANCH   9  11
ENDBRANCH   8   9
ENDBRANCH   7   8
ENDBRANCH   6   7
ENDBRANCH   5   6
ENDBRANCH   4   5
ENDBRANCH   3   4
ENDBRANCH   2   3
ENDBRANCH   1   2
BRANCH   1  29
ATOM     29  C   UNL     1      -4.915   0.183   2.127  1.00  0.00     0.188 C 
BRANCH  29  30
ATOM     30  O   UNL     1      -4.272   1.375   2.539  1.00  0.00    -0.376 OA
BRANCH  30  31
ATOM     31  C   UNL     1      -3.676   1.508   3.823  1.00  0.00     0.202 C 
BRANCH  31  32
ATOM     32  C   UNL     1      -3.474   0.417   4.908  1.00  0.00     0.261 C 
BRANCH  32  33
ATOM     33  O   UNL     1      -4.210  -0.805   4.858  1.00  0.00    -0.460 OA
BRANCH  33  34
ATOM     34  C   UNL     1      -5.526  -0.765   5.141  1.00  0.00     0.338 C 
ATOM     35  O   UNL     1      -6.177   0.219   5.440  1.00  0.00    -0.246 OA
BRANCH  34  36
ATOM     36  C   UNL     1      -6.073  -2.104   4.813  1.00  0.00     0.060 A 
ATOM     37  C   UNL     1      -7.063  -2.204   3.827  1.00  0.00     0.016 A 
ATOM     38  C   UNL     1      -5.580  -3.257   5.434  1.00  0.00     0.016 A 
ATOM     39  C   UNL     1      -7.586  -3.450   3.481  1.00  0.00     0.010 A 
ATOM     40  C   UNL     1      -6.129  -4.503   5.111  1.00  0.00     0.010 A 
ATOM     41  C   UNL     1      -7.158  -4.599   4.157  1.00  0.00    -0.014 A 
BRANCH  41  42
ATOM     42  C   UNL     1      -7.959  -5.843   4.042  1.00  0.00     0.031 A 
ATOM     43  C   UNL     1      -9.008  -6.099   5.090  1.00  0.00     0.074 A 
ATOM     44  C   UNL     1      -7.800  -6.699   3.018  1.00  0.00     0.049 A 
ATOM     45  N   UNL     1      -9.816  -7.116   5.233  1.00  0.00    -0.248 NA
ATOM     46  C   UNL     1      -9.159  -5.058   6.119  1.00  0.00     0.031 C 
ATOM     47  C   UNL     1      -6.863  -6.527   1.910  1.00  0.00     0.029 A 
ATOM     48  N   UNL     1      -8.428  -7.889   2.747  1.00  0.00    -0.354 N 
ATOM     49  C   UNL     1     -10.571  -6.839   6.368  1.00  0.00     0.074 A 
ATOM     50  C   UNL     1     -10.088  -5.582   6.899  1.00  0.00     0.031 C 
ATOM     51  C   UNL     1      -6.975  -7.579   1.079  1.00  0.00     0.029 A 
ATOM     52  C   UNL     1      -7.960  -8.517   1.617  1.00  0.00     0.049 A 
ATOM     53  H   UNL     1      -9.147  -8.258   3.309  1.00  0.00     0.167 HD
ATOM     54  C   UNL     1     -11.581  -7.561   6.912  1.00  0.00     0.034 A 
ATOM     55  C   UNL     1      -8.275  -9.721   1.095  1.00  0.00     0.034 A 
ATOM     56  C   UNL     1     -12.031  -8.826   6.385  1.00  0.00     0.049 A 
ATOM     57  C   UNL     1      -9.320 -10.568   1.785  1.00  0.00     0.074 A 
ATOM     58  C   UNL     1     -13.043  -9.644   6.854  1.00  0.00     0.029 A 
ATOM     59  N   UNL     1     -11.482  -9.467   5.281  1.00  0.00    -0.354 N 
ATOM     60  N   UNL     1     -10.030 -10.299   2.857  1.00  0.00    -0.248 NA
ATOM     61  C   UNL     1      -9.608 -11.880   1.189  1.00  0.00     0.031 C 
ATOM     62  C   UNL     1     -13.049 -10.815   6.088  1.00  0.00     0.029 A 
ATOM     63  C   UNL     1     -12.106 -10.689   5.080  1.00  0.00     0.049 A 
ATOM     64  H   UNL     1     -10.757  -9.105   4.722  1.00  0.00     0.167 HD
ATOM     65  C   UNL     1     -10.872 -11.394   3.042  1.00  0.00     0.074 A 
ATOM     66  C   UNL     1     -10.588 -12.320   1.965  1.00  0.00     0.031 C 
ATOM     67  C   UNL     1     -11.802 -11.612   4.009  1.00  0.00     0.034 A 
BRANCH  54  68
ATOM     68  C   UNL     1     -12.209  -7.020   8.175  1.00  0.00     0.023 A 
ATOM     69  C   UNL     1     -12.866  -5.776   8.202  1.00  0.00     0.031 A 
ATOM     70  C   UNL     1     -12.093  -7.726   9.385  1.00  0.00     0.131 A 
ATOM     71  C   UNL     1     -13.296  -5.237   9.424  1.00  0.00     0.055 A 
ATOM     72  C   UNL     1     -12.608  -7.226  10.583  1.00  0.00     0.041 A 
ATOM     73  F   UNL     1     -11.453  -8.905   9.430  1.00  0.00    -0.206 F 
ATOM     74  C   UNL     1     -13.197  -5.966  10.611  1.00  0.00     0.022 A 
BRANCH  71  75
ATOM     75  S   UNL     1     -13.818  -3.500   9.466  1.00  0.00     0.124 S 
ATOM     76  O   UNL     1     -12.636  -2.825   8.934  1.00  0.00    -0.237 OA
ATOM     77  O   UNL     1     -14.994  -3.503   8.605  1.00  0.00    -0.237 OA
ATOM     78  O   UNL     1     -14.080  -3.255  10.883  1.00  0.00    -0.744 OA
ENDBRANCH  71  75
ENDBRANCH  54  68
BRANCH  55  79
ATOM     79  C   UNL     1      -7.574 -10.223  -0.123  1.00  0.00     0.023 A 
ATOM     80  C   UNL     1      -8.274 -10.475  -1.314  1.00  0.00     0.031 A 
ATOM     81  C   UNL     1      -6.197 -10.508  -0.096  1.00  0.00     0.131 A 
ATOM     82  C   UNL     1      -7.603 -11.030  -2.415  1.00  0.00     0.055 A 
ATOM     83  C   UNL     1      -5.523 -11.010  -1.211  1.00  0.00     0.041 A 
ATOM     84  F   UNL     1      -5.480 -10.291   1.018  1.00  0.00    -0.206 F 
ATOM     85  C   UNL     1      -6.230 -11.285  -2.377  1.00  0.00     0.022 A 
BRANCH  82  86
ATOM     86  S   UNL     1      -8.568 -11.488  -3.882  1.00  0.00     0.124 S 
ATOM     87  O   UNL     1      -9.502 -12.462  -3.329  1.00  0.00    -0.237 OA
ATOM     88  O   UNL     1      -9.137 -10.205  -4.281  1.00  0.00    -0.237 OA
ATOM     89  O   UNL     1      -7.563 -12.031  -4.793  1.00  0.00    -0.744 OA
ENDBRANCH  82  86
ENDBRANCH  55  79
BRANCH  67  90
ATOM     90  C   UNL     1     -12.615 -12.883   3.916  1.00  0.00     0.023 A 
ATOM     91  C   UNL     1     -12.031 -14.153   4.063  1.00  0.00     0.031 A 
ATOM     92  C   UNL     1     -14.000 -12.819   3.673  1.00  0.00     0.131 A 
ATOM     93  C   UNL     1     -12.816 -15.307   3.909  1.00  0.00     0.055 A 
ATOM     94  C   UNL     1     -14.788 -13.968   3.590  1.00  0.00     0.041 A 
ATOM     95  F   UNL     1     -14.613 -11.635   3.519  1.00  0.00    -0.206 F 
ATOM     96  C   UNL     1     -14.194 -15.222   3.694  1.00  0.00     0.022 A 
BRANCH  93  97
ATOM     97  S   UNL     1     -11.994 -16.924   3.890  1.00  0.00     0.124 S 
ATOM     98  O   UNL     1     -11.050 -16.771   2.788  1.00  0.00    -0.237 OA
ATOM     99  O   UNL     1     -11.410 -16.993   5.225  1.00  0.00    -0.237 OA
ATOM    100  O   UNL     1     -13.088 -17.862   3.644  1.00  0.00    -0.744 OA
ENDBRANCH  93  97
ENDBRANCH  67  90
ENDBRANCH  41  42
ENDBRANCH  34  36
ENDBRANCH  33  34
ENDBRANCH  32  33
ENDBRANCH  31  32
ENDBRANCH  30  31
ENDBRANCH  29  30
ENDBRANCH   1  29
TORSDOF 26
