REMARK SMILES Cc1ccc(NC(=O)CN2C(=O)S/C(=C\c3cc(Cl)c(OCC(=O)OCCOCCOCCOCCOC(=O)c4ccc(-c5c6nc(c(-c7cc(S(=O)(=O)[O-])ccc7F)c7ccc([nH]7)c(-c7cc(S(=O)(=O)[O-])ccc7F)c7nc(c(-c8cc(S(=O)(=O)[O-])ccc8F)c8ccc5[nH]8)C=C7)C=C6)cc4)c(Cl)c3)C2=O)cc1
REMARK SMILES IDX 29 1 28 2 27 3 26 4 25 5 23 6 24 7 22 8 21 9 20 10 16 11
REMARK SMILES IDX 17 12 105 13 18 14 103 15 19 16 104 17 15 18 10 19 11 20
REMARK SMILES IDX 106 21 12 22 13 23 14 24 107 25 9 26 7 27 6 28 8 30 5 31
REMARK SMILES IDX 1 32 2 33 3 34 109 35 4 36 108 37 30 38 31 39 32 40 33 41
REMARK SMILES IDX 34 42 35 43 36 44 37 45 38 46 39 47 40 48 41 49 102 50 42 51
REMARK SMILES IDX 101 52 43 53 44 54 45 55 95 56 46 57 100 58 94 59 96 60
REMARK SMILES IDX 47 61 99 62 93 63 92 64 48 66 80 67 60 68 79 69 61 70 64 71
REMARK SMILES IDX 78 72 97 73 62 74 63 75 77 77 98 78 65 79 49 80 50 81 58 82
REMARK SMILES IDX 51 83 57 84 59 85 56 86 52 87 53 88 54 89 55 90 81 91 82 92
REMARK SMILES IDX 90 93 83 94 89 95 91 96 88 97 84 98 85 99 86 100 87 101
REMARK SMILES IDX 66 102 67 103 75 104 68 105 74 106 76 107 73 108 69 109
REMARK SMILES IDX 70 110 71 111 72 112
REMARK H PARENT 6 29 96 65 64 76
REMARK Flexibility Score: inf
ROOT
ATOM      1  C   UNL     1      -6.181  -2.646  -8.437  1.00  0.00     0.188 C 
ENDROOT
BRANCH   1   2
ATOM      2  O   UNL     1      -7.461  -2.893  -7.896  1.00  0.00    -0.376 OA
BRANCH   2   3
ATOM      3  C   UNL     1      -8.487  -3.183  -8.813  1.00  0.00     0.202 C 
BRANCH   3   4
ATOM      4  C   UNL     1      -8.957  -2.097  -9.774  1.00  0.00     0.261 C 
BRANCH   4   5
ATOM      5  O   UNL     1      -7.874  -1.597 -10.569  1.00  0.00    -0.461 OA
BRANCH   5   6
ATOM      6  C   UNL     1      -7.504  -0.313 -10.343  1.00  0.00     0.344 C 
ATOM      7  O   UNL     1      -8.146   0.484  -9.674  1.00  0.00    -0.248 OA
BRANCH   6   8
ATOM      8  C   UNL     1      -6.180   0.033 -11.081  1.00  0.00     0.352 C 
BRANCH   8   9
ATOM      9  O   UNL     1      -4.801  -0.071 -10.755  1.00  0.00    -0.479 OA
BRANCH   9  10
ATOM     10  C   UNL     1      -4.201  -0.201  -9.539  1.00  0.00     0.157 A 
ATOM     11  C   UNL     1      -2.824  -0.883  -7.087  1.00  0.00    -0.021 A 
ATOM     12  C   UNL     1      -2.292  -1.249  -8.325  1.00  0.00     0.032 A 
ATOM     13  C   UNL     1      -3.969  -0.076  -7.115  1.00  0.00     0.032 A 
ATOM     14  C   UNL     1      -2.974  -0.913  -9.524  1.00  0.00     0.085 A 
ATOM     15  C   UNL     1      -4.620   0.298  -8.311  1.00  0.00     0.085 A 
ATOM     16  Cl  UNL     1      -2.253  -1.445 -11.013  1.00  0.00    -0.080 Cl
ATOM     17  Cl  UNL     1      -5.871   1.461  -8.130  1.00  0.00    -0.080 Cl
BRANCH  11  18
ATOM     18  C   UNL     1      -2.190  -1.170  -5.767  1.00  0.00     0.029 C 
ATOM     19  N   UNL     1      -3.258  -2.248  -2.428  1.00  0.00    -0.259 N 
ATOM     20  C   UNL     1      -4.314  -2.853  -3.026  1.00  0.00     0.294 C 
ATOM     21  C   UNL     1      -2.320  -1.666  -3.264  1.00  0.00     0.268 C 
ATOM     22  O   UNL     1      -5.053  -3.707  -2.535  1.00  0.00    -0.261 OA
ATOM     23  S   UNL     1      -4.436  -2.308  -4.665  1.00  0.00    -0.022 SA
ATOM     24  C   UNL     1      -2.833  -1.657  -4.681  1.00  0.00     0.083 C 
ATOM     25  O   UNL     1      -1.248  -1.189  -2.926  1.00  0.00    -0.268 OA
BRANCH  19  26
ATOM     26  C   UNL     1      -3.142  -2.319  -0.982  1.00  0.00     0.230 C 
BRANCH  26  27
ATOM     27  C   UNL     1      -3.718  -1.043  -0.355  1.00  0.00     0.244 C 
ATOM     28  N   UNL     1      -2.925  -0.030   0.103  1.00  0.00    -0.325 N 
ATOM     29  H   UNL     1      -3.409   0.779   0.386  1.00  0.00     0.169 HD
ATOM     30  O   UNL     1      -4.936  -0.826  -0.386  1.00  0.00    -0.273 OA
BRANCH  28  31
ATOM     31  C   UNL     1      -1.534   0.043   0.234  1.00  0.00     0.041 A 
ATOM     32  C   UNL     1       2.746   0.328  -0.004  1.00  0.00     0.044 C 
ATOM     33  C   UNL     1       1.259   0.263   0.157  1.00  0.00    -0.051 A 
ATOM     34  C   UNL     1       0.654  -0.961   0.445  1.00  0.00     0.005 A 
ATOM     35  C   UNL     1       0.457   1.396  -0.014  1.00  0.00     0.005 A 
ATOM     36  C   UNL     1      -0.732  -1.055   0.532  1.00  0.00     0.026 A 
ATOM     37  C   UNL     1      -0.935   1.289   0.037  1.00  0.00     0.026 A 
ENDBRANCH  28  31
ENDBRANCH  26  27
ENDBRANCH  19  26
ENDBRANCH  11  18
ENDBRANCH   9  10
ENDBRANCH   8   9
ENDBRANCH   6   8
ENDBRANCH   5   6
ENDBRANCH   4   5
ENDBRANCH   3   4
ENDBRANCH   2   3
ENDBRANCH   1   2
BRANCH   1  38
ATOM     38  C   UNL     1      -5.588  -3.209  -9.754  1.00  0.00     0.188 C 
BRANCH  38  39
ATOM     39  O   UNL     1      -5.611  -4.600  -9.990  1.00  0.00    -0.377 OA
BRANCH  39  40
ATOM     40  C   UNL     1      -4.300  -5.117 -10.298  1.00  0.00     0.188 C 
BRANCH  40  41
ATOM     41  C   UNL     1      -3.864  -5.931  -9.111  1.00  0.00     0.188 C 
BRANCH  41  42
ATOM     42  O   UNL     1      -4.361  -5.293  -7.949  1.00  0.00    -0.376 OA
BRANCH  42  43
ATOM     43  C   UNL     1      -3.412  -4.640  -7.155  1.00  0.00     0.202 C 
BRANCH  43  44
ATOM     44  C   UNL     1      -2.577  -5.644  -6.378  1.00  0.00     0.261 C 
BRANCH  44  45
ATOM     45  O   UNL     1      -3.462  -6.482  -5.595  1.00  0.00    -0.460 OA
BRANCH  45  46
ATOM     46  C   UNL     1      -3.755  -7.687  -6.171  1.00  0.00     0.338 C 
ATOM     47  O   UNL     1      -2.917  -8.531  -6.445  1.00  0.00    -0.246 OA
BRANCH  46  48
ATOM     48  C   UNL     1      -5.195  -7.766  -6.593  1.00  0.00     0.060 A 
ATOM     49  C   UNL     1      -5.572  -8.703  -7.577  1.00  0.00     0.016 A 
ATOM     50  C   UNL     1      -6.043  -6.702  -6.308  1.00  0.00     0.016 A 
ATOM     51  C   UNL     1      -6.676  -8.455  -8.419  1.00  0.00     0.010 A 
ATOM     52  C   UNL     1      -7.058  -6.413  -7.210  1.00  0.00     0.010 A 
ATOM     53  C   UNL     1      -7.376  -7.257  -8.295  1.00  0.00    -0.014 A 
BRANCH  53  54
ATOM     54  C   UNL     1      -8.399  -6.728  -9.237  1.00  0.00     0.031 A 
ATOM     55  C   UNL     1      -9.691  -6.270  -8.664  1.00  0.00     0.074 A 
ATOM     56  C   UNL     1      -8.045  -6.292 -10.475  1.00  0.00     0.049 A 
ATOM     57  N   UNL     1     -10.588  -5.612  -9.305  1.00  0.00    -0.248 NA
ATOM     58  C   UNL     1     -10.054  -6.456  -7.266  1.00  0.00     0.031 C 
ATOM     59  C   UNL     1      -8.624  -5.202 -11.285  1.00  0.00     0.029 A 
ATOM     60  N   UNL     1      -6.917  -6.627 -11.213  1.00  0.00    -0.354 N 
ATOM     61  C   UNL     1     -11.474  -5.046  -8.412  1.00  0.00     0.074 A 
ATOM     62  C   UNL     1     -11.107  -5.640  -7.151  1.00  0.00     0.031 C 
ATOM     63  C   UNL     1      -7.943  -5.031 -12.430  1.00  0.00     0.029 A 
ATOM     64  C   UNL     1      -7.081  -6.179 -12.547  1.00  0.00     0.049 A 
ATOM     65  H   UNL     1      -6.127  -7.101 -10.865  1.00  0.00     0.167 HD
ATOM     66  C   UNL     1     -12.316  -4.069  -8.876  1.00  0.00     0.034 A 
ATOM     67  C   UNL     1      -7.200  -7.103 -13.543  1.00  0.00     0.034 A 
ATOM     68  C   UNL     1     -12.231  -3.963 -10.360  1.00  0.00     0.049 A 
ATOM     69  C   UNL     1      -8.686  -7.209 -13.928  1.00  0.00     0.074 A 
ATOM     70  C   UNL     1     -12.032  -2.959 -11.295  1.00  0.00     0.029 A 
ATOM     71  N   UNL     1     -12.206  -5.151 -11.105  1.00  0.00    -0.354 N 
ATOM     72  N   UNL     1      -9.666  -6.791 -13.152  1.00  0.00    -0.248 NA
ATOM     73  C   UNL     1      -9.181  -7.550 -15.259  1.00  0.00     0.031 C 
ATOM     74  C   UNL     1     -11.750  -3.573 -12.561  1.00  0.00     0.029 A 
ATOM     75  C   UNL     1     -11.865  -4.949 -12.423  1.00  0.00     0.049 A 
ATOM     76  H   UNL     1     -12.411  -6.035 -10.725  1.00  0.00     0.167 HD
ATOM     77  C   UNL     1     -10.826  -6.650 -13.859  1.00  0.00     0.074 A 
ATOM     78  C   UNL     1     -10.478  -7.190 -15.167  1.00  0.00     0.031 C 
ATOM     79  C   UNL     1     -11.967  -6.053 -13.376  1.00  0.00     0.034 A 
BRANCH  66  80
ATOM     80  C   UNL     1     -13.132  -3.096  -8.010  1.00  0.00     0.023 A 
ATOM     81  C   UNL     1     -13.773  -1.988  -8.613  1.00  0.00     0.031 A 
ATOM     82  C   UNL     1     -13.312  -3.159  -6.609  1.00  0.00     0.131 A 
ATOM     83  C   UNL     1     -14.481  -1.019  -7.863  1.00  0.00     0.055 A 
ATOM     84  C   UNL     1     -14.012  -2.197  -5.860  1.00  0.00     0.041 A 
ATOM     85  F   UNL     1     -12.860  -4.167  -5.866  1.00  0.00    -0.206 F 
ATOM     86  C   UNL     1     -14.599  -1.115  -6.484  1.00  0.00     0.022 A 
BRANCH  83  87
ATOM     87  S   UNL     1     -15.269   0.374  -8.722  1.00  0.00     0.124 S 
ATOM     88  O   UNL     1     -14.118   1.111  -9.232  1.00  0.00    -0.237 OA
ATOM     89  O   UNL     1     -16.096  -0.300  -9.716  1.00  0.00    -0.237 OA
ATOM     90  O   UNL     1     -16.015   1.051  -7.660  1.00  0.00    -0.744 OA
ENDBRANCH  83  87
ENDBRANCH  66  80
BRANCH  67  91
ATOM     91  C   UNL     1      -6.062  -8.086 -13.398  1.00  0.00     0.023 A 
ATOM     92  C   UNL     1      -4.760  -7.519 -13.583  1.00  0.00     0.031 A 
ATOM     93  C   UNL     1      -6.161  -9.153 -12.490  1.00  0.00     0.131 A 
ATOM     94  C   UNL     1      -3.693  -7.847 -12.717  1.00  0.00     0.055 A 
ATOM     95  C   UNL     1      -5.087  -9.488 -11.642  1.00  0.00     0.041 A 
ATOM     96  F   UNL     1      -7.345  -9.738 -12.255  1.00  0.00    -0.206 F 
ATOM     97  C   UNL     1      -3.874  -8.797 -11.711  1.00  0.00     0.022 A 
BRANCH  94  98
ATOM     98  S   UNL     1      -2.206  -6.763 -12.650  1.00  0.00     0.124 S 
ATOM     99  O   UNL     1      -1.300  -7.406 -13.591  1.00  0.00    -0.237 OA
ATOM    100  O   UNL     1      -2.726  -5.460 -13.054  1.00  0.00    -0.237 OA
ATOM    101  O   UNL     1      -1.804  -6.832 -11.245  1.00  0.00    -0.744 OA
ENDBRANCH  94  98
ENDBRANCH  67  91
BRANCH  79 102
ATOM    102  C   UNL     1     -13.366  -6.482 -13.772  1.00  0.00     0.023 A 
ATOM    103  C   UNL     1     -13.591  -7.495 -14.700  1.00  0.00     0.031 A 
ATOM    104  C   UNL     1     -14.530  -5.997 -13.112  1.00  0.00     0.131 A 
ATOM    105  C   UNL     1     -14.884  -7.939 -15.002  1.00  0.00     0.055 A 
ATOM    106  C   UNL     1     -15.810  -6.501 -13.349  1.00  0.00     0.041 A 
ATOM    107  F   UNL     1     -14.489  -5.039 -12.176  1.00  0.00    -0.206 F 
ATOM    108  C   UNL     1     -15.998  -7.472 -14.315  1.00  0.00     0.022 A 
BRANCH 105 109
ATOM    109  S   UNL     1     -15.038  -9.108 -16.364  1.00  0.00     0.124 S 
ATOM    110  O   UNL     1     -14.493  -8.337 -17.479  1.00  0.00    -0.237 OA
ATOM    111  O   UNL     1     -14.216 -10.225 -15.910  1.00  0.00    -0.237 OA
ATOM    112  O   UNL     1     -16.473  -9.372 -16.429  1.00  0.00    -0.744 OA
ENDBRANCH 105 109
ENDBRANCH  79 102
ENDBRANCH  53  54
ENDBRANCH  46  48
ENDBRANCH  45  46
ENDBRANCH  44  45
ENDBRANCH  43  44
ENDBRANCH  42  43
ENDBRANCH  41  42
ENDBRANCH  40  41
ENDBRANCH  39  40
ENDBRANCH  38  39
ENDBRANCH   1  38
TORSDOF 29
