REMARK SMILES CC(=O)Oc1ccccc1C(=O)OCCOCCOCCOCCOC(=O)c1ccc(-c2c3nc(c(-c4cc(S(=O)(=O)[O-])ccc4F)c4ccc([nH]4)c(-c4cc(S(=O)(=O)[O-])ccc4F)c4nc(c(-c5cc(S(=O)(=O)[O-])ccc5F)c5ccc2[nH]5)C=C4)C=C3)cc1
REMARK SMILES IDX 20 1 19 2 18 3 17 4 16 5 15 6 14 7 13 8 11 9 12 10 10 11
REMARK SMILES IDX 5 12 6 13 7 14 9 15 8 16 4 17 2 18 1 19 3 20 21 21 22 22
REMARK SMILES IDX 23 23 24 24 25 25 26 26 27 27 28 28 29 29 90 30 30 31 89 32
REMARK SMILES IDX 31 33 32 34 33 35 83 36 34 37 88 38 82 39 84 40 35 41 87 42
REMARK SMILES IDX 81 43 80 44 36 46 68 47 48 48 67 49 49 50 52 51 66 52 85 53
REMARK SMILES IDX 50 54 51 55 65 57 86 58 53 59 37 60 38 61 46 62 39 63 45 64
REMARK SMILES IDX 47 65 44 66 40 67 41 68 42 69 43 70 69 71 70 72 78 73 71 74
REMARK SMILES IDX 77 75 79 76 76 77 72 78 73 79 74 80 75 81 54 82 55 83 63 84
REMARK SMILES IDX 56 85 62 86 64 87 61 88 57 89 58 90 59 91 60 92
REMARK H PARENT 84 45 52 56
REMARK Flexibility Score: inf
ROOT
ATOM      1  C   UNL     1      -2.765   2.701   0.796  1.00  0.00     0.188 C 
ENDROOT
BRANCH   1   2
ATOM      2  O   UNL     1      -2.022   2.466  -0.399  1.00  0.00    -0.377 OA
BRANCH   2   3
ATOM      3  C   UNL     1      -2.515   2.995  -1.615  1.00  0.00     0.188 C 
BRANCH   3   4
ATOM      4  C   UNL     1      -3.605   2.141  -2.293  1.00  0.00     0.188 C 
BRANCH   4   5
ATOM      5  O   UNL     1      -4.333   1.236  -1.489  1.00  0.00    -0.376 OA
BRANCH   5   6
ATOM      6  C   UNL     1      -3.792   0.020  -0.997  1.00  0.00     0.202 C 
BRANCH   6   7
ATOM      7  C   UNL     1      -2.373  -0.523  -1.238  1.00  0.00     0.261 C 
BRANCH   7   8
ATOM      8  O   UNL     1      -1.463   0.306  -1.949  1.00  0.00    -0.460 OA
BRANCH   8   9
ATOM      9  C   UNL     1      -1.335   0.080  -3.272  1.00  0.00     0.342 C 
ATOM     10  O   UNL     1      -1.969  -0.724  -3.936  1.00  0.00    -0.246 OA
BRANCH   9  11
ATOM     11  C   UNL     1      -0.475   1.140  -3.854  1.00  0.00     0.102 A 
ATOM     12  C   UNL     1       0.660   1.692  -3.241  1.00  0.00     0.145 A 
ATOM     13  C   UNL     1       1.343   2.755  -3.844  1.00  0.00     0.048 A 
ATOM     14  C   UNL     1       0.879   3.294  -5.045  1.00  0.00     0.004 A 
ATOM     15  C   UNL     1      -0.935   1.701  -5.058  1.00  0.00     0.019 A 
ATOM     16  C   UNL     1      -0.271   2.782  -5.641  1.00  0.00     0.001 A 
BRANCH  12  17
ATOM     17  O   UNL     1       1.076   1.403  -1.926  1.00  0.00    -0.426 OA
BRANCH  17  18
ATOM     18  C   UNL     1       1.296   0.083  -1.554  1.00  0.00     0.308 C 
ATOM     19  C   UNL     1       1.402   0.007  -0.059  1.00  0.00     0.139 C 
ATOM     20  O   UNL     1       1.404  -0.866  -2.318  1.00  0.00    -0.252 OA
ENDBRANCH  17  18
ENDBRANCH  12  17
ENDBRANCH   9  11
ENDBRANCH   8   9
ENDBRANCH   7   8
ENDBRANCH   6   7
ENDBRANCH   5   6
ENDBRANCH   4   5
ENDBRANCH   3   4
ENDBRANCH   2   3
ENDBRANCH   1   2
BRANCH   1  21
ATOM     21  C   UNL     1      -4.259   3.102   0.760  1.00  0.00     0.188 C 
BRANCH  21  22
ATOM     22  O   UNL     1      -4.615   3.965  -0.311  1.00  0.00    -0.376 OA
BRANCH  22  23
ATOM     23  C   UNL     1      -4.867   5.330  -0.029  1.00  0.00     0.202 C 
BRANCH  23  24
ATOM     24  C   UNL     1      -3.663   6.172   0.416  1.00  0.00     0.261 C 
BRANCH  24  25
ATOM     25  O   UNL     1      -2.953   5.690   1.565  1.00  0.00    -0.460 OA
BRANCH  25  26
ATOM     26  C   UNL     1      -3.634   5.655   2.731  1.00  0.00     0.338 C 
ATOM     27  O   UNL     1      -4.789   6.004   2.911  1.00  0.00    -0.246 OA
BRANCH  26  28
ATOM     28  C   UNL     1      -2.802   4.935   3.715  1.00  0.00     0.060 A 
ATOM     29  C   UNL     1      -3.304   3.771   4.308  1.00  0.00     0.016 A 
ATOM     30  C   UNL     1      -1.529   5.408   4.044  1.00  0.00     0.016 A 
ATOM     31  C   UNL     1      -2.549   3.098   5.268  1.00  0.00     0.010 A 
ATOM     32  C   UNL     1      -0.780   4.742   5.018  1.00  0.00     0.010 A 
ATOM     33  C   UNL     1      -1.303   3.606   5.661  1.00  0.00    -0.014 A 
BRANCH  33  34
ATOM     34  C   UNL     1      -0.649   3.075   6.883  1.00  0.00     0.031 A 
ATOM     35  C   UNL     1      -0.817   3.837   8.170  1.00  0.00     0.074 A 
ATOM     36  C   UNL     1       0.041   1.922   6.864  1.00  0.00     0.049 A 
ATOM     37  N   UNL     1      -0.338   3.584   9.360  1.00  0.00    -0.248 NA
ATOM     38  C   UNL     1      -1.635   5.056   8.094  1.00  0.00     0.031 C 
ATOM     39  C   UNL     1       0.224   1.067   5.694  1.00  0.00     0.029 A 
ATOM     40  N   UNL     1       0.711   1.270   7.868  1.00  0.00    -0.354 N 
ATOM     41  C   UNL     1      -0.799   4.611  10.178  1.00  0.00     0.074 A 
ATOM     42  C   UNL     1      -1.542   5.519   9.329  1.00  0.00     0.031 C 
ATOM     43  C   UNL     1       0.949  -0.008   6.051  1.00  0.00     0.029 A 
ATOM     44  C   UNL     1       1.316   0.105   7.462  1.00  0.00     0.049 A 
ATOM     45  H   UNL     1       0.754   1.606   8.793  1.00  0.00     0.167 HD
ATOM     46  C   UNL     1      -0.637   4.772  11.515  1.00  0.00     0.034 A 
ATOM     47  C   UNL     1       2.086  -0.762   8.151  1.00  0.00     0.034 A 
ATOM     48  C   UNL     1       0.134   3.873  12.340  1.00  0.00     0.049 A 
ATOM     49  C   UNL     1       2.364  -0.495   9.612  1.00  0.00     0.074 A 
ATOM     50  C   UNL     1       0.376   3.942  13.701  1.00  0.00     0.029 A 
ATOM     51  N   UNL     1       0.807   2.748  11.877  1.00  0.00    -0.354 N 
ATOM     52  N   UNL     1       1.924   0.478  10.378  1.00  0.00    -0.248 NA
ATOM     53  C   UNL     1       3.240  -1.452  10.299  1.00  0.00     0.031 C 
ATOM     54  C   UNL     1       1.261   2.912  14.043  1.00  0.00     0.029 A 
ATOM     55  C   UNL     1       1.496   2.139  12.917  1.00  0.00     0.049 A 
ATOM     56  H   UNL     1       0.795   2.429  10.946  1.00  0.00     0.167 HD
ATOM     57  C   UNL     1       2.438   0.223  11.649  1.00  0.00     0.074 A 
ATOM     58  C   UNL     1       3.208  -1.000  11.543  1.00  0.00     0.031 C 
ATOM     59  C   UNL     1       2.280   0.930  12.799  1.00  0.00     0.034 A 
BRANCH  46  60
ATOM     60  C   UNL     1      -1.258   6.004  12.135  1.00  0.00     0.023 A 
ATOM     61  C   UNL     1      -2.644   6.241  12.076  1.00  0.00     0.031 A 
ATOM     62  C   UNL     1      -0.450   6.995  12.720  1.00  0.00     0.131 A 
ATOM     63  C   UNL     1      -3.162   7.478  12.488  1.00  0.00     0.055 A 
ATOM     64  C   UNL     1      -0.987   8.182  13.224  1.00  0.00     0.041 A 
ATOM     65  F   UNL     1       0.882   6.843  12.784  1.00  0.00    -0.206 F 
ATOM     66  C   UNL     1      -2.347   8.440  13.087  1.00  0.00     0.022 A 
BRANCH  63  67
ATOM     67  S   UNL     1      -4.870   7.891  12.033  1.00  0.00     0.124 S 
ATOM     68  O   UNL     1      -4.838   7.722  10.582  1.00  0.00    -0.237 OA
ATOM     69  O   UNL     1      -5.642   6.901  12.775  1.00  0.00    -0.237 OA
ATOM     70  O   UNL     1      -5.021   9.272  12.488  1.00  0.00    -0.744 OA
ENDBRANCH  63  67
ENDBRANCH  46  60
BRANCH  47  71
ATOM     71  C   UNL     1       2.660  -1.962   7.479  1.00  0.00     0.023 A 
ATOM     72  C   UNL     1       2.304  -3.256   7.890  1.00  0.00     0.031 A 
ATOM     73  C   UNL     1       3.610  -1.836   6.449  1.00  0.00     0.131 A 
ATOM     74  C   UNL     1       2.922  -4.372   7.304  1.00  0.00     0.055 A 
ATOM     75  C   UNL     1       4.181  -2.950   5.832  1.00  0.00     0.041 A 
ATOM     76  F   UNL     1       3.990  -0.621   6.020  1.00  0.00    -0.206 F 
ATOM     77  C   UNL     1       3.846  -4.228   6.267  1.00  0.00     0.022 A 
BRANCH  74  78
ATOM     78  S   UNL     1       2.556  -6.017   7.974  1.00  0.00     0.124 S 
ATOM     79  O   UNL     1       2.998  -5.879   9.357  1.00  0.00    -0.237 OA
ATOM     80  O   UNL     1       1.115  -6.114   7.768  1.00  0.00    -0.237 OA
ATOM     81  O   UNL     1       3.363  -6.909   7.144  1.00  0.00    -0.744 OA
ENDBRANCH  74  78
ENDBRANCH  47  71
BRANCH  59  82
ATOM     82  C   UNL     1       2.920   0.363  14.048  1.00  0.00     0.023 A 
ATOM     83  C   UNL     1       4.313   0.216  14.171  1.00  0.00     0.031 A 
ATOM     84  C   UNL     1       2.118  -0.070  15.121  1.00  0.00     0.131 A 
ATOM     85  C   UNL     1       4.855  -0.418  15.300  1.00  0.00     0.055 A 
ATOM     86  C   UNL     1       2.669  -0.627  16.276  1.00  0.00     0.041 A 
ATOM     87  F   UNL     1       0.781   0.039  15.064  1.00  0.00    -0.206 F 
ATOM     88  C   UNL     1       4.044  -0.822  16.362  1.00  0.00     0.022 A 
BRANCH  85  89
ATOM     89  S   UNL     1       6.622  -0.830  15.301  1.00  0.00     0.124 S 
ATOM     90  O   UNL     1       6.746  -1.632  14.088  1.00  0.00    -0.237 OA
ATOM     91  O   UNL     1       7.250   0.487  15.261  1.00  0.00    -0.237 OA
ATOM     92  O   UNL     1       6.803  -1.565  16.552  1.00  0.00    -0.744 OA
ENDBRANCH  85  89
ENDBRANCH  59  82
ENDBRANCH  33  34
ENDBRANCH  26  28
ENDBRANCH  25  26
ENDBRANCH  24  25
ENDBRANCH  23  24
ENDBRANCH  22  23
ENDBRANCH  21  22
ENDBRANCH   1  21
TORSDOF 25
