REMARK SMILES O=C(OCCOCCOCCOCCOC(=O)C1CCN(c2ccnnc2)CC1)c1ccc(-c2c3nc(c(-c4cc(S(=O)(=O)[O-])ccc4F)c4ccc([nH]4)c(-c4cc(S(=O)(=O)[O-])ccc4F)c4nc(c(-c5cc(S(=O)(=O)[O-])ccc5F)c5ccc2[nH]5)C=C4)C=C3)cc1
REMARK SMILES IDX 8 1 7 2 6 3 5 4 4 5 3 6 2 7 1 8 30 9 31 10 92 11 32 12 91 13
REMARK SMILES IDX 33 14 34 15 35 16 85 17 36 18 90 19 84 20 86 21 37 22 89 23
REMARK SMILES IDX 83 24 82 25 38 27 70 28 50 29 69 30 51 31 54 32 68 33 87 34
REMARK SMILES IDX 52 35 53 36 67 38 88 39 55 40 39 41 40 42 48 43 41 44 47 45
REMARK SMILES IDX 49 46 46 47 42 48 43 49 44 50 45 51 71 52 72 53 80 54 73 55
REMARK SMILES IDX 79 56 81 57 78 58 74 59 75 60 76 61 77 62 56 63 57 64 65 65
REMARK SMILES IDX 58 66 64 67 66 68 63 69 59 70 60 71 61 72 62 73 9 74 10 75
REMARK SMILES IDX 11 76 12 77 13 78 14 79 15 80 16 81 17 82 18 83 19 84 29 85
REMARK SMILES IDX 20 86 28 87 21 88 22 89 23 90 27 91 24 92 26 93 25 94
REMARK H PARENT 86 26 54 37
REMARK Flexibility Score: inf
ROOT
ATOM      1  C   UNL     1       2.110   2.613   0.840  1.00  0.00     0.188 C 
ENDROOT
BRANCH   1   2
ATOM      2  C   UNL     1       2.460   1.651  -0.297  1.00  0.00     0.188 C 
BRANCH   2   3
ATOM      3  O   UNL     1       3.687   1.004   0.011  1.00  0.00    -0.376 OA
BRANCH   3   4
ATOM      4  C   UNL     1       4.517   0.594  -1.064  1.00  0.00     0.202 C 
BRANCH   4   5
ATOM      5  C   UNL     1       4.004  -0.599  -1.870  1.00  0.00     0.261 C 
BRANCH   5   6
ATOM      6  O   UNL     1       2.603  -0.872  -1.676  1.00  0.00    -0.460 OA
BRANCH   6   7
ATOM      7  C   UNL     1       2.054  -1.734  -0.779  1.00  0.00     0.338 C 
ATOM      8  O   UNL     1       0.851  -1.979  -0.828  1.00  0.00    -0.246 OA
BRANCH   7   9
ATOM      9  C   UNL     1       2.881  -2.432   0.238  1.00  0.00     0.060 A 
ATOM     10  C   UNL     1       3.852  -1.786   0.993  1.00  0.00     0.016 A 
ATOM     11  C   UNL     1       2.618  -3.777   0.515  1.00  0.00     0.016 A 
ATOM     12  C   UNL     1       4.700  -2.482   1.829  1.00  0.00     0.010 A 
ATOM     13  C   UNL     1       3.384  -4.463   1.466  1.00  0.00     0.010 A 
ATOM     14  C   UNL     1       4.472  -3.828   2.084  1.00  0.00    -0.014 A 
BRANCH  14  15
ATOM     15  C   UNL     1       5.479  -4.551   2.891  1.00  0.00     0.031 A 
ATOM     16  C   UNL     1       6.288  -5.619   2.213  1.00  0.00     0.074 A 
ATOM     17  C   UNL     1       5.777  -4.131   4.137  1.00  0.00     0.049 A 
ATOM     18  N   UNL     1       7.160  -6.446   2.719  1.00  0.00    -0.248 NA
ATOM     19  C   UNL     1       6.086  -5.772   0.762  1.00  0.00     0.031 C 
ATOM     20  C   UNL     1       5.139  -2.999   4.822  1.00  0.00     0.029 A 
ATOM     21  N   UNL     1       6.719  -4.561   5.033  1.00  0.00    -0.354 N 
ATOM     22  C   UNL     1       7.579  -7.243   1.659  1.00  0.00     0.074 A 
ATOM     23  C   UNL     1       6.851  -6.815   0.487  1.00  0.00     0.031 C 
ATOM     24  C   UNL     1       5.749  -2.792   5.999  1.00  0.00     0.029 A 
ATOM     25  C   UNL     1       6.733  -3.845   6.209  1.00  0.00     0.049 A 
ATOM     26  H   UNL     1       7.330  -5.312   4.852  1.00  0.00     0.167 HD
ATOM     27  C   UNL     1       8.492  -8.242   1.675  1.00  0.00     0.034 A 
ATOM     28  C   UNL     1       7.425  -4.056   7.346  1.00  0.00     0.034 A 
ATOM     29  C   UNL     1       9.196  -8.629   2.870  1.00  0.00     0.049 A 
ATOM     30  C   UNL     1       8.355  -5.244   7.370  1.00  0.00     0.074 A 
ATOM     31  C   UNL     1      10.052  -9.694   3.071  1.00  0.00     0.029 A 
ATOM     32  N   UNL     1       9.126  -7.938   4.076  1.00  0.00    -0.354 N 
ATOM     33  N   UNL     1       8.643  -6.086   6.401  1.00  0.00    -0.248 NA
ATOM     34  C   UNL     1       9.039  -5.523   8.636  1.00  0.00     0.031 C 
ATOM     35  C   UNL     1      10.460  -9.675   4.411  1.00  0.00     0.029 A 
ATOM     36  C   UNL     1       9.914  -8.558   5.029  1.00  0.00     0.049 A 
ATOM     37  H   UNL     1       8.593  -7.125   4.229  1.00  0.00     0.167 HD
ATOM     38  C   UNL     1       9.546  -6.994   6.942  1.00  0.00     0.074 A 
ATOM     39  C   UNL     1       9.788  -6.564   8.306  1.00  0.00     0.031 C 
ATOM     40  C   UNL     1      10.114  -8.093   6.381  1.00  0.00     0.034 A 
BRANCH  27  41
ATOM     41  C   UNL     1       8.677  -9.014   0.393  1.00  0.00     0.023 A 
ATOM     42  C   UNL     1       9.207  -8.417  -0.766  1.00  0.00     0.031 A 
ATOM     43  C   UNL     1       8.214 -10.339   0.297  1.00  0.00     0.131 A 
ATOM     44  C   UNL     1       9.184  -9.114  -1.985  1.00  0.00     0.055 A 
ATOM     45  C   UNL     1       8.268 -11.054  -0.901  1.00  0.00     0.041 A 
ATOM     46  F   UNL     1       7.666 -10.949   1.360  1.00  0.00    -0.206 F 
ATOM     47  C   UNL     1       8.741 -10.436  -2.055  1.00  0.00     0.022 A 
BRANCH  44  48
ATOM     48  S   UNL     1       9.597  -8.216  -3.508  1.00  0.00     0.124 S 
ATOM     49  O   UNL     1       8.547  -7.201  -3.545  1.00  0.00    -0.237 OA
ATOM     50  O   UNL     1      10.944  -7.730  -3.235  1.00  0.00    -0.237 OA
ATOM     51  O   UNL     1       9.502  -9.241  -4.546  1.00  0.00    -0.744 OA
ENDBRANCH  44  48
ENDBRANCH  27  41
BRANCH  28  52
ATOM     52  C   UNL     1       7.193  -3.219   8.565  1.00  0.00     0.023 A 
ATOM     53  C   UNL     1       8.243  -2.546   9.210  1.00  0.00     0.031 A 
ATOM     54  C   UNL     1       5.914  -3.141   9.153  1.00  0.00     0.131 A 
ATOM     55  C   UNL     1       8.009  -1.875  10.424  1.00  0.00     0.055 A 
ATOM     56  C   UNL     1       5.673  -2.414  10.320  1.00  0.00     0.041 A 
ATOM     57  F   UNL     1       4.868  -3.773   8.597  1.00  0.00    -0.206 F 
ATOM     58  C   UNL     1       6.728  -1.791  10.974  1.00  0.00     0.022 A 
BRANCH  55  59
ATOM     59  S   UNL     1       9.428  -1.218  11.347  1.00  0.00     0.124 S 
ATOM     60  O   UNL     1      10.287  -2.392  11.446  1.00  0.00    -0.237 OA
ATOM     61  O   UNL     1       9.893  -0.154  10.465  1.00  0.00    -0.237 OA
ATOM     62  O   UNL     1       8.836  -0.770  12.606  1.00  0.00    -0.744 OA
ENDBRANCH  55  59
ENDBRANCH  28  52
BRANCH  40  63
ATOM     63  C   UNL     1      11.065  -8.866   7.255  1.00  0.00     0.023 A 
ATOM     64  C   UNL     1      10.612  -9.557   8.392  1.00  0.00     0.031 A 
ATOM     65  C   UNL     1      12.439  -8.883   6.965  1.00  0.00     0.131 A 
ATOM     66  C   UNL     1      11.538 -10.177   9.240  1.00  0.00     0.055 A 
ATOM     67  C   UNL     1      13.348  -9.561   7.776  1.00  0.00     0.041 A 
ATOM     68  F   UNL     1      12.919  -8.238   5.890  1.00  0.00    -0.206 F 
ATOM     69  C   UNL     1      12.900 -10.198   8.931  1.00  0.00     0.022 A 
BRANCH  66  70
ATOM     70  S   UNL     1      10.947 -10.855  10.813  1.00  0.00     0.124 S 
ATOM     71  O   UNL     1      10.342  -9.684  11.440  1.00  0.00    -0.237 OA
ATOM     72  O   UNL     1      10.020 -11.894  10.376  1.00  0.00    -0.237 OA
ATOM     73  O   UNL     1      12.166 -11.343  11.455  1.00  0.00    -0.744 OA
ENDBRANCH  66  70
ENDBRANCH  40  63
ENDBRANCH  14  15
ENDBRANCH   7   9
ENDBRANCH   6   7
ENDBRANCH   5   6
ENDBRANCH   4   5
ENDBRANCH   3   4
ENDBRANCH   2   3
ENDBRANCH   1   2
BRANCH   1  74
ATOM     74  O   UNL     1       3.005   3.721   0.979  1.00  0.00    -0.377 OA
BRANCH  74  75
ATOM     75  C   UNL     1       4.395   3.405   1.009  1.00  0.00     0.188 C 
BRANCH  75  76
ATOM     76  C   UNL     1       4.949   2.574   2.191  1.00  0.00     0.188 C 
BRANCH  76  77
ATOM     77  O   UNL     1       3.981   1.828   2.925  1.00  0.00    -0.376 OA
BRANCH  77  78
ATOM     78  C   UNL     1       3.854   2.202   4.300  1.00  0.00     0.202 C 
BRANCH  78  79
ATOM     79  C   UNL     1       2.978   3.444   4.510  1.00  0.00     0.261 C 
BRANCH  79  80
ATOM     80  O   UNL     1       3.431   4.576   3.749  1.00  0.00    -0.463 OA
BRANCH  80  81
ATOM     81  C   UNL     1       4.541   5.216   4.178  1.00  0.00     0.309 C 
ATOM     82  O   UNL     1       5.083   5.016   5.265  1.00  0.00    -0.252 OA
BRANCH  81  83
ATOM     83  C   UNL     1       5.122   6.093   3.076  1.00  0.00     0.103 C 
ATOM     84  C   UNL     1       6.110   7.119   3.628  1.00  0.00     0.037 C 
ATOM     85  C   UNL     1       4.045   6.781   2.219  1.00  0.00     0.037 C 
ATOM     86  C   UNL     1       5.375   8.192   4.411  1.00  0.00     0.117 C 
ATOM     87  C   UNL     1       3.331   7.882   2.996  1.00  0.00     0.117 C 
ATOM     88  N   UNL     1       4.341   8.768   3.557  1.00  0.00    -0.370 N 
BRANCH  88  89
ATOM     89  C   UNL     1       4.284  10.131   3.377  1.00  0.00     0.059 A 
ATOM     90  C   UNL     1       3.131  10.854   3.642  1.00  0.00     0.049 A 
ATOM     91  C   UNL     1       5.379  10.869   2.937  1.00  0.00     0.161 A 
ATOM     92  C   UNL     1       3.159  12.227   3.490  1.00  0.00     0.138 A 
ATOM     93  N   UNL     1       5.374  12.211   2.774  1.00  0.00    -0.157 NA
ATOM     94  N   UNL     1       4.248  12.901   3.065  1.00  0.00    -0.159 NA
ENDBRANCH  88  89
ENDBRANCH  81  83
ENDBRANCH  80  81
ENDBRANCH  79  80
ENDBRANCH  78  79
ENDBRANCH  77  78
ENDBRANCH  76  77
ENDBRANCH  75  76
ENDBRANCH  74  75
ENDBRANCH   1  74
TORSDOF 24
