REMARK SMILES COC(=O)c1ccc([C@H]([NH3+])CC(=O)OCCOCCOCCOCCOC(=O)c2ccc(-c3c4nc(c(-c5cc(S(=O)(=O)[O-])ccc5F)c5ccc([nH]5)c(-c5cc(S(=O)(=O)[O-])ccc5F)c5nc(c(-c6cc(S(=O)(=O)[O-])ccc6F)c6ccc3[nH]6)C=C5)C=C4)cc2)cc1
REMARK SMILES IDX 19 1 18 2 17 3 16 4 15 5 14 6 12 7 13 8 11 9 9 10 8 11 5 12
REMARK SMILES IDX 6 13 93 14 7 15 92 16 3 17 4 18 2 19 1 20 10 21 20 25 21 26
REMARK SMILES IDX 22 27 23 28 24 29 25 30 26 31 27 32 28 33 29 34 30 35 91 36
REMARK SMILES IDX 31 37 90 38 32 39 33 40 34 41 84 42 35 43 89 44 83 45 85 46
REMARK SMILES IDX 36 47 88 48 82 49 81 50 37 52 69 53 49 54 68 55 50 56 53 57
REMARK SMILES IDX 67 58 86 59 51 60 52 61 66 63 87 64 54 65 38 66 39 67 47 68
REMARK SMILES IDX 40 69 46 70 48 71 45 72 41 73 42 74 43 75 44 76 70 77 71 78
REMARK SMILES IDX 79 79 72 80 78 81 80 82 77 83 73 84 74 85 75 86 76 87 55 88
REMARK SMILES IDX 56 89 64 90 57 91 63 92 65 93 62 94 58 95 59 96 60 97 61 98
REMARK H PARENT 10 22 10 23 10 24 85 51 53 62
REMARK Flexibility Score: inf
ROOT
ATOM      1  C   UNL     1      -2.493   7.721   2.118  1.00  0.00     0.188 C 
ENDROOT
BRANCH   1   2
ATOM      2  C   UNL     1      -1.830   8.856   1.325  1.00  0.00     0.188 C 
BRANCH   2   3
ATOM      3  O   UNL     1      -1.580   8.632  -0.041  1.00  0.00    -0.376 OA
BRANCH   3   4
ATOM      4  C   UNL     1      -0.386   8.001  -0.477  1.00  0.00     0.202 C 
BRANCH   4   5
ATOM      5  C   UNL     1       0.732   7.458   0.435  1.00  0.00     0.261 C 
BRANCH   5   6
ATOM      6  O   UNL     1       0.385   7.105   1.780  1.00  0.00    -0.463 OA
BRANCH   6   7
ATOM      7  C   UNL     1       0.990   7.820   2.754  1.00  0.00     0.312 C 
ATOM      8  O   UNL     1       1.718   8.790   2.544  1.00  0.00    -0.252 OA
BRANCH   7   9
ATOM      9  C   UNL     1       0.654   7.428   4.173  1.00  0.00     0.192 C 
BRANCH   9  10
ATOM     10  C   UNL     1      -0.201   6.197   4.496  1.00  0.00     0.223 C 
BRANCH  10  11
ATOM     11  C   UNL     1      -0.387   6.145   6.019  1.00  0.00     0.010 A 
ATOM     12  C   UNL     1      -0.651   6.234   8.831  1.00  0.00     0.060 A 
ATOM     13  C   UNL     1      -1.595   6.869   8.016  1.00  0.00     0.016 A 
ATOM     14  C   UNL     1       0.415   5.548   8.241  1.00  0.00     0.016 A 
ATOM     15  C   UNL     1      -1.461   6.828   6.622  1.00  0.00     0.011 A 
ATOM     16  C   UNL     1       0.549   5.513   6.852  1.00  0.00     0.011 A 
BRANCH  12  17
ATOM     17  C   UNL     1      -0.808   6.299  10.307  1.00  0.00     0.337 C 
ATOM     18  O   UNL     1      -1.856   6.564  10.873  1.00  0.00    -0.246 OA
BRANCH  17  19
ATOM     19  O   UNL     1       0.386   6.053  10.903  1.00  0.00    -0.465 OA
ATOM     20  C   UNL     1       0.361   6.076  12.330  1.00  0.00     0.282 C 
ENDBRANCH  17  19
ENDBRANCH  12  17
ENDBRANCH  10  11
BRANCH  10  21
ATOM     21  N   UNL     1       0.325   4.947   3.960  1.00  0.00    -0.351 N 
ATOM     22  H   UNL     1       1.238   4.757   4.372  1.00  0.00     0.345 HD
ATOM     23  H   UNL     1       0.419   5.024   2.947  1.00  0.00     0.345 HD
ATOM     24  H   UNL     1      -0.314   4.184   4.184  1.00  0.00     0.345 HD
ENDBRANCH  10  21
ENDBRANCH   9  10
ENDBRANCH   7   9
ENDBRANCH   6   7
ENDBRANCH   5   6
ENDBRANCH   4   5
ENDBRANCH   3   4
ENDBRANCH   2   3
ENDBRANCH   1   2
BRANCH   1  25
ATOM     25  O   UNL     1      -2.210   6.379   1.775  1.00  0.00    -0.377 OA
BRANCH  25  26
ATOM     26  C   UNL     1      -2.631   5.840   0.526  1.00  0.00     0.188 C 
BRANCH  26  27
ATOM     27  C   UNL     1      -3.693   6.562  -0.327  1.00  0.00     0.188 C 
BRANCH  27  28
ATOM     28  O   UNL     1      -4.568   7.406   0.400  1.00  0.00    -0.376 OA
BRANCH  28  29
ATOM     29  C   UNL     1      -5.806   6.865   0.835  1.00  0.00     0.202 C 
BRANCH  29  30
ATOM     30  C   UNL     1      -5.767   5.618   1.733  1.00  0.00     0.261 C 
BRANCH  30  31
ATOM     31  O   UNL     1      -5.210   4.427   1.151  1.00  0.00    -0.460 OA
BRANCH  31  32
ATOM     32  C   UNL     1      -5.753   3.962   0.001  1.00  0.00     0.338 C 
ATOM     33  O   UNL     1      -6.717   4.404  -0.585  1.00  0.00    -0.246 OA
BRANCH  32  34
ATOM     34  C   UNL     1      -4.839   2.923  -0.524  1.00  0.00     0.060 A 
ATOM     35  C   UNL     1      -4.165   3.151  -1.730  1.00  0.00     0.016 A 
ATOM     36  C   UNL     1      -4.637   1.738   0.186  1.00  0.00     0.016 A 
ATOM     37  C   UNL     1      -3.287   2.188  -2.233  1.00  0.00     0.010 A 
ATOM     38  C   UNL     1      -3.776   0.765  -0.332  1.00  0.00     0.010 A 
ATOM     39  C   UNL     1      -3.107   0.978  -1.551  1.00  0.00    -0.014 A 
BRANCH  39  40
ATOM     40  C   UNL     1      -2.323  -0.121  -2.170  1.00  0.00     0.031 A 
ATOM     41  C   UNL     1      -3.059  -1.231  -2.868  1.00  0.00     0.074 A 
ATOM     42  C   UNL     1      -0.979  -0.131  -2.112  1.00  0.00     0.049 A 
ATOM     43  N   UNL     1      -2.595  -2.335  -3.393  1.00  0.00    -0.248 NA
ATOM     44  C   UNL     1      -4.516  -1.072  -2.985  1.00  0.00     0.031 C 
ATOM     45  C   UNL     1      -0.153   0.916  -1.514  1.00  0.00     0.029 A 
ATOM     46  N   UNL     1      -0.071  -1.064  -2.552  1.00  0.00    -0.354 N 
ATOM     47  C   UNL     1      -3.702  -3.009  -3.897  1.00  0.00     0.074 A 
ATOM     48  C   UNL     1      -4.862  -2.200  -3.587  1.00  0.00     0.031 C 
ATOM     49  C   UNL     1       1.140   0.559  -1.610  1.00  0.00     0.029 A 
ATOM     50  C   UNL     1       1.231  -0.763  -2.227  1.00  0.00     0.049 A 
ATOM     51  H   UNL     1      -0.329  -1.872  -3.053  1.00  0.00     0.167 HD
ATOM     52  C   UNL     1      -3.744  -4.192  -4.558  1.00  0.00     0.034 A 
ATOM     53  C   UNL     1       2.360  -1.489  -2.372  1.00  0.00     0.034 A 
ATOM     54  C   UNL     1      -2.577  -4.993  -4.843  1.00  0.00     0.049 A 
ATOM     55  C   UNL     1       2.273  -2.858  -3.009  1.00  0.00     0.074 A 
ATOM     56  C   UNL     1      -2.505  -6.196  -5.524  1.00  0.00     0.029 A 
ATOM     57  N   UNL     1      -1.282  -4.686  -4.446  1.00  0.00    -0.354 N 
ATOM     58  N   UNL     1       1.223  -3.481  -3.494  1.00  0.00    -0.248 NA
ATOM     59  C   UNL     1       3.525  -3.620  -3.118  1.00  0.00     0.031 C 
ATOM     60  C   UNL     1      -1.187  -6.659  -5.458  1.00  0.00     0.029 A 
ATOM     61  C   UNL     1      -0.415  -5.701  -4.821  1.00  0.00     0.049 A 
ATOM     62  H   UNL     1      -1.018  -3.867  -3.967  1.00  0.00     0.167 HD
ATOM     63  C   UNL     1       1.695  -4.696  -3.987  1.00  0.00     0.074 A 
ATOM     64  C   UNL     1       3.125  -4.707  -3.762  1.00  0.00     0.031 C 
ATOM     65  C   UNL     1       1.009  -5.711  -4.575  1.00  0.00     0.034 A 
BRANCH  52  66
ATOM     66  C   UNL     1      -5.100  -4.720  -4.960  1.00  0.00     0.023 A 
ATOM     67  C   UNL     1      -5.917  -4.046  -5.885  1.00  0.00     0.031 A 
ATOM     68  C   UNL     1      -5.589  -5.912  -4.397  1.00  0.00     0.131 A 
ATOM     69  C   UNL     1      -7.202  -4.535  -6.168  1.00  0.00     0.055 A 
ATOM     70  C   UNL     1      -6.834  -6.436  -4.745  1.00  0.00     0.041 A 
ATOM     71  F   UNL     1      -4.865  -6.586  -3.489  1.00  0.00    -0.206 F 
ATOM     72  C   UNL     1      -7.655  -5.739  -5.626  1.00  0.00     0.022 A 
BRANCH  69  73
ATOM     73  S   UNL     1      -8.328  -3.500  -7.145  1.00  0.00     0.124 S 
ATOM     74  O   UNL     1      -8.372  -2.277  -6.346  1.00  0.00    -0.237 OA
ATOM     75  O   UNL     1      -7.636  -3.402  -8.424  1.00  0.00    -0.237 OA
ATOM     76  O   UNL     1      -9.570  -4.269  -7.163  1.00  0.00    -0.744 OA
ENDBRANCH  69  73
ENDBRANCH  52  66
BRANCH  53  77
ATOM     77  C   UNL     1       3.664  -0.979  -1.852  1.00  0.00     0.023 A 
ATOM     78  C   UNL     1       4.756  -0.764  -2.708  1.00  0.00     0.031 A 
ATOM     79  C   UNL     1       3.857  -0.767  -0.474  1.00  0.00     0.131 A 
ATOM     80  C   UNL     1       6.003  -0.398  -2.174  1.00  0.00     0.055 A 
ATOM     81  C   UNL     1       5.081  -0.341   0.044  1.00  0.00     0.041 A 
ATOM     82  F   UNL     1       2.853  -0.969   0.393  1.00  0.00    -0.206 F 
ATOM     83  C   UNL     1       6.168  -0.167  -0.806  1.00  0.00     0.022 A 
BRANCH  80  84
ATOM     84  S   UNL     1       7.437  -0.328  -3.283  1.00  0.00     0.124 S 
ATOM     85  O   UNL     1       7.464  -1.685  -3.816  1.00  0.00    -0.237 OA
ATOM     86  O   UNL     1       7.045   0.722  -4.218  1.00  0.00    -0.237 OA
ATOM     87  O   UNL     1       8.541   0.015  -2.390  1.00  0.00    -0.744 OA
ENDBRANCH  80  84
ENDBRANCH  53  77
BRANCH  65  88
ATOM     88  C   UNL     1       1.808  -6.905  -5.045  1.00  0.00     0.023 A 
ATOM     89  C   UNL     1       2.480  -7.748  -4.142  1.00  0.00     0.031 A 
ATOM     90  C   UNL     1       1.902  -7.202  -6.417  1.00  0.00     0.131 A 
ATOM     91  C   UNL     1       3.262  -8.809  -4.624  1.00  0.00     0.055 A 
ATOM     92  C   UNL     1       2.623  -8.300  -6.886  1.00  0.00     0.041 A 
ATOM     93  F   UNL     1       1.286  -6.430  -7.327  1.00  0.00    -0.206 F 
ATOM     94  C   UNL     1       3.321  -9.103  -5.988  1.00  0.00     0.022 A 
BRANCH  91  95
ATOM     95  S   UNL     1       4.286  -9.739  -3.451  1.00  0.00     0.124 S 
ATOM     96  O   UNL     1       5.127  -8.689  -2.885  1.00  0.00    -0.237 OA
ATOM     97  O   UNL     1       3.289 -10.312  -2.551  1.00  0.00    -0.237 OA
ATOM     98  O   UNL     1       4.984 -10.706  -4.296  1.00  0.00    -0.744 OA
ENDBRANCH  91  95
ENDBRANCH  65  88
ENDBRANCH  39  40
ENDBRANCH  32  34
ENDBRANCH  31  32
ENDBRANCH  30  31
ENDBRANCH  29  30
ENDBRANCH  28  29
ENDBRANCH  27  28
ENDBRANCH  26  27
ENDBRANCH  25  26
ENDBRANCH   1  25
TORSDOF 28
