REMARK SMILES O=C(OCCOCCOCCOCCOC(=O)c1ccc(-c2c3nc(c(-c4cc(S(=O)(=O)[O-])ccc4F)c4ccc([nH]4)c(-c4cc(S(=O)(=O)[O-])ccc4F)c4nc(c(-c5cc(S(=O)(=O)[O-])ccc5F)c5ccc2[nH]5)C=C4)C=C3)cc1)C1=Cc2cc(Cl)cc(Cl)c2O[C@@H]1C(F)(F)F
REMARK SMILES IDX 10 1 9 2 8 3 7 4 6 5 5 6 4 7 3 8 2 9 1 10 81 11 82 12 92 13
REMARK SMILES IDX 83 14 91 15 84 16 90 17 85 18 88 19 86 20 87 21 89 22 93 23
REMARK SMILES IDX 94 24 95 25 96 26 11 27 12 28 13 29 14 30 15 31 16 32 17 33
REMARK SMILES IDX 18 34 19 35 80 36 20 37 79 38 21 39 22 40 23 41 73 42 24 43
REMARK SMILES IDX 78 44 72 45 74 46 25 47 77 48 71 49 70 50 26 52 58 53 38 54
REMARK SMILES IDX 57 55 39 56 42 57 56 58 75 59 40 60 41 61 55 63 76 64 43 65
REMARK SMILES IDX 27 66 28 67 36 68 29 69 35 70 37 71 34 72 30 73 31 74 32 75
REMARK SMILES IDX 33 76 59 77 60 78 68 79 61 80 67 81 69 82 66 83 62 84 63 85
REMARK SMILES IDX 64 86 65 87 44 88 45 89 53 90 46 91 52 92 54 93 51 94 47 95
REMARK SMILES IDX 48 96 49 97 50 98
REMARK H PARENT 74 51 42 62
REMARK Flexibility Score: inf
ROOT
ATOM      1  C   UNL     1       4.039   1.096   3.569  1.00  0.00     0.188 C 
ENDROOT
BRANCH   1   2
ATOM      2  O   UNL     1       2.702   0.944   3.986  1.00  0.00    -0.377 OA
BRANCH   2   3
ATOM      3  C   UNL     1       1.851   0.645   2.907  1.00  0.00     0.188 C 
BRANCH   3   4
ATOM      4  C   UNL     1       2.155  -0.685   2.207  1.00  0.00     0.188 C 
BRANCH   4   5
ATOM      5  O   UNL     1       3.472  -1.074   1.689  1.00  0.00    -0.376 OA
BRANCH   5   6
ATOM      6  C   UNL     1       4.239  -0.862   0.238  1.00  0.00     0.202 C 
BRANCH   6   7
ATOM      7  C   UNL     1       3.544   0.306  -1.470  1.00  0.00     0.261 C 
BRANCH   7   8
ATOM      8  O   UNL     1       2.641  -0.181  -2.589  1.00  0.00    -0.460 OA
BRANCH   8   9
ATOM      9  C   UNL     1       2.831  -1.476  -2.870  1.00  0.00     0.338 C 
ATOM     10  O   UNL     1       2.179  -2.190  -3.591  1.00  0.00    -0.246 OA
BRANCH   9  11
ATOM     11  C   UNL     1       3.670  -1.780  -1.724  1.00  0.00     0.087 C 
ATOM     12  C   UNL     1       5.060  -1.326  -1.862  1.00  0.00     0.027 C 
ATOM     13  C   UNL     1       2.406  -1.077  -0.459  1.00  0.00     0.316 C 
ATOM     14  C   UNL     1       5.736   0.126  -1.034  1.00  0.00     0.020 A 
ATOM     15  O   UNL     1       3.057   0.574   0.347  1.00  0.00    -0.474 OA
ATOM     16  C   UNL     1       7.026   0.499  -1.301  1.00  0.00     0.032 A 
ATOM     17  C   UNL     1       4.764   1.151  -0.028  1.00  0.00     0.146 A 
ATOM     18  C   UNL     1       7.440   1.700  -0.698  1.00  0.00     0.043 A 
ATOM     19  C   UNL     1       5.250   2.342   0.458  1.00  0.00     0.085 A 
ATOM     20  Cl  UNL     1       9.076   2.193  -1.007  1.00  0.00    -0.084 Cl
ATOM     21  C   UNL     1       6.611   2.570   0.123  1.00  0.00     0.045 A 
ATOM     22  Cl  UNL     1       4.351   3.535   1.271  1.00  0.00    -0.080 Cl
BRANCH  13  23
ATOM     23  C   UNL     1       2.072  -2.584   0.170  1.00  0.00     0.430 C 
ATOM     24  F   UNL     1       1.177  -2.680   1.169  1.00  0.00    -0.167 F 
ATOM     25  F   UNL     1       1.503  -3.307  -0.846  1.00  0.00    -0.167 F 
ATOM     26  F   UNL     1       3.160  -3.315   0.521  1.00  0.00    -0.167 F 
ENDBRANCH  13  23
ENDBRANCH   9  11
ENDBRANCH   8   9
ENDBRANCH   7   8
ENDBRANCH   6   7
ENDBRANCH   5   6
ENDBRANCH   4   5
ENDBRANCH   3   4
ENDBRANCH   2   3
ENDBRANCH   1   2
BRANCH   1  27
ATOM     27  C   UNL     1       5.029   0.034   4.059  1.00  0.00     0.188 C 
BRANCH  27  28
ATOM     28  O   UNL     1       4.612  -1.195   4.626  1.00  0.00    -0.376 OA
BRANCH  28  29
ATOM     29  C   UNL     1       3.434  -1.285   5.404  1.00  0.00     0.202 C 
BRANCH  29  30
ATOM     30  C   UNL     1       3.183  -0.399   6.637  1.00  0.00     0.261 C 
BRANCH  30  31
ATOM     31  O   UNL     1       3.475   0.997   6.507  1.00  0.00    -0.460 OA
BRANCH  31  32
ATOM     32  C   UNL     1       4.729   1.360   6.858  1.00  0.00     0.338 C 
ATOM     33  O   UNL     1       5.589   0.633   7.326  1.00  0.00    -0.246 OA
BRANCH  32  34
ATOM     34  C   UNL     1       4.994   2.743   6.394  1.00  0.00     0.060 A 
ATOM     35  C   UNL     1       6.179   2.981   5.679  1.00  0.00     0.016 A 
ATOM     36  C   UNL     1       4.111   3.793   6.657  1.00  0.00     0.016 A 
ATOM     37  C   UNL     1       6.509   4.267   5.264  1.00  0.00     0.010 A 
ATOM     38  C   UNL     1       4.467   5.094   6.284  1.00  0.00     0.010 A 
ATOM     39  C   UNL     1       5.689   5.338   5.628  1.00  0.00    -0.014 A 
BRANCH  39  40
ATOM     40  C   UNL     1       6.246   6.711   5.568  1.00  0.00     0.031 A 
ATOM     41  C   UNL     1       6.827   7.284   6.832  1.00  0.00     0.074 A 
ATOM     42  C   UNL     1       6.294   7.407   4.420  1.00  0.00     0.049 A 
ATOM     43  N   UNL     1       7.319   8.473   7.059  1.00  0.00    -0.248 NA
ATOM     44  C   UNL     1       6.849   6.389   8.001  1.00  0.00     0.031 C 
ATOM     45  C   UNL     1       5.833   6.921   3.122  1.00  0.00     0.029 A 
ATOM     46  N   UNL     1       6.752   8.674   4.163  1.00  0.00    -0.354 N 
ATOM     47  C   UNL     1       7.693   8.476   8.399  1.00  0.00     0.074 A 
ATOM     48  C   UNL     1       7.336   7.183   8.940  1.00  0.00     0.031 C 
ATOM     49  C   UNL     1       6.022   7.885   2.205  1.00  0.00     0.029 A 
ATOM     50  C   UNL     1       6.569   9.073   2.860  1.00  0.00     0.049 A 
ATOM     51  H   UNL     1       7.171   9.245   4.848  1.00  0.00     0.167 HD
ATOM     52  C   UNL     1       8.285   9.467   9.108  1.00  0.00     0.034 A 
ATOM     53  C   UNL     1       6.783  10.271   2.277  1.00  0.00     0.034 A 
ATOM     54  C   UNL     1       8.617  10.754   8.550  1.00  0.00     0.049 A 
ATOM     55  C   UNL     1       7.334  11.401   3.117  1.00  0.00     0.074 A 
ATOM     56  C   UNL     1       9.222  11.830   9.173  1.00  0.00     0.029 A 
ATOM     57  N   UNL     1       8.354  11.146   7.243  1.00  0.00    -0.354 N 
ATOM     58  N   UNL     1       7.679  11.399   4.385  1.00  0.00    -0.248 NA
ATOM     59  C   UNL     1       7.527  12.693   2.445  1.00  0.00     0.031 C 
ATOM     60  C   UNL     1       9.234  12.902   8.276  1.00  0.00     0.029 A 
ATOM     61  C   UNL     1       8.742  12.464   7.056  1.00  0.00     0.049 A 
ATOM     62  H   UNL     1       7.952  10.573   6.552  1.00  0.00     0.167 HD
ATOM     63  C   UNL     1       8.163  12.679   4.651  1.00  0.00     0.074 A 
ATOM     64  C   UNL     1       8.078  13.418   3.408  1.00  0.00     0.031 C 
ATOM     65  C   UNL     1       8.642  13.194   5.813  1.00  0.00     0.034 A 
BRANCH  52  66
ATOM     66  C   UNL     1       8.540   9.215  10.575  1.00  0.00     0.023 A 
ATOM     67  C   UNL     1       9.391   8.187  11.018  1.00  0.00     0.031 A 
ATOM     68  C   UNL     1       7.887   9.992  11.549  1.00  0.00     0.131 A 
ATOM     69  C   UNL     1       9.502   7.914  12.389  1.00  0.00     0.055 A 
ATOM     70  C   UNL     1       8.078   9.777  12.914  1.00  0.00     0.041 A 
ATOM     71  F   UNL     1       7.038  10.968  11.189  1.00  0.00    -0.206 F 
ATOM     72  C   UNL     1       8.876   8.721  13.342  1.00  0.00     0.022 A 
BRANCH  69  73
ATOM     73  S   UNL     1      10.335   6.386  12.901  1.00  0.00     0.124 S 
ATOM     74  O   UNL     1       9.555   5.374  12.192  1.00  0.00    -0.237 OA
ATOM     75  O   UNL     1      11.697   6.593  12.424  1.00  0.00    -0.237 OA
ATOM     76  O   UNL     1      10.176   6.379  14.354  1.00  0.00    -0.744 OA
ENDBRANCH  69  73
ENDBRANCH  52  66
BRANCH  53  77
ATOM     77  C   UNL     1       6.432  10.489   0.843  1.00  0.00     0.023 A 
ATOM     78  C   UNL     1       7.409  10.853  -0.097  1.00  0.00     0.031 A 
ATOM     79  C   UNL     1       5.099  10.392   0.402  1.00  0.00     0.131 A 
ATOM     80  C   UNL     1       7.033  11.152  -1.417  1.00  0.00     0.055 A 
ATOM     81  C   UNL     1       4.741  10.625  -0.926  1.00  0.00     0.041 A 
ATOM     82  F   UNL     1       4.121  10.061   1.260  1.00  0.00    -0.206 F 
ATOM     83  C   UNL     1       5.709  11.020  -1.843  1.00  0.00     0.022 A 
BRANCH  80  84
ATOM     84  S   UNL     1       8.285  11.819  -2.546  1.00  0.00     0.124 S 
ATOM     85  O   UNL     1       8.716  13.016  -1.835  1.00  0.00    -0.237 OA
ATOM     86  O   UNL     1       9.249  10.726  -2.609  1.00  0.00    -0.237 OA
ATOM     87  O   UNL     1       7.538  12.059  -3.779  1.00  0.00    -0.744 OA
ENDBRANCH  80  84
ENDBRANCH  53  77
BRANCH  65  88
ATOM     88  C   UNL     1       9.165  14.612   5.782  1.00  0.00     0.023 A 
ATOM     89  C   UNL     1       8.329  15.709   5.511  1.00  0.00     0.031 A 
ATOM     90  C   UNL     1      10.527  14.867   6.029  1.00  0.00     0.131 A 
ATOM     91  C   UNL     1       8.874  17.000   5.429  1.00  0.00     0.055 A 
ATOM     92  C   UNL     1      11.047  16.162   6.027  1.00  0.00     0.041 A 
ATOM     93  F   UNL     1      11.376  13.859   6.285  1.00  0.00    -0.206 F 
ATOM     94  C   UNL     1      10.222  17.236   5.710  1.00  0.00     0.022 A 
BRANCH  91  95
ATOM     95  S   UNL     1       7.824  18.351   4.829  1.00  0.00     0.124 S 
ATOM     96  O   UNL     1       7.408  17.851   3.522  1.00  0.00    -0.237 OA
ATOM     97  O   UNL     1       6.782  18.413   5.848  1.00  0.00    -0.237 OA
ATOM     98  O   UNL     1       8.728  19.499   4.795  1.00  0.00    -0.744 OA
ENDBRANCH  91  95
ENDBRANCH  65  88
ENDBRANCH  39  40
ENDBRANCH  32  34
ENDBRANCH  31  32
ENDBRANCH  30  31
ENDBRANCH  29  30
ENDBRANCH  28  29
ENDBRANCH  27  28
ENDBRANCH   1  27
TORSDOF 24
