REMARK SMILES O=C(OCCOCCOCCOCCOC(=O)C1CCN(c2ccc(C(F)(F)F)cc2[N+](=O)[O-])CC1)c1ccc(-c2c3nc(c(-c4cc(S(=O)(=O)[O-])ccc4F)c4ccc([nH]4)c(-c4cc(S(=O)(=O)[O-])ccc4F)c4nc(c(-c5cc(S(=O)(=O)[O-])ccc5F)c5ccc2[nH]5)C=C4)C=C3)cc1
REMARK SMILES IDX 8 1 7 2 6 3 5 4 4 5 3 6 2 7 1 8 37 9 38 10 99 11 39 12 98 13
REMARK SMILES IDX 40 14 41 15 42 16 92 17 43 18 97 19 91 20 93 21 44 22 96 23
REMARK SMILES IDX 90 24 89 25 45 27 77 28 57 29 76 30 58 31 61 32 75 33 94 34
REMARK SMILES IDX 59 35 60 36 74 38 95 39 62 40 46 41 47 42 55 43 48 44 54 45
REMARK SMILES IDX 56 46 53 47 49 48 50 49 51 50 52 51 78 52 79 53 87 54 80 55
REMARK SMILES IDX 86 56 88 57 85 58 81 59 82 60 83 61 84 62 63 63 64 64 72 65
REMARK SMILES IDX 65 66 71 67 73 68 70 69 66 70 67 71 68 72 69 73 9 74 10 75
REMARK SMILES IDX 11 76 12 77 13 78 14 79 15 80 16 81 17 82 18 83 19 84 36 85
REMARK SMILES IDX 20 86 35 87 21 88 22 89 23 90 31 91 24 92 30 93 25 94 32 95
REMARK SMILES IDX 33 96 34 97 26 98 27 99 28 100 29 101
REMARK H PARENT 93 26 61 37
REMARK Flexibility Score: inf
ROOT
ATOM      1  C   UNL     1       2.105  -2.201  -1.713  1.00  0.00     0.188 C 
ENDROOT
BRANCH   1   2
ATOM      2  C   UNL     1       2.439  -1.535  -0.379  1.00  0.00     0.188 C 
BRANCH   2   3
ATOM      3  O   UNL     1       3.662  -0.813  -0.470  1.00  0.00    -0.376 OA
BRANCH   3   4
ATOM      4  C   UNL     1       4.596  -0.995   0.592  1.00  0.00     0.202 C 
BRANCH   4   5
ATOM      5  C   UNL     1       4.251  -0.238   1.867  1.00  0.00     0.261 C 
BRANCH   5   6
ATOM      6  O   UNL     1       2.869   0.141   1.943  1.00  0.00    -0.460 OA
BRANCH   6   7
ATOM      7  C   UNL     1       2.248   1.184   1.342  1.00  0.00     0.338 C 
ATOM      8  O   UNL     1       1.029   1.293   1.483  1.00  0.00    -0.246 OA
BRANCH   7   9
ATOM      9  C   UNL     1       2.946   2.246   0.560  1.00  0.00     0.060 A 
ATOM     10  C   UNL     1       4.016   2.050  -0.315  1.00  0.00     0.016 A 
ATOM     11  C   UNL     1       2.401   3.537   0.646  1.00  0.00     0.016 A 
ATOM     12  C   UNL     1       4.595   3.097  -1.011  1.00  0.00     0.010 A 
ATOM     13  C   UNL     1       2.957   4.598  -0.070  1.00  0.00     0.010 A 
ATOM     14  C   UNL     1       4.087   4.379  -0.867  1.00  0.00    -0.014 A 
BRANCH  14  15
ATOM     15  C   UNL     1       4.920   5.490  -1.347  1.00  0.00     0.031 A 
ATOM     16  C   UNL     1       5.689   6.248  -0.309  1.00  0.00     0.074 A 
ATOM     17  C   UNL     1       5.100   5.689  -2.662  1.00  0.00     0.049 A 
ATOM     18  N   UNL     1       6.379   7.346  -0.419  1.00  0.00    -0.248 NA
ATOM     19  C   UNL     1       5.675   5.676   1.050  1.00  0.00     0.031 C 
ATOM     20  C   UNL     1       4.536   4.856  -3.727  1.00  0.00     0.029 A 
ATOM     21  N   UNL     1       5.829   6.634  -3.328  1.00  0.00    -0.354 N 
ATOM     22  C   UNL     1       6.835   7.626   0.865  1.00  0.00     0.074 A 
ATOM     23  C   UNL     1       6.341   6.587   1.736  1.00  0.00     0.031 C 
ATOM     24  C   UNL     1       4.948   5.327  -4.915  1.00  0.00     0.029 A 
ATOM     25  C   UNL     1       5.718   6.545  -4.695  1.00  0.00     0.049 A 
ATOM     26  H   UNL     1       6.380   7.312  -2.873  1.00  0.00     0.167 HD
ATOM     27  C   UNL     1       7.588   8.678   1.264  1.00  0.00     0.034 A 
ATOM     28  C   UNL     1       6.143   7.401  -5.644  1.00  0.00     0.034 A 
ATOM     29  C   UNL     1       8.038   9.684   0.337  1.00  0.00     0.049 A 
ATOM     30  C   UNL     1       6.865   8.639  -5.171  1.00  0.00     0.074 A 
ATOM     31  C   UNL     1       8.715  10.861   0.585  1.00  0.00     0.029 A 
ATOM     32  N   UNL     1       7.840   9.617  -1.042  1.00  0.00    -0.354 N 
ATOM     33  N   UNL     1       7.186   8.988  -3.943  1.00  0.00    -0.248 NA
ATOM     34  C   UNL     1       7.268   9.603  -6.198  1.00  0.00     0.031 C 
ATOM     35  C   UNL     1       8.867  11.534  -0.633  1.00  0.00     0.029 A 
ATOM     36  C   UNL     1       8.362  10.740  -1.655  1.00  0.00     0.049 A 
ATOM     37  H   UNL     1       7.393   8.876  -1.511  1.00  0.00     0.167 HD
ATOM     38  C   UNL     1       7.850  10.204  -4.050  1.00  0.00     0.074 A 
ATOM     39  C   UNL     1       7.894  10.517  -5.468  1.00  0.00     0.031 C 
ATOM     40  C   UNL     1       8.375  10.996  -3.079  1.00  0.00     0.034 A 
BRANCH  27  41
ATOM     41  C   UNL     1       7.822   8.820   2.749  1.00  0.00     0.023 A 
ATOM     42  C   UNL     1       8.517   7.849   3.495  1.00  0.00     0.031 A 
ATOM     43  C   UNL     1       7.210   9.873   3.454  1.00  0.00     0.131 A 
ATOM     44  C   UNL     1       8.489   7.893   4.899  1.00  0.00     0.055 A 
ATOM     45  C   UNL     1       7.268   9.961   4.846  1.00  0.00     0.041 A 
ATOM     46  F   UNL     1       6.501  10.809   2.804  1.00  0.00    -0.206 F 
ATOM     47  C   UNL     1       7.891   8.955   5.579  1.00  0.00     0.022 A 
BRANCH  44  48
ATOM     48  S   UNL     1       9.069   6.441   5.824  1.00  0.00     0.124 S 
ATOM     49  O   UNL     1       8.178   5.396   5.323  1.00  0.00    -0.237 OA
ATOM     50  O   UNL     1      10.464   6.339   5.411  1.00  0.00    -0.237 OA
ATOM     51  O   UNL     1       8.856   6.815   7.220  1.00  0.00    -0.744 OA
ENDBRANCH  44  48
ENDBRANCH  27  41
BRANCH  28  52
ATOM     52  C   UNL     1       5.816   7.171  -7.082  1.00  0.00     0.023 A 
ATOM     53  C   UNL     1       6.821   7.030  -8.050  1.00  0.00     0.031 A 
ATOM     54  C   UNL     1       4.477   7.114  -7.518  1.00  0.00     0.131 A 
ATOM     55  C   UNL     1       6.475   6.868  -9.403  1.00  0.00     0.055 A 
ATOM     56  C   UNL     1       4.138   6.898  -8.855  1.00  0.00     0.041 A 
ATOM     57  F   UNL     1       3.469   7.251  -6.641  1.00  0.00    -0.206 F 
ATOM     58  C   UNL     1       5.141   6.785  -9.809  1.00  0.00     0.022 A 
BRANCH  55  59
ATOM     59  S   UNL     1       7.798   6.845 -10.645  1.00  0.00     0.124 S 
ATOM     60  O   UNL     1       8.457   8.123 -10.400  1.00  0.00    -0.237 OA
ATOM     61  O   UNL     1       8.549   5.653 -10.264  1.00  0.00    -0.237 OA
ATOM     62  O   UNL     1       7.076   6.747 -11.911  1.00  0.00    -0.744 OA
ENDBRANCH  55  59
ENDBRANCH  28  52
BRANCH  40  63
ATOM     63  C   UNL     1       9.088  12.238  -3.541  1.00  0.00     0.023 A 
ATOM     64  C   UNL     1       8.397  13.313  -4.120  1.00  0.00     0.031 A 
ATOM     65  C   UNL     1      10.481  12.343  -3.382  1.00  0.00     0.131 A 
ATOM     66  C   UNL     1       9.110  14.431  -4.571  1.00  0.00     0.055 A 
ATOM     67  C   UNL     1      11.176  13.486  -3.771  1.00  0.00     0.041 A 
ATOM     68  F   UNL     1      11.184  11.339  -2.834  1.00  0.00    -0.206 F 
ATOM     69  C   UNL     1      10.491  14.534  -4.381  1.00  0.00     0.022 A 
BRANCH  66  70
ATOM     70  S   UNL     1       8.219  15.712  -5.492  1.00  0.00     0.124 S 
ATOM     71  O   UNL     1       7.686  14.957  -6.621  1.00  0.00    -0.237 OA
ATOM     72  O   UNL     1       7.239  16.175  -4.515  1.00  0.00    -0.237 OA
ATOM     73  O   UNL     1       9.263  16.679  -5.829  1.00  0.00    -0.744 OA
ENDBRANCH  66  70
ENDBRANCH  40  63
ENDBRANCH  14  15
ENDBRANCH   7   9
ENDBRANCH   6   7
ENDBRANCH   5   6
ENDBRANCH   4   5
ENDBRANCH   3   4
ENDBRANCH   2   3
ENDBRANCH   1   2
BRANCH   1  74
ATOM     74  O   UNL     1       3.085  -3.128  -2.187  1.00  0.00    -0.377 OA
BRANCH  74  75
ATOM     75  C   UNL     1       4.421  -2.637  -2.277  1.00  0.00     0.188 C 
BRANCH  75  76
ATOM     76  C   UNL     1       4.738  -1.435  -3.196  1.00  0.00     0.188 C 
BRANCH  76  77
ATOM     77  O   UNL     1       3.663  -0.545  -3.477  1.00  0.00    -0.376 OA
BRANCH  77  78
ATOM     78  C   UNL     1       3.366  -0.421  -4.874  1.00  0.00     0.202 C 
BRANCH  78  79
ATOM     79  C   UNL     1       2.453  -1.539  -5.405  1.00  0.00     0.261 C 
BRANCH  79  80
ATOM     80  O   UNL     1       2.892  -2.847  -4.997  1.00  0.00    -0.463 OA
BRANCH  80  81
ATOM     81  C   UNL     1       3.835  -3.457  -5.763  1.00  0.00     0.309 C 
ATOM     82  O   UNL     1       4.162  -3.090  -6.868  1.00  0.00    -0.252 OA
BRANCH  81  83
ATOM     83  C   UNL     1       4.497  -4.585  -4.967  1.00  0.00     0.103 C 
ATOM     84  C   UNL     1       6.015  -4.381  -4.892  1.00  0.00     0.037 C 
ATOM     85  C   UNL     1       4.181  -5.980  -5.476  1.00  0.00     0.037 C 
ATOM     86  C   UNL     1       6.682  -4.626  -6.235  1.00  0.00     0.117 C 
ATOM     87  C   UNL     1       4.851  -6.242  -6.811  1.00  0.00     0.117 C 
ATOM     88  N   UNL     1       6.285  -5.946  -6.735  1.00  0.00    -0.366 N 
BRANCH  88  89
ATOM     89  C   UNL     1       7.178  -6.510  -7.639  1.00  0.00     0.116 A 
ATOM     90  C   UNL     1       8.456  -6.843  -7.146  1.00  0.00     0.034 A 
ATOM     91  C   UNL     1       6.944  -6.802  -8.991  1.00  0.00     0.293 A 
ATOM     92  C   UNL     1       9.426  -7.455  -7.942  1.00  0.00     0.016 A 
ATOM     93  C   UNL     1       7.900  -7.434  -9.803  1.00  0.00     0.101 A 
ATOM     94  C   UNL     1       9.149  -7.777  -9.275  1.00  0.00     0.062 A 
BRANCH  91  95
ATOM     95  N   UNL     1       5.715  -6.417  -9.655  1.00  0.00     0.064 N 
ATOM     96  O   UNL     1       4.987  -7.339 -10.055  1.00  0.00    -0.258 OA
ATOM     97  O   UNL     1       5.505  -5.210  -9.825  1.00  0.00    -0.258 OA
ENDBRANCH  91  95
BRANCH  94  98
ATOM     98  C   UNL     1      10.187  -8.477 -10.110  1.00  0.00     0.416 C 
ATOM     99  F   UNL     1      11.284  -7.707 -10.334  1.00  0.00    -0.166 F 
ATOM    100  F   UNL     1      10.640  -9.617  -9.518  1.00  0.00    -0.166 F 
ATOM    101  F   UNL     1       9.729  -8.852 -11.336  1.00  0.00    -0.166 F 
ENDBRANCH  94  98
ENDBRANCH  88  89
ENDBRANCH  81  83
ENDBRANCH  80  81
ENDBRANCH  79  80
ENDBRANCH  78  79
ENDBRANCH  77  78
ENDBRANCH  76  77
ENDBRANCH  75  76
ENDBRANCH  74  75
ENDBRANCH   1  74
TORSDOF 26
