REMARK SMILES Cc1cccc(Nc2ccccc2C(=O)OCCOCCOCCOCCOC(=O)c2ccc(-c3c4nc(c(-c5cc(S(=O)(=O)[O-])ccc5F)c5ccc([nH]5)c(-c5cc(S(=O)(=O)[O-])ccc5F)c5nc(c(-c6cc(S(=O)(=O)[O-])ccc6F)c6ccc3[nH]6)C=C5)C=C4)cc2)c1C
REMARK SMILES IDX 23 1 22 2 21 3 20 4 19 5 18 6 17 7 16 8 14 9 15 10 13 11
REMARK SMILES IDX 8 12 9 13 10 14 12 15 11 16 7 17 6 19 1 20 2 21 3 22 94 23
REMARK SMILES IDX 4 24 95 25 5 26 24 27 25 28 26 29 27 30 28 31 29 32 30 33
REMARK SMILES IDX 31 34 32 35 93 36 33 37 92 38 34 39 35 40 36 41 86 42 37 43
REMARK SMILES IDX 91 44 85 45 87 46 38 47 90 48 84 49 83 50 39 52 71 53 51 54
REMARK SMILES IDX 70 55 52 56 55 57 69 58 88 59 53 60 54 61 68 63 89 64 56 65
REMARK SMILES IDX 40 66 41 67 49 68 42 69 48 70 50 71 47 72 43 73 44 74 45 75
REMARK SMILES IDX 46 76 72 77 73 78 81 79 74 80 80 81 82 82 79 83 75 84 76 85
REMARK SMILES IDX 77 86 78 87 57 88 58 89 66 90 59 91 65 92 67 93 64 94 60 95
REMARK SMILES IDX 61 96 62 97 63 98
REMARK H PARENT 7 18 87 51 55 62
REMARK Flexibility Score: inf
ROOT
ATOM      1  C   UNL     1      -1.709  -2.595   4.397  1.00  0.00     0.188 C 
ENDROOT
BRANCH   1   2
ATOM      2  O   UNL     1      -1.016  -3.254   3.344  1.00  0.00    -0.377 OA
BRANCH   2   3
ATOM      3  C   UNL     1       0.260  -3.829   3.569  1.00  0.00     0.188 C 
BRANCH   3   4
ATOM      4  C   UNL     1       1.388  -2.993   4.217  1.00  0.00     0.188 C 
BRANCH   4   5
ATOM      5  O   UNL     1       0.984  -1.820   4.889  1.00  0.00    -0.376 OA
BRANCH   5   6
ATOM      6  C   UNL     1       0.967  -0.560   4.248  1.00  0.00     0.202 C 
BRANCH   6   7
ATOM      7  C   UNL     1       0.711  -0.367   2.749  1.00  0.00     0.261 C 
BRANCH   7   8
ATOM      8  O   UNL     1       0.791  -1.528   1.930  1.00  0.00    -0.460 OA
BRANCH   8   9
ATOM      9  C   UNL     1       1.986  -1.784   1.362  1.00  0.00     0.340 C 
ATOM     10  O   UNL     1       3.038  -1.211   1.609  1.00  0.00    -0.246 OA
BRANCH   9  11
ATOM     11  C   UNL     1       1.906  -3.022   0.540  1.00  0.00     0.083 A 
ATOM     12  C   UNL     1       0.872  -3.337  -0.366  1.00  0.00     0.053 A 
ATOM     13  C   UNL     1       0.935  -4.593  -1.007  1.00  0.00     0.027 A 
ATOM     14  C   UNL     1       1.974  -5.497  -0.767  1.00  0.00     0.002 A 
ATOM     15  C   UNL     1       2.950  -3.940   0.778  1.00  0.00     0.018 A 
ATOM     16  C   UNL     1       2.984  -5.171   0.129  1.00  0.00     0.001 A 
BRANCH  12  17
ATOM     17  N   UNL     1      -0.179  -2.488  -0.782  1.00  0.00    -0.355 N 
ATOM     18  H   UNL     1      -0.955  -2.965  -1.157  1.00  0.00     0.167 HD
BRANCH  17  19
ATOM     19  C   UNL     1      -0.325  -1.085  -0.760  1.00  0.00     0.042 A 
ATOM     20  C   UNL     1       1.807   2.050  -0.394  1.00  0.00     0.044 C 
ATOM     21  C   UNL     1       0.606   1.155  -0.544  1.00  0.00    -0.046 A 
ATOM     22  C   UNL     1      -0.650   1.632  -0.143  1.00  0.00     0.004 A 
ATOM     23  C   UNL     1       0.745  -0.188  -0.967  1.00  0.00    -0.025 A 
ATOM     24  C   UNL     1      -1.749   0.782  -0.102  1.00  0.00     0.002 A 
ATOM     25  C   UNL     1       2.024  -0.634  -1.632  1.00  0.00     0.047 C 
ATOM     26  C   UNL     1      -1.577  -0.574  -0.369  1.00  0.00     0.026 A 
ENDBRANCH  17  19
ENDBRANCH  12  17
ENDBRANCH   9  11
ENDBRANCH   8   9
ENDBRANCH   7   8
ENDBRANCH   6   7
ENDBRANCH   5   6
ENDBRANCH   4   5
ENDBRANCH   3   4
ENDBRANCH   2   3
ENDBRANCH   1   2
BRANCH   1  27
ATOM     27  C   UNL     1      -1.369  -2.849   5.883  1.00  0.00     0.188 C 
BRANCH  27  28
ATOM     28  O   UNL     1      -0.485  -3.931   6.120  1.00  0.00    -0.376 OA
BRANCH  28  29
ATOM     29  C   UNL     1      -1.026  -5.141   6.615  1.00  0.00     0.202 C 
BRANCH  29  30
ATOM     30  C   UNL     1      -2.059  -5.866   5.741  1.00  0.00     0.261 C 
BRANCH  30  31
ATOM     31  O   UNL     1      -3.202  -5.099   5.339  1.00  0.00    -0.460 OA
BRANCH  31  32
ATOM     32  C   UNL     1      -4.019  -4.651   6.317  1.00  0.00     0.338 C 
ATOM     33  O   UNL     1      -3.896  -4.837   7.517  1.00  0.00    -0.246 OA
BRANCH  32  34
ATOM     34  C   UNL     1      -4.982  -3.723   5.694  1.00  0.00     0.060 A 
ATOM     35  C   UNL     1      -4.999  -2.380   6.094  1.00  0.00     0.016 A 
ATOM     36  C   UNL     1      -5.850  -4.180   4.699  1.00  0.00     0.016 A 
ATOM     37  C   UNL     1      -5.908  -1.494   5.518  1.00  0.00     0.010 A 
ATOM     38  C   UNL     1      -6.777  -3.297   4.143  1.00  0.00     0.010 A 
ATOM     39  C   UNL     1      -6.832  -1.960   4.574  1.00  0.00    -0.014 A 
BRANCH  39  40
ATOM     40  C   UNL     1      -7.991  -1.113   4.205  1.00  0.00     0.031 A 
ATOM     41  C   UNL     1      -9.295  -1.356   4.913  1.00  0.00     0.074 A 
ATOM     42  C   UNL     1      -7.888  -0.148   3.275  1.00  0.00     0.049 A 
ATOM     43  N   UNL     1     -10.463  -0.803   4.723  1.00  0.00    -0.248 NA
ATOM     44  C   UNL     1      -9.272  -2.374   5.974  1.00  0.00     0.031 C 
ATOM     45  C   UNL     1      -6.665   0.207   2.560  1.00  0.00     0.029 A 
ATOM     46  N   UNL     1      -8.838   0.701   2.767  1.00  0.00    -0.354 N 
ATOM     47  C   UNL     1     -11.321  -1.416   5.631  1.00  0.00     0.074 A 
ATOM     48  C   UNL     1     -10.542  -2.407   6.341  1.00  0.00     0.031 C 
ATOM     49  C   UNL     1      -6.944   1.192   1.688  1.00  0.00     0.029 A 
ATOM     50  C   UNL     1      -8.372   1.504   1.753  1.00  0.00     0.049 A 
ATOM     51  H   UNL     1      -9.765   0.733   3.096  1.00  0.00     0.167 HD
ATOM     52  C   UNL     1     -12.635  -1.169   5.852  1.00  0.00     0.034 A 
ATOM     53  C   UNL     1      -9.031   2.362   0.947  1.00  0.00     0.034 A 
ATOM     54  C   UNL     1     -13.394  -0.186   5.117  1.00  0.00     0.049 A 
ATOM     55  C   UNL     1     -10.514   2.561   1.146  1.00  0.00     0.074 A 
ATOM     56  C   UNL     1     -14.721   0.171   5.274  1.00  0.00     0.029 A 
ATOM     57  N   UNL     1     -12.900   0.579   4.066  1.00  0.00    -0.354 N 
ATOM     58  N   UNL     1     -11.316   1.995   2.021  1.00  0.00    -0.248 NA
ATOM     59  C   UNL     1     -11.180   3.519   0.255  1.00  0.00     0.031 C 
ATOM     60  C   UNL     1     -15.053   1.077   4.261  1.00  0.00     0.029 A 
ATOM     61  C   UNL     1     -13.909   1.367   3.534  1.00  0.00     0.049 A 
ATOM     62  H   UNL     1     -11.969   0.562   3.746  1.00  0.00     0.167 HD
ATOM     63  C   UNL     1     -12.575   2.550   1.801  1.00  0.00     0.074 A 
ATOM     64  C   UNL     1     -12.421   3.503   0.721  1.00  0.00     0.031 C 
ATOM     65  C   UNL     1     -13.749   2.300   2.439  1.00  0.00     0.034 A 
BRANCH  52  66
ATOM     66  C   UNL     1     -13.337  -2.030   6.877  1.00  0.00     0.023 A 
ATOM     67  C   UNL     1     -12.944  -2.056   8.227  1.00  0.00     0.031 A 
ATOM     68  C   UNL     1     -14.378  -2.890   6.481  1.00  0.00     0.131 A 
ATOM     69  C   UNL     1     -13.519  -2.987   9.106  1.00  0.00     0.055 A 
ATOM     70  C   UNL     1     -15.013  -3.745   7.384  1.00  0.00     0.041 A 
ATOM     71  F   UNL     1     -14.781  -2.933   5.202  1.00  0.00    -0.206 F 
ATOM     72  C   UNL     1     -14.570  -3.812   8.701  1.00  0.00     0.022 A 
BRANCH  69  73
ATOM     73  S   UNL     1     -12.746  -3.234  10.730  1.00  0.00     0.124 S 
ATOM     74  O   UNL     1     -11.371  -3.556  10.357  1.00  0.00    -0.237 OA
ATOM     75  O   UNL     1     -12.948  -1.942  11.374  1.00  0.00    -0.237 OA
ATOM     76  O   UNL     1     -13.504  -4.344  11.304  1.00  0.00    -0.744 OA
ENDBRANCH  69  73
ENDBRANCH  52  66
BRANCH  53  77
ATOM     77  C   UNL     1      -8.304   3.054  -0.156  1.00  0.00     0.023 A 
ATOM     78  C   UNL     1      -8.152   4.449  -0.174  1.00  0.00     0.031 A 
ATOM     79  C   UNL     1      -7.763   2.318  -1.228  1.00  0.00     0.131 A 
ATOM     80  C   UNL     1      -7.500   5.067  -1.254  1.00  0.00     0.055 A 
ATOM     81  C   UNL     1      -7.071   2.932  -2.272  1.00  0.00     0.041 A 
ATOM     82  F   UNL     1      -7.883   0.981  -1.262  1.00  0.00    -0.206 F 
ATOM     83  C   UNL     1      -6.944   4.317  -2.293  1.00  0.00     0.022 A 
BRANCH  80  84
ATOM     84  S   UNL     1      -7.441   6.879  -1.315  1.00  0.00     0.124 S 
ATOM     85  O   UNL     1      -8.858   7.222  -1.339  1.00  0.00    -0.237 OA
ATOM     86  O   UNL     1      -6.723   7.200  -0.085  1.00  0.00    -0.237 OA
ATOM     87  O   UNL     1      -6.709   7.155  -2.549  1.00  0.00    -0.744 OA
ENDBRANCH  80  84
ENDBRANCH  53  77
BRANCH  65  88
ATOM     88  C   UNL     1     -14.956   3.104   2.010  1.00  0.00     0.023 A 
ATOM     89  C   UNL     1     -15.516   2.980   0.727  1.00  0.00     0.031 A 
ATOM     90  C   UNL     1     -15.557   4.008   2.905  1.00  0.00     0.131 A 
ATOM     91  C   UNL     1     -16.603   3.788   0.356  1.00  0.00     0.055 A 
ATOM     92  C   UNL     1     -16.682   4.756   2.555  1.00  0.00     0.041 A 
ATOM     93  F   UNL     1     -15.064   4.175   4.143  1.00  0.00    -0.206 F 
ATOM     94  C   UNL     1     -17.203   4.659   1.269  1.00  0.00     0.022 A 
BRANCH  91  95
ATOM     95  S   UNL     1     -17.158   3.765  -1.371  1.00  0.00     0.124 S 
ATOM     96  O   UNL     1     -15.942   4.142  -2.084  1.00  0.00    -0.237 OA
ATOM     97  O   UNL     1     -17.595   2.383  -1.541  1.00  0.00    -0.237 OA
ATOM     98  O   UNL     1     -18.228   4.761  -1.401  1.00  0.00    -0.744 OA
ENDBRANCH  91  95
ENDBRANCH  65  88
ENDBRANCH  39  40
ENDBRANCH  32  34
ENDBRANCH  31  32
ENDBRANCH  30  31
ENDBRANCH  29  30
ENDBRANCH  28  29
ENDBRANCH  27  28
ENDBRANCH   1  27
TORSDOF 25
