REMARK SMILES O=C(OCCOCCOCCOCCOC(=O)c1cc(NC(=S)NC(=O)c2ccccc2Cl)c(Cl)cc1Cl)c1ccc(-c2c3nc(c(-c4cc(S(=O)(=O)[O-])ccc4F)c4ccc([nH]4)c(-c4cc(S(=O)(=O)[O-])ccc4F)c4nc(c(-c5cc(S(=O)(=O)[O-])ccc5F)c5ccc2[nH]5)C=C4)C=C3)cc1
REMARK SMILES IDX 10 1 9 2 8 3 7 4 6 5 5 6 4 7 3 8 2 9 1 10 39 11 40 12 101 13
REMARK SMILES IDX 41 14 100 15 42 16 43 17 44 18 94 19 45 20 99 21 93 22 95 23
REMARK SMILES IDX 46 24 98 25 92 26 91 27 47 29 79 30 59 31 78 32 60 33 63 34
REMARK SMILES IDX 77 35 96 36 61 37 62 38 76 40 97 41 64 42 48 43 49 44 57 45
REMARK SMILES IDX 50 46 56 47 58 48 55 49 51 50 52 51 53 52 54 53 80 54 81 55
REMARK SMILES IDX 89 56 82 57 88 58 90 59 87 60 83 61 84 62 85 63 86 64 65 65
REMARK SMILES IDX 66 66 74 67 67 68 73 69 75 70 72 71 68 72 69 73 70 74 71 75
REMARK SMILES IDX 11 76 12 77 13 78 14 79 15 80 16 81 17 82 18 83 19 84 37 85
REMARK SMILES IDX 20 86 36 87 38 88 34 89 35 90 21 91 22 93 23 94 24 95 25 96
REMARK SMILES IDX 26 98 27 99 28 100 32 101 29 102 31 103 33 104 30 105
REMARK H PARENT 95 28 63 39 21 92 24 97
REMARK Flexibility Score: inf
ROOT
ATOM      1  C   UNL     1       4.290  -1.926  -2.647  1.00  0.00     0.188 C 
ENDROOT
BRANCH   1   2
ATOM      2  O   UNL     1       2.904  -2.165  -2.864  1.00  0.00    -0.377 OA
BRANCH   2   3
ATOM      3  C   UNL     1       1.957  -1.351  -2.205  1.00  0.00     0.188 C 
BRANCH   3   4
ATOM      4  C   UNL     1       2.354  -0.838  -0.830  1.00  0.00     0.188 C 
BRANCH   4   5
ATOM      5  O   UNL     1       3.731  -0.559  -0.781  1.00  0.00    -0.376 OA
BRANCH   5   6
ATOM      6  C   UNL     1       4.661  -0.819   0.254  1.00  0.00     0.202 C 
BRANCH   6   7
ATOM      7  C   UNL     1       4.197  -0.733   1.674  1.00  0.00     0.261 C 
BRANCH   7   8
ATOM      8  O   UNL     1       2.907  -0.156   1.919  1.00  0.00    -0.460 OA
BRANCH   8   9
ATOM      9  C   UNL     1       2.278   0.943   1.453  1.00  0.00     0.338 C 
ATOM     10  O   UNL     1       1.057   1.005   1.600  1.00  0.00    -0.246 OA
BRANCH   9  11
ATOM     11  C   UNL     1       2.949   2.101   0.799  1.00  0.00     0.060 A 
ATOM     12  C   UNL     1       3.974   2.049  -0.139  1.00  0.00     0.016 A 
ATOM     13  C   UNL     1       2.384   3.356   1.030  1.00  0.00     0.016 A 
ATOM     14  C   UNL     1       4.604   3.142  -0.648  1.00  0.00     0.010 A 
ATOM     15  C   UNL     1       2.904   4.487   0.400  1.00  0.00     0.010 A 
ATOM     16  C   UNL     1       4.048   4.366  -0.395  1.00  0.00    -0.014 A 
BRANCH  16  17
ATOM     17  C   UNL     1       4.883   5.479  -0.800  1.00  0.00     0.031 A 
ATOM     18  C   UNL     1       5.663   6.112   0.294  1.00  0.00     0.074 A 
ATOM     19  C   UNL     1       5.099   5.703  -2.105  1.00  0.00     0.049 A 
ATOM     20  N   UNL     1       6.393   7.182   0.263  1.00  0.00    -0.248 NA
ATOM     21  C   UNL     1       5.615   5.439   1.609  1.00  0.00     0.031 C 
ATOM     22  C   UNL     1       4.562   4.899  -3.214  1.00  0.00     0.029 A 
ATOM     23  N   UNL     1       5.858   6.650  -2.719  1.00  0.00    -0.354 N 
ATOM     24  C   UNL     1       6.835   7.351   1.564  1.00  0.00     0.074 A 
ATOM     25  C   UNL     1       6.292   6.282   2.365  1.00  0.00     0.031 C 
ATOM     26  C   UNL     1       4.994   5.414  -4.375  1.00  0.00     0.029 A 
ATOM     27  C   UNL     1       5.753   6.622  -4.088  1.00  0.00     0.049 A 
ATOM     28  H   UNL     1       6.426   7.290  -2.232  1.00  0.00     0.167 HD
ATOM     29  C   UNL     1       7.617   8.347   2.025  1.00  0.00     0.034 A 
ATOM     30  C   UNL     1       6.172   7.535  -4.979  1.00  0.00     0.034 A 
ATOM     31  C   UNL     1       8.099   9.381   1.155  1.00  0.00     0.049 A 
ATOM     32  C   UNL     1       6.887   8.738  -4.417  1.00  0.00     0.074 A 
ATOM     33  C   UNL     1       8.827  10.507   1.474  1.00  0.00     0.029 A 
ATOM     34  N   UNL     1       7.878   9.412  -0.221  1.00  0.00    -0.354 N 
ATOM     35  N   UNL     1       7.207   8.997  -3.166  1.00  0.00    -0.248 NA
ATOM     36  C   UNL     1       7.290   9.772  -5.370  1.00  0.00     0.031 C 
ATOM     37  C   UNL     1       8.958  11.267   0.309  1.00  0.00     0.029 A 
ATOM     38  C   UNL     1       8.421  10.560  -0.760  1.00  0.00     0.049 A 
ATOM     39  H   UNL     1       7.404   8.718  -0.732  1.00  0.00     0.167 HD
ATOM     40  C   UNL     1       7.887  10.207  -3.187  1.00  0.00     0.074 A 
ATOM     41  C   UNL     1       7.932  10.619  -4.579  1.00  0.00     0.031 C 
ATOM     42  C   UNL     1       8.432  10.915  -2.163  1.00  0.00     0.034 A 
BRANCH  29  43
ATOM     43  C   UNL     1       7.834   8.403   3.508  1.00  0.00     0.023 A 
ATOM     44  C   UNL     1       8.480   7.370   4.210  1.00  0.00     0.031 A 
ATOM     45  C   UNL     1       7.262   9.451   4.249  1.00  0.00     0.131 A 
ATOM     46  C   UNL     1       8.461   7.367   5.612  1.00  0.00     0.055 A 
ATOM     47  C   UNL     1       7.339   9.494   5.639  1.00  0.00     0.041 A 
ATOM     48  F   UNL     1       6.577  10.428   3.634  1.00  0.00    -0.206 F 
ATOM     49  C   UNL     1       7.928   8.439   6.331  1.00  0.00     0.022 A 
BRANCH  46  50
ATOM     50  S   UNL     1       8.962   5.853   6.478  1.00  0.00     0.124 S 
ATOM     51  O   UNL     1       8.003   4.882   5.955  1.00  0.00    -0.237 OA
ATOM     52  O   UNL     1      10.343   5.680   6.043  1.00  0.00    -0.237 OA
ATOM     53  O   UNL     1       8.789   6.192   7.889  1.00  0.00    -0.744 OA
ENDBRANCH  46  50
ENDBRANCH  29  43
BRANCH  30  54
ATOM     54  C   UNL     1       5.851   7.401  -6.426  1.00  0.00     0.023 A 
ATOM     55  C   UNL     1       6.866   7.372  -7.392  1.00  0.00     0.031 A 
ATOM     56  C   UNL     1       4.516   7.359  -6.876  1.00  0.00     0.131 A 
ATOM     57  C   UNL     1       6.534   7.362  -8.756  1.00  0.00     0.055 A 
ATOM     58  C   UNL     1       4.192   7.278  -8.231  1.00  0.00     0.041 A 
ATOM     59  F   UNL     1       3.500   7.397  -5.999  1.00  0.00    -0.206 F 
ATOM     60  C   UNL     1       5.205   7.296  -9.182  1.00  0.00     0.022 A 
BRANCH  57  61
ATOM     61  S   UNL     1       7.866   7.569  -9.968  1.00  0.00     0.124 S 
ATOM     62  O   UNL     1       8.453   8.835  -9.545  1.00  0.00    -0.237 OA
ATOM     63  O   UNL     1       8.674   6.377  -9.738  1.00  0.00    -0.237 OA
ATOM     64  O   UNL     1       7.158   7.605 -11.247  1.00  0.00    -0.744 OA
ENDBRANCH  57  61
ENDBRANCH  30  54
BRANCH  42  65
ATOM     65  C   UNL     1       9.184  12.165  -2.532  1.00  0.00     0.023 A 
ATOM     66  C   UNL     1       8.543  13.277  -3.094  1.00  0.00     0.031 A 
ATOM     67  C   UNL     1      10.568  12.240  -2.288  1.00  0.00     0.131 A 
ATOM     68  C   UNL     1       9.299  14.397  -3.457  1.00  0.00     0.055 A 
ATOM     69  C   UNL     1      11.296  13.393  -2.564  1.00  0.00     0.041 A 
ATOM     70  F   UNL     1      11.227  11.198  -1.756  1.00  0.00    -0.206 F 
ATOM     71  C   UNL     1      10.664  14.475  -3.167  1.00  0.00     0.022 A 
BRANCH  68  72
ATOM     72  S   UNL     1       8.499  15.696  -4.432  1.00  0.00     0.124 S 
ATOM     73  O   UNL     1       8.023  14.950  -5.593  1.00  0.00    -0.237 OA
ATOM     74  O   UNL     1       7.468  16.182  -3.521  1.00  0.00    -0.237 OA
ATOM     75  O   UNL     1       9.584  16.638  -4.701  1.00  0.00    -0.744 OA
ENDBRANCH  68  72
ENDBRANCH  42  65
ENDBRANCH  16  17
ENDBRANCH   9  11
ENDBRANCH   8   9
ENDBRANCH   7   8
ENDBRANCH   6   7
ENDBRANCH   5   6
ENDBRANCH   4   5
ENDBRANCH   3   4
ENDBRANCH   2   3
ENDBRANCH   1   2
BRANCH   1  76
ATOM     76  C   UNL     1       5.001  -0.694  -3.234  1.00  0.00     0.188 C 
BRANCH  76  77
ATOM     77  O   UNL     1       4.176   0.347  -3.692  1.00  0.00    -0.376 OA
BRANCH  77  78
ATOM     78  C   UNL     1       3.440   0.167  -4.893  1.00  0.00     0.202 C 
BRANCH  78  79
ATOM     79  C   UNL     1       3.491  -1.088  -5.803  1.00  0.00     0.261 C 
BRANCH  79  80
ATOM     80  O   UNL     1       3.808  -2.353  -5.204  1.00  0.00    -0.460 OA
BRANCH  80  81
ATOM     81  C   UNL     1       4.996  -2.973  -5.380  1.00  0.00     0.339 C 
ATOM     82  O   UNL     1       5.903  -2.539  -6.074  1.00  0.00    -0.246 OA
BRANCH  81  83
ATOM     83  C   UNL     1       5.161  -4.339  -4.562  1.00  0.00     0.080 A 
ATOM     84  C   UNL     1       4.211  -6.121  -4.574  1.00  0.00     0.045 A 
ATOM     85  C   UNL     1       6.878  -4.405  -3.946  1.00  0.00     0.057 A 
ATOM     86  C   UNL     1       4.963  -7.590  -4.228  1.00  0.00     0.060 A 
ATOM     87  C   UNL     1       7.552  -5.997  -3.474  1.00  0.00     0.044 A 
ATOM     88  Cl  UNL     1       7.843  -3.013  -3.646  1.00  0.00    -0.083 Cl
ATOM     89  C   UNL     1       6.615  -7.524  -3.638  1.00  0.00     0.066 A 
ATOM     90  Cl  UNL     1       7.435  -9.005  -3.312  1.00  0.00    -0.082 Cl
BRANCH  86  91
ATOM     91  N   UNL     1       4.310  -8.589  -4.990  1.00  0.00    -0.331 N 
ATOM     92  H   UNL     1       4.645  -9.502  -4.835  1.00  0.00     0.169 HD
BRANCH  91  93
ATOM     93  C   UNL     1       3.280  -8.506  -5.918  1.00  0.00     0.177 C 
ATOM     94  S   UNL     1       2.712  -9.971  -6.520  1.00  0.00    -0.040 S 
BRANCH  93  95
ATOM     95  N   UNL     1       2.619  -7.350  -6.463  1.00  0.00    -0.299 N 
ATOM     96  C   UNL     1       2.395  -5.890  -6.640  1.00  0.00     0.258 C 
ATOM     97  H   UNL     1       1.930  -7.748  -7.044  1.00  0.00     0.172 HD
ATOM     98  O   UNL     1       1.371  -5.471  -7.170  1.00  0.00    -0.269 OA
BRANCH  96  99
ATOM     99  C   UNL     1       3.353  -4.906  -6.053  1.00  0.00     0.058 A 
ATOM    100  C   UNL     1       2.821  -4.505  -4.369  1.00  0.00     0.015 A 
ATOM    101  C   UNL     1       4.955  -5.515  -6.439  1.00  0.00     0.053 A 
ATOM    102  C   UNL     1       3.783  -4.903  -2.929  1.00  0.00     0.001 A 
ATOM    103  C   UNL     1       6.027  -5.953  -5.090  1.00  0.00     0.021 A 
ATOM    104  Cl  UNL     1       5.407  -5.932  -8.038  1.00  0.00    -0.083 Cl
ATOM    105  C   UNL     1       5.383  -5.673  -3.186  1.00  0.00     0.002 A 
ENDBRANCH  96  99
ENDBRANCH  93  95
ENDBRANCH  91  93
ENDBRANCH  86  91
ENDBRANCH  81  83
ENDBRANCH  80  81
ENDBRANCH  79  80
ENDBRANCH  78  79
ENDBRANCH  77  78
ENDBRANCH  76  77
ENDBRANCH   1  76
TORSDOF 27
