REMARK SMILES O=C(N/N=C/c1ccc(C(=O)OCCOCCOCCOCCOC(=O)c2ccc(-c3c4nc(c(-c5cc(S(=O)(=O)[O-])ccc5F)c5ccc([nH]5)c(-c5cc(S(=O)(=O)[O-])ccc5F)c5nc(c(-c6cc(S(=O)(=O)[O-])ccc6F)c6ccc3[nH]6)C=C5)C=C4)cc2)cc1)C(=O)Nc1ccc2c(c1)OCO2
REMARK SMILES IDX 17 1 16 2 15 3 14 4 13 5 12 6 10 7 11 8 9 9 6 10 7 11 91 12
REMARK SMILES IDX 8 13 90 14 5 15 4 16 3 17 1 18 2 19 92 21 93 22 94 23 95 25
REMARK SMILES IDX 96 26 100 27 97 28 99 29 98 30 101 31 103 32 102 33 18 34
REMARK SMILES IDX 19 35 20 36 21 37 22 38 23 39 24 40 25 41 26 42 27 43 28 44
REMARK SMILES IDX 89 45 29 46 88 47 30 48 31 49 32 50 82 51 33 52 87 53 81 54
REMARK SMILES IDX 83 55 34 56 86 57 80 58 79 59 35 61 67 62 47 63 66 64 48 65
REMARK SMILES IDX 51 66 65 67 84 68 49 69 50 70 64 72 85 73 52 74 36 75 37 76
REMARK SMILES IDX 45 77 38 78 44 79 46 80 43 81 39 82 40 83 41 84 42 85 68 86
REMARK SMILES IDX 69 87 77 88 70 89 76 90 78 91 75 92 71 93 72 94 73 95 74 96
REMARK SMILES IDX 53 97 54 98 62 99 55 100 61 101 63 102 60 103 56 104 57 105
REMARK SMILES IDX 58 106 59 107
REMARK H PARENT 3 20 94 24 83 60 51 71
REMARK Flexibility Score: inf
ROOT
ATOM      1  C   UNL     1      11.425  -1.823   0.042  1.00  0.00     0.188 C 
ENDROOT
BRANCH   1   2
ATOM      2  C   UNL     1      12.106  -0.852  -0.937  1.00  0.00     0.188 C 
BRANCH   2   3
ATOM      3  O   UNL     1      13.453  -0.489  -0.711  1.00  0.00    -0.376 OA
BRANCH   3   4
ATOM      4  C   UNL     1      13.884   0.331   0.368  1.00  0.00     0.202 C 
BRANCH   4   5
ATOM      5  C   UNL     1      13.014   1.141   1.350  1.00  0.00     0.261 C 
BRANCH   5   6
ATOM      6  O   UNL     1      11.639   0.803   1.444  1.00  0.00    -0.460 OA
BRANCH   6   7
ATOM      7  C   UNL     1      10.809   1.539   0.683  1.00  0.00     0.338 C 
ATOM      8  O   UNL     1      11.097   2.485  -0.032  1.00  0.00    -0.246 OA
BRANCH   7   9
ATOM      9  C   UNL     1       9.479   0.906   0.682  1.00  0.00     0.060 A 
ATOM     10  C   UNL     1       6.556   0.179   0.670  1.00  0.00    -0.005 A 
ATOM     11  C   UNL     1       7.451   0.367  -0.515  1.00  0.00     0.010 A 
ATOM     12  C   UNL     1       7.579  -0.138   1.731  1.00  0.00     0.010 A 
ATOM     13  C   UNL     1       8.790   0.814  -0.506  1.00  0.00     0.016 A 
ATOM     14  C   UNL     1       8.936   0.269   1.769  1.00  0.00     0.016 A 
BRANCH  10  15
ATOM     15  C   UNL     1       4.444   0.527   0.818  1.00  0.00     0.141 C 
ATOM     16  N   UNL     1       3.321  -0.176   1.191  1.00  0.00    -0.180 NA
BRANCH  16  17
ATOM     17  N   UNL     1       2.201   0.272   0.570  1.00  0.00    -0.239 N 
ATOM     18  O   UNL     1       1.062   0.649  -1.367  1.00  0.00    -0.262 OA
ATOM     19  C   UNL     1       1.965   0.055  -0.781  1.00  0.00     0.329 C 
ATOM     20  H   UNL     1       1.532   0.768   1.096  1.00  0.00     0.194 HD
BRANCH  19  21
ATOM     21  C   UNL     1       2.765  -1.035  -1.545  1.00  0.00     0.315 C 
ATOM     22  O   UNL     1       2.136  -1.962  -2.057  1.00  0.00    -0.263 OA
ATOM     23  N   UNL     1       4.145  -0.957  -1.769  1.00  0.00    -0.318 N 
ATOM     24  H   UNL     1       4.503  -1.252  -2.637  1.00  0.00     0.170 HD
BRANCH  23  25
ATOM     25  C   UNL     1       5.038  -0.472  -0.798  1.00  0.00     0.045 A 
ATOM     26  C   UNL     1       5.345   1.347  -0.784  1.00  0.00     0.030 A 
ATOM     27  C   UNL     1       5.118  -1.443   0.755  1.00  0.00     0.076 A 
ATOM     28  C   UNL     1       5.704   2.184   0.814  1.00  0.00     0.053 A 
ATOM     29  C   UNL     1       5.290  -0.540   2.320  1.00  0.00     0.167 A 
ATOM     30  C   UNL     1       5.579   1.231   2.336  1.00  0.00     0.165 A 
ATOM     31  O   UNL     1       5.109  -0.913   3.609  1.00  0.00    -0.454 OA
ATOM     32  O   UNL     1       5.580   1.606   3.634  1.00  0.00    -0.454 OA
ATOM     33  C   UNL     1       5.070   0.391   4.305  1.00  0.00     0.468 C 
ENDBRANCH  23  25
ENDBRANCH  19  21
ENDBRANCH  16  17
ENDBRANCH  10  15
ENDBRANCH   7   9
ENDBRANCH   6   7
ENDBRANCH   5   6
ENDBRANCH   4   5
ENDBRANCH   3   4
ENDBRANCH   2   3
ENDBRANCH   1   2
BRANCH   1  34
ATOM     34  O   UNL     1      12.026  -1.839   1.320  1.00  0.00    -0.377 OA
BRANCH  34  35
ATOM     35  C   UNL     1      13.046  -2.806   1.547  1.00  0.00     0.188 C 
BRANCH  35  36
ATOM     36  C   UNL     1      13.932  -3.288   0.376  1.00  0.00     0.188 C 
BRANCH  36  37
ATOM     37  O   UNL     1      13.211  -3.691  -0.787  1.00  0.00    -0.376 OA
BRANCH  37  38
ATOM     38  C   UNL     1      13.089  -5.087  -1.024  1.00  0.00     0.202 C 
BRANCH  38  39
ATOM     39  C   UNL     1      12.090  -5.813  -0.112  1.00  0.00     0.261 C 
BRANCH  39  40
ATOM     40  O   UNL     1      12.433  -5.828   1.282  1.00  0.00    -0.460 OA
BRANCH  40  41
ATOM     41  C   UNL     1      13.617  -6.387   1.620  1.00  0.00     0.338 C 
ATOM     42  O   UNL     1      14.404  -6.942   0.877  1.00  0.00    -0.246 OA
BRANCH  41  43
ATOM     43  C   UNL     1      13.890  -6.031   3.026  1.00  0.00     0.060 A 
ATOM     44  C   UNL     1      15.057  -5.319   3.329  1.00  0.00     0.016 A 
ATOM     45  C   UNL     1      12.992  -6.390   4.033  1.00  0.00     0.016 A 
ATOM     46  C   UNL     1      15.344  -4.988   4.654  1.00  0.00     0.010 A 
ATOM     47  C   UNL     1      13.291  -6.077   5.360  1.00  0.00     0.010 A 
ATOM     48  C   UNL     1      14.482  -5.400   5.679  1.00  0.00    -0.014 A 
BRANCH  48  49
ATOM     49  C   UNL     1      14.914  -5.301   7.094  1.00  0.00     0.031 A 
ATOM     50  C   UNL     1      15.539  -6.512   7.730  1.00  0.00     0.074 A 
ATOM     51  C   UNL     1      14.760  -4.164   7.795  1.00  0.00     0.049 A 
ATOM     52  N   UNL     1      15.934  -6.694   8.962  1.00  0.00    -0.248 NA
ATOM     53  C   UNL     1      15.740  -7.676   6.852  1.00  0.00     0.031 C 
ATOM     54  C   UNL     1      14.209  -2.915   7.271  1.00  0.00     0.029 A 
ATOM     55  N   UNL     1      15.045  -3.882   9.108  1.00  0.00    -0.354 N 
ATOM     56  C   UNL     1      16.430  -7.993   9.011  1.00  0.00     0.074 A 
ATOM     57  C   UNL     1      16.251  -8.562   7.692  1.00  0.00     0.031 C 
ATOM     58  C   UNL     1      14.184  -2.003   8.260  1.00  0.00     0.029 A 
ATOM     59  C   UNL     1      14.677  -2.614   9.494  1.00  0.00     0.049 A 
ATOM     60  H   UNL     1      15.473  -4.526   9.717  1.00  0.00     0.167 HD
ATOM     61  C   UNL     1      16.989  -8.647  10.057  1.00  0.00     0.034 A 
ATOM     62  C   UNL     1      14.707  -2.029  10.709  1.00  0.00     0.034 A 
ATOM     63  C   UNL     1      17.141  -8.072  11.371  1.00  0.00     0.049 A 
ATOM     64  C   UNL     1      15.242  -2.814  11.886  1.00  0.00     0.074 A 
ATOM     65  C   UNL     1      17.703  -8.641  12.500  1.00  0.00     0.029 A 
ATOM     66  N   UNL     1      16.713  -6.803  11.737  1.00  0.00    -0.354 N 
ATOM     67  N   UNL     1      15.722  -4.037  11.918  1.00  0.00    -0.248 NA
ATOM     68  C   UNL     1      15.244  -2.137  13.190  1.00  0.00     0.031 C 
ATOM     69  C   UNL     1      17.546  -7.748  13.565  1.00  0.00     0.029 A 
ATOM     70  C   UNL     1      16.963  -6.586  13.083  1.00  0.00     0.049 A 
ATOM     71  H   UNL     1      16.294  -6.152  11.130  1.00  0.00     0.167 HD
ATOM     72  C   UNL     1      16.112  -4.259  13.237  1.00  0.00     0.074 A 
ATOM     73  C   UNL     1      15.825  -3.041  13.965  1.00  0.00     0.031 C 
ATOM     74  C   UNL     1      16.662  -5.367  13.798  1.00  0.00     0.034 A 
BRANCH  61  75
ATOM     75  C   UNL     1      17.422 -10.074   9.830  1.00  0.00     0.023 A 
ATOM     76  C   UNL     1      18.453 -10.402   8.931  1.00  0.00     0.031 A 
ATOM     77  C   UNL     1      16.774 -11.126  10.501  1.00  0.00     0.131 A 
ATOM     78  C   UNL     1      18.760 -11.747   8.680  1.00  0.00     0.055 A 
ATOM     79  C   UNL     1      17.137 -12.459  10.305  1.00  0.00     0.041 A 
ATOM     80  F   UNL     1      15.764 -10.875  11.350  1.00  0.00    -0.206 F 
ATOM     81  C   UNL     1      18.127 -12.777   9.380  1.00  0.00     0.022 A 
BRANCH  78  82
ATOM     82  S   UNL     1      19.902 -12.138   7.327  1.00  0.00     0.124 S 
ATOM     83  O   UNL     1      19.222 -11.536   6.183  1.00  0.00    -0.237 OA
ATOM     84  O   UNL     1      21.134 -11.485   7.754  1.00  0.00    -0.237 OA
ATOM     85  O   UNL     1      19.940 -13.599   7.321  1.00  0.00    -0.744 OA
ENDBRANCH  78  82
ENDBRANCH  61  75
BRANCH  62  86
ATOM     86  C   UNL     1      14.173  -0.649  10.904  1.00  0.00     0.023 A 
ATOM     87  C   UNL     1      14.999   0.396  11.350  1.00  0.00     0.031 A 
ATOM     88  C   UNL     1      12.806  -0.373  10.720  1.00  0.00     0.131 A 
ATOM     89  C   UNL     1      14.442   1.651  11.646  1.00  0.00     0.055 A 
ATOM     90  C   UNL     1      12.268   0.892  10.962  1.00  0.00     0.041 A 
ATOM     91  F   UNL     1      11.968  -1.335  10.301  1.00  0.00    -0.206 F 
ATOM     92  C   UNL     1      13.085   1.910  11.443  1.00  0.00     0.022 A 
BRANCH  89  93
ATOM     93  S   UNL     1      15.502   2.915  12.401  1.00  0.00     0.124 S 
ATOM     94  O   UNL     1      15.963   2.234  13.606  1.00  0.00    -0.237 OA
ATOM     95  O   UNL     1      16.504   3.129  11.362  1.00  0.00    -0.237 OA
ATOM     96  O   UNL     1      14.590   4.034  12.625  1.00  0.00    -0.744 OA
ENDBRANCH  89  93
ENDBRANCH  62  86
BRANCH  74  97
ATOM     97  C   UNL     1      17.033  -5.290  15.260  1.00  0.00     0.023 A 
ATOM     98  C   UNL     1      16.061  -5.169  16.268  1.00  0.00     0.031 A 
ATOM     99  C   UNL     1      18.385  -5.336  15.649  1.00  0.00     0.131 A 
ATOM    100  C   UNL     1      16.455  -5.043  17.609  1.00  0.00     0.055 A 
ATOM    101  C   UNL     1      18.768  -5.274  16.989  1.00  0.00     0.041 A 
ATOM    102  F   UNL     1      19.357  -5.450  14.729  1.00  0.00    -0.206 F 
ATOM    103  C   UNL     1      17.802  -5.113  17.977  1.00  0.00     0.022 A 
BRANCH 100 104
ATOM    104  S   UNL     1      15.190  -4.693  18.861  1.00  0.00     0.124 S 
ATOM    105  O   UNL     1      14.614  -3.446  18.369  1.00  0.00    -0.237 OA
ATOM    106  O   UNL     1      14.332  -5.870  18.776  1.00  0.00    -0.237 OA
ATOM    107  O   UNL     1      15.957  -4.576  20.101  1.00  0.00    -0.744 OA
ENDBRANCH 100 104
ENDBRANCH  74  97
ENDBRANCH  48  49
ENDBRANCH  41  43
ENDBRANCH  40  41
ENDBRANCH  39  40
ENDBRANCH  38  39
ENDBRANCH  37  38
ENDBRANCH  36  37
ENDBRANCH  35  36
ENDBRANCH  34  35
ENDBRANCH   1  34
TORSDOF 27
