REMARK SMILES O=C(C[C@H](c1ccc(C2CC2)cc1)[NH+]1CCOCC1)OCCOCCOCCOCCOC(=O)c1ccc(-c2c3nc(c(-c4cc(S(=O)(=O)[O-])ccc4F)c4ccc([nH]4)c(-c4cc(S(=O)(=O)[O-])ccc4F)c4nc(c(-c5cc(S(=O)(=O)[O-])ccc5F)c5ccc2[nH]5)C=C4)C=C3)cc1
REMARK SMILES IDX 26 1 25 2 24 3 23 4 22 5 21 6 20 7 2 8 1 9 3 10 4 11 14 12
REMARK SMILES IDX 15 13 19 14 16 16 18 17 17 18 5 19 6 20 13 21 7 22 12 23
REMARK SMILES IDX 8 24 9 25 10 26 11 27 27 28 28 29 29 30 30 31 31 32 32 33
REMARK SMILES IDX 33 34 34 35 35 36 36 37 97 38 37 39 96 40 38 41 39 42 40 43
REMARK SMILES IDX 90 44 41 45 95 46 89 47 91 48 42 49 94 50 88 51 87 52 43 54
REMARK SMILES IDX 75 55 55 56 74 57 56 58 59 59 73 60 92 61 57 62 58 63 72 65
REMARK SMILES IDX 93 66 60 67 44 68 45 69 53 70 46 71 52 72 54 73 51 74 47 75
REMARK SMILES IDX 48 76 49 77 50 78 76 79 77 80 85 81 78 82 84 83 86 84 83 85
REMARK SMILES IDX 79 86 80 87 81 88 82 89 61 90 62 91 70 92 63 93 69 94 71 95
REMARK SMILES IDX 68 96 64 97 65 98 66 99 67 100
REMARK H PARENT 14 15 91 53 59 64
REMARK Flexibility Score: inf
ROOT
ATOM      1  O   UNL     1       5.752   1.665   5.246  1.00  0.00    -0.377 OA
ENDROOT
BRANCH   1   2
ATOM      2  C   UNL     1       5.796   0.677   4.232  1.00  0.00     0.188 C 
BRANCH   2   3
ATOM      3  C   UNL     1       5.219   0.896   2.828  1.00  0.00     0.188 C 
BRANCH   3   4
ATOM      4  O   UNL     1       5.231   2.193   2.263  1.00  0.00    -0.376 OA
BRANCH   4   5
ATOM      5  C   UNL     1       4.052   2.915   1.954  1.00  0.00     0.202 C 
BRANCH   5   6
ATOM      6  C   UNL     1       2.699   2.230   1.942  1.00  0.00     0.261 C 
BRANCH   6   7
ATOM      7  O   UNL     1       2.555   0.939   1.304  1.00  0.00    -0.463 OA
BRANCH   7   8
ATOM      8  C   UNL     1       3.430   0.258   0.533  1.00  0.00     0.312 C 
ATOM      9  O   UNL     1       3.467  -0.970   0.604  1.00  0.00    -0.252 OA
BRANCH   8  10
ATOM     10  C   UNL     1       4.324   1.009  -0.426  1.00  0.00     0.192 C 
BRANCH  10  11
ATOM     11  C   UNL     1       3.499   1.895  -1.369  1.00  0.00     0.226 C 
BRANCH  11  12
ATOM     12  N   UNL     1       4.363   2.681  -2.292  1.00  0.00    -0.324 N 
ATOM     13  C   UNL     1       5.006   3.844  -1.609  1.00  0.00     0.291 C 
ATOM     14  C   UNL     1       3.614   3.255  -3.439  1.00  0.00     0.291 C 
ATOM     15  H   UNL     1       5.056   2.006  -2.616  1.00  0.00     0.348 HD
ATOM     16  C   UNL     1       4.039   5.004  -1.267  1.00  0.00     0.221 C 
ATOM     17  C   UNL     1       2.617   4.347  -3.030  1.00  0.00     0.221 C 
ATOM     18  O   UNL     1       3.304   5.443  -2.415  1.00  0.00    -0.370 OA
ENDBRANCH  11  12
BRANCH  11  19
ATOM     19  C   UNL     1       2.522   0.948  -2.056  1.00  0.00     0.010 A 
ATOM     20  C   UNL     1       2.970  -0.070  -2.905  1.00  0.00     0.010 A 
ATOM     21  C   UNL     1       1.173   0.984  -1.688  1.00  0.00     0.010 A 
ATOM     22  C   UNL     1       2.080  -1.034  -3.368  1.00  0.00     0.004 A 
ATOM     23  C   UNL     1       0.295   0.009  -2.149  1.00  0.00     0.004 A 
ATOM     24  C   UNL     1       0.722  -1.014  -3.008  1.00  0.00    -0.045 A 
BRANCH  24  25
ATOM     25  C   UNL     1      -0.213  -2.049  -3.583  1.00  0.00     0.019 C 
ATOM     26  C   UNL     1      -1.693  -2.104  -3.303  1.00  0.00     0.009 C 
ATOM     27  C   UNL     1      -1.206  -1.556  -4.611  1.00  0.00     0.009 C 
ENDBRANCH  24  25
ENDBRANCH  11  19
ENDBRANCH  10  11
ENDBRANCH   8  10
ENDBRANCH   7   8
ENDBRANCH   6   7
ENDBRANCH   5   6
ENDBRANCH   4   5
ENDBRANCH   3   4
ENDBRANCH   2   3
ENDBRANCH   1   2
BRANCH   1  28
ATOM     28  C   UNL     1       5.559   3.015   4.868  1.00  0.00     0.188 C 
BRANCH  28  29
ATOM     29  C   UNL     1       6.684   3.712   4.065  1.00  0.00     0.188 C 
BRANCH  29  30
ATOM     30  O   UNL     1       7.498   2.827   3.320  1.00  0.00    -0.376 OA
BRANCH  30  31
ATOM     31  C   UNL     1       8.720   2.357   3.859  1.00  0.00     0.202 C 
BRANCH  31  32
ATOM     32  C   UNL     1       8.946   2.028   5.351  1.00  0.00     0.261 C 
BRANCH  32  33
ATOM     33  O   UNL     1       8.107   2.654   6.324  1.00  0.00    -0.460 OA
BRANCH  33  34
ATOM     34  C   UNL     1       8.424   3.909   6.707  1.00  0.00     0.338 C 
ATOM     35  O   UNL     1       9.389   4.556   6.331  1.00  0.00    -0.246 OA
BRANCH  34  36
ATOM     36  C   UNL     1       7.253   4.470   7.427  1.00  0.00     0.060 A 
ATOM     37  C   UNL     1       6.737   5.695   6.980  1.00  0.00     0.016 A 
ATOM     38  C   UNL     1       6.606   3.771   8.454  1.00  0.00     0.016 A 
ATOM     39  C   UNL     1       5.607   6.243   7.582  1.00  0.00     0.010 A 
ATOM     40  C   UNL     1       5.490   4.339   9.083  1.00  0.00     0.010 A 
ATOM     41  C   UNL     1       5.014   5.599   8.675  1.00  0.00    -0.014 A 
BRANCH  41  42
ATOM     42  C   UNL     1       4.103   6.396   9.535  1.00  0.00     0.031 A 
ATOM     43  C   UNL     1       4.715   7.112  10.711  1.00  0.00     0.074 A 
ATOM     44  C   UNL     1       2.809   6.585   9.220  1.00  0.00     0.049 A 
ATOM     45  N   UNL     1       4.166   7.932  11.567  1.00  0.00    -0.248 NA
ATOM     46  C   UNL     1       6.149   6.870  10.944  1.00  0.00     0.031 C 
ATOM     47  C   UNL     1       2.120   5.987   8.078  1.00  0.00     0.029 A 
ATOM     48  N   UNL     1       1.846   7.350   9.830  1.00  0.00    -0.354 N 
ATOM     49  C   UNL     1       5.190   8.321  12.425  1.00  0.00     0.074 A 
ATOM     50  C   UNL     1       6.377   7.600  12.023  1.00  0.00     0.031 C 
ATOM     51  C   UNL     1       0.841   6.405   8.073  1.00  0.00     0.029 A 
ATOM     52  C   UNL     1       0.613   7.279   9.223  1.00  0.00     0.049 A 
ATOM     53  H   UNL     1       2.021   7.898  10.629  1.00  0.00     0.167 HD
ATOM     54  C   UNL     1       5.152   9.214  13.443  1.00  0.00     0.034 A 
ATOM     55  C   UNL     1      -0.563   7.843   9.570  1.00  0.00     0.034 A 
ATOM     56  C   UNL     1       3.956   9.904  13.854  1.00  0.00     0.049 A 
ATOM     57  C   UNL     1      -0.605   8.759  10.773  1.00  0.00     0.074 A 
ATOM     58  C   UNL     1       3.793  10.807  14.888  1.00  0.00     0.029 A 
ATOM     59  N   UNL     1       2.710   9.758  13.255  1.00  0.00    -0.354 N 
ATOM     60  N   UNL     1       0.372   9.121  11.575  1.00  0.00    -0.248 NA
ATOM     61  C   UNL     1      -1.904   9.359  11.104  1.00  0.00     0.031 C 
ATOM     62  C   UNL     1       2.439  11.150  14.962  1.00  0.00     0.029 A 
ATOM     63  C   UNL     1       1.770  10.532  13.917  1.00  0.00     0.049 A 
ATOM     64  H   UNL     1       2.523   9.187  12.475  1.00  0.00     0.167 HD
ATOM     65  C   UNL     1      -0.193  10.011  12.488  1.00  0.00     0.074 A 
ATOM     66  C   UNL     1      -1.585  10.155  12.113  1.00  0.00     0.031 C 
ATOM     67  C   UNL     1       0.380  10.651  13.541  1.00  0.00     0.034 A 
BRANCH  54  68
ATOM     68  C   UNL     1       6.436   9.449  14.203  1.00  0.00     0.023 A 
ATOM     69  C   UNL     1       7.569  10.008  13.584  1.00  0.00     0.031 A 
ATOM     70  C   UNL     1       6.540   9.077  15.554  1.00  0.00     0.131 A 
ATOM     71  C   UNL     1       8.773  10.118  14.295  1.00  0.00     0.055 A 
ATOM     72  C   UNL     1       7.718   9.265  16.280  1.00  0.00     0.041 A 
ATOM     73  F   UNL     1       5.503   8.510  16.189  1.00  0.00    -0.206 F 
ATOM     74  C   UNL     1       8.847   9.776  15.647  1.00  0.00     0.022 A 
BRANCH  71  75
ATOM     75  S   UNL     1      10.276  10.581  13.392  1.00  0.00     0.124 S 
ATOM     76  O   UNL     1      10.363   9.514  12.397  1.00  0.00    -0.237 OA
ATOM     77  O   UNL     1       9.943  11.905  12.881  1.00  0.00    -0.237 OA
ATOM     78  O   UNL     1      11.316  10.551  14.419  1.00  0.00    -0.744 OA
ENDBRANCH  71  75
ENDBRANCH  54  68
BRANCH  55  79
ATOM     79  C   UNL     1      -1.813   7.529   8.812  1.00  0.00     0.023 A 
ATOM     80  C   UNL     1      -2.560   8.529   8.169  1.00  0.00     0.031 A 
ATOM     81  C   UNL     1      -2.324   6.217   8.794  1.00  0.00     0.131 A 
ATOM     82  C   UNL     1      -3.799   8.214   7.587  1.00  0.00     0.055 A 
ATOM     83  C   UNL     1      -3.526   5.898   8.160  1.00  0.00     0.041 A 
ATOM     84  F   UNL     1      -1.658   5.220   9.399  1.00  0.00    -0.206 F 
ATOM     85  C   UNL     1      -4.279   6.903   7.565  1.00  0.00     0.022 A 
BRANCH  82  86
ATOM     86  S   UNL     1      -4.832   9.565   6.949  1.00  0.00     0.124 S 
ATOM     87  O   UNL     1      -4.975  10.411   8.128  1.00  0.00    -0.237 OA
ATOM     88  O   UNL     1      -4.002  10.096   5.873  1.00  0.00    -0.237 OA
ATOM     89  O   UNL     1      -6.051   8.884   6.515  1.00  0.00    -0.744 OA
ENDBRANCH  82  86
ENDBRANCH  55  79
BRANCH  67  90
ATOM     90  C   UNL     1      -0.500  11.591  14.334  1.00  0.00     0.023 A 
ATOM     91  C   UNL     1      -1.628  11.131  15.037  1.00  0.00     0.031 A 
ATOM     92  C   UNL     1      -0.232  12.972  14.353  1.00  0.00     0.131 A 
ATOM     93  C   UNL     1      -2.493  12.049  15.651  1.00  0.00     0.055 A 
ATOM     94  C   UNL     1      -1.051  13.872  15.037  1.00  0.00     0.041 A 
ATOM     95  F   UNL     1       0.830  13.472  13.701  1.00  0.00    -0.206 F 
ATOM     96  C   UNL     1      -2.201  13.415  15.672  1.00  0.00     0.022 A 
BRANCH  93  97
ATOM     97  S   UNL     1      -4.079  11.449  16.294  1.00  0.00     0.124 S 
ATOM     98  O   UNL     1      -4.656  10.805  15.119  1.00  0.00    -0.237 OA
ATOM     99  O   UNL     1      -3.661  10.556  17.369  1.00  0.00    -0.237 OA
ATOM    100  O   UNL     1      -4.756  12.669  16.729  1.00  0.00    -0.744 OA
ENDBRANCH  93  97
ENDBRANCH  67  90
ENDBRANCH  41  42
ENDBRANCH  34  36
ENDBRANCH  33  34
ENDBRANCH  32  33
ENDBRANCH  31  32
ENDBRANCH  30  31
ENDBRANCH  29  30
ENDBRANCH  28  29
ENDBRANCH   1  28
TORSDOF 27
