REMARK SMILES CCCCSc1ccccc1C(=O)OCCOCCOCCOCCOC(=O)c1ccc(-c2c3nc(c(-c4cc(S(=O)(=O)[O-])ccc4F)c4ccc([nH]4)c(-c4cc(S(=O)(=O)[O-])ccc4F)c4nc(c(-c5cc(S(=O)(=O)[O-])ccc5F)c5ccc2[nH]5)C=C4)C=C3)cc1
REMARK SMILES IDX 19 1 18 2 17 3 16 4 15 5 14 6 12 7 13 8 11 9 6 10 7 11 8 12
REMARK SMILES IDX 10 13 9 14 5 15 4 16 3 17 2 18 1 19 20 20 21 21 22 22 23 23
REMARK SMILES IDX 24 24 25 25 26 26 27 27 28 28 29 29 30 30 91 31 31 32 90 33
REMARK SMILES IDX 32 34 33 35 34 36 84 37 35 38 89 39 83 40 85 41 36 42 88 43
REMARK SMILES IDX 82 44 81 45 37 47 69 48 49 49 68 50 50 51 53 52 67 53 86 54
REMARK SMILES IDX 51 55 52 56 66 58 87 59 54 60 38 61 39 62 47 63 40 64 46 65
REMARK SMILES IDX 48 66 45 67 41 68 42 69 43 70 44 71 70 72 71 73 79 74 72 75
REMARK SMILES IDX 78 76 80 77 77 78 73 79 74 80 75 81 76 82 55 83 56 84 64 85
REMARK SMILES IDX 57 86 63 87 65 88 62 89 58 90 59 91 60 92 61 93
REMARK H PARENT 85 46 53 57
REMARK Flexibility Score: inf
ROOT
ATOM      1  C   UNL     1      -5.058  -2.172   0.758  1.00  0.00     0.188 C 
ENDROOT
BRANCH   1   2
ATOM      2  C   UNL     1      -5.274  -2.649  -0.695  1.00  0.00     0.188 C 
BRANCH   2   3
ATOM      3  O   UNL     1      -5.492  -4.034  -0.856  1.00  0.00    -0.376 OA
BRANCH   3   4
ATOM      4  C   UNL     1      -4.452  -4.921  -1.226  1.00  0.00     0.202 C 
BRANCH   4   5
ATOM      5  C   UNL     1      -2.974  -4.719  -0.861  1.00  0.00     0.261 C 
BRANCH   5   6
ATOM      6  O   UNL     1      -2.636  -3.436  -0.349  1.00  0.00    -0.460 OA
BRANCH   6   7
ATOM      7  C   UNL     1      -2.087  -2.545  -1.197  1.00  0.00     0.339 C 
ATOM      8  O   UNL     1      -1.862  -2.714  -2.385  1.00  0.00    -0.246 OA
BRANCH   7   9
ATOM      9  C   UNL     1      -2.006  -1.218  -0.532  1.00  0.00     0.073 A 
ATOM     10  C   UNL     1      -1.515  -1.010   0.772  1.00  0.00     0.022 A 
ATOM     11  C   UNL     1      -1.508   0.298   1.282  1.00  0.00     0.016 A 
ATOM     12  C   UNL     1      -1.959   1.376   0.512  1.00  0.00     0.001 A 
ATOM     13  C   UNL     1      -2.459  -0.128  -1.299  1.00  0.00     0.017 A 
ATOM     14  C   UNL     1      -2.441   1.162  -0.776  1.00  0.00     0.001 A 
BRANCH  10  15
ATOM     15  S   UNL     1      -0.958  -2.321   1.850  1.00  0.00    -0.125 SA
BRANCH  15  16
ATOM     16  C   UNL     1       0.854  -2.202   1.717  1.00  0.00     0.075 C 
BRANCH  16  17
ATOM     17  C   UNL     1       1.453  -2.512   0.342  1.00  0.00     0.011 C 
BRANCH  17  18
ATOM     18  C   UNL     1       1.396  -1.423  -0.734  1.00  0.00    -0.003 C 
ATOM     19  C   UNL     1       1.806  -0.031  -0.284  1.00  0.00     0.004 C 
ENDBRANCH  17  18
ENDBRANCH  16  17
ENDBRANCH  15  16
ENDBRANCH  10  15
ENDBRANCH   7   9
ENDBRANCH   6   7
ENDBRANCH   5   6
ENDBRANCH   4   5
ENDBRANCH   3   4
ENDBRANCH   2   3
ENDBRANCH   1   2
BRANCH   1  20
ATOM     20  O   UNL     1      -4.675  -3.103   1.754  1.00  0.00    -0.377 OA
BRANCH  20  21
ATOM     21  C   UNL     1      -5.436  -4.287   1.959  1.00  0.00     0.188 C 
BRANCH  21  22
ATOM     22  C   UNL     1      -6.909  -4.396   1.504  1.00  0.00     0.188 C 
BRANCH  22  23
ATOM     23  O   UNL     1      -7.502  -3.182   1.069  1.00  0.00    -0.376 OA
BRANCH  23  24
ATOM     24  C   UNL     1      -8.399  -2.535   1.955  1.00  0.00     0.202 C 
BRANCH  24  25
ATOM     25  C   UNL     1      -7.829  -2.043   3.295  1.00  0.00     0.261 C 
BRANCH  25  26
ATOM     26  O   UNL     1      -7.213  -3.043   4.119  1.00  0.00    -0.460 OA
BRANCH  26  27
ATOM     27  C   UNL     1      -8.014  -4.034   4.565  1.00  0.00     0.338 C 
ATOM     28  O   UNL     1      -9.214  -4.148   4.362  1.00  0.00    -0.246 OA
BRANCH  27  29
ATOM     29  C   UNL     1      -7.165  -5.076   5.173  1.00  0.00     0.060 A 
ATOM     30  C   UNL     1      -7.196  -6.365   4.630  1.00  0.00     0.016 A 
ATOM     31  C   UNL     1      -6.351  -4.788   6.272  1.00  0.00     0.016 A 
ATOM     32  C   UNL     1      -6.448  -7.383   5.215  1.00  0.00     0.010 A 
ATOM     33  C   UNL     1      -5.614  -5.817   6.870  1.00  0.00     0.010 A 
ATOM     34  C   UNL     1      -5.692  -7.128   6.367  1.00  0.00    -0.014 A 
BRANCH  34  35
ATOM     35  C   UNL     1      -5.149  -8.282   7.128  1.00  0.00     0.031 A 
ATOM     36  C   UNL     1      -5.912  -8.774   8.329  1.00  0.00     0.074 A 
ATOM     37  C   UNL     1      -4.055  -8.938   6.702  1.00  0.00     0.049 A 
ATOM     38  N   UNL     1      -5.680  -9.808   9.097  1.00  0.00    -0.248 NA
ATOM     39  C   UNL     1      -7.099  -7.995   8.713  1.00  0.00     0.031 C 
ATOM     40  C   UNL     1      -3.259  -8.577   5.530  1.00  0.00     0.029 A 
ATOM     41  N   UNL     1      -3.435 -10.058   7.198  1.00  0.00    -0.354 N 
ATOM     42  C   UNL     1      -6.694  -9.809  10.049  1.00  0.00     0.074 A 
ATOM     43  C   UNL     1      -7.511  -8.642   9.792  1.00  0.00     0.031 C 
ATOM     44  C   UNL     1      -2.263  -9.468   5.389  1.00  0.00     0.029 A 
ATOM     45  C   UNL     1      -2.329 -10.443   6.477  1.00  0.00     0.049 A 
ATOM     46  H   UNL     1      -3.753 -10.541   7.995  1.00  0.00     0.167 HD
ATOM     47  C   UNL     1      -6.931 -10.707  11.037  1.00  0.00     0.034 A 
ATOM     48  C   UNL     1      -1.465 -11.459   6.678  1.00  0.00     0.034 A 
ATOM     49  C   UNL     1      -6.095 -11.856  11.291  1.00  0.00     0.049 A 
ATOM     50  C   UNL     1      -1.704 -12.399   7.836  1.00  0.00     0.074 A 
ATOM     51  C   UNL     1      -6.243 -12.832  12.261  1.00  0.00     0.029 A 
ATOM     52  N   UNL     1      -4.943 -12.177  10.583  1.00  0.00    -0.354 N 
ATOM     53  N   UNL     1      -2.677 -12.399   8.720  1.00  0.00    -0.248 NA
ATOM     54  C   UNL     1      -0.736 -13.489   8.009  1.00  0.00     0.031 C 
ATOM     55  C   UNL     1      -5.140 -13.690  12.194  1.00  0.00     0.029 A 
ATOM     56  C   UNL     1      -4.352 -13.313  11.119  1.00  0.00     0.049 A 
ATOM     57  H   UNL     1      -4.596 -11.672   9.812  1.00  0.00     0.167 HD
ATOM     58  C   UNL     1      -2.453 -13.510   9.532  1.00  0.00     0.074 A 
ATOM     59  C   UNL     1      -1.270 -14.166   9.013  1.00  0.00     0.031 C 
ATOM     60  C   UNL     1      -3.159 -13.949  10.608  1.00  0.00     0.034 A 
BRANCH  47  61
ATOM     61  C   UNL     1      -8.110 -10.445  11.946  1.00  0.00     0.023 A 
ATOM     62  C   UNL     1      -9.432 -10.419  11.464  1.00  0.00     0.031 A 
ATOM     63  C   UNL     1      -7.906 -10.186  13.313  1.00  0.00     0.131 A 
ATOM     64  C   UNL     1     -10.485 -10.071  12.324  1.00  0.00     0.055 A 
ATOM     65  C   UNL     1      -8.968  -9.925  14.181  1.00  0.00     0.041 A 
ATOM     66  F   UNL     1      -6.667 -10.168  13.828  1.00  0.00    -0.206 F 
ATOM     67  C   UNL     1     -10.266  -9.852  13.686  1.00  0.00     0.022 A 
BRANCH  64  68
ATOM     68  S   UNL     1     -12.124  -9.759  11.610  1.00  0.00     0.124 S 
ATOM     69  O   UNL     1     -11.830  -8.697  10.651  1.00  0.00    -0.237 OA
ATOM     70  O   UNL     1     -12.473 -11.055  11.041  1.00  0.00    -0.237 OA
ATOM     71  O   UNL     1     -12.926  -9.345  12.760  1.00  0.00    -0.744 OA
ENDBRANCH  64  68
ENDBRANCH  47  61
BRANCH  48  72
ATOM     72  C   UNL     1      -0.278 -11.633   5.790  1.00  0.00     0.023 A 
ATOM     73  C   UNL     1      -0.097 -12.798   5.026  1.00  0.00     0.031 A 
ATOM     74  C   UNL     1       0.734 -10.656   5.746  1.00  0.00     0.131 A 
ATOM     75  C   UNL     1       1.087 -12.978   4.294  1.00  0.00     0.055 A 
ATOM     76  C   UNL     1       1.881 -10.813   4.967  1.00  0.00     0.041 A 
ATOM     77  F   UNL     1       0.619  -9.526   6.463  1.00  0.00    -0.206 F 
ATOM     78  C   UNL     1       2.070 -11.987   4.246  1.00  0.00     0.022 A 
BRANCH  75  79
ATOM     79  S   UNL     1       1.374 -14.575   3.480  1.00  0.00     0.124 S 
ATOM     80  O   UNL     1       1.301 -15.499   4.606  1.00  0.00    -0.237 OA
ATOM     81  O   UNL     1       0.269 -14.633   2.529  1.00  0.00    -0.237 OA
ATOM     82  O   UNL     1       2.699 -14.420   2.883  1.00  0.00    -0.744 OA
ENDBRANCH  75  79
ENDBRANCH  48  72
BRANCH  60  83
ATOM     83  C   UNL     1      -2.685 -15.230  11.262  1.00  0.00     0.023 A 
ATOM     84  C   UNL     1      -1.412 -15.335  11.851  1.00  0.00     0.031 A 
ATOM     85  C   UNL     1      -3.499 -16.378  11.249  1.00  0.00     0.131 A 
ATOM     86  C   UNL     1      -0.955 -16.579  12.313  1.00  0.00     0.055 A 
ATOM     87  C   UNL     1      -3.070 -17.591  11.789  1.00  0.00     0.041 A 
ATOM     88  F   UNL     1      -4.723 -16.343  10.700  1.00  0.00    -0.206 F 
ATOM     89  C   UNL     1      -1.782 -17.703  12.304  1.00  0.00     0.022 A 
BRANCH  86  90
ATOM     90  S   UNL     1       0.792 -16.742  12.777  1.00  0.00     0.124 S 
ATOM     91  O   UNL     1       1.470 -16.270  11.573  1.00  0.00    -0.237 OA
ATOM     92  O   UNL     1       0.887 -15.871  13.944  1.00  0.00    -0.237 OA
ATOM     93  O   UNL     1       0.941 -18.169  13.054  1.00  0.00    -0.744 OA
ENDBRANCH  86  90
ENDBRANCH  60  83
ENDBRANCH  34  35
ENDBRANCH  27  29
ENDBRANCH  26  27
ENDBRANCH  25  26
ENDBRANCH  24  25
ENDBRANCH  23  24
ENDBRANCH  22  23
ENDBRANCH  21  22
ENDBRANCH  20  21
ENDBRANCH   1  20
TORSDOF 27
