REMARK SMILES Cc1nc(-c2ccccc2Cl)nc2sc(C(=O)OCCOCCOCCOCCOC(=O)c3ccc(-c4c5nc(c(-c6cc(S(=O)(=O)[O-])ccc6F)c6ccc([nH]6)c(-c6cc(S(=O)(=O)[O-])ccc6F)c6nc(c(-c7cc(S(=O)(=O)[O-])ccc7F)c7ccc4[nH]7)C=C6)C=C5)cc3)c(N)c12
REMARK SMILES IDX 25 1 24 2 23 3 22 4 21 5 20 6 19 7 18 8 16 9 17 10 15 11
REMARK SMILES IDX 1 12 2 13 3 14 98 15 4 16 13 17 96 18 12 19 14 20 5 21 6 22
REMARK SMILES IDX 10 23 7 24 9 25 11 26 8 27 97 28 26 31 27 32 28 33 29 34
REMARK SMILES IDX 30 35 31 36 32 37 33 38 34 39 95 40 35 41 94 42 36 43 37 44
REMARK SMILES IDX 38 45 88 46 39 47 93 48 87 49 89 50 40 51 92 52 86 53 85 54
REMARK SMILES IDX 41 56 73 57 53 58 72 59 54 60 57 61 71 62 90 63 55 64 56 65
REMARK SMILES IDX 70 67 91 68 58 69 42 70 43 71 51 72 44 73 50 74 52 75 49 76
REMARK SMILES IDX 45 77 46 78 47 79 48 80 74 81 75 82 83 83 76 84 82 85 84 86
REMARK SMILES IDX 81 87 77 88 78 89 79 90 80 91 59 92 60 93 68 94 61 95 67 96
REMARK SMILES IDX 69 97 66 98 62 99 63 100 64 101 65 102
REMARK H PARENT 97 29 97 30 89 55 57 66
REMARK Flexibility Score: inf
ROOT
ATOM      1  C   UNL     1      -0.102   1.520   9.057  1.00  0.00     0.188 C 
ENDROOT
BRANCH   1   2
ATOM      2  O   UNL     1      -0.675   1.023   7.845  1.00  0.00    -0.377 OA
BRANCH   2   3
ATOM      3  C   UNL     1      -0.086   1.504   6.649  1.00  0.00     0.188 C 
BRANCH   3   4
ATOM      4  C   UNL     1      -0.829   2.694   5.997  1.00  0.00     0.188 C 
BRANCH   4   5
ATOM      5  O   UNL     1      -1.952   3.337   6.595  1.00  0.00    -0.376 OA
BRANCH   5   6
ATOM      6  C   UNL     1      -2.875   2.640   7.413  1.00  0.00     0.202 C 
BRANCH   6   7
ATOM      7  C   UNL     1      -3.612   1.403   6.891  1.00  0.00     0.261 C 
BRANCH   7   8
ATOM      8  O   UNL     1      -2.880   0.564   6.003  1.00  0.00    -0.459 OA
BRANCH   8   9
ATOM      9  C   UNL     1      -2.959   0.861   4.678  1.00  0.00     0.350 C 
ATOM     10  O   UNL     1      -3.626   1.777   4.203  1.00  0.00    -0.245 OA
BRANCH   9  11
ATOM     11  C   UNL     1      -2.031   0.033   3.938  1.00  0.00     0.138 A 
ATOM     12  C   UNL     1       0.934  -0.001   0.294  1.00  0.00     0.067 C 
ATOM     13  C   UNL     1       0.485  -0.982   1.335  1.00  0.00     0.052 A 
ATOM     14  N   UNL     1       0.974  -2.248   1.157  1.00  0.00    -0.233 NA
ATOM     15  C   UNL     1      -0.426  -0.750   2.393  1.00  0.00     0.057 A 
ATOM     16  C   UNL     1       0.623  -3.228   2.007  1.00  0.00     0.162 A 
ATOM     17  C   UNL     1      -0.710  -1.865   3.168  1.00  0.00     0.130 A 
ATOM     18  C   UNL     1      -1.183   0.377   2.895  1.00  0.00     0.069 A 
ATOM     19  N   UNL     1      -0.214  -3.095   3.031  1.00  0.00    -0.217 NA
ATOM     20  S   UNL     1      -1.856  -1.603   4.381  1.00  0.00    -0.106 S 
BRANCH  16  21
ATOM     21  C   UNL     1       1.036  -4.607   1.734  1.00  0.00     0.038 A 
ATOM     22  C   UNL     1       0.048  -5.620   1.796  1.00  0.00     0.013 A 
ATOM     23  C   UNL     1       2.357  -5.005   1.483  1.00  0.00     0.052 A 
ATOM     24  C   UNL     1       0.360  -6.968   1.632  1.00  0.00     0.001 A 
ATOM     25  C   UNL     1       2.670  -6.363   1.317  1.00  0.00     0.021 A 
ATOM     26  Cl  UNL     1       3.677  -3.887   1.429  1.00  0.00    -0.084 Cl
ATOM     27  C   UNL     1       1.676  -7.340   1.396  1.00  0.00     0.002 A 
ENDBRANCH  16  21
BRANCH  18  28
ATOM     28  N   UNL     1      -1.083   1.649   2.444  1.00  0.00    -0.397 N 
ATOM     29  H   UNL     1      -1.638   2.358   2.844  1.00  0.00     0.156 HD
ATOM     30  H   UNL     1      -0.456   1.866   1.717  1.00  0.00     0.156 HD
ENDBRANCH  18  28
ENDBRANCH   9  11
ENDBRANCH   8   9
ENDBRANCH   7   8
ENDBRANCH   6   7
ENDBRANCH   5   6
ENDBRANCH   4   5
ENDBRANCH   3   4
ENDBRANCH   2   3
ENDBRANCH   1   2
BRANCH   1  31
ATOM     31  C   UNL     1       0.120   3.051   9.175  1.00  0.00     0.188 C 
BRANCH  31  32
ATOM     32  O   UNL     1       0.641   3.660   7.999  1.00  0.00    -0.376 OA
BRANCH  32  33
ATOM     33  C   UNL     1       1.978   4.120   7.913  1.00  0.00     0.202 C 
BRANCH  33  34
ATOM     34  C   UNL     1       3.077   3.064   7.923  1.00  0.00     0.261 C 
BRANCH  34  35
ATOM     35  O   UNL     1       2.896   2.078   8.919  1.00  0.00    -0.460 OA
BRANCH  35  36
ATOM     36  C   UNL     1       2.988   2.533  10.178  1.00  0.00     0.338 C 
ATOM     37  O   UNL     1       2.999   3.706  10.548  1.00  0.00    -0.246 OA
BRANCH  36  38
ATOM     38  C   UNL     1       3.171   1.391  11.055  1.00  0.00     0.060 A 
ATOM     39  C   UNL     1       3.006   1.604  12.424  1.00  0.00     0.016 A 
ATOM     40  C   UNL     1       3.858   0.290  10.525  1.00  0.00     0.016 A 
ATOM     41  C   UNL     1       3.766   0.845  13.277  1.00  0.00     0.010 A 
ATOM     42  C   UNL     1       4.644  -0.432  11.371  1.00  0.00     0.010 A 
ATOM     43  C   UNL     1       4.655  -0.075  12.717  1.00  0.00    -0.014 A 
BRANCH  43  44
ATOM     44  C   UNL     1       5.602  -0.738  13.574  1.00  0.00     0.031 A 
ATOM     45  C   UNL     1       5.003  -1.908  14.240  1.00  0.00     0.074 A 
ATOM     46  C   UNL     1       6.897  -0.373  13.596  1.00  0.00     0.049 A 
ATOM     47  N   UNL     1       4.651  -2.004  15.477  1.00  0.00    -0.248 NA
ATOM     48  C   UNL     1       4.498  -3.001  13.388  1.00  0.00     0.031 C 
ATOM     49  C   UNL     1       7.585   0.611  12.756  1.00  0.00     0.029 A 
ATOM     50  N   UNL     1       7.907  -0.895  14.331  1.00  0.00    -0.354 N 
ATOM     51  C   UNL     1       4.135  -3.285  15.600  1.00  0.00     0.074 A 
ATOM     52  C   UNL     1       3.798  -3.711  14.272  1.00  0.00     0.031 C 
ATOM     53  C   UNL     1       8.924   0.440  12.876  1.00  0.00     0.029 A 
ATOM     54  C   UNL     1       9.184  -0.580  13.879  1.00  0.00     0.049 A 
ATOM     55  H   UNL     1       7.749  -1.455  15.125  1.00  0.00     0.167 HD
ATOM     56  C   UNL     1       4.340  -4.012  16.729  1.00  0.00     0.034 A 
ATOM     57  C   UNL     1      10.341  -1.193  14.259  1.00  0.00     0.034 A 
ATOM     58  C   UNL     1       4.739  -3.160  17.826  1.00  0.00     0.049 A 
ATOM     59  C   UNL     1      10.048  -1.832  15.576  1.00  0.00     0.074 A 
ATOM     60  C   UNL     1       4.158  -2.072  18.451  1.00  0.00     0.029 A 
ATOM     61  N   UNL     1       6.079  -3.101  18.141  1.00  0.00    -0.354 N 
ATOM     62  N   UNL     1       9.731  -1.147  16.646  1.00  0.00    -0.248 NA
ATOM     63  C   UNL     1       9.579  -3.213  15.570  1.00  0.00     0.031 C 
ATOM     64  C   UNL     1       5.232  -1.165  18.685  1.00  0.00     0.029 A 
ATOM     65  C   UNL     1       6.421  -1.776  18.280  1.00  0.00     0.049 A 
ATOM     66  H   UNL     1       6.684  -3.870  18.248  1.00  0.00     0.167 HD
ATOM     67  C   UNL     1       8.691  -1.853  17.237  1.00  0.00     0.074 A 
ATOM     68  C   UNL     1       8.691  -3.155  16.569  1.00  0.00     0.031 C 
ATOM     69  C   UNL     1       7.734  -1.225  17.986  1.00  0.00     0.034 A 
BRANCH  56  70
ATOM     70  C   UNL     1       4.543  -5.507  16.733  1.00  0.00     0.023 A 
ATOM     71  C   UNL     1       4.630  -6.141  17.982  1.00  0.00     0.031 A 
ATOM     72  C   UNL     1       4.903  -6.299  15.614  1.00  0.00     0.131 A 
ATOM     73  C   UNL     1       5.108  -7.458  18.088  1.00  0.00     0.055 A 
ATOM     74  C   UNL     1       5.311  -7.628  15.718  1.00  0.00     0.041 A 
ATOM     75  F   UNL     1       4.977  -5.816  14.368  1.00  0.00    -0.206 F 
ATOM     76  C   UNL     1       5.442  -8.209  16.964  1.00  0.00     0.022 A 
BRANCH  73  77
ATOM     77  S   UNL     1       5.413  -8.129  19.738  1.00  0.00     0.124 S 
ATOM     78  O   UNL     1       6.372  -7.170  20.274  1.00  0.00    -0.237 OA
ATOM     79  O   UNL     1       4.077  -8.102  20.324  1.00  0.00    -0.237 OA
ATOM     80  O   UNL     1       5.946  -9.462  19.467  1.00  0.00    -0.744 OA
ENDBRANCH  73  77
ENDBRANCH  56  70
BRANCH  57  81
ATOM     81  C   UNL     1      11.496  -1.565  13.379  1.00  0.00     0.023 A 
ATOM     82  C   UNL     1      12.741  -2.012  13.883  1.00  0.00     0.031 A 
ATOM     83  C   UNL     1      11.310  -1.704  11.983  1.00  0.00     0.131 A 
ATOM     84  C   UNL     1      13.722  -2.552  13.008  1.00  0.00     0.055 A 
ATOM     85  C   UNL     1      12.281  -2.229  11.126  1.00  0.00     0.041 A 
ATOM     86  F   UNL     1      10.137  -1.414  11.400  1.00  0.00    -0.206 F 
ATOM     87  C   UNL     1      13.491  -2.663  11.636  1.00  0.00     0.022 A 
BRANCH  84  88
ATOM     88  S   UNL     1      15.293  -3.221  13.654  1.00  0.00     0.124 S 
ATOM     89  O   UNL     1      16.019  -2.009  14.014  1.00  0.00    -0.237 OA
ATOM     90  O   UNL     1      14.848  -4.063  14.758  1.00  0.00    -0.237 OA
ATOM     91  O   UNL     1      15.847  -3.953  12.514  1.00  0.00    -0.744 OA
ENDBRANCH  84  88
ENDBRANCH  57  81
BRANCH  69  92
ATOM     92  C   UNL     1       7.949   0.222  18.391  1.00  0.00     0.023 A 
ATOM     93  C   UNL     1       7.972   1.322  17.500  1.00  0.00     0.031 A 
ATOM     94  C   UNL     1       7.921   0.499  19.769  1.00  0.00     0.131 A 
ATOM     95  C   UNL     1       7.954   2.640  18.010  1.00  0.00     0.055 A 
ATOM     96  C   UNL     1       7.880   1.801  20.266  1.00  0.00     0.041 A 
ATOM     97  F   UNL     1       7.863  -0.504  20.660  1.00  0.00    -0.206 F 
ATOM     98  C   UNL     1       7.894   2.877  19.387  1.00  0.00     0.022 A 
BRANCH  95  99
ATOM     99  S   UNL     1       7.955   4.077  16.885  1.00  0.00     0.124 S 
ATOM    100  O   UNL     1       9.204   3.920  16.148  1.00  0.00    -0.237 OA
ATOM    101  O   UNL     1       6.727   3.888  16.118  1.00  0.00    -0.237 OA
ATOM    102  O   UNL     1       7.927   5.226  17.794  1.00  0.00    -0.744 OA
ENDBRANCH  95  99
ENDBRANCH  69  92
ENDBRANCH  43  44
ENDBRANCH  36  38
ENDBRANCH  35  36
ENDBRANCH  34  35
ENDBRANCH  33  34
ENDBRANCH  32  33
ENDBRANCH  31  32
ENDBRANCH   1  31
TORSDOF 25
