REMARK SMILES CC(=O)N[C@@H](CCc1nc2ccccc2[nH]1)C(=O)OCCOCCOCCOCCOC(=O)c1ccc(-c2c3nc(c(-c4cc(S(=O)(=O)[O-])ccc4F)c4ccc([nH]4)c(-c4cc(S(=O)(=O)[O-])ccc4F)c4nc(c(-c5cc(S(=O)(=O)[O-])ccc5F)c5ccc2[nH]5)C=C4)C=C3)cc1
REMARK SMILES IDX 25 1 24 2 23 3 22 4 21 5 20 6 19 7 17 8 18 9 5 10 4 11 1 12
REMARK SMILES IDX 2 13 3 14 6 16 7 17 8 18 9 19 16 20 10 21 15 22 11 24 14 25
REMARK SMILES IDX 12 26 13 27 26 28 27 29 28 30 29 31 30 32 31 33 32 34 33 35
REMARK SMILES IDX 34 36 35 37 96 38 36 39 95 40 37 41 38 42 39 43 89 44 40 45
REMARK SMILES IDX 94 46 88 47 90 48 41 49 93 50 87 51 86 52 42 54 74 55 54 56
REMARK SMILES IDX 73 57 55 58 58 59 72 60 91 61 56 62 57 63 71 65 92 66 59 67
REMARK SMILES IDX 43 68 44 69 52 70 45 71 51 72 53 73 50 74 46 75 47 76 48 77
REMARK SMILES IDX 49 78 75 79 76 80 84 81 77 82 83 83 85 84 82 85 78 86 79 87
REMARK SMILES IDX 80 88 81 89 60 90 61 91 69 92 62 93 68 94 70 95 67 96 63 97
REMARK SMILES IDX 64 98 65 99 66 100
REMARK H PARENT 4 15 16 23 90 53 58 64
REMARK Flexibility Score: inf
ROOT
ATOM      1  O   UNL     1      -1.820  -3.585  -2.232  1.00  0.00    -0.377 OA
ENDROOT
BRANCH   1   2
ATOM      2  C   UNL     1      -1.548  -2.237  -1.893  1.00  0.00     0.188 C 
BRANCH   2   3
ATOM      3  C   UNL     1      -1.077  -1.333  -3.058  1.00  0.00     0.188 C 
BRANCH   3   4
ATOM      4  O   UNL     1      -1.134  -1.762  -4.415  1.00  0.00    -0.376 OA
BRANCH   4   5
ATOM      5  C   UNL     1      -0.903  -3.126  -4.714  1.00  0.00     0.202 C 
BRANCH   5   6
ATOM      6  C   UNL     1       0.344  -3.798  -4.154  1.00  0.00     0.261 C 
BRANCH   6   7
ATOM      7  O   UNL     1       0.794  -3.371  -2.858  1.00  0.00    -0.462 OA
BRANCH   7   8
ATOM      8  C   UNL     1       2.020  -2.815  -2.785  1.00  0.00     0.328 C 
ATOM      9  O   UNL     1       2.750  -2.600  -3.749  1.00  0.00    -0.250 OA
BRANCH   8  10
ATOM     10  C   UNL     1       2.532  -2.705  -1.345  1.00  0.00     0.192 C 
BRANCH  10  11
ATOM     11  N   UNL     1       1.567  -2.690  -0.237  1.00  0.00    -0.343 N 
ATOM     12  C   UNL     1       1.377  -0.230  -0.009  1.00  0.00     0.114 C 
ATOM     13  C   UNL     1       1.044  -1.625   0.441  1.00  0.00     0.217 C 
ATOM     14  O   UNL     1       0.274  -1.820   1.380  1.00  0.00    -0.275 OA
ATOM     15  H   UNL     1       1.252  -3.575   0.059  1.00  0.00     0.164 HD
ENDBRANCH  10  11
BRANCH  10  16
ATOM     16  C   UNL     1       3.596  -3.812  -1.156  1.00  0.00     0.045 C 
BRANCH  16  17
ATOM     17  C   UNL     1       3.106  -5.264  -1.075  1.00  0.00     0.078 C 
BRANCH  17  18
ATOM     18  C   UNL     1       2.749  -6.018  -2.324  1.00  0.00     0.107 A 
ATOM     19  N   UNL     1       2.161  -7.199  -2.295  1.00  0.00    -0.233 NA
ATOM     20  N   UNL     1       2.926  -5.620  -3.632  1.00  0.00    -0.342 N 
ATOM     21  C   UNL     1       1.722  -7.441  -3.570  1.00  0.00     0.089 A 
ATOM     22  C   UNL     1       2.157  -6.444  -4.432  1.00  0.00     0.065 A 
ATOM     23  H   UNL     1       3.498  -4.880  -3.942  1.00  0.00     0.168 HD
ATOM     24  C   UNL     1       0.877  -8.451  -4.050  1.00  0.00     0.030 A 
ATOM     25  C   UNL     1       1.736  -6.357  -5.766  1.00  0.00     0.028 A 
ATOM     26  C   UNL     1       0.403  -8.359  -5.365  1.00  0.00     0.002 A 
ATOM     27  C   UNL     1       0.810  -7.316  -6.199  1.00  0.00     0.002 A 
ENDBRANCH  17  18
ENDBRANCH  16  17
ENDBRANCH  10  16
ENDBRANCH   8  10
ENDBRANCH   7   8
ENDBRANCH   6   7
ENDBRANCH   5   6
ENDBRANCH   4   5
ENDBRANCH   3   4
ENDBRANCH   2   3
ENDBRANCH   1   2
BRANCH   1  28
ATOM     28  C   UNL     1      -3.197  -3.938  -2.242  1.00  0.00     0.188 C 
BRANCH  28  29
ATOM     29  C   UNL     1      -4.091  -3.068  -3.148  1.00  0.00     0.188 C 
BRANCH  29  30
ATOM     30  O   UNL     1      -3.957  -1.673  -2.891  1.00  0.00    -0.376 OA
BRANCH  30  31
ATOM     31  C   UNL     1      -4.970  -1.045  -2.117  1.00  0.00     0.202 C 
BRANCH  31  32
ATOM     32  C   UNL     1      -5.031  -1.404  -0.620  1.00  0.00     0.261 C 
BRANCH  32  33
ATOM     33  O   UNL     1      -5.210  -2.793  -0.299  1.00  0.00    -0.460 OA
BRANCH  33  34
ATOM     34  C   UNL     1      -6.299  -3.413  -0.802  1.00  0.00     0.338 C 
ATOM     35  O   UNL     1      -7.195  -2.892  -1.444  1.00  0.00    -0.246 OA
BRANCH  34  36
ATOM     36  C   UNL     1      -6.115  -4.874  -0.649  1.00  0.00     0.060 A 
ATOM     37  C   UNL     1      -6.207  -5.686  -1.789  1.00  0.00     0.016 A 
ATOM     38  C   UNL     1      -5.865  -5.443   0.602  1.00  0.00     0.016 A 
ATOM     39  C   UNL     1      -6.114  -7.072  -1.673  1.00  0.00     0.010 A 
ATOM     40  C   UNL     1      -5.804  -6.836   0.723  1.00  0.00     0.010 A 
ATOM     41  C   UNL     1      -5.981  -7.656  -0.407  1.00  0.00    -0.014 A 
BRANCH  41  42
ATOM     42  C   UNL     1      -6.343  -9.087  -0.236  1.00  0.00     0.031 A 
ATOM     43  C   UNL     1      -7.764  -9.396   0.164  1.00  0.00     0.074 A 
ATOM     44  C   UNL     1      -5.471 -10.083  -0.470  1.00  0.00     0.049 A 
ATOM     45  N   UNL     1      -8.329 -10.545   0.425  1.00  0.00    -0.248 NA
ATOM     46  C   UNL     1      -8.667  -8.240   0.289  1.00  0.00     0.031 C 
ATOM     47  C   UNL     1      -4.093  -9.914  -0.926  1.00  0.00     0.029 A 
ATOM     48  N   UNL     1      -5.623 -11.443  -0.350  1.00  0.00    -0.354 N 
ATOM     49  C   UNL     1      -9.649 -10.250   0.750  1.00  0.00     0.074 A 
ATOM     50  C   UNL     1      -9.788  -8.812   0.695  1.00  0.00     0.031 C 
ATOM     51  C   UNL     1      -3.521 -11.127  -1.037  1.00  0.00     0.029 A 
ATOM     52  C   UNL     1      -4.477 -12.154  -0.623  1.00  0.00     0.049 A 
ATOM     53  H   UNL     1      -6.472 -11.869  -0.094  1.00  0.00     0.167 HD
ATOM     54  C   UNL     1     -10.659 -11.101   1.058  1.00  0.00     0.034 A 
ATOM     55  C   UNL     1      -4.228 -13.477  -0.520  1.00  0.00     0.034 A 
ATOM     56  C   UNL     1     -10.501 -12.531   1.128  1.00  0.00     0.049 A 
ATOM     57  C   UNL     1      -5.339 -14.400  -0.069  1.00  0.00     0.074 A 
ATOM     58  C   UNL     1     -11.450 -13.489   1.437  1.00  0.00     0.029 A 
ATOM     59  N   UNL     1      -9.310 -13.210   0.901  1.00  0.00    -0.354 N 
ATOM     60  N   UNL     1      -6.583 -14.111   0.241  1.00  0.00    -0.248 NA
ATOM     61  C   UNL     1      -5.014 -15.829   0.037  1.00  0.00     0.031 C 
ATOM     62  C   UNL     1     -10.816 -14.735   1.475  1.00  0.00     0.029 A 
ATOM     63  C   UNL     1      -9.493 -14.570   1.096  1.00  0.00     0.049 A 
ATOM     64  H   UNL     1      -8.460 -12.787   0.639  1.00  0.00     0.167 HD
ATOM     65  C   UNL     1      -7.196 -15.328   0.538  1.00  0.00     0.074 A 
ATOM     66  C   UNL     1      -6.187 -16.352   0.360  1.00  0.00     0.031 C 
ATOM     67  C   UNL     1      -8.476 -15.580   0.915  1.00  0.00     0.034 A 
BRANCH  54  68
ATOM     68  C   UNL     1     -11.996 -10.489   1.402  1.00  0.00     0.023 A 
ATOM     69  C   UNL     1     -12.731  -9.737   0.468  1.00  0.00     0.031 A 
ATOM     70  C   UNL     1     -12.521 -10.620   2.699  1.00  0.00     0.131 A 
ATOM     71  C   UNL     1     -13.906  -9.081   0.866  1.00  0.00     0.055 A 
ATOM     72  C   UNL     1     -13.736 -10.038   3.065  1.00  0.00     0.041 A 
ATOM     73  F   UNL     1     -11.851 -11.301   3.643  1.00  0.00    -0.206 F 
ATOM     74  C   UNL     1     -14.428  -9.249   2.151  1.00  0.00     0.022 A 
BRANCH  71  75
ATOM     75  S   UNL     1     -14.656  -7.879  -0.267  1.00  0.00     0.124 S 
ATOM     76  O   UNL     1     -13.558  -6.936  -0.465  1.00  0.00    -0.237 OA
ATOM     77  O   UNL     1     -15.003  -8.705  -1.418  1.00  0.00    -0.237 OA
ATOM     78  O   UNL     1     -15.790  -7.354   0.490  1.00  0.00    -0.744 OA
ENDBRANCH  71  75
ENDBRANCH  54  68
BRANCH  55  79
ATOM     79  C   UNL     1      -2.865 -14.019  -0.804  1.00  0.00     0.023 A 
ATOM     80  C   UNL     1      -2.651 -14.954  -1.831  1.00  0.00     0.031 A 
ATOM     81  C   UNL     1      -1.766 -13.665  -0.001  1.00  0.00     0.131 A 
ATOM     82  C   UNL     1      -1.385 -15.539  -1.994  1.00  0.00     0.055 A 
ATOM     83  C   UNL     1      -0.495 -14.204  -0.206  1.00  0.00     0.041 A 
ATOM     84  F   UNL     1      -1.914 -12.785   1.003  1.00  0.00    -0.206 F 
ATOM     85  C   UNL     1      -0.301 -15.158  -1.199  1.00  0.00     0.022 A 
BRANCH  82  86
ATOM     86  S   UNL     1      -1.196 -16.882  -3.199  1.00  0.00     0.124 S 
ATOM     87  O   UNL     1      -2.167 -17.855  -2.713  1.00  0.00    -0.237 OA
ATOM     88  O   UNL     1      -1.530 -16.214  -4.453  1.00  0.00    -0.237 OA
ATOM     89  O   UNL     1       0.205 -17.273  -3.058  1.00  0.00    -0.744 OA
ENDBRANCH  82  86
ENDBRANCH  55  79
BRANCH  67  90
ATOM     90  C   UNL     1      -8.877 -17.027   1.096  1.00  0.00     0.023 A 
ATOM     91  C   UNL     1      -8.329 -17.834   2.108  1.00  0.00     0.031 A 
ATOM     92  C   UNL     1      -9.829 -17.604   0.235  1.00  0.00     0.131 A 
ATOM     93  C   UNL     1      -8.693 -19.187   2.197  1.00  0.00     0.055 A 
ATOM     94  C   UNL     1     -10.239 -18.931   0.372  1.00  0.00     0.041 A 
ATOM     95  F   UNL     1     -10.385 -16.883  -0.751  1.00  0.00    -0.206 F 
ATOM     96  C   UNL     1      -9.659 -19.735   1.349  1.00  0.00     0.022 A 
BRANCH  93  97
ATOM     97  S   UNL     1      -7.812 -20.252   3.372  1.00  0.00     0.124 S 
ATOM     98  O   UNL     1      -6.426 -20.091   2.946  1.00  0.00    -0.237 OA
ATOM     99  O   UNL     1      -8.159 -19.653   4.657  1.00  0.00    -0.237 OA
ATOM    100  O   UNL     1      -8.386 -21.575   3.132  1.00  0.00    -0.744 OA
ENDBRANCH  93  97
ENDBRANCH  67  90
ENDBRANCH  41  42
ENDBRANCH  34  36
ENDBRANCH  33  34
ENDBRANCH  32  33
ENDBRANCH  31  32
ENDBRANCH  30  31
ENDBRANCH  29  30
ENDBRANCH  28  29
ENDBRANCH   1  28
TORSDOF 27
