REMARK SMILES Cc1ccc(C)c(S(=O)(=O)[C@H](C)C(=O)OCCOCCOCCOCCOC(=O)c2ccc(-c3c4nc(c(-c5cc(S(=O)(=O)[O-])ccc5F)c5ccc([nH]5)c(-c5cc(S(=O)(=O)[O-])ccc5F)c5nc(c(-c6cc(S(=O)(=O)[O-])ccc6F)c6ccc3[nH]6)C=C5)C=C4)cc2)c1
REMARK SMILES IDX 22 1 21 2 20 3 19 4 18 5 17 6 16 7 15 8 13 9 14 10 11 11
REMARK SMILES IDX 12 12 8 13 9 14 10 15 7 16 1 17 2 18 3 19 93 20 4 21 5 22
REMARK SMILES IDX 6 23 23 24 24 25 25 26 26 27 27 28 28 29 29 30 30 31 31 32
REMARK SMILES IDX 92 33 32 34 91 35 33 36 34 37 35 38 85 39 36 40 90 41 84 42
REMARK SMILES IDX 86 43 37 44 89 45 83 46 82 47 38 49 70 50 50 51 69 52 51 53
REMARK SMILES IDX 54 54 68 55 87 56 52 57 53 58 67 60 88 61 55 62 39 63 40 64
REMARK SMILES IDX 48 65 41 66 47 67 49 68 46 69 42 70 43 71 44 72 45 73 71 74
REMARK SMILES IDX 72 75 80 76 73 77 79 78 81 79 78 80 74 81 75 82 76 83 77 84
REMARK SMILES IDX 56 85 57 86 65 87 58 88 64 89 66 90 63 91 59 92 60 93 61 94
REMARK SMILES IDX 62 95
REMARK H PARENT 86 48 54 59
REMARK Flexibility Score: inf
ROOT
ATOM      1  C   UNL     1      -1.041  -0.025  -2.662  1.00  0.00     0.188 C 
ENDROOT
BRANCH   1   2
ATOM      2  O   UNL     1      -1.642   0.509  -1.490  1.00  0.00    -0.377 OA
BRANCH   2   3
ATOM      3  C   UNL     1      -1.835   1.899  -1.592  1.00  0.00     0.188 C 
BRANCH   3   4
ATOM      4  C   UNL     1      -0.675   2.760  -2.139  1.00  0.00     0.188 C 
BRANCH   4   5
ATOM      5  O   UNL     1       0.281   2.189  -3.011  1.00  0.00    -0.376 OA
BRANCH   5   6
ATOM      6  C   UNL     1       1.685   2.066  -2.893  1.00  0.00     0.202 C 
BRANCH   6   7
ATOM      7  C   UNL     1       2.461   2.268  -1.603  1.00  0.00     0.261 C 
BRANCH   7   8
ATOM      8  O   UNL     1       1.608   2.276  -0.468  1.00  0.00    -0.462 OA
BRANCH   8   9
ATOM      9  C   UNL     1       1.267   3.536  -0.092  1.00  0.00     0.324 C 
ATOM     10  O   UNL     1       1.763   4.554  -0.569  1.00  0.00    -0.251 OA
BRANCH   9  11
ATOM     11  C   UNL     1       0.009   3.618   0.709  1.00  0.00     0.219 C 
ATOM     12  C   UNL     1      -0.750   2.329   1.111  1.00  0.00     0.038 C 
BRANCH  11  13
ATOM     13  S   UNL     1       0.377   4.468   2.116  1.00  0.00     0.192 S 
ATOM     14  O   UNL     1       1.353   3.537   2.655  1.00  0.00    -0.223 OA
ATOM     15  O   UNL     1      -0.916   4.638   2.762  1.00  0.00    -0.223 OA
BRANCH  13  16
ATOM     16  C   UNL     1       1.140   6.075   2.058  1.00  0.00     0.071 A 
ATOM     17  C   UNL     1       1.352  10.935   1.537  1.00  0.00     0.044 C 
ATOM     18  C   UNL     1       1.423   9.367   1.854  1.00  0.00    -0.050 A 
ATOM     19  C   UNL     1       2.283   9.306   3.372  1.00  0.00     0.004 A 
ATOM     20  C   UNL     1       0.880   7.507   1.022  1.00  0.00     0.024 A 
ATOM     21  C   UNL     1       2.452   7.857   4.132  1.00  0.00     0.005 A 
ATOM     22  C   UNL     1       1.820   6.378   3.591  1.00  0.00    -0.032 A 
ATOM     23  C   UNL     1       1.368   5.456   4.711  1.00  0.00     0.046 C 
ENDBRANCH  13  16
ENDBRANCH  11  13
ENDBRANCH   9  11
ENDBRANCH   8   9
ENDBRANCH   7   8
ENDBRANCH   6   7
ENDBRANCH   5   6
ENDBRANCH   4   5
ENDBRANCH   3   4
ENDBRANCH   2   3
ENDBRANCH   1   2
BRANCH   1  24
ATOM     24  C   UNL     1      -1.544   0.489  -4.045  1.00  0.00     0.188 C 
BRANCH  24  25
ATOM     25  O   UNL     1      -2.016   1.837  -4.137  1.00  0.00    -0.376 OA
BRANCH  25  26
ATOM     26  C   UNL     1      -3.360   2.192  -4.397  1.00  0.00     0.202 C 
BRANCH  26  27
ATOM     27  C   UNL     1      -3.827   1.475  -5.610  1.00  0.00     0.261 C 
BRANCH  27  28
ATOM     28  O   UNL     1      -2.937   1.622  -6.781  1.00  0.00    -0.460 OA
BRANCH  28  29
ATOM     29  C   UNL     1      -1.592   1.956  -6.794  1.00  0.00     0.338 C 
ATOM     30  O   UNL     1      -0.774   1.183  -7.282  1.00  0.00    -0.246 OA
BRANCH  29  31
ATOM     31  C   UNL     1      -1.168   3.308  -6.231  1.00  0.00     0.060 A 
ATOM     32  C   UNL     1       0.050   3.496  -5.585  1.00  0.00     0.016 A 
ATOM     33  C   UNL     1      -2.096   4.334  -6.087  1.00  0.00     0.016 A 
ATOM     34  C   UNL     1       0.106   4.439  -4.509  1.00  0.00     0.010 A 
ATOM     35  C   UNL     1      -2.079   5.173  -4.936  1.00  0.00     0.010 A 
ATOM     36  C   UNL     1      -1.069   5.105  -3.986  1.00  0.00    -0.014 A 
BRANCH  36  37
ATOM     37  C   UNL     1      -1.058   6.086  -2.714  1.00  0.00     0.031 A 
ATOM     38  C   UNL     1       0.080   6.987  -3.210  1.00  0.00     0.074 A 
ATOM     39  C   UNL     1      -1.701   6.270  -1.450  1.00  0.00     0.049 A 
ATOM     40  N   UNL     1       1.312   6.991  -2.793  1.00  0.00    -0.248 NA
ATOM     41  C   UNL     1      -0.052   7.488  -4.609  1.00  0.00     0.031 C 
ATOM     42  C   UNL     1      -2.647   5.524  -0.524  1.00  0.00     0.029 A 
ATOM     43  N   UNL     1      -1.387   7.276  -0.499  1.00  0.00    -0.354 N 
ATOM     44  C   UNL     1       2.051   7.611  -3.814  1.00  0.00     0.074 A 
ATOM     45  C   UNL     1       1.211   7.698  -4.971  1.00  0.00     0.031 C 
ATOM     46  C   UNL     1      -2.866   6.186   0.676  1.00  0.00     0.029 A 
ATOM     47  C   UNL     1      -2.158   7.475   0.711  1.00  0.00     0.049 A 
ATOM     48  H   UNL     1      -0.614   7.862  -0.669  1.00  0.00     0.167 HD
ATOM     49  C   UNL     1       3.085   8.433  -3.512  1.00  0.00     0.034 A 
ATOM     50  C   UNL     1      -1.889   8.275   1.854  1.00  0.00     0.034 A 
ATOM     51  C   UNL     1       3.971   7.811  -2.512  1.00  0.00     0.049 A 
ATOM     52  C   UNL     1      -0.412   8.673   1.839  1.00  0.00     0.074 A 
ATOM     53  C   UNL     1       4.976   6.854  -2.465  1.00  0.00     0.029 A 
ATOM     54  N   UNL     1       3.385   7.595  -1.295  1.00  0.00    -0.354 N 
ATOM     55  N   UNL     1       0.870   7.964   2.661  1.00  0.00    -0.248 NA
ATOM     56  C   UNL     1       0.234   9.276   0.099  1.00  0.00     0.031 C 
ATOM     57  C   UNL     1       5.044   6.346  -1.089  1.00  0.00     0.029 A 
ATOM     58  C   UNL     1       4.126   7.039  -0.292  1.00  0.00     0.049 A 
ATOM     59  H   UNL     1       2.443   7.837  -1.144  1.00  0.00     0.167 HD
ATOM     60  C   UNL     1       2.527   7.974   1.491  1.00  0.00     0.074 A 
ATOM     61  C   UNL     1       1.786   8.995  -0.044  1.00  0.00     0.031 C 
ATOM     62  C   UNL     1       3.615   7.066   1.139  1.00  0.00     0.034 A 
BRANCH  49  63
ATOM     63  C   UNL     1       2.742   9.955  -3.665  1.00  0.00     0.023 A 
ATOM     64  C   UNL     1       3.676  10.918  -3.281  1.00  0.00     0.031 A 
ATOM     65  C   UNL     1       1.459  10.517  -4.009  1.00  0.00     0.131 A 
ATOM     66  C   UNL     1       3.320  12.295  -3.230  1.00  0.00     0.055 A 
ATOM     67  C   UNL     1       1.143  11.876  -4.047  1.00  0.00     0.041 A 
ATOM     68  F   UNL     1       0.362   9.796  -4.236  1.00  0.00    -0.206 F 
ATOM     69  C   UNL     1       2.077  12.783  -3.636  1.00  0.00     0.022 A 
BRANCH  66  70
ATOM     70  S   UNL     1       4.466  13.452  -2.449  1.00  0.00     0.124 S 
ATOM     71  O   UNL     1       4.596  12.871  -1.119  1.00  0.00    -0.237 OA
ATOM     72  O   UNL     1       5.628  13.348  -3.325  1.00  0.00    -0.237 OA
ATOM     73  O   UNL     1       3.757  14.729  -2.508  1.00  0.00    -0.744 OA
ENDBRANCH  66  70
ENDBRANCH  49  63
BRANCH  50  74
ATOM     74  C   UNL     1      -2.935   9.177   2.658  1.00  0.00     0.023 A 
ATOM     75  C   UNL     1      -2.762  10.188   3.710  1.00  0.00     0.031 A 
ATOM     76  C   UNL     1      -4.250   9.119   2.159  1.00  0.00     0.131 A 
ATOM     77  C   UNL     1      -3.860  11.066   4.104  1.00  0.00     0.055 A 
ATOM     78  C   UNL     1      -5.278  10.000   2.512  1.00  0.00     0.041 A 
ATOM     79  F   UNL     1      -4.598   8.202   1.250  1.00  0.00    -0.206 F 
ATOM     80  C   UNL     1      -5.089  10.984   3.457  1.00  0.00     0.022 A 
BRANCH  77  81
ATOM     81  S   UNL     1      -3.836  12.373   5.457  1.00  0.00     0.124 S 
ATOM     82  O   UNL     1      -3.590  11.594   6.664  1.00  0.00    -0.237 OA
ATOM     83  O   UNL     1      -2.779  13.279   5.031  1.00  0.00    -0.237 OA
ATOM     84  O   UNL     1      -5.181  12.960   5.398  1.00  0.00    -0.744 OA
ENDBRANCH  77  81
ENDBRANCH  50  74
BRANCH  62  85
ATOM     85  C   UNL     1       4.441   6.298   2.194  1.00  0.00     0.023 A 
ATOM     86  C   UNL     1       4.147   5.077   2.878  1.00  0.00     0.031 A 
ATOM     87  C   UNL     1       5.593   6.968   2.623  1.00  0.00     0.131 A 
ATOM     88  C   UNL     1       4.748   4.795   4.139  1.00  0.00     0.055 A 
ATOM     89  C   UNL     1       6.284   6.599   3.777  1.00  0.00     0.041 A 
ATOM     90  F   UNL     1       6.062   8.019   1.933  1.00  0.00    -0.206 F 
ATOM     91  C   UNL     1       5.812   5.570   4.579  1.00  0.00     0.022 A 
BRANCH  88  92
ATOM     92  S   UNL     1       4.156   3.558   5.401  1.00  0.00     0.124 S 
ATOM     93  O   UNL     1       3.414   4.391   6.346  1.00  0.00    -0.237 OA
ATOM     94  O   UNL     1       3.384   2.580   4.646  1.00  0.00    -0.237 OA
ATOM     95  O   UNL     1       5.403   3.033   5.956  1.00  0.00    -0.744 OA
ENDBRANCH  88  92
ENDBRANCH  62  85
ENDBRANCH  36  37
ENDBRANCH  29  31
ENDBRANCH  28  29
ENDBRANCH  27  28
ENDBRANCH  26  27
ENDBRANCH  25  26
ENDBRANCH  24  25
ENDBRANCH   1  24
TORSDOF 25
