REMARK SMILES CSc1ccc(C=C2C(C)=C(CC(=O)OCCOCCOCCOCCOC(=O)c3ccc(-c4c5nc(c(-c6cc(S(=O)(=O)[O-])ccc6F)c6ccc([nH]6)c(-c6cc(S(=O)(=O)[O-])ccc6F)c6nc(c(-c7cc(S(=O)(=O)[O-])ccc7F)c7ccc4[nH]7)C=C6)C=C5)cc3)c3cc(F)ccc32)cc1
REMARK SMILES IDX 21 1 20 2 19 3 18 4 17 5 16 6 15 7 13 8 14 9 12 10 11 11
REMARK SMILES IDX 7 12 8 13 9 14 99 15 10 16 93 17 98 18 94 19 97 20 95 21
REMARK SMILES IDX 96 22 6 23 3 24 4 25 101 26 5 27 100 28 2 29 1 30 22 31
REMARK SMILES IDX 23 32 24 33 25 34 26 35 27 36 28 37 29 38 30 39 31 40 92 41
REMARK SMILES IDX 32 42 91 43 33 44 34 45 35 46 85 47 36 48 90 49 84 50 86 51
REMARK SMILES IDX 37 52 89 53 83 54 82 55 38 57 70 58 50 59 69 60 51 61 54 62
REMARK SMILES IDX 68 63 87 64 52 65 53 66 67 68 88 69 55 70 39 71 40 72 48 73
REMARK SMILES IDX 41 74 47 75 49 76 46 77 42 78 43 79 44 80 45 81 71 82 72 83
REMARK SMILES IDX 80 84 73 85 79 86 81 87 78 88 74 89 75 90 76 91 77 92 56 93
REMARK SMILES IDX 57 94 65 95 58 96 64 97 66 98 63 99 59 100 60 101 61 102
REMARK SMILES IDX 62 103
REMARK H PARENT 86 56 54 67
REMARK Flexibility Score: inf
ROOT
ATOM      1  O   UNL     1       2.714 -10.397  -2.635  1.00  0.00    -0.377 OA
ENDROOT
BRANCH   1   2
ATOM      2  C   UNL     1       2.336 -10.219  -3.978  1.00  0.00     0.188 C 
BRANCH   2   3
ATOM      3  C   UNL     1       2.200 -11.319  -5.030  1.00  0.00     0.188 C 
BRANCH   3   4
ATOM      4  O   UNL     1       3.335 -12.033  -5.458  1.00  0.00    -0.376 OA
BRANCH   4   5
ATOM      5  C   UNL     1       4.514 -11.400  -5.909  1.00  0.00     0.202 C 
BRANCH   5   6
ATOM      6  C   UNL     1       4.606  -9.997  -6.543  1.00  0.00     0.261 C 
BRANCH   6   7
ATOM      7  O   UNL     1       3.564  -9.050  -6.280  1.00  0.00    -0.463 OA
BRANCH   7   8
ATOM      8  C   UNL     1       2.596  -8.895  -7.217  1.00  0.00     0.310 C 
ATOM      9  O   UNL     1       2.568  -9.499  -8.284  1.00  0.00    -0.252 OA
BRANCH   8  10
ATOM     10  C   UNL     1       1.562  -7.833  -6.834  1.00  0.00     0.159 C 
BRANCH  10  11
ATOM     11  C   UNL     1       1.083  -7.809  -5.399  1.00  0.00    -0.025 C 
ATOM     12  C   UNL     1       0.559  -4.666  -4.757  1.00  0.00     0.017 C 
ATOM     13  C   UNL     1       0.375  -5.934  -4.324  1.00  0.00    -0.014 C 
ATOM     14  C   UNL     1       1.488  -6.910  -4.457  1.00  0.00    -0.039 C 
ATOM     15  C   UNL     1      -0.834  -6.784  -4.466  1.00  0.00    -0.010 A 
ATOM     16  C   UNL     1       1.679  -7.372  -2.979  1.00  0.00     0.045 C 
ATOM     17  C   UNL     1      -0.378  -7.946  -5.135  1.00  0.00    -0.011 A 
ATOM     18  C   UNL     1      -1.925  -6.851  -3.609  1.00  0.00     0.012 A 
ATOM     19  C   UNL     1      -1.041  -9.163  -5.024  1.00  0.00     0.048 A 
ATOM     20  C   UNL     1      -2.537  -8.101  -3.417  1.00  0.00     0.040 A 
ATOM     21  C   UNL     1      -2.096  -9.231  -4.121  1.00  0.00     0.123 A 
ATOM     22  F   UNL     1      -2.610 -10.432  -3.814  1.00  0.00    -0.207 F 
BRANCH  12  23
ATOM     23  C   UNL     1       0.898  -3.658  -3.699  1.00  0.00    -0.025 A 
ATOM     24  C   UNL     1       0.840  -1.924  -1.503  1.00  0.00     0.007 A 
ATOM     25  C   UNL     1       1.358  -3.201  -1.358  1.00  0.00     0.015 A 
ATOM     26  C   UNL     1       0.594  -1.437  -2.791  1.00  0.00     0.015 A 
ATOM     27  C   UNL     1       1.447  -4.028  -2.467  1.00  0.00     0.009 A 
ATOM     28  C   UNL     1       0.613  -2.308  -3.892  1.00  0.00     0.009 A 
BRANCH  24  29
ATOM     29  S   UNL     1       0.281  -1.108  -0.022  1.00  0.00    -0.130 SA
ATOM     30  C   UNL     1       1.205   0.430  -0.096  1.00  0.00     0.091 C 
ENDBRANCH  24  29
ENDBRANCH  12  23
ENDBRANCH  10  11
ENDBRANCH   8  10
ENDBRANCH   7   8
ENDBRANCH   6   7
ENDBRANCH   5   6
ENDBRANCH   4   5
ENDBRANCH   3   4
ENDBRANCH   2   3
ENDBRANCH   1   2
BRANCH   1  31
ATOM     31  C   UNL     1       3.838 -11.211  -2.422  1.00  0.00     0.188 C 
BRANCH  31  32
ATOM     32  C   UNL     1       3.374 -12.625  -2.093  1.00  0.00     0.188 C 
BRANCH  32  33
ATOM     33  O   UNL     1       2.071 -12.893  -2.583  1.00  0.00    -0.376 OA
BRANCH  33  34
ATOM     34  C   UNL     1       0.917 -12.585  -1.806  1.00  0.00     0.202 C 
BRANCH  34  35
ATOM     35  C   UNL     1       0.733 -11.420  -0.799  1.00  0.00     0.261 C 
BRANCH  35  36
ATOM     36  O   UNL     1       1.871 -10.842  -0.165  1.00  0.00    -0.460 OA
BRANCH  36  37
ATOM     37  C   UNL     1       2.443 -11.538   0.841  1.00  0.00     0.338 C 
ATOM     38  O   UNL     1       2.102 -12.611   1.275  1.00  0.00    -0.246 OA
BRANCH  37  39
ATOM     39  C   UNL     1       3.709 -10.833   1.146  1.00  0.00     0.060 A 
ATOM     40  C   UNL     1       4.909 -11.522   0.937  1.00  0.00     0.016 A 
ATOM     41  C   UNL     1       3.715  -9.498   1.563  1.00  0.00     0.016 A 
ATOM     42  C   UNL     1       6.123 -10.879   1.144  1.00  0.00     0.010 A 
ATOM     43  C   UNL     1       4.934  -8.866   1.819  1.00  0.00     0.010 A 
ATOM     44  C   UNL     1       6.138  -9.568   1.634  1.00  0.00    -0.014 A 
BRANCH  44  45
ATOM     45  C   UNL     1       7.402  -9.059   2.207  1.00  0.00     0.031 A 
ATOM     46  C   UNL     1       7.634  -9.290   3.673  1.00  0.00     0.074 A 
ATOM     47  C   UNL     1       8.341  -8.485   1.437  1.00  0.00     0.049 A 
ATOM     48  N   UNL     1       8.659  -8.972   4.416  1.00  0.00    -0.248 NA
ATOM     49  C   UNL     1       6.552  -9.980   4.395  1.00  0.00     0.031 C 
ATOM     50  C   UNL     1       8.235  -8.273  -0.005  1.00  0.00     0.029 A 
ATOM     51  N   UNL     1       9.572  -7.982   1.765  1.00  0.00    -0.354 N 
ATOM     52  C   UNL     1       8.346  -9.422   5.694  1.00  0.00     0.074 A 
ATOM     53  C   UNL     1       7.019  -9.993   5.631  1.00  0.00     0.031 C 
ATOM     54  C   UNL     1       9.356  -7.670  -0.438  1.00  0.00     0.029 A 
ATOM     55  C   UNL     1      10.240  -7.424   0.701  1.00  0.00     0.049 A 
ATOM     56  H   UNL     1       9.944  -8.016   2.676  1.00  0.00     0.167 HD
ATOM     57  C   UNL     1       9.104  -9.370   6.816  1.00  0.00     0.034 A 
ATOM     58  C   UNL     1      11.417  -6.767   0.665  1.00  0.00     0.034 A 
ATOM     59  C   UNL     1      10.411  -8.761   6.854  1.00  0.00     0.049 A 
ATOM     60  C   UNL     1      12.204  -6.624   1.946  1.00  0.00     0.074 A 
ATOM     61  C   UNL     1      11.275  -8.640   7.926  1.00  0.00     0.029 A 
ATOM     62  N   UNL     1      11.031  -8.146   5.771  1.00  0.00    -0.354 N 
ATOM     63  N   UNL     1      11.909  -7.058   3.152  1.00  0.00    -0.248 NA
ATOM     64  C   UNL     1      13.484  -5.913   1.860  1.00  0.00     0.031 C 
ATOM     65  C   UNL     1      12.372  -7.874   7.516  1.00  0.00     0.029 A 
ATOM     66  C   UNL     1      12.246  -7.604   6.161  1.00  0.00     0.049 A 
ATOM     67  H   UNL     1      10.660  -8.101   4.860  1.00  0.00     0.167 HD
ATOM     68  C   UNL     1      12.984  -6.699   3.962  1.00  0.00     0.074 A 
ATOM     69  C   UNL     1      13.935  -6.022   3.102  1.00  0.00     0.031 C 
ATOM     70  C   UNL     1      13.173  -6.915   5.291  1.00  0.00     0.034 A 
BRANCH  57  71
ATOM     71  C   UNL     1       8.488  -9.909   8.086  1.00  0.00     0.023 A 
ATOM     72  C   UNL     1       8.086 -11.252   8.206  1.00  0.00     0.031 A 
ATOM     73  C   UNL     1       8.217  -9.046   9.161  1.00  0.00     0.131 A 
ATOM     74  C   UNL     1       7.347 -11.665   9.326  1.00  0.00     0.055 A 
ATOM     75  C   UNL     1       7.569  -9.487  10.317  1.00  0.00     0.041 A 
ATOM     76  F   UNL     1       8.547  -7.746   9.096  1.00  0.00    -0.206 F 
ATOM     77  C   UNL     1       7.111 -10.798  10.395  1.00  0.00     0.022 A 
BRANCH  74  78
ATOM     78  S   UNL     1       6.531 -13.285   9.275  1.00  0.00     0.124 S 
ATOM     79  O   UNL     1       5.723 -13.170   8.063  1.00  0.00    -0.237 OA
ATOM     80  O   UNL     1       7.660 -14.205   9.206  1.00  0.00    -0.237 OA
ATOM     81  O   UNL     1       5.768 -13.323  10.521  1.00  0.00    -0.744 OA
ENDBRANCH  74  78
ENDBRANCH  57  71
BRANCH  58  82
ATOM     82  C   UNL     1      11.895  -6.160  -0.610  1.00  0.00     0.023 A 
ATOM     83  C   UNL     1      13.072  -6.595  -1.238  1.00  0.00     0.031 A 
ATOM     84  C   UNL     1      11.177  -5.109  -1.213  1.00  0.00     0.131 A 
ATOM     85  C   UNL     1      13.510  -5.965  -2.415  1.00  0.00     0.055 A 
ATOM     86  C   UNL     1      11.589  -4.521  -2.409  1.00  0.00     0.041 A 
ATOM     87  F   UNL     1      10.046  -4.651  -0.652  1.00  0.00    -0.206 F 
ATOM     88  C   UNL     1      12.768  -4.943  -3.013  1.00  0.00     0.022 A 
BRANCH  85  89
ATOM     89  S   UNL     1      15.104  -6.458  -3.128  1.00  0.00     0.124 S 
ATOM     90  O   UNL     1      16.024  -6.156  -2.038  1.00  0.00    -0.237 OA
ATOM     91  O   UNL     1      14.884  -7.873  -3.411  1.00  0.00    -0.237 OA
ATOM     92  O   UNL     1      15.228  -5.603  -4.307  1.00  0.00    -0.744 OA
ENDBRANCH  85  89
ENDBRANCH  58  82
BRANCH  70  93
ATOM     93  C   UNL     1      14.484  -6.453   5.884  1.00  0.00     0.023 A 
ATOM     94  C   UNL     1      14.835  -5.094   5.951  1.00  0.00     0.031 A 
ATOM     95  C   UNL     1      15.398  -7.395   6.392  1.00  0.00     0.131 A 
ATOM     96  C   UNL     1      16.090  -4.720   6.453  1.00  0.00     0.055 A 
ATOM     97  C   UNL     1      16.613  -7.011   6.960  1.00  0.00     0.041 A 
ATOM     98  F   UNL     1      15.121  -8.708   6.351  1.00  0.00    -0.206 F 
ATOM     99  C   UNL     1      16.972  -5.668   6.979  1.00  0.00     0.022 A 
BRANCH  96 100
ATOM    100  S   UNL     1      16.606  -2.987   6.305  1.00  0.00     0.124 S 
ATOM    101  O   UNL     1      16.502  -2.763   4.867  1.00  0.00    -0.237 OA
ATOM    102  O   UNL     1      15.621  -2.296   7.131  1.00  0.00    -0.237 OA
ATOM    103  O   UNL     1      17.968  -2.989   6.835  1.00  0.00    -0.744 OA
ENDBRANCH  96 100
ENDBRANCH  70  93
ENDBRANCH  44  45
ENDBRANCH  37  39
ENDBRANCH  36  37
ENDBRANCH  35  36
ENDBRANCH  34  35
ENDBRANCH  33  34
ENDBRANCH  32  33
ENDBRANCH  31  32
ENDBRANCH   1  31
TORSDOF 26
