REMARK SMILES C[C@]1(C(=O)OCCOCCOCCOCCOC(=O)c2ccc(-c3c4nc(c(-c5cc(S(=O)(=O)[O-])ccc5F)c5ccc([nH]5)c(-c5cc(S(=O)(=O)[O-])ccc5F)c5nc(c(-c6cc(S(=O)(=O)[O-])ccc6F)c6ccc3[nH]6)C=C5)C=C4)cc2)[NH2+]C2(C(=O)c3ccccc3C2=O)[C@@H]2C(=O)N(c3ccccc3)C(=O)[C@H]21
REMARK SMILES IDX 12 1 11 2 10 3 9 4 8 5 7 6 6 7 5 8 3 9 4 10 2 11 1 12 83 13
REMARK SMILES IDX 107 14 84 15 95 18 105 19 85 20 93 21 96 22 98 23 106 24
REMARK SMILES IDX 86 25 87 26 92 27 94 28 97 29 88 30 91 31 89 32 90 33 99 34
REMARK SMILES IDX 100 35 104 36 101 37 103 38 102 39 13 40 14 41 15 42 16 43
REMARK SMILES IDX 17 44 18 45 19 46 20 47 21 48 82 49 22 50 81 51 23 52 24 53
REMARK SMILES IDX 25 54 75 55 26 56 80 57 74 58 76 59 27 60 79 61 73 62 72 63
REMARK SMILES IDX 28 65 60 66 40 67 59 68 41 69 44 70 58 71 77 72 42 73 43 74
REMARK SMILES IDX 57 76 78 77 45 78 29 79 30 80 38 81 31 82 37 83 39 84 36 85
REMARK SMILES IDX 32 86 33 87 34 88 35 89 61 90 62 91 70 92 63 93 69 94 71 95
REMARK SMILES IDX 68 96 64 97 65 98 66 99 67 100 46 101 47 102 55 103 48 104
REMARK SMILES IDX 54 105 56 106 53 107 49 108 50 109 51 110 52 111
REMARK H PARENT 83 16 83 17 76 64 44 75
REMARK Flexibility Score: inf
ROOT
ATOM      1  C   UNL     1      -4.277  -1.435   0.908  1.00  0.00     0.188 C 
ENDROOT
BRANCH   1   2
ATOM      2  O   UNL     1      -2.947  -1.310   0.435  1.00  0.00    -0.377 OA
BRANCH   2   3
ATOM      3  C   UNL     1      -2.129  -0.347   1.054  1.00  0.00     0.188 C 
BRANCH   3   4
ATOM      4  C   UNL     1      -1.982   0.954   0.254  1.00  0.00     0.188 C 
BRANCH   4   5
ATOM      5  O   UNL     1      -2.831   1.269  -0.841  1.00  0.00    -0.376 OA
BRANCH   5   6
ATOM      6  C   UNL     1      -3.270   0.300  -1.783  1.00  0.00     0.202 C 
BRANCH   6   7
ATOM      7  C   UNL     1      -2.348  -0.749  -2.425  1.00  0.00     0.261 C 
BRANCH   7   8
ATOM      8  O   UNL     1      -1.358  -1.351  -1.586  1.00  0.00    -0.459 OA
BRANCH   8   9
ATOM      9  C   UNL     1      -0.147  -0.754  -1.575  1.00  0.00     0.368 C 
ATOM     10  O   UNL     1       0.110   0.257  -2.219  1.00  0.00    -0.245 OA
BRANCH   9  11
ATOM     11  C   UNL     1       0.917  -1.523  -0.733  1.00  0.00     0.205 C 
ATOM     12  C   UNL     1       1.931  -0.479  -0.254  1.00  0.00     0.093 C 
ATOM     13  N   UNL     1       0.427  -2.287   0.501  1.00  0.00    -0.313 N 
ATOM     14  C   UNL     1       1.466  -2.650  -1.560  1.00  0.00     0.172 C 
ATOM     15  C   UNL     1       0.413  -3.778   0.192  1.00  0.00     0.237 C 
ATOM     16  H   UNL     1      -0.516  -1.979   0.741  1.00  0.00     0.348 HD
ATOM     17  H   UNL     1       1.050  -2.105   1.288  1.00  0.00     0.348 HD
ATOM     18  C   UNL     1       0.427  -3.733  -1.290  1.00  0.00     0.177 C 
ATOM     19  C   UNL     1       1.502  -2.657  -3.047  1.00  0.00     0.244 C 
ATOM     20  C   UNL     1       1.583  -4.477   0.891  1.00  0.00     0.232 C 
ATOM     21  C   UNL     1      -0.810  -4.458   0.822  1.00  0.00     0.232 C 
ATOM     22  C   UNL     1       0.796  -4.726  -2.318  1.00  0.00     0.245 C 
ATOM     23  N   UNL     1       1.117  -3.940  -3.421  1.00  0.00    -0.250 N 
ATOM     24  O   UNL     1       1.868  -1.710  -3.720  1.00  0.00    -0.273 OA
ATOM     25  O   UNL     1       2.771  -4.230   0.771  1.00  0.00    -0.286 OA
ATOM     26  C   UNL     1       1.048  -5.424   1.868  1.00  0.00     0.036 A 
ATOM     27  C   UNL     1      -0.339  -5.396   1.847  1.00  0.00     0.036 A 
ATOM     28  O   UNL     1      -1.988  -4.305   0.558  1.00  0.00    -0.286 OA
ATOM     29  O   UNL     1       0.714  -5.937  -2.188  1.00  0.00    -0.273 OA
ATOM     30  C   UNL     1       1.750  -6.229   2.750  1.00  0.00     0.013 A 
ATOM     31  C   UNL     1      -1.087  -6.172   2.716  1.00  0.00     0.013 A 
ATOM     32  C   UNL     1       1.011  -7.025   3.630  1.00  0.00     0.001 A 
ATOM     33  C   UNL     1      -0.397  -6.994   3.615  1.00  0.00     0.001 A 
BRANCH  23  34
ATOM     34  C   UNL     1       0.872  -4.282  -4.766  1.00  0.00     0.052 A 
ATOM     35  C   UNL     1       1.669  -3.756  -5.790  1.00  0.00     0.027 A 
ATOM     36  C   UNL     1      -0.282  -5.003  -5.102  1.00  0.00     0.027 A 
ATOM     37  C   UNL     1       1.317  -3.933  -7.127  1.00  0.00     0.002 A 
ATOM     38  C   UNL     1      -0.655  -5.143  -6.441  1.00  0.00     0.002 A 
ATOM     39  C   UNL     1       0.146  -4.611  -7.451  1.00  0.00     0.000 A 
ENDBRANCH  23  34
ENDBRANCH   9  11
ENDBRANCH   8   9
ENDBRANCH   7   8
ENDBRANCH   6   7
ENDBRANCH   5   6
ENDBRANCH   4   5
ENDBRANCH   3   4
ENDBRANCH   2   3
ENDBRANCH   1   2
BRANCH   1  40
ATOM     40  C   UNL     1      -5.018  -0.137   1.290  1.00  0.00     0.188 C 
BRANCH  40  41
ATOM     41  O   UNL     1      -4.283   0.723   2.151  1.00  0.00    -0.376 OA
BRANCH  41  42
ATOM     42  C   UNL     1      -4.502   0.656   3.550  1.00  0.00     0.202 C 
BRANCH  42  43
ATOM     43  C   UNL     1      -4.197  -0.655   4.296  1.00  0.00     0.261 C 
BRANCH  43  44
ATOM     44  O   UNL     1      -4.845  -1.847   3.834  1.00  0.00    -0.460 OA
BRANCH  44  45
ATOM     45  C   UNL     1      -6.195  -1.872   3.770  1.00  0.00     0.338 C 
ATOM     46  O   UNL     1      -6.956  -0.993   4.122  1.00  0.00    -0.246 OA
BRANCH  45  47
ATOM     47  C   UNL     1      -6.565  -3.083   2.996  1.00  0.00     0.060 A 
ATOM     48  C   UNL     1      -6.113  -4.342   3.399  1.00  0.00     0.016 A 
ATOM     49  C   UNL     1      -7.318  -2.947   1.822  1.00  0.00     0.016 A 
ATOM     50  C   UNL     1      -6.436  -5.469   2.637  1.00  0.00     0.010 A 
ATOM     51  C   UNL     1      -7.626  -4.074   1.054  1.00  0.00     0.010 A 
ATOM     52  C   UNL     1      -7.205  -5.347   1.466  1.00  0.00    -0.014 A 
BRANCH  52  53
ATOM     53  C   UNL     1      -7.704  -6.562   0.772  1.00  0.00     0.031 A 
ATOM     54  C   UNL     1      -7.116  -7.037  -0.522  1.00  0.00     0.074 A 
ATOM     55  C   UNL     1      -8.735  -7.226   1.331  1.00  0.00     0.049 A 
ATOM     56  N   UNL     1      -7.428  -8.101  -1.218  1.00  0.00    -0.248 NA
ATOM     57  C   UNL     1      -6.050  -6.219  -1.117  1.00  0.00     0.031 C 
ATOM     58  C   UNL     1      -9.399  -6.829   2.572  1.00  0.00     0.029 A 
ATOM     59  N   UNL     1      -9.405  -8.360   0.941  1.00  0.00    -0.354 N 
ATOM     60  C   UNL     1      -6.591  -8.093  -2.327  1.00  0.00     0.074 A 
ATOM     61  C   UNL     1      -5.789  -6.890  -2.234  1.00  0.00     0.031 C 
ATOM     62  C   UNL     1     -10.365  -7.713   2.854  1.00  0.00     0.029 A 
ATOM     63  C   UNL     1     -10.423  -8.719   1.795  1.00  0.00     0.049 A 
ATOM     64  H   UNL     1      -9.179  -8.867   0.128  1.00  0.00     0.167 HD
ATOM     65  C   UNL     1      -6.494  -9.017  -3.313  1.00  0.00     0.034 A 
ATOM     66  C   UNL     1     -11.309  -9.736   1.737  1.00  0.00     0.034 A 
ATOM     67  C   UNL     1      -7.308 -10.208  -3.382  1.00  0.00     0.049 A 
ATOM     68  C   UNL     1     -11.203 -10.731   0.609  1.00  0.00     0.074 A 
ATOM     69  C   UNL     1      -7.242 -11.230  -4.314  1.00  0.00     0.029 A 
ATOM     70  N   UNL     1      -8.334 -10.537  -2.507  1.00  0.00    -0.354 N 
ATOM     71  N   UNL     1     -10.333 -10.769  -0.372  1.00  0.00    -0.248 NA
ATOM     72  C   UNL     1     -12.180 -11.829   0.581  1.00  0.00     0.031 C 
ATOM     73  C   UNL     1      -8.278 -12.126  -4.056  1.00  0.00     0.029 A 
ATOM     74  C   UNL     1      -8.931 -11.724  -2.901  1.00  0.00     0.049 A 
ATOM     75  H   UNL     1      -8.598 -10.005  -1.721  1.00  0.00     0.167 HD
ATOM     76  C   UNL     1     -10.635 -11.909  -1.112  1.00  0.00     0.074 A 
ATOM     77  C   UNL     1     -11.759 -12.542  -0.457  1.00  0.00     0.031 C 
ATOM     78  C   UNL     1     -10.031 -12.380  -2.231  1.00  0.00     0.034 A 
BRANCH  65  79
ATOM     79  C   UNL     1      -5.461  -8.828  -4.402  1.00  0.00     0.023 A 
ATOM     80  C   UNL     1      -5.863  -8.752  -5.750  1.00  0.00     0.031 A 
ATOM     81  C   UNL     1      -4.085  -8.908  -4.125  1.00  0.00     0.131 A 
ATOM     82  C   UNL     1      -4.902  -8.807  -6.769  1.00  0.00     0.055 A 
ATOM     83  C   UNL     1      -3.129  -8.911  -5.142  1.00  0.00     0.041 A 
ATOM     84  F   UNL     1      -3.649  -8.998  -2.857  1.00  0.00    -0.206 F 
ATOM     85  C   UNL     1      -3.538  -8.877  -6.472  1.00  0.00     0.022 A 
BRANCH  82  86
ATOM     86  S   UNL     1      -5.387  -8.876  -8.516  1.00  0.00     0.124 S 
ATOM     87  O   UNL     1      -4.720  -7.693  -9.056  1.00  0.00    -0.237 OA
ATOM     88  O   UNL     1      -4.825 -10.155  -8.939  1.00  0.00    -0.237 OA
ATOM     89  O   UNL     1      -6.843  -8.805  -8.480  1.00  0.00    -0.744 OA
ENDBRANCH  82  86
ENDBRANCH  65  79
BRANCH  66  90
ATOM     90  C   UNL     1     -12.320  -9.877   2.825  1.00  0.00     0.023 A 
ATOM     91  C   UNL     1     -13.255  -8.855   3.077  1.00  0.00     0.031 A 
ATOM     92  C   UNL     1     -12.291 -10.973   3.702  1.00  0.00     0.131 A 
ATOM     93  C   UNL     1     -14.063  -8.914   4.219  1.00  0.00     0.055 A 
ATOM     94  C   UNL     1     -13.155 -11.067   4.795  1.00  0.00     0.041 A 
ATOM     95  F   UNL     1     -11.407 -11.966   3.515  1.00  0.00    -0.206 F 
ATOM     96  C   UNL     1     -14.034 -10.024   5.069  1.00  0.00     0.022 A 
BRANCH  93  97
ATOM     97  S   UNL     1     -15.071  -7.490   4.718  1.00  0.00     0.124 S 
ATOM     98  O   UNL     1     -16.414  -8.061   4.745  1.00  0.00    -0.237 OA
ATOM     99  O   UNL     1     -14.497  -7.163   6.021  1.00  0.00    -0.237 OA
ATOM    100  O   UNL     1     -14.824  -6.508   3.668  1.00  0.00    -0.744 OA
ENDBRANCH  93  97
ENDBRANCH  66  90
BRANCH  78 101
ATOM    101  C   UNL     1     -10.523 -13.667  -2.853  1.00  0.00     0.023 A 
ATOM    102  C   UNL     1      -9.639 -14.758  -2.979  1.00  0.00     0.031 A 
ATOM    103  C   UNL     1     -11.764 -13.741  -3.506  1.00  0.00     0.131 A 
ATOM    104  C   UNL     1      -9.975 -15.838  -3.804  1.00  0.00     0.055 A 
ATOM    105  C   UNL     1     -12.120 -14.848  -4.279  1.00  0.00     0.041 A 
ATOM    106  F   UNL     1     -12.639 -12.726  -3.425  1.00  0.00    -0.206 F 
ATOM    107  C   UNL     1     -11.214 -15.893  -4.449  1.00  0.00     0.022 A 
BRANCH 104 108
ATOM    108  S   UNL     1      -8.771 -17.146  -4.168  1.00  0.00     0.124 S 
ATOM    109  O   UNL     1      -9.489 -18.347  -3.746  1.00  0.00    -0.237 OA
ATOM    110  O   UNL     1      -8.590 -17.003  -5.610  1.00  0.00    -0.237 OA
ATOM    111  O   UNL     1      -7.614 -16.798  -3.350  1.00  0.00    -0.744 OA
ENDBRANCH 104 108
ENDBRANCH  78 101
ENDBRANCH  52  53
ENDBRANCH  45  47
ENDBRANCH  44  45
ENDBRANCH  43  44
ENDBRANCH  42  43
ENDBRANCH  41  42
ENDBRANCH  40  41
ENDBRANCH   1  40
TORSDOF 24
