REMARK SMILES O=C(OCCOCCOCCOCCOC(=O)c1nn(Cc2ccc(F)cc2)c2c1CN(C(=O)[C@H]1CC1(F)F)CC2)c1ccc(-c2c3nc(c(-c4cc(S(=O)(=O)[O-])ccc4F)c4ccc([nH]4)c(-c4cc(S(=O)(=O)[O-])ccc4F)c4nc(c(-c5cc(S(=O)(=O)[O-])ccc5F)c5ccc2[nH]5)C=C4)C=C3)cc1
REMARK SMILES IDX 8 1 7 2 6 3 5 4 4 5 3 6 2 7 1 8 42 9 43 10 104 11 44 12
REMARK SMILES IDX 103 13 45 14 46 15 47 16 97 17 48 18 102 19 96 20 98 21
REMARK SMILES IDX 49 22 101 23 95 24 94 25 50 27 82 28 62 29 81 30 63 31 66 32
REMARK SMILES IDX 80 33 99 34 64 35 65 36 79 38 100 39 67 40 51 41 52 42 60 43
REMARK SMILES IDX 53 44 59 45 61 46 58 47 54 48 55 49 56 50 57 51 83 52 84 53
REMARK SMILES IDX 92 54 85 55 91 56 93 57 90 58 86 59 87 60 88 61 89 62 68 63
REMARK SMILES IDX 69 64 77 65 70 66 76 67 78 68 75 69 71 70 72 71 73 72 74 73
REMARK SMILES IDX 9 74 10 75 11 76 12 77 13 78 14 79 15 80 16 81 17 82 18 83
REMARK SMILES IDX 19 84 30 85 20 86 29 87 31 88 41 89 32 90 40 91 21 92 22 93
REMARK SMILES IDX 23 94 28 95 24 96 27 97 25 98 26 99 33 100 34 101 35 102
REMARK SMILES IDX 36 103 37 104 38 105 39 106
REMARK H PARENT 98 26 66 37
REMARK Flexibility Score: inf
ROOT
ATOM      1  C   UNL     1      15.646   3.043  -3.140  1.00  0.00     0.188 C 
ENDROOT
BRANCH   1   2
ATOM      2  C   UNL     1      14.950   3.655  -1.906  1.00  0.00     0.188 C 
BRANCH   2   3
ATOM      3  O   UNL     1      13.867   3.080  -1.191  1.00  0.00    -0.376 OA
BRANCH   3   4
ATOM      4  C   UNL     1      12.698   2.417  -1.628  1.00  0.00     0.202 C 
BRANCH   4   5
ATOM      5  C   UNL     1      11.947   2.667  -2.934  1.00  0.00     0.261 C 
BRANCH   5   6
ATOM      6  O   UNL     1      12.741   3.147  -4.002  1.00  0.00    -0.460 OA
BRANCH   6   7
ATOM      7  C   UNL     1      13.038   4.429  -4.292  1.00  0.00     0.338 C 
ATOM      8  O   UNL     1      13.728   4.640  -5.290  1.00  0.00    -0.246 OA
BRANCH   7   9
ATOM      9  C   UNL     1      12.656   5.596  -3.451  1.00  0.00     0.060 A 
ATOM     10  C   UNL     1      11.775   5.606  -2.366  1.00  0.00     0.016 A 
ATOM     11  C   UNL     1      13.235   6.810  -3.861  1.00  0.00     0.016 A 
ATOM     12  C   UNL     1      11.267   6.800  -1.903  1.00  0.00     0.010 A 
ATOM     13  C   UNL     1      12.770   8.008  -3.370  1.00  0.00     0.010 A 
ATOM     14  C   UNL     1      11.708   7.983  -2.481  1.00  0.00    -0.014 A 
BRANCH  14  15
ATOM     15  C   UNL     1      11.067   9.211  -2.073  1.00  0.00     0.031 A 
ATOM     16  C   UNL     1      11.327   9.562  -0.659  1.00  0.00     0.074 A 
ATOM     17  C   UNL     1      10.373   9.950  -2.960  1.00  0.00     0.049 A 
ATOM     18  N   UNL     1      10.478   9.602   0.312  1.00  0.00    -0.248 NA
ATOM     19  C   UNL     1      12.730   9.691  -0.230  1.00  0.00     0.031 C 
ATOM     20  C   UNL     1      10.251   9.750  -4.407  1.00  0.00     0.029 A 
ATOM     21  N   UNL     1       9.699  11.110  -2.765  1.00  0.00    -0.354 N 
ATOM     22  C   UNL     1      11.202  10.031   1.417  1.00  0.00     0.074 A 
ATOM     23  C   UNL     1      12.589   9.853   1.086  1.00  0.00     0.031 C 
ATOM     24  C   UNL     1       9.767  10.878  -4.976  1.00  0.00     0.029 A 
ATOM     25  C   UNL     1       9.421  11.823  -3.928  1.00  0.00     0.049 A 
ATOM     26  H   UNL     1       9.428  11.424  -1.872  1.00  0.00     0.167 HD
ATOM     27  C   UNL     1      10.606  10.777   2.386  1.00  0.00     0.034 A 
ATOM     28  C   UNL     1       9.000  13.116  -4.005  1.00  0.00     0.034 A 
ATOM     29  C   UNL     1       9.174  10.584   2.384  1.00  0.00     0.049 A 
ATOM     30  C   UNL     1       8.373  13.418  -2.690  1.00  0.00     0.074 A 
ATOM     31  C   UNL     1       8.358   9.475   2.516  1.00  0.00     0.029 A 
ATOM     32  N   UNL     1       8.386  11.553   1.805  1.00  0.00    -0.354 N 
ATOM     33  N   UNL     1       7.302  12.808  -2.254  1.00  0.00    -0.248 NA
ATOM     34  C   UNL     1       9.220  14.001  -1.658  1.00  0.00     0.031 C 
ATOM     35  C   UNL     1       7.322   9.667   1.554  1.00  0.00     0.029 A 
ATOM     36  C   UNL     1       7.504  10.918   0.962  1.00  0.00     0.049 A 
ATOM     37  H   UNL     1       8.444  12.522   1.965  1.00  0.00     0.167 HD
ATOM     38  C   UNL     1       7.555  12.555  -0.914  1.00  0.00     0.074 A 
ATOM     39  C   UNL     1       8.721  13.378  -0.586  1.00  0.00     0.031 C 
ATOM     40  C   UNL     1       6.992  11.490  -0.270  1.00  0.00     0.034 A 
BRANCH  27  41
ATOM     41  C   UNL     1      11.279  11.958   3.047  1.00  0.00     0.023 A 
ATOM     42  C   UNL     1      10.584  12.619   4.075  1.00  0.00     0.031 A 
ATOM     43  C   UNL     1      12.418  12.633   2.541  1.00  0.00     0.131 A 
ATOM     44  C   UNL     1      10.977  13.901   4.500  1.00  0.00     0.055 A 
ATOM     45  C   UNL     1      12.839  13.878   3.009  1.00  0.00     0.041 A 
ATOM     46  F   UNL     1      13.133  12.179   1.506  1.00  0.00    -0.206 F 
ATOM     47  C   UNL     1      12.101  14.534   3.975  1.00  0.00     0.022 A 
BRANCH  44  48
ATOM     48  S   UNL     1       9.908  14.794   5.655  1.00  0.00     0.124 S 
ATOM     49  O   UNL     1       8.648  14.833   4.921  1.00  0.00    -0.237 OA
ATOM     50  O   UNL     1       9.943  13.926   6.828  1.00  0.00    -0.237 OA
ATOM     51  O   UNL     1      10.581  16.081   5.814  1.00  0.00    -0.744 OA
ENDBRANCH  44  48
ENDBRANCH  27  41
BRANCH  28  52
ATOM     52  C   UNL     1       9.466  14.172  -4.958  1.00  0.00     0.023 A 
ATOM     53  C   UNL     1       8.853  15.445  -5.032  1.00  0.00     0.031 A 
ATOM     54  C   UNL     1      10.698  14.035  -5.639  1.00  0.00     0.131 A 
ATOM     55  C   UNL     1       9.472  16.503  -5.745  1.00  0.00     0.055 A 
ATOM     56  C   UNL     1      11.303  15.082  -6.341  1.00  0.00     0.041 A 
ATOM     57  F   UNL     1      11.412  12.902  -5.576  1.00  0.00    -0.206 F 
ATOM     58  C   UNL     1      10.698  16.326  -6.386  1.00  0.00     0.022 A 
BRANCH  55  59
ATOM     59  S   UNL     1       8.745  18.177  -5.753  1.00  0.00     0.124 S 
ATOM     60  O   UNL     1       7.674  18.039  -6.734  1.00  0.00    -0.237 OA
ATOM     61  O   UNL     1       8.334  18.354  -4.365  1.00  0.00    -0.237 OA
ATOM     62  O   UNL     1       9.859  19.027  -6.173  1.00  0.00    -0.744 OA
ENDBRANCH  55  59
ENDBRANCH  28  52
BRANCH  40  63
ATOM     63  C   UNL     1       5.870  10.729  -0.952  1.00  0.00     0.023 A 
ATOM     64  C   UNL     1       5.997   9.964  -2.138  1.00  0.00     0.031 A 
ATOM     65  C   UNL     1       4.654  10.652  -0.253  1.00  0.00     0.131 A 
ATOM     66  C   UNL     1       4.921   9.157  -2.571  1.00  0.00     0.055 A 
ATOM     67  C   UNL     1       3.603   9.841  -0.675  1.00  0.00     0.041 A 
ATOM     68  F   UNL     1       4.489  11.329   0.895  1.00  0.00    -0.206 F 
ATOM     69  C   UNL     1       3.732   9.090  -1.837  1.00  0.00     0.022 A 
BRANCH  66  70
ATOM     70  S   UNL     1       5.055   8.141  -4.083  1.00  0.00     0.124 S 
ATOM     71  O   UNL     1       5.343   9.123  -5.122  1.00  0.00    -0.237 OA
ATOM     72  O   UNL     1       6.136   7.215  -3.757  1.00  0.00    -0.237 OA
ATOM     73  O   UNL     1       3.737   7.511  -4.193  1.00  0.00    -0.744 OA
ENDBRANCH  66  70
ENDBRANCH  40  63
ENDBRANCH  14  15
ENDBRANCH   7   9
ENDBRANCH   6   7
ENDBRANCH   5   6
ENDBRANCH   4   5
ENDBRANCH   3   4
ENDBRANCH   2   3
ENDBRANCH   1   2
BRANCH   1  74
ATOM     74  O   UNL     1      16.250   1.771  -3.000  1.00  0.00    -0.377 OA
BRANCH  74  75
ATOM     75  C   UNL     1      15.364   0.772  -2.557  1.00  0.00     0.188 C 
BRANCH  75  76
ATOM     76  C   UNL     1      15.467   0.504  -1.042  1.00  0.00     0.188 C 
BRANCH  76  77
ATOM     77  O   UNL     1      16.468   1.105  -0.239  1.00  0.00    -0.376 OA
BRANCH  77  78
ATOM     78  C   UNL     1      17.744   1.395  -0.774  1.00  0.00     0.202 C 
BRANCH  78  79
ATOM     79  C   UNL     1      18.556   0.313  -1.512  1.00  0.00     0.261 C 
BRANCH  79  80
ATOM     80  O   UNL     1      17.838  -0.657  -2.287  1.00  0.00    -0.458 OA
BRANCH  80  81
ATOM     81  C   UNL     1      17.449  -1.802  -1.649  1.00  0.00     0.359 C 
ATOM     82  O   UNL     1      17.673  -2.052  -0.469  1.00  0.00    -0.244 OA
BRANCH  81  83
ATOM     83  C   UNL     1      16.623  -2.667  -2.511  1.00  0.00     0.175 A 
ATOM     84  N   UNL     1      17.154  -3.257  -3.603  1.00  0.00    -0.165 NA
ATOM     85  C   UNL     1      15.245  -3.034  -2.366  1.00  0.00     0.028 A 
ATOM     86  N   UNL     1      16.160  -4.014  -4.114  1.00  0.00    -0.264 N 
ATOM     87  C   UNL     1      15.000  -3.906  -3.408  1.00  0.00     0.046 A 
ATOM     88  C   UNL     1      14.194  -2.638  -1.378  1.00  0.00     0.159 C 
ATOM     89  C   UNL     1      13.723  -4.637  -3.622  1.00  0.00     0.078 C 
ATOM     90  N   UNL     1      13.047  -3.559  -1.466  1.00  0.00    -0.337 N 
ATOM     91  C   UNL     1      12.603  -3.941  -2.823  1.00  0.00     0.126 C 
BRANCH  86  92
ATOM     92  C   UNL     1      16.470  -4.976  -5.163  1.00  0.00     0.180 C 
BRANCH  92  93
ATOM     93  C   UNL     1      16.520  -4.367  -6.543  1.00  0.00    -0.026 A 
ATOM     94  C   UNL     1      17.561  -3.492  -6.899  1.00  0.00     0.008 A 
ATOM     95  C   UNL     1      15.569  -4.721  -7.513  1.00  0.00     0.008 A 
ATOM     96  C   UNL     1      17.666  -3.006  -8.203  1.00  0.00     0.039 A 
ATOM     97  C   UNL     1      15.677  -4.235  -8.818  1.00  0.00     0.039 A 
ATOM     98  C   UNL     1      16.729  -3.390  -9.152  1.00  0.00     0.123 A 
ATOM     99  F   UNL     1      16.845  -2.950 -10.412  1.00  0.00    -0.207 F 
ENDBRANCH  92  93
ENDBRANCH  86  92
BRANCH  90 100
ATOM    100  C   UNL     1      12.360  -3.846  -0.297  1.00  0.00     0.232 C 
ATOM    101  O   UNL     1      12.633  -3.335   0.787  1.00  0.00    -0.274 OA
BRANCH 100 102
ATOM    102  C   UNL     1      11.229  -4.790  -0.379  1.00  0.00     0.154 C 
ATOM    103  C   UNL     1      11.475  -6.269  -0.624  1.00  0.00     0.097 C 
ATOM    104  C   UNL     1      11.027  -5.784   0.703  1.00  0.00     0.260 C 
ATOM    105  F   UNL     1      11.876  -5.931   1.774  1.00  0.00    -0.206 F 
ATOM    106  F   UNL     1       9.763  -6.117   1.134  1.00  0.00    -0.206 F 
ENDBRANCH 100 102
ENDBRANCH  90 100
ENDBRANCH  81  83
ENDBRANCH  80  81
ENDBRANCH  79  80
ENDBRANCH  78  79
ENDBRANCH  77  78
ENDBRANCH  76  77
ENDBRANCH  75  76
ENDBRANCH  74  75
ENDBRANCH   1  74
TORSDOF 27
