REMARK SMILES CC(C)[C@@H](NC(=O)[C@H]1CCCO1)C(=O)OCCOCCOCCOCCOC(=O)c1ccc(-c2c3nc(c(-c4cc(S(=O)(=O)[O-])ccc4F)c4ccc([nH]4)c(-c4cc(S(=O)(=O)[O-])ccc4F)c4nc(c(-c5cc(S(=O)(=O)[O-])ccc5F)c5ccc2[nH]5)C=C4)C=C3)cc1
REMARK SMILES IDX 22 1 21 2 20 3 19 4 18 5 17 6 16 7 15 8 13 9 14 10 4 11 2 12
REMARK SMILES IDX 1 13 3 14 5 15 6 16 7 18 8 19 9 20 12 21 10 22 11 23 23 24
REMARK SMILES IDX 24 25 25 26 26 27 27 28 28 29 29 30 30 31 31 32 92 33 32 34
REMARK SMILES IDX 91 35 33 36 34 37 35 38 85 39 36 40 90 41 84 42 86 43 37 44
REMARK SMILES IDX 89 45 83 46 82 47 38 49 70 50 50 51 69 52 51 53 54 54 68 55
REMARK SMILES IDX 87 56 52 57 53 58 67 60 88 61 55 62 39 63 40 64 48 65 41 66
REMARK SMILES IDX 47 67 49 68 46 69 42 70 43 71 44 72 45 73 71 74 72 75 80 76
REMARK SMILES IDX 73 77 79 78 81 79 78 80 74 81 75 82 76 83 77 84 56 85 57 86
REMARK SMILES IDX 65 87 58 88 64 89 66 90 63 91 59 92 60 93 61 94 62 95
REMARK H PARENT 5 17 86 48 54 59
REMARK Flexibility Score: inf
ROOT
ATOM      1  C   UNL     1      -8.222  -2.746   1.824  1.00  0.00     0.188 C 
ENDROOT
BRANCH   1   2
ATOM      2  O   UNL     1      -7.226  -1.768   1.535  1.00  0.00    -0.377 OA
BRANCH   2   3
ATOM      3  C   UNL     1      -7.464  -0.705   0.631  1.00  0.00     0.188 C 
BRANCH   3   4
ATOM      4  C   UNL     1      -6.660  -0.800  -0.664  1.00  0.00     0.188 C 
BRANCH   4   5
ATOM      5  O   UNL     1      -6.801  -1.998  -1.409  1.00  0.00    -0.376 OA
BRANCH   5   6
ATOM      6  C   UNL     1      -6.250  -3.190  -0.852  1.00  0.00     0.202 C 
BRANCH   6   7
ATOM      7  C   UNL     1      -4.872  -3.131  -0.174  1.00  0.00     0.261 C 
BRANCH   7   8
ATOM      8  O   UNL     1      -4.819  -2.462   1.116  1.00  0.00    -0.462 OA
BRANCH   8   9
ATOM      9  C   UNL     1      -3.925  -1.451   1.239  1.00  0.00     0.328 C 
ATOM     10  O   UNL     1      -3.338  -0.955   0.274  1.00  0.00    -0.250 OA
BRANCH   9  11
ATOM     11  C   UNL     1      -3.498  -1.062   2.676  1.00  0.00     0.194 C 
BRANCH  11  12
ATOM     12  C   UNL     1      -4.316  -1.226   3.987  1.00  0.00     0.017 C 
ATOM     13  C   UNL     1      -3.622  -0.436   5.127  1.00  0.00     0.010 C 
ATOM     14  C   UNL     1      -5.747  -0.685   3.930  1.00  0.00     0.010 C 
ENDBRANCH  11  12
BRANCH  11  15
ATOM     15  N   UNL     1      -2.078  -1.445   2.877  1.00  0.00    -0.340 N 
ATOM     16  C   UNL     1      -1.460  -2.665   2.785  1.00  0.00     0.249 C 
ATOM     17  H   UNL     1      -1.482  -0.699   3.116  1.00  0.00     0.164 HD
ATOM     18  O   UNL     1      -0.324  -2.760   3.254  1.00  0.00    -0.272 OA
BRANCH  16  19
ATOM     19  C   UNL     1      -2.132  -3.802   1.995  1.00  0.00     0.207 C 
ATOM     20  C   UNL     1      -1.314  -5.082   1.856  1.00  0.00     0.044 C 
ATOM     21  O   UNL     1      -3.390  -4.173   2.573  1.00  0.00    -0.368 OA
ATOM     22  C   UNL     1      -2.069  -6.079   2.701  1.00  0.00     0.032 C 
ATOM     23  C   UNL     1      -3.489  -5.599   2.551  1.00  0.00     0.161 C 
ENDBRANCH  16  19
ENDBRANCH  11  15
ENDBRANCH   9  11
ENDBRANCH   8   9
ENDBRANCH   7   8
ENDBRANCH   6   7
ENDBRANCH   5   6
ENDBRANCH   4   5
ENDBRANCH   3   4
ENDBRANCH   2   3
ENDBRANCH   1   2
BRANCH   1  24
ATOM     24  C   UNL     1      -9.575  -2.600   1.135  1.00  0.00     0.188 C 
BRANCH  24  25
ATOM     25  O   UNL     1     -10.352  -1.442   1.462  1.00  0.00    -0.376 OA
BRANCH  25  26
ATOM     26  C   UNL     1     -10.108  -0.779   2.700  1.00  0.00     0.202 C 
BRANCH  26  27
ATOM     27  C   UNL     1     -10.865  -1.337   3.902  1.00  0.00     0.261 C 
BRANCH  27  28
ATOM     28  O   UNL     1     -10.465  -2.672   4.238  1.00  0.00    -0.460 OA
BRANCH  28  29
ATOM     29  C   UNL     1     -11.237  -3.644   3.704  1.00  0.00     0.338 C 
ATOM     30  O   UNL     1     -12.205  -3.499   2.965  1.00  0.00    -0.246 OA
BRANCH  29  31
ATOM     31  C   UNL     1     -10.680  -4.959   4.046  1.00  0.00     0.060 A 
ATOM     32  C   UNL     1     -10.489  -5.895   3.022  1.00  0.00     0.016 A 
ATOM     33  C   UNL     1     -10.457  -5.300   5.382  1.00  0.00     0.016 A 
ATOM     34  C   UNL     1     -10.129  -7.202   3.339  1.00  0.00     0.010 A 
ATOM     35  C   UNL     1     -10.107  -6.611   5.698  1.00  0.00     0.010 A 
ATOM     36  C   UNL     1      -9.988  -7.575   4.681  1.00  0.00    -0.014 A 
BRANCH  36  37
ATOM     37  C   UNL     1      -9.914  -9.007   5.043  1.00  0.00     0.031 A 
ATOM     38  C   UNL     1     -11.166  -9.684   5.526  1.00  0.00     0.074 A 
ATOM     39  C   UNL     1      -8.756  -9.680   4.946  1.00  0.00     0.049 A 
ATOM     40  N   UNL     1     -11.329 -10.889   6.005  1.00  0.00    -0.248 NA
ATOM     41  C   UNL     1     -12.401  -8.885   5.471  1.00  0.00     0.031 C 
ATOM     42  C   UNL     1      -7.502  -9.128   4.437  1.00  0.00     0.029 A 
ATOM     43  N   UNL     1      -8.447 -10.971   5.285  1.00  0.00    -0.354 N 
ATOM     44  C   UNL     1     -12.680 -10.990   6.321  1.00  0.00     0.074 A 
ATOM     45  C   UNL     1     -13.282  -9.711   6.013  1.00  0.00     0.031 C 
ATOM     46  C   UNL     1      -6.550 -10.073   4.516  1.00  0.00     0.029 A 
ATOM     47  C   UNL     1      -7.117 -11.275   5.124  1.00  0.00     0.049 A 
ATOM     48  H   UNL     1      -9.113 -11.617   5.613  1.00  0.00     0.167 HD
ATOM     49  C   UNL     1     -13.352 -12.057   6.818  1.00  0.00     0.034 A 
ATOM     50  C   UNL     1      -6.434 -12.386   5.466  1.00  0.00     0.034 A 
ATOM     51  C   UNL     1     -12.720 -13.316   7.129  1.00  0.00     0.049 A 
ATOM     52  C   UNL     1      -7.184 -13.530   6.106  1.00  0.00     0.074 A 
ATOM     53  C   UNL     1     -13.297 -14.471   7.625  1.00  0.00     0.029 A 
ATOM     54  N   UNL     1     -11.363 -13.579   6.987  1.00  0.00    -0.354 N 
ATOM     55  N   UNL     1      -8.462 -13.620   6.401  1.00  0.00    -0.248 NA
ATOM     56  C   UNL     1      -6.402 -14.723   6.452  1.00  0.00     0.031 C 
ATOM     57  C   UNL     1     -12.279 -15.401   7.862  1.00  0.00     0.029 A 
ATOM     58  C   UNL     1     -11.078 -14.864   7.423  1.00  0.00     0.049 A 
ATOM     59  H   UNL     1     -10.700 -12.946   6.630  1.00  0.00     0.167 HD
ATOM     60  C   UNL     1      -8.640 -14.895   6.934  1.00  0.00     0.074 A 
ATOM     61  C   UNL     1      -7.342 -15.537   6.908  1.00  0.00     0.031 C 
ATOM     62  C   UNL     1      -9.773 -15.485   7.396  1.00  0.00     0.034 A 
BRANCH  49  63
ATOM     63  C   UNL     1     -14.824 -11.879   7.109  1.00  0.00     0.023 A 
ATOM     64  C   UNL     1     -15.753 -11.590   6.094  1.00  0.00     0.031 A 
ATOM     65  C   UNL     1     -15.300 -11.964   8.429  1.00  0.00     0.131 A 
ATOM     66  C   UNL     1     -17.091 -11.324   6.424  1.00  0.00     0.055 A 
ATOM     67  C   UNL     1     -16.649 -11.784   8.741  1.00  0.00     0.041 A 
ATOM     68  F   UNL     1     -14.457 -12.210   9.445  1.00  0.00    -0.206 F 
ATOM     69  C   UNL     1     -17.551 -11.445   7.737  1.00  0.00     0.022 A 
BRANCH  66  70
ATOM     70  S   UNL     1     -18.187 -10.665   5.138  1.00  0.00     0.124 S 
ATOM     71  O   UNL     1     -17.476  -9.453   4.736  1.00  0.00    -0.237 OA
ATOM     72  O   UNL     1     -18.211 -11.746   4.159  1.00  0.00    -0.237 OA
ATOM     73  O   UNL     1     -19.446 -10.434   5.844  1.00  0.00    -0.744 OA
ENDBRANCH  66  70
ENDBRANCH  49  63
BRANCH  50  74
ATOM     74  C   UNL     1      -4.961 -12.460   5.252  1.00  0.00     0.023 A 
ATOM     75  C   UNL     1      -4.402 -13.415   4.389  1.00  0.00     0.031 A 
ATOM     76  C   UNL     1      -4.084 -11.604   5.943  1.00  0.00     0.131 A 
ATOM     77  C   UNL     1      -3.007 -13.523   4.275  1.00  0.00     0.055 A 
ATOM     78  C   UNL     1      -2.699 -11.677   5.782  1.00  0.00     0.041 A 
ATOM     79  F   UNL     1      -4.564 -10.671   6.781  1.00  0.00    -0.206 F 
ATOM     80  C   UNL     1      -2.153 -12.651   4.953  1.00  0.00     0.022 A 
BRANCH  77  81
ATOM     81  S   UNL     1      -2.322 -14.884   3.292  1.00  0.00     0.124 S 
ATOM     82  O   UNL     1      -2.894 -16.048   3.960  1.00  0.00    -0.237 OA
ATOM     83  O   UNL     1      -2.843 -14.587   1.962  1.00  0.00    -0.237 OA
ATOM     84  O   UNL     1      -0.879 -14.721   3.445  1.00  0.00    -0.744 OA
ENDBRANCH  77  81
ENDBRANCH  50  74
BRANCH  62  85
ATOM     85  C   UNL     1      -9.664 -16.919   7.858  1.00  0.00     0.023 A 
ATOM     86  C   UNL     1      -8.906 -17.284   8.984  1.00  0.00     0.031 A 
ATOM     87  C   UNL     1     -10.329 -17.939   7.152  1.00  0.00     0.131 A 
ATOM     88  C   UNL     1      -8.783 -18.637   9.335  1.00  0.00     0.055 A 
ATOM     89  C   UNL     1     -10.261 -19.274   7.548  1.00  0.00     0.041 A 
ATOM     90  F   UNL     1     -11.064 -17.651   6.066  1.00  0.00    -0.206 F 
ATOM     91  C   UNL     1      -9.472 -19.632   8.637  1.00  0.00     0.022 A 
BRANCH  88  92
ATOM     92  S   UNL     1      -7.625 -19.091  10.655  1.00  0.00     0.124 S 
ATOM     93  O   UNL     1      -6.365 -18.556  10.149  1.00  0.00    -0.237 OA
ATOM     94  O   UNL     1      -8.188 -18.408  11.815  1.00  0.00    -0.237 OA
ATOM     95  O   UNL     1      -7.707 -20.550  10.695  1.00  0.00    -0.744 OA
ENDBRANCH  88  92
ENDBRANCH  62  85
ENDBRANCH  36  37
ENDBRANCH  29  31
ENDBRANCH  28  29
ENDBRANCH  27  28
ENDBRANCH  26  27
ENDBRANCH  25  26
ENDBRANCH  24  25
ENDBRANCH   1  24
TORSDOF 26
