REMARK SMILES C[NH2+]C[C@H](C)C(=O)N1CCc2cc(C(=O)OCCOCCOCCOCCOC(=O)c3ccc(-c4c5nc(c(-c6cc(S(=O)(=O)[O-])ccc6F)c6ccc([nH]6)c(-c6cc(S(=O)(=O)[O-])ccc6F)c6nc(c(-c7cc(S(=O)(=O)[O-])ccc7F)c7ccc4[nH]7)C=C6)C=C5)cc3)ccc21
REMARK SMILES IDX 21 1 20 2 19 3 18 4 17 5 16 6 14 7 15 8 13 9 8 10 9 11 96 12
REMARK SMILES IDX 10 13 11 14 95 15 12 16 94 17 6 18 7 19 4 20 5 21 3 22 2 23
REMARK SMILES IDX 1 24 22 27 23 28 24 29 25 30 26 31 27 32 28 33 29 34 30 35
REMARK SMILES IDX 31 36 32 37 93 38 33 39 92 40 34 41 35 42 36 43 86 44 37 45
REMARK SMILES IDX 91 46 85 47 87 48 38 49 90 50 84 51 83 52 39 54 71 55 51 56
REMARK SMILES IDX 70 57 52 58 55 59 69 60 88 61 53 62 54 63 68 65 89 66 56 67
REMARK SMILES IDX 40 68 41 69 49 70 42 71 48 72 50 73 47 74 43 75 44 76 45 77
REMARK SMILES IDX 46 78 72 79 73 80 81 81 74 82 80 83 82 84 79 85 75 86 76 87
REMARK SMILES IDX 77 88 78 89 57 90 58 91 66 92 59 93 65 94 67 95 64 96 60 97
REMARK SMILES IDX 61 98 62 99 63 100
REMARK H PARENT 2 25 2 26 87 53 55 64
REMARK Flexibility Score: inf
ROOT
ATOM      1  C   UNL     1      -4.147  -6.765  -1.460  1.00  0.00     0.188 C 
ENDROOT
BRANCH   1   2
ATOM      2  C   UNL     1      -4.757  -7.264  -2.784  1.00  0.00     0.188 C 
BRANCH   2   3
ATOM      3  O   UNL     1      -4.343  -8.563  -3.159  1.00  0.00    -0.376 OA
BRANCH   3   4
ATOM      4  C   UNL     1      -3.237  -8.784  -4.016  1.00  0.00     0.202 C 
BRANCH   4   5
ATOM      5  C   UNL     1      -1.956  -7.932  -4.034  1.00  0.00     0.261 C 
BRANCH   5   6
ATOM      6  O   UNL     1      -2.073  -6.571  -3.632  1.00  0.00    -0.460 OA
BRANCH   6   7
ATOM      7  C   UNL     1      -2.579  -5.688  -4.513  1.00  0.00     0.338 C 
ATOM      8  O   UNL     1      -2.944  -5.908  -5.653  1.00  0.00    -0.246 OA
BRANCH   7   9
ATOM      9  C   UNL     1      -2.821  -4.424  -3.772  1.00  0.00     0.060 A 
ATOM     10  N   UNL     1      -3.716  -0.813  -1.901  1.00  0.00    -0.311 N 
ATOM     11  C   UNL     1      -4.996  -0.476  -2.554  1.00  0.00     0.130 C 
ATOM     12  C   UNL     1      -3.318  -2.075  -2.360  1.00  0.00     0.047 A 
ATOM     13  C   UNL     1      -5.463  -1.709  -3.326  1.00  0.00     0.059 C 
ATOM     14  C   UNL     1      -4.220  -2.539  -3.322  1.00  0.00    -0.022 A 
ATOM     15  C   UNL     1      -2.279  -2.887  -1.966  1.00  0.00     0.027 A 
ATOM     16  C   UNL     1      -3.978  -3.692  -4.057  1.00  0.00     0.021 A 
ATOM     17  C   UNL     1      -2.003  -4.047  -2.693  1.00  0.00     0.018 A 
BRANCH  10  18
ATOM     18  C   UNL     1      -3.077   0.181  -1.194  1.00  0.00     0.235 C 
ATOM     19  O   UNL     1      -3.759   1.090  -0.690  1.00  0.00    -0.274 OA
BRANCH  18  20
ATOM     20  C   UNL     1      -1.552   0.384  -1.204  1.00  0.00     0.131 C 
ATOM     21  C   UNL     1      -0.655  -0.625  -0.507  1.00  0.00     0.024 C 
BRANCH  20  22
ATOM     22  C   UNL     1      -1.048   0.713  -2.624  1.00  0.00     0.273 C 
BRANCH  22  23
ATOM     23  N   UNL     1      -1.076   2.147  -2.954  1.00  0.00    -0.348 N 
ATOM     24  C   UNL     1      -0.032   2.893  -2.258  1.00  0.00     0.330 C 
ATOM     25  H   UNL     1      -0.943   2.256  -3.959  1.00  0.00     0.346 HD
ATOM     26  H   UNL     1      -1.978   2.519  -2.656  1.00  0.00     0.346 HD
ENDBRANCH  22  23
ENDBRANCH  20  22
ENDBRANCH  18  20
ENDBRANCH  10  18
ENDBRANCH   7   9
ENDBRANCH   6   7
ENDBRANCH   5   6
ENDBRANCH   4   5
ENDBRANCH   3   4
ENDBRANCH   2   3
ENDBRANCH   1   2
BRANCH   1  27
ATOM     27  O   UNL     1      -2.961  -7.435  -1.071  1.00  0.00    -0.377 OA
BRANCH  27  28
ATOM     28  C   UNL     1      -3.063  -8.755  -0.530  1.00  0.00     0.188 C 
BRANCH  28  29
ATOM     29  C   UNL     1      -4.372  -9.585  -0.579  1.00  0.00     0.188 C 
BRANCH  29  30
ATOM     30  O   UNL     1      -5.568  -8.820  -0.533  1.00  0.00    -0.376 OA
BRANCH  30  31
ATOM     31  C   UNL     1      -6.331  -8.833   0.659  1.00  0.00     0.202 C 
BRANCH  31  32
ATOM     32  C   UNL     1      -5.692  -8.160   1.881  1.00  0.00     0.261 C 
BRANCH  32  33
ATOM     33  O   UNL     1      -4.404  -8.659   2.265  1.00  0.00    -0.460 OA
BRANCH  33  34
ATOM     34  C   UNL     1      -4.346  -9.945   2.676  1.00  0.00     0.338 C 
ATOM     35  O   UNL     1      -5.280 -10.726   2.768  1.00  0.00    -0.246 OA
BRANCH  34  36
ATOM     36  C   UNL     1      -2.921 -10.309   2.807  1.00  0.00     0.060 A 
ATOM     37  C   UNL     1      -2.409 -11.353   2.027  1.00  0.00     0.016 A 
ATOM     38  C   UNL     1      -2.093  -9.607   3.687  1.00  0.00     0.016 A 
ATOM     39  C   UNL     1      -1.070 -11.723   2.152  1.00  0.00     0.010 A 
ATOM     40  C   UNL     1      -0.757  -9.991   3.823  1.00  0.00     0.010 A 
ATOM     41  C   UNL     1      -0.248 -11.072   3.081  1.00  0.00    -0.014 A 
BRANCH  41  42
ATOM     42  C   UNL     1       1.079 -11.645   3.417  1.00  0.00     0.031 A 
ATOM     43  C   UNL     1       1.199 -12.483   4.661  1.00  0.00     0.074 A 
ATOM     44  C   UNL     1       2.149 -11.443   2.630  1.00  0.00     0.049 A 
ATOM     45  N   UNL     1       2.253 -13.047   5.188  1.00  0.00    -0.248 NA
ATOM     46  C   UNL     1      -0.045 -12.701   5.414  1.00  0.00     0.031 C 
ATOM     47  C   UNL     1       2.146 -10.685   1.381  1.00  0.00     0.029 A 
ATOM     48  N   UNL     1       3.451 -11.854   2.773  1.00  0.00    -0.354 N 
ATOM     49  C   UNL     1       1.804 -13.680   6.343  1.00  0.00     0.074 A 
ATOM     50  C   UNL     1       0.390 -13.389   6.457  1.00  0.00     0.031 C 
ATOM     51  C   UNL     1       3.392 -10.674   0.877  1.00  0.00     0.029 A 
ATOM     52  C   UNL     1       4.288 -11.387   1.788  1.00  0.00     0.049 A 
ATOM     53  H   UNL     1       3.756 -12.429   3.511  1.00  0.00     0.167 HD
ATOM     54  C   UNL     1       2.505 -14.438   7.222  1.00  0.00     0.034 A 
ATOM     55  C   UNL     1       5.626 -11.494   1.654  1.00  0.00     0.034 A 
ATOM     56  C   UNL     1       3.920 -14.699   7.099  1.00  0.00     0.049 A 
ATOM     57  C   UNL     1       6.407 -12.268   2.689  1.00  0.00     0.074 A 
ATOM     58  C   UNL     1       4.726 -15.474   7.912  1.00  0.00     0.029 A 
ATOM     59  N   UNL     1       4.745 -14.170   6.113  1.00  0.00    -0.354 N 
ATOM     60  N   UNL     1       5.972 -12.883   3.765  1.00  0.00    -0.248 NA
ATOM     61  C   UNL     1       7.857 -12.368   2.486  1.00  0.00     0.031 C 
ATOM     62  C   UNL     1       6.049 -15.338   7.476  1.00  0.00     0.029 A 
ATOM     63  C   UNL     1       6.059 -14.561   6.328  1.00  0.00     0.049 A 
ATOM     64  H   UNL     1       4.441 -13.600   5.370  1.00  0.00     0.167 HD
ATOM     65  C   UNL     1       7.093 -13.466   4.352  1.00  0.00     0.074 A 
ATOM     66  C   UNL     1       8.220 -13.139   3.501  1.00  0.00     0.031 C 
ATOM     67  C   UNL     1       7.182 -14.211   5.486  1.00  0.00     0.034 A 
BRANCH  54  68
ATOM     68  C   UNL     1       1.758 -14.971   8.423  1.00  0.00     0.023 A 
ATOM     69  C   UNL     1       0.655 -15.834   8.292  1.00  0.00     0.031 A 
ATOM     70  C   UNL     1       2.115 -14.557   9.719  1.00  0.00     0.131 A 
ATOM     71  C   UNL     1      -0.107 -16.173   9.421  1.00  0.00     0.055 A 
ATOM     72  C   UNL     1       1.411 -14.979  10.849  1.00  0.00     0.041 A 
ATOM     73  F   UNL     1       3.141 -13.713   9.909  1.00  0.00    -0.206 F 
ATOM     74  C   UNL     1       0.279 -15.775  10.702  1.00  0.00     0.022 A 
BRANCH  71  75
ATOM     75  S   UNL     1      -1.714 -16.979   9.168  1.00  0.00     0.124 S 
ATOM     76  O   UNL     1      -2.379 -16.035   8.272  1.00  0.00    -0.237 OA
ATOM     77  O   UNL     1      -1.336 -18.259   8.583  1.00  0.00    -0.237 OA
ATOM     78  O   UNL     1      -2.278 -17.048  10.515  1.00  0.00    -0.744 OA
ENDBRANCH  71  75
ENDBRANCH  54  68
BRANCH  55  79
ATOM     79  C   UNL     1       6.319 -10.813   0.522  1.00  0.00     0.023 A 
ATOM     80  C   UNL     1       6.990 -11.540  -0.473  1.00  0.00     0.031 A 
ATOM     81  C   UNL     1       6.334  -9.408   0.436  1.00  0.00     0.131 A 
ATOM     82  C   UNL     1       7.671 -10.860  -1.496  1.00  0.00     0.055 A 
ATOM     83  C   UNL     1       6.968  -8.738  -0.612  1.00  0.00     0.041 A 
ATOM     84  F   UNL     1       5.712  -8.664   1.365  1.00  0.00    -0.206 F 
ATOM     85  C   UNL     1       7.649  -9.465  -1.582  1.00  0.00     0.022 A 
BRANCH  82  86
ATOM     86  S   UNL     1       8.642 -11.823  -2.688  1.00  0.00     0.124 S 
ATOM     87  O   UNL     1       9.611 -12.481  -1.819  1.00  0.00    -0.237 OA
ATOM     88  O   UNL     1       7.625 -12.683  -3.284  1.00  0.00    -0.237 OA
ATOM     89  O   UNL     1       9.193 -10.804  -3.580  1.00  0.00    -0.744 OA
ENDBRANCH  82  86
ENDBRANCH  55  79
BRANCH  67  90
ATOM     90  C   UNL     1       8.544 -14.759   5.850  1.00  0.00     0.023 A 
ATOM     91  C   UNL     1       9.619 -13.920   6.191  1.00  0.00     0.031 A 
ATOM     92  C   UNL     1       8.769 -16.149   5.850  1.00  0.00     0.131 A 
ATOM     93  C   UNL     1      10.883 -14.472   6.456  1.00  0.00     0.055 A 
ATOM     94  C   UNL     1      10.009 -16.695   6.187  1.00  0.00     0.041 A 
ATOM     95  F   UNL     1       7.784 -17.002   5.528  1.00  0.00    -0.206 F 
ATOM     96  C   UNL     1      11.078 -15.855   6.478  1.00  0.00     0.022 A 
BRANCH  93  97
ATOM     97  S   UNL     1      12.297 -13.355   6.662  1.00  0.00     0.124 S 
ATOM     98  O   UNL     1      12.281 -12.613   5.405  1.00  0.00    -0.237 OA
ATOM     99  O   UNL     1      11.928 -12.599   7.854  1.00  0.00    -0.237 OA
ATOM    100  O   UNL     1      13.430 -14.263   6.830  1.00  0.00    -0.744 OA
ENDBRANCH  93  97
ENDBRANCH  67  90
ENDBRANCH  41  42
ENDBRANCH  34  36
ENDBRANCH  33  34
ENDBRANCH  32  33
ENDBRANCH  31  32
ENDBRANCH  30  31
ENDBRANCH  29  30
ENDBRANCH  28  29
ENDBRANCH  27  28
ENDBRANCH   1  27
TORSDOF 27
