REMARK SMILES C[NH2+][C@@]1(C(=O)OCCOCCOCCOCCOC(=O)c2ccc(-c3c4nc(c(-c5cc(S(=O)(=O)[O-])ccc5F)c5ccc([nH]5)c(-c5cc(S(=O)(=O)[O-])ccc5F)c5nc(c(-c6cc(S(=O)(=O)[O-])ccc6F)c6ccc3[nH]6)C=C5)C=C4)cc2)CCC[C@H]1CCOC
REMARK SMILES IDX 12 1 11 2 10 3 9 4 8 5 7 6 6 7 4 8 5 9 3 10 84 11 87 12
REMARK SMILES IDX 85 13 86 14 2 15 1 16 88 19 89 20 90 21 91 22 13 23 14 24
REMARK SMILES IDX 15 25 16 26 17 27 18 28 19 29 20 30 21 31 22 32 83 33 23 34
REMARK SMILES IDX 82 35 24 36 25 37 26 38 76 39 27 40 81 41 75 42 77 43 28 44
REMARK SMILES IDX 80 45 74 46 73 47 29 49 61 50 41 51 60 52 42 53 45 54 59 55
REMARK SMILES IDX 78 56 43 57 44 58 58 60 79 61 46 62 30 63 31 64 39 65 32 66
REMARK SMILES IDX 38 67 40 68 37 69 33 70 34 71 35 72 36 73 62 74 63 75 71 76
REMARK SMILES IDX 64 77 70 78 72 79 69 80 65 81 66 82 67 83 68 84 47 85 48 86
REMARK SMILES IDX 56 87 49 88 55 89 57 90 54 91 50 92 51 93 52 94 53 95
REMARK H PARENT 2 17 2 18 77 48 45 59
REMARK Flexibility Score: inf
ROOT
ATOM      1  O   UNL     1      -2.834  -1.503   1.497  1.00  0.00    -0.377 OA
ENDROOT
BRANCH   1   2
ATOM      2  C   UNL     1      -1.464  -1.459   1.172  1.00  0.00     0.188 C 
BRANCH   2   3
ATOM      3  C   UNL     1      -0.583  -0.608   2.094  1.00  0.00     0.188 C 
BRANCH   3   4
ATOM      4  O   UNL     1      -1.143   0.341   2.991  1.00  0.00    -0.376 OA
BRANCH   4   5
ATOM      5  C   UNL     1      -2.458   0.833   2.784  1.00  0.00     0.202 C 
BRANCH   5   6
ATOM      6  C   UNL     1      -2.784   1.605   1.489  1.00  0.00     0.261 C 
BRANCH   6   7
ATOM      7  O   UNL     1      -2.337   1.036   0.235  1.00  0.00    -0.459 OA
BRANCH   7   8
ATOM      8  C   UNL     1      -1.327   1.683  -0.397  1.00  0.00     0.368 C 
ATOM      9  O   UNL     1      -0.791   2.699   0.051  1.00  0.00    -0.245 OA
BRANCH   8  10
ATOM     10  C   UNL     1      -0.896   1.085  -1.807  1.00  0.00     0.197 C 
ATOM     11  C   UNL     1      -1.603   2.012  -2.821  1.00  0.00     0.081 C 
ATOM     12  C   UNL     1      -1.393  -0.316  -2.317  1.00  0.00     0.065 C 
ATOM     13  C   UNL     1      -3.013   1.443  -2.924  1.00  0.00     0.008 C 
ATOM     14  C   UNL     1      -2.870  -0.059  -2.706  1.00  0.00     0.011 C 
BRANCH  10  15
ATOM     15  N   UNL     1       0.581   1.264  -1.942  1.00  0.00    -0.334 N 
ATOM     16  C   UNL     1       1.352   0.697  -0.834  1.00  0.00     0.331 C 
ATOM     17  H   UNL     1       0.882   0.814  -2.806  1.00  0.00     0.347 HD
ATOM     18  H   UNL     1       0.758   2.269  -1.941  1.00  0.00     0.347 HD
ENDBRANCH  10  15
BRANCH  12  19
ATOM     19  C   UNL     1      -0.667  -0.930  -3.559  1.00  0.00     0.039 C 
BRANCH  19  20
ATOM     20  C   UNL     1       0.699  -1.598  -3.344  1.00  0.00     0.160 C 
BRANCH  20  21
ATOM     21  O   UNL     1       0.627  -2.986  -3.010  1.00  0.00    -0.385 OA
ATOM     22  C   UNL     1       0.288  -3.257  -1.662  1.00  0.00     0.194 C 
ENDBRANCH  20  21
ENDBRANCH  19  20
ENDBRANCH  12  19
ENDBRANCH   8  10
ENDBRANCH   7   8
ENDBRANCH   6   7
ENDBRANCH   5   6
ENDBRANCH   4   5
ENDBRANCH   3   4
ENDBRANCH   2   3
ENDBRANCH   1   2
BRANCH   1  23
ATOM     23  C   UNL     1      -3.273  -2.639   2.222  1.00  0.00     0.188 C 
BRANCH  23  24
ATOM     24  C   UNL     1      -2.327  -3.143   3.321  1.00  0.00     0.188 C 
BRANCH  24  25
ATOM     25  O   UNL     1      -1.052  -3.534   2.810  1.00  0.00    -0.376 OA
BRANCH  25  26
ATOM     26  C   UNL     1      -0.825  -4.914   2.556  1.00  0.00     0.202 C 
BRANCH  26  27
ATOM     27  C   UNL     1      -1.565  -5.548   1.365  1.00  0.00     0.261 C 
BRANCH  27  28
ATOM     28  O   UNL     1      -3.000  -5.543   1.409  1.00  0.00    -0.460 OA
BRANCH  28  29
ATOM     29  C   UNL     1      -3.611  -6.056   2.498  1.00  0.00     0.338 C 
ATOM     30  O   UNL     1      -3.074  -6.615   3.437  1.00  0.00    -0.246 OA
BRANCH  29  31
ATOM     31  C   UNL     1      -5.020  -5.606   2.467  1.00  0.00     0.060 A 
ATOM     32  C   UNL     1      -5.527  -4.908   3.572  1.00  0.00     0.016 A 
ATOM     33  C   UNL     1      -5.825  -5.837   1.348  1.00  0.00     0.016 A 
ATOM     34  C   UNL     1      -6.849  -4.465   3.573  1.00  0.00     0.010 A 
ATOM     35  C   UNL     1      -7.159  -5.419   1.362  1.00  0.00     0.010 A 
ATOM     36  C   UNL     1      -7.685  -4.761   2.488  1.00  0.00    -0.014 A 
BRANCH  36  37
ATOM     37  C   UNL     1      -9.152  -4.607   2.644  1.00  0.00     0.031 A 
ATOM     38  C   UNL     1      -9.934  -5.811   3.097  1.00  0.00     0.074 A 
ATOM     39  C   UNL     1      -9.768  -3.431   2.430  1.00  0.00     0.049 A 
ATOM     40  N   UNL     1     -11.220  -5.951   3.277  1.00  0.00    -0.248 NA
ATOM     41  C   UNL     1      -9.149  -7.022   3.384  1.00  0.00     0.031 C 
ATOM     42  C   UNL     1      -9.105  -2.187   2.046  1.00  0.00     0.029 A 
ATOM     43  N   UNL     1     -11.097  -3.096   2.506  1.00  0.00    -0.354 N 
ATOM     44  C   UNL     1     -11.399  -7.264   3.699  1.00  0.00     0.074 A 
ATOM     45  C   UNL     1     -10.095  -7.888   3.707  1.00  0.00     0.031 C 
ATOM     46  C   UNL     1     -10.034  -1.223   1.910  1.00  0.00     0.029 A 
ATOM     47  C   UNL     1     -11.359  -1.791   2.158  1.00  0.00     0.049 A 
ATOM     48  H   UNL     1     -11.797  -3.730   2.783  1.00  0.00     0.167 HD
ATOM     49  C   UNL     1     -12.547  -7.890   4.055  1.00  0.00     0.034 A 
ATOM     50  C   UNL     1     -12.536  -1.143   2.030  1.00  0.00     0.034 A 
ATOM     51  C   UNL     1     -13.842  -7.259   4.016  1.00  0.00     0.049 A 
ATOM     52  C   UNL     1     -13.816  -1.892   2.330  1.00  0.00     0.074 A 
ATOM     53  C   UNL     1     -15.073  -7.795   4.348  1.00  0.00     0.029 A 
ATOM     54  N   UNL     1     -14.076  -5.952   3.604  1.00  0.00    -0.354 N 
ATOM     55  N   UNL     1     -13.975  -3.134   2.730  1.00  0.00    -0.248 NA
ATOM     56  C   UNL     1     -15.073  -1.150   2.167  1.00  0.00     0.031 C 
ATOM     57  C   UNL     1     -16.056  -6.842   4.063  1.00  0.00     0.029 A 
ATOM     58  C   UNL     1     -15.434  -5.678   3.638  1.00  0.00     0.049 A 
ATOM     59  H   UNL     1     -13.379  -5.315   3.327  1.00  0.00     0.167 HD
ATOM     60  C   UNL     1     -15.348  -3.307   2.900  1.00  0.00     0.074 A 
ATOM     61  C   UNL     1     -15.968  -2.040   2.571  1.00  0.00     0.031 C 
ATOM     62  C   UNL     1     -16.035  -4.409   3.298  1.00  0.00     0.034 A 
BRANCH  49  63
ATOM     63  C   UNL     1     -12.447  -9.343   4.451  1.00  0.00     0.023 A 
ATOM     64  C   UNL     1     -11.718  -9.756   5.582  1.00  0.00     0.031 A 
ATOM     65  C   UNL     1     -13.050 -10.336   3.659  1.00  0.00     0.131 A 
ATOM     66  C   UNL     1     -11.549 -11.124   5.845  1.00  0.00     0.055 A 
ATOM     67  C   UNL     1     -12.948 -11.692   3.974  1.00  0.00     0.041 A 
ATOM     68  F   UNL     1     -13.733 -10.006   2.552  1.00  0.00    -0.206 F 
ATOM     69  C   UNL     1     -12.181 -12.094   5.064  1.00  0.00     0.022 A 
BRANCH  66  70
ATOM     70  S   UNL     1     -10.366 -11.620   7.127  1.00  0.00     0.124 S 
ATOM     71  O   UNL     1      -9.129 -11.015   6.638  1.00  0.00    -0.237 OA
ATOM     72  O   UNL     1     -10.936 -11.025   8.330  1.00  0.00    -0.237 OA
ATOM     73  O   UNL     1     -10.399 -13.081   7.077  1.00  0.00    -0.744 OA
ENDBRANCH  66  70
ENDBRANCH  49  63
BRANCH  50  74
ATOM     74  C   UNL     1     -12.579   0.271   1.554  1.00  0.00     0.023 A 
ATOM     75  C   UNL     1     -13.104   1.298   2.357  1.00  0.00     0.031 A 
ATOM     76  C   UNL     1     -12.155   0.607   0.255  1.00  0.00     0.131 A 
ATOM     77  C   UNL     1     -13.235   2.596   1.837  1.00  0.00     0.055 A 
ATOM     78  C   UNL     1     -12.235   1.911  -0.237  1.00  0.00     0.041 A 
ATOM     79  F   UNL     1     -11.652  -0.335  -0.560  1.00  0.00    -0.206 F 
ATOM     80  C   UNL     1     -12.791   2.913   0.552  1.00  0.00     0.022 A 
BRANCH  77  81
ATOM     81  S   UNL     1     -14.084   3.851   2.836  1.00  0.00     0.124 S 
ATOM     82  O   UNL     1     -15.388   3.232   3.044  1.00  0.00    -0.237 OA
ATOM     83  O   UNL     1     -13.220   3.940   4.008  1.00  0.00    -0.237 OA
ATOM     84  O   UNL     1     -14.083   5.031   1.972  1.00  0.00    -0.744 OA
ENDBRANCH  77  81
ENDBRANCH  50  74
BRANCH  62  85
ATOM     85  C   UNL     1     -17.532  -4.274   3.449  1.00  0.00     0.023 A 
ATOM     86  C   UNL     1     -18.374  -4.048   2.346  1.00  0.00     0.031 A 
ATOM     87  C   UNL     1     -18.124  -4.375   4.721  1.00  0.00     0.131 A 
ATOM     88  C   UNL     1     -19.753  -3.873   2.543  1.00  0.00     0.055 A 
ATOM     89  C   UNL     1     -19.503  -4.267   4.903  1.00  0.00     0.041 A 
ATOM     90  F   UNL     1     -17.369  -4.588   5.811  1.00  0.00    -0.206 F 
ATOM     91  C   UNL     1     -20.325  -4.001   3.811  1.00  0.00     0.022 A 
BRANCH  88  92
ATOM     92  S   UNL     1     -20.779  -3.381   1.131  1.00  0.00     0.124 S 
ATOM     93  O   UNL     1     -20.143  -2.135   0.714  1.00  0.00    -0.237 OA
ATOM     94  O   UNL     1     -20.624  -4.511   0.222  1.00  0.00    -0.237 OA
ATOM     95  O   UNL     1     -22.113  -3.232   1.712  1.00  0.00    -0.744 OA
ENDBRANCH  88  92
ENDBRANCH  62  85
ENDBRANCH  36  37
ENDBRANCH  29  31
ENDBRANCH  28  29
ENDBRANCH  27  28
ENDBRANCH  26  27
ENDBRANCH  25  26
ENDBRANCH  24  25
ENDBRANCH  23  24
ENDBRANCH   1  23
TORSDOF 27
