REMARK SMILES Cc1cccc(S(=O)(=O)Nc2cc(C(=O)OCCOCCOCCOCCOC(=O)c3ccc(-c4c5nc(c(-c6cc(S(=O)(=O)[O-])ccc6F)c6ccc([nH]6)c(-c6cc(S(=O)(=O)[O-])ccc6F)c6nc(c(-c7cc(S(=O)(=O)[O-])ccc7F)c7ccc4[nH]7)C=C6)C=C5)cc3)ccc2N2CCC[C@H](C[NH+]3CCCC3)C2)c1
REMARK SMILES IDX 22 1 21 2 20 3 19 4 18 5 17 6 16 7 14 8 15 9 13 10 11 11
REMARK SMILES IDX 12 12 96 13 95 14 94 15 10 16 7 18 8 19 9 20 6 21 1 22 2 23
REMARK SMILES IDX 3 24 109 25 4 26 5 27 97 28 98 29 108 30 99 31 101 32 100 33
REMARK SMILES IDX 102 34 103 35 104 36 107 37 105 39 106 40 23 41 24 42 25 43
REMARK SMILES IDX 26 44 27 45 28 46 29 47 30 48 31 49 32 50 93 51 33 52 92 53
REMARK SMILES IDX 34 54 35 55 36 56 86 57 37 58 91 59 85 60 87 61 38 62 90 63
REMARK SMILES IDX 84 64 83 65 39 67 71 68 51 69 70 70 52 71 55 72 69 73 88 74
REMARK SMILES IDX 53 75 54 76 68 78 89 79 56 80 40 81 41 82 49 83 42 84 48 85
REMARK SMILES IDX 50 86 47 87 43 88 44 89 45 90 46 91 72 92 73 93 81 94 74 95
REMARK SMILES IDX 80 96 82 97 79 98 75 99 76 100 77 101 78 102 57 103 58 104
REMARK SMILES IDX 66 105 59 106 65 107 67 108 64 109 60 110 61 111 62 112
REMARK SMILES IDX 63 113
REMARK H PARENT 10 17 103 38 87 66 55 77
REMARK Flexibility Score: inf
ROOT
ATOM      1  O   UNL     1       3.387   3.721  -3.430  1.00  0.00    -0.377 OA
ENDROOT
BRANCH   1   2
ATOM      2  C   UNL     1       4.801   3.591  -3.227  1.00  0.00     0.188 C 
BRANCH   2   3
ATOM      3  C   UNL     1       5.797   2.658  -4.228  1.00  0.00     0.188 C 
BRANCH   3   4
ATOM      4  O   UNL     1       6.163   0.933  -4.335  1.00  0.00    -0.376 OA
BRANCH   4   5
ATOM      5  C   UNL     1       5.331  -0.581  -3.936  1.00  0.00     0.202 C 
BRANCH   5   6
ATOM      6  C   UNL     1       4.033  -0.921  -2.603  1.00  0.00     0.261 C 
BRANCH   6   7
ATOM      7  O   UNL     1       3.631   0.159  -1.186  1.00  0.00    -0.460 OA
BRANCH   7   8
ATOM      8  C   UNL     1       3.998   1.335  -0.330  1.00  0.00     0.338 C 
ATOM      9  O   UNL     1       5.154   1.648  -0.008  1.00  0.00    -0.246 OA
BRANCH   8  10
ATOM     10  C   UNL     1       3.027   2.499   0.244  1.00  0.00     0.062 A 
ATOM     11  C   UNL     1       0.993   3.993   0.383  1.00  0.00     0.073 A 
ATOM     12  C   UNL     1       1.827   3.070  -0.257  1.00  0.00     0.044 A 
ATOM     13  C   UNL     1       1.558   4.757   1.389  1.00  0.00     0.061 A 
ATOM     14  C   UNL     1       2.880   4.446   1.749  1.00  0.00     0.029 A 
ATOM     15  C   UNL     1       3.553   3.296   1.267  1.00  0.00     0.018 A 
BRANCH  11  16
ATOM     16  N   UNL     1      -0.333   4.280  -0.163  1.00  0.00    -0.277 N 
ATOM     17  H   UNL     1      -0.394   4.923  -0.906  1.00  0.00     0.180 HD
BRANCH  16  18
ATOM     18  S   UNL     1      -1.800   3.567   0.404  1.00  0.00     0.261 S 
ATOM     19  O   UNL     1      -2.678   3.461  -0.744  1.00  0.00    -0.201 OA
ATOM     20  O   UNL     1      -2.260   4.341   1.542  1.00  0.00    -0.201 OA
BRANCH  18  21
ATOM     21  C   UNL     1      -1.552   1.926   1.010  1.00  0.00     0.088 A 
ATOM     22  C   UNL     1       1.258   0.114   2.608  1.00  0.00     0.044 C 
ATOM     23  C   UNL     1      -0.119   0.351   2.105  1.00  0.00    -0.050 A 
ATOM     24  C   UNL     1      -0.954  -0.702   1.726  1.00  0.00     0.003 A 
ATOM     25  C   UNL     1      -0.461   1.662   1.811  1.00  0.00     0.025 A 
ATOM     26  C   UNL     1      -2.139  -0.429   1.050  1.00  0.00     0.002 A 
ATOM     27  C   UNL     1      -2.430   0.886   0.668  1.00  0.00     0.022 A 
ENDBRANCH  18  21
ENDBRANCH  16  18
ENDBRANCH  11  16
BRANCH  13  28
ATOM     28  N   UNL     1       0.847   5.808   1.935  1.00  0.00    -0.369 N 
ATOM     29  C   UNL     1       1.310   7.178   1.799  1.00  0.00     0.116 C 
ATOM     30  C   UNL     1      -0.098   5.495   3.001  1.00  0.00     0.126 C 
ATOM     31  C   UNL     1       1.813   7.702   3.141  1.00  0.00     0.022 C 
ATOM     32  C   UNL     1       0.450   5.919   4.367  1.00  0.00     0.064 C 
ATOM     33  C   UNL     1       0.813   7.411   4.265  1.00  0.00     0.013 C 
BRANCH  32  34
ATOM     34  C   UNL     1       1.587   4.957   4.800  1.00  0.00     0.267 C 
BRANCH  34  35
ATOM     35  N   UNL     1       2.066   4.933   6.179  1.00  0.00    -0.335 N 
ATOM     36  C   UNL     1       1.057   4.613   7.176  1.00  0.00     0.262 C 
ATOM     37  C   UNL     1       2.788   6.118   6.620  1.00  0.00     0.262 C 
ATOM     38  H   UNL     1       2.731   4.162   6.122  1.00  0.00     0.348 HD
ATOM     39  C   UNL     1       0.638   5.957   7.734  1.00  0.00     0.067 C 
ATOM     40  C   UNL     1       1.900   6.801   7.653  1.00  0.00     0.067 C 
ENDBRANCH  34  35
ENDBRANCH  32  34
ENDBRANCH  13  28
ENDBRANCH   8  10
ENDBRANCH   7   8
ENDBRANCH   6   7
ENDBRANCH   5   6
ENDBRANCH   4   5
ENDBRANCH   3   4
ENDBRANCH   2   3
ENDBRANCH   1   2
BRANCH   1  41
ATOM     41  C   UNL     1       2.824   4.456  -4.503  1.00  0.00     0.188 C 
BRANCH  41  42
ATOM     42  C   UNL     1       3.671   4.529  -5.732  1.00  0.00     0.188 C 
BRANCH  42  43
ATOM     43  O   UNL     1       4.791   5.377  -5.558  1.00  0.00    -0.376 OA
BRANCH  43  44
ATOM     44  C   UNL     1       5.071   6.243  -6.647  1.00  0.00     0.202 C 
BRANCH  44  45
ATOM     45  C   UNL     1       4.639   5.801  -8.063  1.00  0.00     0.261 C 
BRANCH  45  46
ATOM     46  O   UNL     1       5.059   4.443  -8.318  1.00  0.00    -0.460 OA
BRANCH  46  47
ATOM     47  C   UNL     1       4.127   3.634  -8.933  1.00  0.00     0.338 C 
ATOM     48  O   UNL     1       3.346   3.970  -9.780  1.00  0.00    -0.246 OA
BRANCH  47  49
ATOM     49  C   UNL     1       4.086   2.363  -8.143  1.00  0.00     0.060 A 
ATOM     50  C   UNL     1       2.898   1.883  -7.620  1.00  0.00     0.016 A 
ATOM     51  C   UNL     1       5.225   1.818  -7.624  1.00  0.00     0.016 A 
ATOM     52  C   UNL     1       2.881   1.259  -6.328  1.00  0.00     0.010 A 
ATOM     53  C   UNL     1       5.135   1.120  -6.399  1.00  0.00     0.010 A 
ATOM     54  C   UNL     1       4.000   1.149  -5.480  1.00  0.00    -0.014 A 
BRANCH  54  55
ATOM     55  C   UNL     1       3.931   1.210  -3.619  1.00  0.00     0.031 A 
ATOM     56  C   UNL     1       5.502   0.999  -2.387  1.00  0.00     0.074 A 
ATOM     57  C   UNL     1       2.536   1.219  -3.270  1.00  0.00     0.049 A 
ATOM     58  N   UNL     1       5.709  -0.100  -1.599  1.00  0.00    -0.248 NA
ATOM     59  C   UNL     1       7.098   1.423  -2.365  1.00  0.00     0.031 C 
ATOM     60  C   UNL     1       1.760   1.122  -2.018  1.00  0.00     0.029 A 
ATOM     61  N   UNL     1       1.397   1.185  -4.102  1.00  0.00    -0.354 N 
ATOM     62  C   UNL     1       6.891  -0.321  -0.972  1.00  0.00     0.074 A 
ATOM     63  C   UNL     1       7.787   0.517  -1.653  1.00  0.00     0.031 C 
ATOM     64  C   UNL     1       0.436   1.104  -2.095  1.00  0.00     0.029 A 
ATOM     65  C   UNL     1       0.254   0.728  -3.412  1.00  0.00     0.049 A 
ATOM     66  H   UNL     1       1.399   1.449  -5.050  1.00  0.00     0.167 HD
ATOM     67  C   UNL     1       7.004  -1.157   0.098  1.00  0.00     0.034 A 
ATOM     68  C   UNL     1      -0.306  -0.486  -3.600  1.00  0.00     0.034 A 
ATOM     69  C   UNL     1       5.702  -1.520   0.672  1.00  0.00     0.049 A 
ATOM     70  C   UNL     1       0.212  -1.594  -2.571  1.00  0.00     0.074 A 
ATOM     71  C   UNL     1       5.051  -1.069   1.800  1.00  0.00     0.029 A 
ATOM     72  N   UNL     1       4.757  -2.297  -0.004  1.00  0.00    -0.354 N 
ATOM     73  N   UNL     1       1.282  -1.551  -1.770  1.00  0.00    -0.248 NA
ATOM     74  C   UNL     1      -0.549  -2.808  -2.319  1.00  0.00     0.031 C 
ATOM     75  C   UNL     1       3.745  -1.607   1.780  1.00  0.00     0.029 A 
ATOM     76  C   UNL     1       3.462  -2.171   0.534  1.00  0.00     0.049 A 
ATOM     77  H   UNL     1       4.974  -2.870  -0.775  1.00  0.00     0.167 HD
ATOM     78  C   UNL     1       1.370  -2.666  -0.932  1.00  0.00     0.074 A 
ATOM     79  C   UNL     1       0.186  -3.425  -1.373  1.00  0.00     0.031 C 
ATOM     80  C   UNL     1       2.299  -2.987   0.073  1.00  0.00     0.034 A 
BRANCH  67  81
ATOM     81  C   UNL     1       8.330  -1.224   0.834  1.00  0.00     0.023 A 
ATOM     82  C   UNL     1       8.367  -1.086   2.231  1.00  0.00     0.031 A 
ATOM     83  C   UNL     1       9.588  -1.328   0.201  1.00  0.00     0.131 A 
ATOM     84  C   UNL     1       9.576  -0.899   2.923  1.00  0.00     0.055 A 
ATOM     85  C   UNL     1      10.798  -1.113   0.883  1.00  0.00     0.041 A 
ATOM     86  F   UNL     1       9.682  -1.627  -1.106  1.00  0.00    -0.206 F 
ATOM     87  C   UNL     1      10.794  -0.870   2.251  1.00  0.00     0.022 A 
BRANCH  84  88
ATOM     88  S   UNL     1       9.512  -0.672   4.721  1.00  0.00     0.124 S 
ATOM     89  O   UNL     1       8.779   0.583   4.848  1.00  0.00    -0.237 OA
ATOM     90  O   UNL     1       8.811  -1.874   5.161  1.00  0.00    -0.237 OA
ATOM     91  O   UNL     1      10.921  -0.606   5.106  1.00  0.00    -0.744 OA
ENDBRANCH  84  88
ENDBRANCH  67  81
BRANCH  68  92
ATOM     92  C   UNL     1      -0.879  -0.377  -4.986  1.00  0.00     0.023 A 
ATOM     93  C   UNL     1      -1.521   0.890  -5.285  1.00  0.00     0.031 A 
ATOM     94  C   UNL     1      -0.294  -1.053  -6.050  1.00  0.00     0.131 A 
ATOM     95  C   UNL     1      -1.238   1.560  -6.487  1.00  0.00     0.055 A 
ATOM     96  C   UNL     1      -0.177  -0.441  -7.311  1.00  0.00     0.041 A 
ATOM     97  F   UNL     1       0.342  -2.214  -5.842  1.00  0.00    -0.206 F 
ATOM     98  C   UNL     1      -0.592   0.884  -7.515  1.00  0.00     0.022 A 
BRANCH  95  99
ATOM     99  S   UNL     1      -1.218   3.409  -6.500  1.00  0.00     0.124 S 
ATOM    100  O   UNL     1      -2.590   3.738  -6.864  1.00  0.00    -0.237 OA
ATOM    101  O   UNL     1      -0.807   3.736  -5.138  1.00  0.00    -0.237 OA
ATOM    102  O   UNL     1      -0.203   3.723  -7.505  1.00  0.00    -0.744 OA
ENDBRANCH  95  99
ENDBRANCH  68  92
BRANCH  80 103
ATOM    103  C   UNL     1       2.150  -4.248   0.925  1.00  0.00     0.023 A 
ATOM    104  C   UNL     1       0.912  -4.739   1.338  1.00  0.00     0.031 A 
ATOM    105  C   UNL     1       3.287  -4.933   1.434  1.00  0.00     0.131 A 
ATOM    106  C   UNL     1       0.827  -5.959   2.023  1.00  0.00     0.055 A 
ATOM    107  C   UNL     1       3.197  -6.053   2.260  1.00  0.00     0.041 A 
ATOM    108  F   UNL     1       4.539  -4.563   1.127  1.00  0.00    -0.206 F 
ATOM    109  C   UNL     1       1.957  -6.607   2.516  1.00  0.00     0.022 A 
BRANCH 106 110
ATOM    110  S   UNL     1      -0.784  -6.774   2.061  1.00  0.00     0.124 S 
ATOM    111  O   UNL     1      -1.594  -5.832   2.823  1.00  0.00    -0.237 OA
ATOM    112  O   UNL     1      -1.095  -6.868   0.635  1.00  0.00    -0.237 OA
ATOM    113  O   UNL     1      -0.510  -8.049   2.719  1.00  0.00    -0.744 OA
ENDBRANCH 106 110
ENDBRANCH  80 103
ENDBRANCH  54  55
ENDBRANCH  47  49
ENDBRANCH  46  47
ENDBRANCH  45  46
ENDBRANCH  44  45
ENDBRANCH  43  44
ENDBRANCH  42  43
ENDBRANCH  41  42
ENDBRANCH   1  41
TORSDOF 29
