REMARK SMILES CC1(C)CC[C@@]2(C(=O)OCCOCCOCCOCCOC(=O)c3ccc(-c4c5nc(c(-c6cc(S(=O)(=O)[O-])ccc6F)c6ccc([nH]6)c(-c6cc(S(=O)(=O)[O-])ccc6F)c6nc(c(-c7cc(S(=O)(=O)[O-])ccc7F)c7ccc4[nH]7)C=C6)C=C5)cc3)CC[C@@]3(C)C(=CC[C@H]4[C@@]5(C)CC[C@H](O)C(C)(C)[C@@H]5CC[C@]43C)[C@@H]2C1
REMARK SMILES IDX 16 1 15 2 14 3 13 4 12 5 11 6 10 7 9 8 7 9 8 10 6 11 1 12
REMARK SMILES IDX 2 13 3 14 4 15 110 16 5 17 109 18 91 19 87 20 89 21 92 22
REMARK SMILES IDX 88 23 90 24 107 25 93 26 94 27 106 28 108 29 95 30 105 31
REMARK SMILES IDX 96 32 97 33 104 34 98 35 101 36 99 37 102 38 103 39 100 40
REMARK SMILES IDX 17 42 18 43 19 44 20 45 21 46 22 47 23 48 24 49 25 50 86 51
REMARK SMILES IDX 26 52 85 53 27 54 28 55 29 56 79 57 30 58 84 59 78 60 80 61
REMARK SMILES IDX 31 62 83 63 77 64 76 65 32 67 64 68 44 69 63 70 45 71 48 72
REMARK SMILES IDX 62 73 81 74 46 75 47 76 61 78 82 79 49 80 33 81 34 82 42 83
REMARK SMILES IDX 35 84 41 85 43 86 40 87 36 88 37 89 38 90 39 91 65 92 66 93
REMARK SMILES IDX 74 94 67 95 73 96 75 97 72 98 68 99 69 100 70 101 71 102
REMARK SMILES IDX 50 103 51 104 59 105 52 106 58 107 60 108 57 109 53 110
REMARK SMILES IDX 54 111 55 112 56 113
REMARK H PARENT 100 41 80 66 48 77
REMARK Flexibility Score: inf
ROOT
ATOM      1  C   UNL     1      -5.119  -5.040  -1.083  1.00  0.00     0.188 C 
ENDROOT
BRANCH   1   2
ATOM      2  O   UNL     1      -3.901  -5.538  -1.616  1.00  0.00    -0.377 OA
BRANCH   2   3
ATOM      3  C   UNL     1      -2.896  -6.112  -0.785  1.00  0.00     0.188 C 
BRANCH   3   4
ATOM      4  C   UNL     1      -2.161  -5.148   0.131  1.00  0.00     0.188 C 
BRANCH   4   5
ATOM      5  O   UNL     1      -1.259  -4.279  -0.556  1.00  0.00    -0.376 OA
BRANCH   5   6
ATOM      6  C   UNL     1      -1.968  -3.471  -1.458  1.00  0.00     0.202 C 
BRANCH   6   7
ATOM      7  C   UNL     1      -1.729  -2.010  -1.419  1.00  0.00     0.261 C 
BRANCH   7   8
ATOM      8  O   UNL     1      -0.900  -1.660  -0.413  1.00  0.00    -0.463 OA
BRANCH   8   9
ATOM      9  C   UNL     1      -1.686  -1.805   0.670  1.00  0.00     0.312 C 
ATOM     10  O   UNL     1      -2.394  -2.686   0.965  1.00  0.00    -0.252 OA
BRANCH   9  11
ATOM     11  C   UNL     1      -1.581  -0.576   1.452  1.00  0.00     0.075 C 
ATOM     12  C   UNL     1       2.379   0.818   1.205  1.00  0.00     0.011 C 
ATOM     13  C   UNL     1       1.268   0.078   0.429  1.00  0.00    -0.035 C 
ATOM     14  C   UNL     1       1.923  -0.259  -0.950  1.00  0.00     0.011 C 
ATOM     15  C   UNL     1       0.976  -1.188   1.270  1.00  0.00     0.007 C 
ATOM     16  C   UNL     1       0.037   1.020   0.148  1.00  0.00     0.015 C 
ATOM     17  C   UNL     1      -0.292  -1.063   2.209  1.00  0.00     0.020 C 
ATOM     18  C   UNL     1      -1.447   0.697   0.597  1.00  0.00     0.033 C 
ATOM     19  C   UNL     1      -2.542   0.886  -0.566  1.00  0.00    -0.063 C 
ATOM     20  C   UNL     1      -3.059  -0.615   1.961  1.00  0.00     0.020 C 
ATOM     21  C   UNL     1      -3.956   0.186  -0.635  1.00  0.00    -0.006 C 
ATOM     22  C   UNL     1      -2.224   1.705  -1.591  1.00  0.00    -0.027 C 
ATOM     23  C   UNL     1      -4.156  -0.763   0.697  1.00  0.00     0.013 C 
ATOM     24  C   UNL     1      -5.002   1.289  -0.126  1.00  0.00     0.017 C 
ATOM     25  C   UNL     1      -4.241  -0.251  -2.462  1.00  0.00    -0.020 C 
ATOM     26  C   UNL     1      -2.172   1.255  -3.045  1.00  0.00     0.032 C 
ATOM     27  C   UNL     1      -2.924  -0.021  -3.438  1.00  0.00     0.006 C 
ATOM     28  C   UNL     1      -4.957  -1.469  -3.295  1.00  0.00     0.008 C 
ATOM     29  C   UNL     1      -5.345   0.874  -2.791  1.00  0.00     0.012 C 
ATOM     30  C   UNL     1      -1.994  -1.298  -4.312  1.00  0.00    -0.025 C 
ATOM     31  C   UNL     1      -4.234  -2.422  -4.478  1.00  0.00     0.005 C 
ATOM     32  C   UNL     1      -2.055  -0.758  -5.763  1.00  0.00     0.012 C 
ATOM     33  C   UNL     1      -0.372  -1.438  -4.140  1.00  0.00     0.010 C 
ATOM     34  C   UNL     1      -2.719  -2.717  -4.274  1.00  0.00     0.003 C 
ATOM     35  C   UNL     1       0.373  -2.720  -4.591  1.00  0.00     0.033 C 
ATOM     36  C   UNL     1      -1.729  -4.129  -4.693  1.00  0.00    -0.006 C 
ATOM     37  C   UNL     1      -0.254  -4.025  -4.123  1.00  0.00     0.120 C 
ATOM     38  C   UNL     1      -1.446  -4.288  -6.163  1.00  0.00     0.014 C 
ATOM     39  C   UNL     1      -2.286  -5.537  -4.318  1.00  0.00     0.014 C 
BRANCH  37  40
ATOM     40  O   UNL     1       0.543  -5.178  -4.486  1.00  0.00    -0.393 OA
ATOM     41  H   UNL     1       0.611  -5.232  -5.452  1.00  0.00     0.210 HD
ENDBRANCH  37  40
ENDBRANCH   9  11
ENDBRANCH   8   9
ENDBRANCH   7   8
ENDBRANCH   6   7
ENDBRANCH   5   6
ENDBRANCH   4   5
ENDBRANCH   3   4
ENDBRANCH   2   3
ENDBRANCH   1   2
BRANCH   1  42
ATOM     42  C   UNL     1      -5.862  -4.329  -2.231  1.00  0.00     0.188 C 
BRANCH  42  43
ATOM     43  O   UNL     1      -6.475  -4.983  -3.352  1.00  0.00    -0.376 OA
BRANCH  43  44
ATOM     44  C   UNL     1      -5.748  -6.027  -3.994  1.00  0.00     0.202 C 
BRANCH  44  45
ATOM     45  C   UNL     1      -5.514  -5.987  -5.557  1.00  0.00     0.261 C 
BRANCH  45  46
ATOM     46  O   UNL     1      -4.711  -4.924  -6.189  1.00  0.00    -0.460 OA
BRANCH  46  47
ATOM     47  C   UNL     1      -4.671  -4.951  -7.576  1.00  0.00     0.338 C 
ATOM     48  O   UNL     1      -5.363  -5.699  -8.253  1.00  0.00    -0.246 OA
BRANCH  47  49
ATOM     49  C   UNL     1      -3.580  -4.110  -8.230  1.00  0.00     0.060 A 
ATOM     50  C   UNL     1      -3.576  -2.707  -8.291  1.00  0.00     0.016 A 
ATOM     51  C   UNL     1      -2.449  -4.756  -8.762  1.00  0.00     0.016 A 
ATOM     52  C   UNL     1      -2.432  -1.970  -8.778  1.00  0.00     0.010 A 
ATOM     53  C   UNL     1      -1.269  -4.020  -9.102  1.00  0.00     0.010 A 
ATOM     54  C   UNL     1      -1.222  -2.599  -9.131  1.00  0.00    -0.014 A 
BRANCH  54  55
ATOM     55  C   UNL     1      -0.033  -1.887  -9.811  1.00  0.00     0.031 A 
ATOM     56  C   UNL     1       0.230  -2.352 -11.237  1.00  0.00     0.074 A 
ATOM     57  C   UNL     1       0.831  -0.940  -9.329  1.00  0.00     0.049 A 
ATOM     58  N   UNL     1       1.246  -2.130 -12.031  1.00  0.00    -0.248 NA
ATOM     59  C   UNL     1      -0.770  -3.274 -11.801  1.00  0.00     0.031 C 
ATOM     60  C   UNL     1       0.843  -0.345  -7.995  1.00  0.00     0.029 A 
ATOM     61  N   UNL     1       1.917  -0.297  -9.937  1.00  0.00    -0.354 N 
ATOM     62  C   UNL     1       1.029  -2.950 -13.133  1.00  0.00     0.074 A 
ATOM     63  C   UNL     1      -0.122  -3.766 -12.837  1.00  0.00     0.031 C 
ATOM     64  C   UNL     1       1.825   0.578  -7.896  1.00  0.00     0.029 A 
ATOM     65  C   UNL     1       2.578   0.644  -9.149  1.00  0.00     0.049 A 
ATOM     66  H   UNL     1       2.196  -0.497 -10.860  1.00  0.00     0.167 HD
ATOM     67  C   UNL     1       1.657  -2.988 -14.329  1.00  0.00     0.034 A 
ATOM     68  C   UNL     1       3.650   1.453  -9.389  1.00  0.00     0.034 A 
ATOM     69  C   UNL     1       2.719  -2.111 -14.717  1.00  0.00     0.049 A 
ATOM     70  C   UNL     1       4.359   1.385 -10.743  1.00  0.00     0.074 A 
ATOM     71  C   UNL     1       3.341  -2.025 -15.948  1.00  0.00     0.029 A 
ATOM     72  N   UNL     1       3.307  -1.165 -13.897  1.00  0.00    -0.354 N 
ATOM     73  N   UNL     1       4.075   0.648 -11.791  1.00  0.00    -0.248 NA
ATOM     74  C   UNL     1       5.531   2.261 -10.950  1.00  0.00     0.031 C 
ATOM     75  C   UNL     1       4.363  -1.081 -15.851  1.00  0.00     0.029 A 
ATOM     76  C   UNL     1       4.310  -0.512 -14.590  1.00  0.00     0.049 A 
ATOM     77  H   UNL     1       3.051  -0.985 -12.964  1.00  0.00     0.167 HD
ATOM     78  C   UNL     1       4.987   1.021 -12.784  1.00  0.00     0.074 A 
ATOM     79  C   UNL     1       5.828   2.048 -12.223  1.00  0.00     0.031 C 
ATOM     80  C   UNL     1       5.115   0.552 -14.050  1.00  0.00     0.034 A 
BRANCH  67  81
ATOM     81  C   UNL     1       1.184  -4.023 -15.315  1.00  0.00     0.023 A 
ATOM     82  C   UNL     1      -0.120  -4.004 -15.839  1.00  0.00     0.031 A 
ATOM     83  C   UNL     1       2.040  -5.070 -15.691  1.00  0.00     0.131 A 
ATOM     84  C   UNL     1      -0.562  -5.067 -16.634  1.00  0.00     0.055 A 
ATOM     85  C   UNL     1       1.625  -6.070 -16.568  1.00  0.00     0.041 A 
ATOM     86  F   UNL     1       3.286  -5.146 -15.197  1.00  0.00    -0.206 F 
ATOM     87  C   UNL     1       0.311  -6.082 -17.031  1.00  0.00     0.022 A 
BRANCH  84  88
ATOM     88  S   UNL     1      -2.331  -5.184 -17.009  1.00  0.00     0.124 S 
ATOM     89  O   UNL     1      -2.902  -5.353 -15.675  1.00  0.00    -0.237 OA
ATOM     90  O   UNL     1      -2.603  -3.908 -17.660  1.00  0.00    -0.237 OA
ATOM     91  O   UNL     1      -2.420  -6.359 -17.873  1.00  0.00    -0.744 OA
ENDBRANCH  84  88
ENDBRANCH  67  81
BRANCH  68  92
ATOM     92  C   UNL     1       4.224   2.411  -8.356  1.00  0.00     0.023 A 
ATOM     93  C   UNL     1       4.373   3.793  -8.624  1.00  0.00     0.031 A 
ATOM     94  C   UNL     1       4.823   1.931  -7.177  1.00  0.00     0.131 A 
ATOM     95  C   UNL     1       5.167   4.609  -7.788  1.00  0.00     0.055 A 
ATOM     96  C   UNL     1       5.550   2.762  -6.311  1.00  0.00     0.041 A 
ATOM     97  F   UNL     1       4.751   0.629  -6.862  1.00  0.00    -0.206 F 
ATOM     98  C   UNL     1       5.745   4.104  -6.625  1.00  0.00     0.022 A 
BRANCH  95  99
ATOM     99  S   UNL     1       5.587   6.301  -8.327  1.00  0.00     0.124 S 
ATOM    100  O   UNL     1       6.220   6.051  -9.616  1.00  0.00    -0.237 OA
ATOM    101  O   UNL     1       4.276   6.941  -8.366  1.00  0.00    -0.237 OA
ATOM    102  O   UNL     1       6.481   6.784  -7.276  1.00  0.00    -0.744 OA
ENDBRANCH  95  99
ENDBRANCH  68  92
BRANCH  80 103
ATOM    103  C   UNL     1       6.119   1.201 -14.975  1.00  0.00     0.023 A 
ATOM    104  C   UNL     1       7.506   1.097 -14.779  1.00  0.00     0.031 A 
ATOM    105  C   UNL     1       5.664   1.876 -16.125  1.00  0.00     0.131 A 
ATOM    106  C   UNL     1       8.387   1.682 -15.704  1.00  0.00     0.055 A 
ATOM    107  C   UNL     1       6.544   2.400 -17.072  1.00  0.00     0.041 A 
ATOM    108  F   UNL     1       4.349   2.006 -16.365  1.00  0.00    -0.206 F 
ATOM    109  C   UNL     1       7.916   2.311 -16.860  1.00  0.00     0.022 A 
BRANCH 106 110
ATOM    110  S   UNL     1      10.167   1.666 -15.351  1.00  0.00     0.124 S 
ATOM    111  O   UNL     1      10.229   2.357 -14.067  1.00  0.00    -0.237 OA
ATOM    112  O   UNL     1      10.468   0.238 -15.322  1.00  0.00    -0.237 OA
ATOM    113  O   UNL     1      10.747   2.397 -16.477  1.00  0.00    -0.744 OA
ENDBRANCH 106 110
ENDBRANCH  80 103
ENDBRANCH  54  55
ENDBRANCH  47  49
ENDBRANCH  46  47
ENDBRANCH  45  46
ENDBRANCH  44  45
ENDBRANCH  43  44
ENDBRANCH  42  43
ENDBRANCH   1  42
TORSDOF 24
