REMARK SMILES CC(C)(C)N(CC(=O)OCCOCCOCCOCCOC(=O)c1ccc(-c2c3nc(c(-c4cc(S(=O)(=O)[O-])ccc4F)c4ccc([nH]4)c(-c4cc(S(=O)(=O)[O-])ccc4F)c4nc(c(-c5cc(S(=O)(=O)[O-])ccc5F)c5ccc2[nH]5)C=C4)C=C3)cc1)C(=O)C1(c2ccccc2)CCC1
REMARK SMILES IDX 14 1 13 2 12 3 11 4 10 5 9 6 7 7 8 8 6 9 5 10 2 11 1 12 3 13
REMARK SMILES IDX 4 14 87 15 88 16 89 17 96 18 98 19 97 20 90 21 91 22 95 23
REMARK SMILES IDX 92 24 94 25 93 26 15 27 16 28 17 29 18 30 19 31 20 32 21 33
REMARK SMILES IDX 22 34 23 35 24 36 25 37 86 38 26 39 85 40 27 41 28 42 29 43
REMARK SMILES IDX 79 44 30 45 84 46 78 47 80 48 31 49 83 50 77 51 76 52 32 54
REMARK SMILES IDX 64 55 44 56 63 57 45 58 48 59 62 60 81 61 46 62 47 63 61 65
REMARK SMILES IDX 82 66 49 67 33 68 34 69 42 70 35 71 41 72 43 73 40 74 36 75
REMARK SMILES IDX 37 76 38 77 39 78 65 79 66 80 74 81 67 82 73 83 75 84 72 85
REMARK SMILES IDX 68 86 69 87 70 88 71 89 50 90 51 91 59 92 52 93 58 94 60 95
REMARK SMILES IDX 57 96 53 97 54 98 55 99 56 100
REMARK H PARENT 80 53 48 64
REMARK Flexibility Score: inf
ROOT
ATOM      1  C   UNL     1       3.344  -3.607   2.587  1.00  0.00     0.188 C 
ENDROOT
BRANCH   1   2
ATOM      2  C   UNL     1       3.913  -4.503   1.455  1.00  0.00     0.188 C 
BRANCH   2   3
ATOM      3  O   UNL     1       5.301  -4.559   1.164  1.00  0.00    -0.376 OA
BRANCH   3   4
ATOM      4  C   UNL     1       6.056  -3.368   1.286  1.00  0.00     0.202 C 
BRANCH   4   5
ATOM      5  C   UNL     1       5.530  -2.093   0.587  1.00  0.00     0.261 C 
BRANCH   5   6
ATOM      6  O   UNL     1       4.092  -1.873   0.663  1.00  0.00    -0.462 OA
BRANCH   6   7
ATOM      7  C   UNL     1       3.424  -1.708  -0.506  1.00  0.00     0.325 C 
ATOM      8  O   UNL     1       3.996  -1.520  -1.580  1.00  0.00    -0.250 OA
BRANCH   7   9
ATOM      9  C   UNL     1       1.903  -2.085  -0.479  1.00  0.00     0.242 C 
BRANCH   9  10
ATOM     10  N   UNL     1       0.772  -2.016   0.504  1.00  0.00    -0.326 N 
BRANCH  10  11
ATOM     11  C   UNL     1       0.376  -0.623   0.972  1.00  0.00     0.035 C 
ATOM     12  C   UNL     1       0.955   0.498   0.069  1.00  0.00     0.034 C 
ATOM     13  C   UNL     1       0.906  -0.397   2.398  1.00  0.00     0.034 C 
ATOM     14  C   UNL     1      -1.159  -0.369   0.956  1.00  0.00     0.034 C 
ENDBRANCH  10  11
BRANCH  10  15
ATOM     15  C   UNL     1      -0.061  -3.146   0.917  1.00  0.00     0.234 C 
ATOM     16  O   UNL     1      -1.029  -2.919   1.671  1.00  0.00    -0.274 OA
BRANCH  15  17
ATOM     17  C   UNL     1       0.182  -4.718   0.538  1.00  0.00     0.074 C 
ATOM     18  C   UNL     1       0.689  -5.476   1.825  1.00  0.00     0.022 C 
ATOM     19  C   UNL     1      -1.059  -5.752   0.710  1.00  0.00     0.022 C 
ATOM     20  C   UNL     1      -0.075  -6.715   1.405  1.00  0.00     0.003 C 
BRANCH  17  21
ATOM     21  C   UNL     1       0.713  -4.871  -0.964  1.00  0.00    -0.032 A 
ATOM     22  C   UNL     1       1.948  -5.428  -1.344  1.00  0.00     0.005 A 
ATOM     23  C   UNL     1      -0.057  -4.282  -1.997  1.00  0.00     0.005 A 
ATOM     24  C   UNL     1       2.485  -5.177  -2.612  1.00  0.00     0.000 A 
ATOM     25  C   UNL     1       0.457  -4.061  -3.270  1.00  0.00     0.000 A 
ATOM     26  C   UNL     1       1.753  -4.463  -3.560  1.00  0.00     0.000 A 
ENDBRANCH  17  21
ENDBRANCH  15  17
ENDBRANCH  10  15
ENDBRANCH   9  10
ENDBRANCH   7   9
ENDBRANCH   6   7
ENDBRANCH   5   6
ENDBRANCH   4   5
ENDBRANCH   3   4
ENDBRANCH   2   3
ENDBRANCH   1   2
BRANCH   1  27
ATOM     27  O   UNL     1       4.343  -2.945   3.331  1.00  0.00    -0.377 OA
BRANCH  27  28
ATOM     28  C   UNL     1       4.618  -3.545   4.587  1.00  0.00     0.188 C 
BRANCH  28  29
ATOM     29  C   UNL     1       4.848  -5.073   4.606  1.00  0.00     0.188 C 
BRANCH  29  30
ATOM     30  O   UNL     1       3.822  -5.825   3.954  1.00  0.00    -0.376 OA
BRANCH  30  31
ATOM     31  C   UNL     1       3.021  -6.687   4.750  1.00  0.00     0.202 C 
BRANCH  31  32
ATOM     32  C   UNL     1       1.817  -6.004   5.417  1.00  0.00     0.261 C 
BRANCH  32  33
ATOM     33  O   UNL     1       2.157  -4.841   6.175  1.00  0.00    -0.460 OA
BRANCH  33  34
ATOM     34  C   UNL     1       2.828  -5.102   7.322  1.00  0.00     0.338 C 
ATOM     35  O   UNL     1       3.073  -6.193   7.784  1.00  0.00    -0.246 OA
BRANCH  34  36
ATOM     36  C   UNL     1       3.466  -3.842   7.749  1.00  0.00     0.060 A 
ATOM     37  C   UNL     1       4.858  -3.866   7.891  1.00  0.00     0.016 A 
ATOM     38  C   UNL     1       2.741  -2.659   7.936  1.00  0.00     0.016 A 
ATOM     39  C   UNL     1       5.533  -2.716   8.259  1.00  0.00     0.010 A 
ATOM     40  C   UNL     1       3.414  -1.512   8.363  1.00  0.00     0.010 A 
ATOM     41  C   UNL     1       4.803  -1.565   8.578  1.00  0.00    -0.014 A 
BRANCH  41  42
ATOM     42  C   UNL     1       5.476  -0.617   9.489  1.00  0.00     0.031 A 
ATOM     43  C   UNL     1       5.327  -0.883  10.963  1.00  0.00     0.074 A 
ATOM     44  C   UNL     1       6.320   0.318   9.026  1.00  0.00     0.049 A 
ATOM     45  N   UNL     1       5.912  -0.310  11.980  1.00  0.00    -0.248 NA
ATOM     46  C   UNL     1       4.397  -1.962  11.334  1.00  0.00     0.031 C 
ATOM     47  C   UNL     1       6.585   0.590   7.614  1.00  0.00     0.029 A 
ATOM     48  N   UNL     1       7.128   1.192   9.700  1.00  0.00    -0.354 N 
ATOM     49  C   UNL     1       5.421  -0.963  13.107  1.00  0.00     0.074 A 
ATOM     50  C   UNL     1       4.459  -1.938  12.652  1.00  0.00     0.031 C 
ATOM     51  C   UNL     1       7.497   1.574   7.529  1.00  0.00     0.029 A 
ATOM     52  C   UNL     1       7.855   2.015   8.876  1.00  0.00     0.049 A 
ATOM     53  H   UNL     1       7.182   1.228  10.683  1.00  0.00     0.167 HD
ATOM     54  C   UNL     1       5.753  -0.769  14.406  1.00  0.00     0.034 A 
ATOM     55  C   UNL     1       8.698   3.020   9.186  1.00  0.00     0.034 A 
ATOM     56  C   UNL     1       6.694   0.237  14.826  1.00  0.00     0.049 A 
ATOM     57  C   UNL     1       8.987   3.288  10.643  1.00  0.00     0.074 A 
ATOM     58  C   UNL     1       7.105   0.554  16.107  1.00  0.00     0.029 A 
ATOM     59  N   UNL     1       7.356   1.109  13.967  1.00  0.00    -0.354 N 
ATOM     60  N   UNL     1       8.518   2.674  11.707  1.00  0.00    -0.248 NA
ATOM     61  C   UNL     1       9.934   4.367  10.938  1.00  0.00     0.031 C 
ATOM     62  C   UNL     1       7.940   1.675  16.029  1.00  0.00     0.029 A 
ATOM     63  C   UNL     1       8.140   1.991  14.692  1.00  0.00     0.049 A 
ATOM     64  H   UNL     1       7.278   1.101  12.985  1.00  0.00     0.167 HD
ATOM     65  C   UNL     1       9.139   3.274  12.800  1.00  0.00     0.074 A 
ATOM     66  C   UNL     1      10.024   4.287  12.258  1.00  0.00     0.031 C 
ATOM     67  C   UNL     1       9.001   3.008  14.127  1.00  0.00     0.034 A 
BRANCH  54  68
ATOM     68  C   UNL     1       5.012  -1.595  15.433  1.00  0.00     0.023 A 
ATOM     69  C   UNL     1       5.064  -3.003  15.444  1.00  0.00     0.031 A 
ATOM     70  C   UNL     1       4.151  -0.967  16.349  1.00  0.00     0.131 A 
ATOM     71  C   UNL     1       4.195  -3.730  16.273  1.00  0.00     0.055 A 
ATOM     72  C   UNL     1       3.365  -1.696  17.244  1.00  0.00     0.041 A 
ATOM     73  F   UNL     1       4.028   0.370  16.366  1.00  0.00    -0.206 F 
ATOM     74  C   UNL     1       3.367  -3.086  17.194  1.00  0.00     0.022 A 
BRANCH  71  75
ATOM     75  S   UNL     1       4.010  -5.514  15.986  1.00  0.00     0.124 S 
ATOM     76  O   UNL     1       3.625  -5.546  14.577  1.00  0.00    -0.237 OA
ATOM     77  O   UNL     1       5.340  -6.023  16.297  1.00  0.00    -0.237 OA
ATOM     78  O   UNL     1       2.956  -5.904  16.920  1.00  0.00    -0.744 OA
ENDBRANCH  71  75
ENDBRANCH  54  68
BRANCH  55  79
ATOM     79  C   UNL     1       9.281   3.861   8.102  1.00  0.00     0.023 A 
ATOM     80  C   UNL     1      10.661   3.899   7.848  1.00  0.00     0.031 A 
ATOM     81  C   UNL     1       8.441   4.657   7.299  1.00  0.00     0.131 A 
ATOM     82  C   UNL     1      11.161   4.732   6.832  1.00  0.00     0.055 A 
ATOM     83  C   UNL     1       8.938   5.444   6.261  1.00  0.00     0.041 A 
ATOM     84  F   UNL     1       7.114   4.661   7.502  1.00  0.00    -0.206 F 
ATOM     85  C   UNL     1      10.307   5.491   6.027  1.00  0.00     0.022 A 
BRANCH  82  86
ATOM     86  S   UNL     1      12.957   4.856   6.607  1.00  0.00     0.124 S 
ATOM     87  O   UNL     1      13.386   5.356   7.908  1.00  0.00    -0.237 OA
ATOM     88  O   UNL     1      13.320   3.477   6.296  1.00  0.00    -0.237 OA
ATOM     89  O   UNL     1      13.097   5.798   5.498  1.00  0.00    -0.744 OA
ENDBRANCH  82  86
ENDBRANCH  55  79
BRANCH  67  90
ATOM     90  C   UNL     1       9.872   3.798  15.077  1.00  0.00     0.023 A 
ATOM     91  C   UNL     1       9.758   5.192  15.209  1.00  0.00     0.031 A 
ATOM     92  C   UNL     1      10.849   3.140  15.848  1.00  0.00     0.131 A 
ATOM     93  C   UNL     1      10.658   5.892  16.026  1.00  0.00     0.055 A 
ATOM     94  C   UNL     1      11.685   3.833  16.723  1.00  0.00     0.041 A 
ATOM     95  F   UNL     1      11.007   1.810  15.762  1.00  0.00    -0.206 F 
ATOM     96  C   UNL     1      11.607   5.219  16.801  1.00  0.00     0.022 A 
BRANCH  93  97
ATOM     97  S   UNL     1      10.671   7.704  15.948  1.00  0.00     0.124 S 
ATOM     98  O   UNL     1      10.860   7.943  14.521  1.00  0.00    -0.237 OA
ATOM     99  O   UNL     1       9.358   8.048  16.484  1.00  0.00    -0.237 OA
ATOM    100  O   UNL     1      11.804   8.074  16.795  1.00  0.00    -0.744 OA
ENDBRANCH  93  97
ENDBRANCH  67  90
ENDBRANCH  41  42
ENDBRANCH  34  36
ENDBRANCH  33  34
ENDBRANCH  32  33
ENDBRANCH  31  32
ENDBRANCH  30  31
ENDBRANCH  29  30
ENDBRANCH  28  29
ENDBRANCH  27  28
ENDBRANCH   1  27
TORSDOF 28
