REMARK SMILES CN(C(=O)CC(=O)OCCOCCOCCOCCOC(=O)c1ccc(-c2c3nc(c(-c4cc(S(=O)(=O)[O-])ccc4F)c4ccc([nH]4)c(-c4cc(S(=O)(=O)[O-])ccc4F)c4nc(c(-c5cc(S(=O)(=O)[O-])ccc5F)c5ccc2[nH]5)C=C4)C=C3)cc1)C1CCC(C)(C)CC1
REMARK SMILES IDX 14 1 13 2 12 3 11 4 10 5 9 6 8 7 6 8 7 9 5 10 3 11 4 12 2 13
REMARK SMILES IDX 1 14 86 15 87 16 93 17 88 18 92 19 89 20 90 21 91 22 15 23
REMARK SMILES IDX 16 24 17 25 18 26 19 27 20 28 21 29 22 30 23 31 24 32 85 33
REMARK SMILES IDX 25 34 84 35 26 36 27 37 28 38 78 39 29 40 83 41 77 42 79 43
REMARK SMILES IDX 30 44 82 45 76 46 75 47 31 49 63 50 43 51 62 52 44 53 47 54
REMARK SMILES IDX 61 55 80 56 45 57 46 58 60 60 81 61 48 62 32 63 33 64 41 65
REMARK SMILES IDX 34 66 40 67 42 68 39 69 35 70 36 71 37 72 38 73 64 74 65 75
REMARK SMILES IDX 73 76 66 77 72 78 74 79 71 80 67 81 68 82 69 83 70 84 49 85
REMARK SMILES IDX 50 86 58 87 51 88 57 89 59 90 56 91 52 92 53 93 54 94 55 95
REMARK H PARENT 79 48 47 59
REMARK Flexibility Score: inf
ROOT
ATOM      1  O   UNL     1       3.270   1.139  -2.464  1.00  0.00    -0.377 OA
ENDROOT
BRANCH   1   2
ATOM      2  C   UNL     1       2.285   0.293  -1.887  1.00  0.00     0.188 C 
BRANCH   2   3
ATOM      3  C   UNL     1       2.095  -1.075  -2.540  1.00  0.00     0.188 C 
BRANCH   3   4
ATOM      4  O   UNL     1       1.580  -1.109  -3.872  1.00  0.00    -0.376 OA
BRANCH   4   5
ATOM      5  C   UNL     1       2.097  -0.145  -4.783  1.00  0.00     0.202 C 
BRANCH   5   6
ATOM      6  C   UNL     1       1.129   1.030  -5.002  1.00  0.00     0.261 C 
BRANCH   6   7
ATOM      7  O   UNL     1       0.372   1.395  -3.826  1.00  0.00    -0.463 OA
BRANCH   7   8
ATOM      8  C   UNL     1      -0.798   0.741  -3.632  1.00  0.00     0.315 C 
ATOM      9  O   UNL     1      -1.290  -0.047  -4.438  1.00  0.00    -0.252 OA
BRANCH   8  10
ATOM     10  C   UNL     1      -1.477   1.008  -2.312  1.00  0.00     0.222 C 
BRANCH  10  11
ATOM     11  C   UNL     1      -0.884   2.036  -1.362  1.00  0.00     0.233 C 
ATOM     12  O   UNL     1      -0.973   3.214  -1.708  1.00  0.00    -0.274 OA
BRANCH  11  13
ATOM     13  N   UNL     1      -0.361   1.641  -0.114  1.00  0.00    -0.342 N 
ATOM     14  C   UNL     1      -0.416   0.248   0.337  1.00  0.00     0.147 C 
BRANCH  13  15
ATOM     15  C   UNL     1       0.096   2.612   0.945  1.00  0.00     0.084 C 
ATOM     16  C   UNL     1       1.571   2.436   1.366  1.00  0.00     0.025 C 
ATOM     17  C   UNL     1      -0.187   4.118   0.785  1.00  0.00     0.025 C 
ATOM     18  C   UNL     1       2.545   3.112   0.412  1.00  0.00     0.008 C 
ATOM     19  C   UNL     1       0.810   4.882  -0.098  1.00  0.00     0.008 C 
ATOM     20  C   UNL     1       2.296   4.615   0.210  1.00  0.00    -0.035 C 
ATOM     21  C   UNL     1       3.136   5.083  -0.997  1.00  0.00     0.011 C 
ATOM     22  C   UNL     1       2.739   5.413   1.448  1.00  0.00     0.011 C 
ENDBRANCH  13  15
ENDBRANCH  11  13
ENDBRANCH  10  11
ENDBRANCH   8  10
ENDBRANCH   7   8
ENDBRANCH   6   7
ENDBRANCH   5   6
ENDBRANCH   4   5
ENDBRANCH   3   4
ENDBRANCH   2   3
ENDBRANCH   1   2
BRANCH   1  23
ATOM     23  C   UNL     1       4.615   0.676  -2.385  1.00  0.00     0.188 C 
BRANCH  23  24
ATOM     24  C   UNL     1       5.056   0.386  -0.961  1.00  0.00     0.188 C 
BRANCH  24  25
ATOM     25  O   UNL     1       4.641  -0.884  -0.458  1.00  0.00    -0.376 OA
BRANCH  25  26
ATOM     26  C   UNL     1       4.226  -0.877   0.915  1.00  0.00     0.202 C 
BRANCH  26  27
ATOM     27  C   UNL     1       5.174  -0.303   1.987  1.00  0.00     0.261 C 
BRANCH  27  28
ATOM     28  O   UNL     1       5.518   1.081   1.765  1.00  0.00    -0.460 OA
BRANCH  28  29
ATOM     29  C   UNL     1       6.796   1.292   1.344  1.00  0.00     0.338 C 
ATOM     30  O   UNL     1       7.680   0.450   1.302  1.00  0.00    -0.246 OA
BRANCH  29  31
ATOM     31  C   UNL     1       6.918   2.609   0.666  1.00  0.00     0.060 A 
ATOM     32  C   UNL     1       7.582   2.640  -0.572  1.00  0.00     0.016 A 
ATOM     33  C   UNL     1       6.423   3.792   1.214  1.00  0.00     0.016 A 
ATOM     34  C   UNL     1       7.792   3.845  -1.242  1.00  0.00     0.010 A 
ATOM     35  C   UNL     1       6.663   5.009   0.556  1.00  0.00     0.010 A 
ATOM     36  C   UNL     1       7.386   5.047  -0.653  1.00  0.00    -0.014 A 
BRANCH  36  37
ATOM     37  C   UNL     1       8.003   6.316  -1.128  1.00  0.00     0.031 A 
ATOM     38  C   UNL     1       9.223   6.804  -0.385  1.00  0.00     0.074 A 
ATOM     39  C   UNL     1       7.570   6.986  -2.212  1.00  0.00     0.049 A 
ATOM     40  N   UNL     1       9.938   7.884  -0.564  1.00  0.00    -0.248 NA
ATOM     41  C   UNL     1       9.691   5.949   0.717  1.00  0.00     0.031 C 
ATOM     42  C   UNL     1       6.452   6.592  -3.066  1.00  0.00     0.029 A 
ATOM     43  N   UNL     1       8.032   8.150  -2.782  1.00  0.00    -0.354 N 
ATOM     44  C   UNL     1      10.932   7.840   0.407  1.00  0.00     0.074 A 
ATOM     45  C   UNL     1      10.696   6.655   1.202  1.00  0.00     0.031 C 
ATOM     46  C   UNL     1       6.311   7.504  -4.047  1.00  0.00     0.029 A 
ATOM     47  C   UNL     1       7.305   8.564  -3.875  1.00  0.00     0.049 A 
ATOM     48  H   UNL     1       8.813   8.642  -2.439  1.00  0.00     0.167 HD
ATOM     49  C   UNL     1      11.961   8.697   0.615  1.00  0.00     0.034 A 
ATOM     50  C   UNL     1       7.418   9.678  -4.630  1.00  0.00     0.034 A 
ATOM     51  C   UNL     1      12.191   9.881  -0.172  1.00  0.00     0.049 A 
ATOM     52  C   UNL     1       8.509  10.682  -4.315  1.00  0.00     0.074 A 
ATOM     53  C   UNL     1      13.199  10.819  -0.042  1.00  0.00     0.029 A 
ATOM     54  N   UNL     1      11.395  10.296  -1.232  1.00  0.00    -0.354 N 
ATOM     55  N   UNL     1       9.438  10.634  -3.387  1.00  0.00    -0.248 NA
ATOM     56  C   UNL     1       8.568  11.888  -5.154  1.00  0.00     0.031 C 
ATOM     57  C   UNL     1      12.971  11.838  -0.973  1.00  0.00     0.029 A 
ATOM     58  C   UNL     1      11.871  11.493  -1.742  1.00  0.00     0.049 A 
ATOM     59  H   UNL     1      10.608   9.811  -1.570  1.00  0.00     0.167 HD
ATOM     60  C   UNL     1      10.213  11.781  -3.563  1.00  0.00     0.074 A 
ATOM     61  C   UNL     1       9.646  12.498  -4.684  1.00  0.00     0.031 C 
ATOM     62  C   UNL     1      11.301  12.199  -2.865  1.00  0.00     0.034 A 
BRANCH  49  63
ATOM     63  C   UNL     1      12.871   8.402   1.782  1.00  0.00     0.023 A 
ATOM     64  C   UNL     1      13.654   7.234   1.832  1.00  0.00     0.031 A 
ATOM     65  C   UNL     1      12.905   9.267   2.889  1.00  0.00     0.131 A 
ATOM     66  C   UNL     1      14.365   6.921   3.000  1.00  0.00     0.055 A 
ATOM     67  C   UNL     1      13.687   8.994   4.011  1.00  0.00     0.041 A 
ATOM     68  F   UNL     1      12.157  10.382   2.908  1.00  0.00    -0.206 F 
ATOM     69  C   UNL     1      14.409   7.806   4.079  1.00  0.00     0.022 A 
BRANCH  66  70
ATOM     70  S   UNL     1      15.089   5.265   3.153  1.00  0.00     0.124 S 
ATOM     71  O   UNL     1      13.911   4.414   3.001  1.00  0.00    -0.237 OA
ATOM     72  O   UNL     1      16.046   5.236   2.053  1.00  0.00    -0.237 OA
ATOM     73  O   UNL     1      15.675   5.270   4.492  1.00  0.00    -0.744 OA
ENDBRANCH  66  70
ENDBRANCH  49  63
BRANCH  50  74
ATOM     74  C   UNL     1       6.452   9.954  -5.736  1.00  0.00     0.023 A 
ATOM     75  C   UNL     1       6.878  10.066  -7.071  1.00  0.00     0.031 A 
ATOM     76  C   UNL     1       5.095  10.201  -5.459  1.00  0.00     0.131 A 
ATOM     77  C   UNL     1       5.971  10.465  -8.066  1.00  0.00     0.055 A 
ATOM     78  C   UNL     1       4.185  10.543  -6.462  1.00  0.00     0.041 A 
ATOM     79  F   UNL     1       4.634  10.120  -4.201  1.00  0.00    -0.206 F 
ATOM     80  C   UNL     1       4.625  10.691  -7.773  1.00  0.00     0.022 A 
BRANCH  77  81
ATOM     81  S   UNL     1       6.597  10.783  -9.741  1.00  0.00     0.124 S 
ATOM     82  O   UNL     1       7.575  11.837  -9.496  1.00  0.00    -0.237 OA
ATOM     83  O   UNL     1       7.138   9.480 -10.114  1.00  0.00    -0.237 OA
ATOM     84  O   UNL     1       5.405  11.195 -10.478  1.00  0.00    -0.744 OA
ENDBRANCH  77  81
ENDBRANCH  50  74
BRANCH  62  85
ATOM     85  C   UNL     1      11.996  13.456  -3.335  1.00  0.00     0.023 A 
ATOM     86  C   UNL     1      11.394  14.723  -3.248  1.00  0.00     0.031 A 
ATOM     87  C   UNL     1      13.300  13.380  -3.861  1.00  0.00     0.131 A 
ATOM     88  C   UNL     1      12.077  15.856  -3.720  1.00  0.00     0.055 A 
ATOM     89  C   UNL     1      13.996  14.516  -4.275  1.00  0.00     0.041 A 
ATOM     90  F   UNL     1      13.925  12.196  -3.968  1.00  0.00    -0.206 F 
ATOM     91  C   UNL     1      13.380  15.762  -4.215  1.00  0.00     0.022 A 
BRANCH  88  92
ATOM     92  S   UNL     1      11.213  17.451  -3.747  1.00  0.00     0.124 S 
ATOM     93  O   UNL     1      10.057  17.157  -4.588  1.00  0.00    -0.237 OA
ATOM     94  O   UNL     1      10.932  17.679  -2.333  1.00  0.00    -0.237 OA
ATOM     95  O   UNL     1      12.192  18.363  -4.337  1.00  0.00    -0.744 OA
ENDBRANCH  88  92
ENDBRANCH  62  85
ENDBRANCH  36  37
ENDBRANCH  29  31
ENDBRANCH  28  29
ENDBRANCH  27  28
ENDBRANCH  26  27
ENDBRANCH  25  26
ENDBRANCH  24  25
ENDBRANCH  23  24
ENDBRANCH   1  23
TORSDOF 26
