REMARK SMILES Cc1cc(C)n(-c2nc(C)c(C)c(Oc3cccc(C(=O)OCCOCCOCCOCCOC(=O)c4ccc(-c5c6nc(c(-c7cc(S(=O)(=O)[O-])ccc7F)c7ccc([nH]7)c(-c7cc(S(=O)(=O)[O-])ccc7F)c7nc(c(-c8cc(S(=O)(=O)[O-])ccc8F)c8ccc5[nH]8)C=C7)C=C6)cc4)c3)n2)n1
REMARK SMILES IDX 28 1 27 2 26 3 25 4 24 5 23 6 22 7 20 8 21 9 19 10 15 11
REMARK SMILES IDX 16 12 100 13 17 14 18 15 14 16 13 17 7 18 8 19 101 20 9 21
REMARK SMILES IDX 10 22 11 23 12 24 6 25 1 26 2 27 3 28 102 29 4 30 5 31 29 32
REMARK SMILES IDX 30 33 31 34 32 35 33 36 34 37 35 38 36 39 37 40 38 41 99 42
REMARK SMILES IDX 39 43 98 44 40 45 41 46 42 47 92 48 43 49 97 50 91 51 93 52
REMARK SMILES IDX 44 53 96 54 90 55 89 56 45 58 77 59 57 60 76 61 58 62 61 63
REMARK SMILES IDX 75 64 94 65 59 66 60 67 74 69 95 70 62 71 46 72 47 73 55 74
REMARK SMILES IDX 48 75 54 76 56 77 53 78 49 79 50 80 51 81 52 82 78 83 79 84
REMARK SMILES IDX 87 85 80 86 86 87 88 88 85 89 81 90 82 91 83 92 84 93 63 94
REMARK SMILES IDX 64 95 72 96 65 97 71 98 73 99 70 100 66 101 67 102 68 103
REMARK SMILES IDX 69 104
REMARK H PARENT 93 57 61 68
REMARK Flexibility Score: inf
ROOT
ATOM      1  O   UNL     1       3.366  -4.008  -7.955  1.00  0.00    -0.377 OA
ENDROOT
BRANCH   1   2
ATOM      2  C   UNL     1       2.571  -3.127  -8.729  1.00  0.00     0.188 C 
BRANCH   2   3
ATOM      3  C   UNL     1       3.080  -1.670  -8.727  1.00  0.00     0.188 C 
BRANCH   3   4
ATOM      4  O   UNL     1       4.375  -1.351  -8.246  1.00  0.00    -0.376 OA
BRANCH   4   5
ATOM      5  C   UNL     1       4.856  -1.769  -6.981  1.00  0.00     0.202 C 
BRANCH   5   6
ATOM      6  C   UNL     1       3.984  -2.080  -5.750  1.00  0.00     0.261 C 
BRANCH   6   7
ATOM      7  O   UNL     1       2.577  -2.190  -5.938  1.00  0.00    -0.460 OA
BRANCH   7   8
ATOM      8  C   UNL     1       1.875  -1.040  -5.867  1.00  0.00     0.338 C 
ATOM      9  O   UNL     1       2.313   0.076  -5.627  1.00  0.00    -0.246 OA
BRANCH   8  10
ATOM     10  C   UNL     1       0.507  -1.314  -6.361  1.00  0.00     0.063 A 
ATOM     11  C   UNL     1      -1.495  -2.658  -6.420  1.00  0.00     0.130 A 
ATOM     12  C   UNL     1      -2.042  -1.800  -7.377  1.00  0.00     0.047 A 
ATOM     13  C   UNL     1      -0.183  -2.466  -5.980  1.00  0.00     0.062 A 
ATOM     14  C   UNL     1      -1.323  -0.690  -7.817  1.00  0.00     0.005 A 
ATOM     15  C   UNL     1      -0.065  -0.424  -7.279  1.00  0.00     0.016 A 
BRANCH  11  16
ATOM     16  O   UNL     1      -2.306  -3.685  -5.994  1.00  0.00    -0.439 OA
BRANCH  16  17
ATOM     17  C   UNL     1      -2.351  -3.982  -4.631  1.00  0.00     0.227 A 
ATOM     18  C   UNL     1      -1.518  -3.688  -2.524  1.00  0.00     0.254 A 
ATOM     19  N   UNL     1      -2.176  -4.769  -2.059  1.00  0.00    -0.216 NA
ATOM     20  N   UNL     1      -1.642  -3.227  -3.773  1.00  0.00    -0.175 NA
ATOM     21  C   UNL     1      -3.023  -5.401  -2.901  1.00  0.00     0.050 A 
ATOM     22  C   UNL     1      -3.878  -6.446  -2.248  1.00  0.00     0.067 C 
ATOM     23  C   UNL     1      -3.112  -5.075  -4.247  1.00  0.00     0.033 A 
ATOM     24  C   UNL     1      -3.979  -5.830  -5.205  1.00  0.00     0.052 C 
BRANCH  18  25
ATOM     25  N   UNL     1      -0.568  -3.045  -1.659  1.00  0.00    -0.203 N 
ATOM     26  C   UNL     1       0.840  -0.066  -0.301  1.00  0.00     0.069 C 
ATOM     27  C   UNL     1       0.464  -1.454  -0.665  1.00  0.00     0.060 A 
ATOM     28  C   UNL     1       0.888  -2.643  -0.040  1.00  0.00     0.049 A 
ATOM     29  N   UNL     1      -0.348  -1.697  -1.698  1.00  0.00    -0.170 NA
ATOM     30  C   UNL     1       0.252  -3.659  -0.719  1.00  0.00     0.045 A 
ATOM     31  C   UNL     1       0.420  -5.130  -0.620  1.00  0.00     0.067 C 
ENDBRANCH  18  25
ENDBRANCH  16  17
ENDBRANCH  11  16
ENDBRANCH   8  10
ENDBRANCH   7   8
ENDBRANCH   6   7
ENDBRANCH   5   6
ENDBRANCH   4   5
ENDBRANCH   3   4
ENDBRANCH   2   3
ENDBRANCH   1   2
BRANCH   1  32
ATOM     32  C   UNL     1       4.394  -4.710  -8.652  1.00  0.00     0.188 C 
BRANCH  32  33
ATOM     33  C   UNL     1       5.239  -3.963  -9.717  1.00  0.00     0.188 C 
BRANCH  33  34
ATOM     34  O   UNL     1       4.510  -3.045 -10.522  1.00  0.00    -0.376 OA
BRANCH  34  35
ATOM     35  C   UNL     1       4.229  -3.288 -11.887  1.00  0.00     0.202 C 
BRANCH  35  36
ATOM     36  C   UNL     1       3.253  -4.412 -12.204  1.00  0.00     0.261 C 
BRANCH  36  37
ATOM     37  O   UNL     1       3.454  -5.569 -11.418  1.00  0.00    -0.460 OA
BRANCH  37  38
ATOM     38  C   UNL     1       4.572  -6.253 -11.696  1.00  0.00     0.338 C 
ATOM     39  O   UNL     1       5.544  -5.857 -12.344  1.00  0.00    -0.246 OA
BRANCH  38  40
ATOM     40  C   UNL     1       4.398  -7.608 -11.200  1.00  0.00     0.060 A 
ATOM     41  C   UNL     1       5.511  -8.446 -11.227  1.00  0.00     0.016 A 
ATOM     42  C   UNL     1       3.083  -8.089 -11.077  1.00  0.00     0.016 A 
ATOM     43  C   UNL     1       5.287  -9.788 -11.403  1.00  0.00     0.010 A 
ATOM     44  C   UNL     1       2.863  -9.420 -11.286  1.00  0.00     0.010 A 
ATOM     45  C   UNL     1       3.966 -10.225 -11.546  1.00  0.00    -0.014 A 
BRANCH  45  46
ATOM     46  C   UNL     1       3.731 -11.591 -11.931  1.00  0.00     0.031 A 
ATOM     47  C   UNL     1       3.857 -12.514 -10.793  1.00  0.00     0.074 A 
ATOM     48  C   UNL     1       3.331 -11.925 -13.171  1.00  0.00     0.049 A 
ATOM     49  N   UNL     1       4.838 -13.315 -10.551  1.00  0.00    -0.248 NA
ATOM     50  C   UNL     1       2.908 -12.367  -9.678  1.00  0.00     0.031 C 
ATOM     51  C   UNL     1       2.932 -11.049 -14.274  1.00  0.00     0.029 A 
ATOM     52  N   UNL     1       3.106 -13.165 -13.671  1.00  0.00    -0.354 N 
ATOM     53  C   UNL     1       4.487 -13.965  -9.380  1.00  0.00     0.074 A 
ATOM     54  C   UNL     1       3.455 -13.173  -8.769  1.00  0.00     0.031 C 
ATOM     55  C   UNL     1       2.304 -11.787 -15.222  1.00  0.00     0.029 A 
ATOM     56  C   UNL     1       2.372 -13.192 -14.851  1.00  0.00     0.049 A 
ATOM     57  H   UNL     1       3.436 -13.982 -13.232  1.00  0.00     0.167 HD
ATOM     58  C   UNL     1       4.857 -15.254  -9.165  1.00  0.00     0.034 A 
ATOM     59  C   UNL     1       1.814 -14.297 -15.417  1.00  0.00     0.034 A 
ATOM     60  C   UNL     1       5.919 -15.652 -10.059  1.00  0.00     0.049 A 
ATOM     61  C   UNL     1       2.575 -15.462 -14.887  1.00  0.00     0.074 A 
ATOM     62  C   UNL     1       7.201 -15.192 -10.297  1.00  0.00     0.029 A 
ATOM     63  N   UNL     1       5.579 -16.395 -11.168  1.00  0.00    -0.354 N 
ATOM     64  N   UNL     1       3.843 -15.661 -15.133  1.00  0.00    -0.248 NA
ATOM     65  C   UNL     1       2.069 -16.119 -13.689  1.00  0.00     0.031 C 
ATOM     66  C   UNL     1       7.368 -15.273 -11.711  1.00  0.00     0.029 A 
ATOM     67  C   UNL     1       6.216 -15.845 -12.255  1.00  0.00     0.049 A 
ATOM     68  H   UNL     1       4.985 -17.180 -11.180  1.00  0.00     0.167 HD
ATOM     69  C   UNL     1       4.381 -16.089 -13.928  1.00  0.00     0.074 A 
ATOM     70  C   UNL     1       3.226 -16.438 -13.101  1.00  0.00     0.031 C 
ATOM     71  C   UNL     1       5.687 -15.848 -13.608  1.00  0.00     0.034 A 
BRANCH  58  72
ATOM     72  C   UNL     1       4.008 -16.244  -8.414  1.00  0.00     0.023 A 
ATOM     73  C   UNL     1       4.577 -17.491  -8.114  1.00  0.00     0.031 A 
ATOM     74  C   UNL     1       2.611 -16.133  -8.210  1.00  0.00     0.131 A 
ATOM     75  C   UNL     1       3.772 -18.562  -7.692  1.00  0.00     0.055 A 
ATOM     76  C   UNL     1       1.827 -17.179  -7.724  1.00  0.00     0.041 A 
ATOM     77  F   UNL     1       1.909 -15.049  -8.562  1.00  0.00    -0.206 F 
ATOM     78  C   UNL     1       2.403 -18.413  -7.486  1.00  0.00     0.022 A 
BRANCH  75  79
ATOM     79  S   UNL     1       4.528 -20.199  -7.553  1.00  0.00     0.124 S 
ATOM     80  O   UNL     1       5.035 -20.407  -8.904  1.00  0.00    -0.237 OA
ATOM     81  O   UNL     1       5.530 -19.979  -6.514  1.00  0.00    -0.237 OA
ATOM     82  O   UNL     1       3.409 -21.055  -7.166  1.00  0.00    -0.744 OA
ENDBRANCH  75  79
ENDBRANCH  58  72
BRANCH  59  83
ATOM     83  C   UNL     1       0.471 -14.421 -16.059  1.00  0.00     0.023 A 
ATOM     84  C   UNL     1       0.079 -15.588 -16.753  1.00  0.00     0.031 A 
ATOM     85  C   UNL     1      -0.554 -13.490 -15.773  1.00  0.00     0.131 A 
ATOM     86  C   UNL     1      -1.276 -15.790 -17.112  1.00  0.00     0.055 A 
ATOM     87  C   UNL     1      -1.889 -13.693 -16.134  1.00  0.00     0.041 A 
ATOM     88  F   UNL     1      -0.316 -12.387 -15.047  1.00  0.00    -0.206 F 
ATOM     89  C   UNL     1      -2.259 -14.853 -16.794  1.00  0.00     0.022 A 
BRANCH  86  90
ATOM     90  S   UNL     1      -1.808 -17.350 -17.893  1.00  0.00     0.124 S 
ATOM     91  O   UNL     1      -1.388 -17.158 -19.276  1.00  0.00    -0.237 OA
ATOM     92  O   UNL     1      -1.079 -18.355 -17.127  1.00  0.00    -0.237 OA
ATOM     93  O   UNL     1      -3.257 -17.356 -17.683  1.00  0.00    -0.744 OA
ENDBRANCH  86  90
ENDBRANCH  59  83
BRANCH  71  94
ATOM     94  C   UNL     1       6.620 -15.362 -14.701  1.00  0.00     0.023 A 
ATOM     95  C   UNL     1       6.506 -14.127 -15.382  1.00  0.00     0.031 A 
ATOM     96  C   UNL     1       7.766 -16.139 -14.946  1.00  0.00     0.131 A 
ATOM     97  C   UNL     1       7.525 -13.717 -16.269  1.00  0.00     0.055 A 
ATOM     98  C   UNL     1       8.778 -15.721 -15.807  1.00  0.00     0.041 A 
ATOM     99  F   UNL     1       7.942 -17.307 -14.306  1.00  0.00    -0.206 F 
ATOM    100  C   UNL     1       8.661 -14.507 -16.474  1.00  0.00     0.022 A 
BRANCH  97 101
ATOM    101  S   UNL     1       7.406 -12.126 -17.156  1.00  0.00     0.124 S 
ATOM    102  O   UNL     1       6.149 -12.243 -17.885  1.00  0.00    -0.237 OA
ATOM    103  O   UNL     1       7.430 -11.151 -16.069  1.00  0.00    -0.237 OA
ATOM    104  O   UNL     1       8.601 -12.116 -18.004  1.00  0.00    -0.744 OA
ENDBRANCH  97 101
ENDBRANCH  71  94
ENDBRANCH  45  46
ENDBRANCH  38  40
ENDBRANCH  37  38
ENDBRANCH  36  37
ENDBRANCH  35  36
ENDBRANCH  34  35
ENDBRANCH  33  34
ENDBRANCH  32  33
ENDBRANCH   1  32
TORSDOF 26
