REMARK SMILES O=C(OCCOCCOCCOCCOC(=O)c1ccc(S(=O)(=O)NC[C@H]2CCS(=O)(=O)C2)cc1)c1ccc(-c2c3nc(c(-c4cc(S(=O)(=O)[O-])ccc4F)c4ccc([nH]4)c(-c4cc(S(=O)(=O)[O-])ccc4F)c4nc(c(-c5cc(S(=O)(=O)[O-])ccc5F)c5ccc2[nH]5)C=C4)C=C3)cc1
REMARK SMILES IDX 10 1 9 2 8 3 7 4 6 5 5 6 4 7 3 8 2 9 1 10 36 11 37 12 98 13
REMARK SMILES IDX 38 14 97 15 39 16 40 17 41 18 91 19 42 20 96 21 90 22 92 23
REMARK SMILES IDX 43 24 95 25 89 26 88 27 44 29 76 30 56 31 75 32 57 33 60 34
REMARK SMILES IDX 74 35 93 36 58 37 59 38 73 40 94 41 61 42 45 43 46 44 54 45
REMARK SMILES IDX 47 46 53 47 55 48 52 49 48 50 49 51 50 52 51 53 77 54 78 55
REMARK SMILES IDX 86 56 79 57 85 58 87 59 84 60 80 61 81 62 82 63 83 64 62 65
REMARK SMILES IDX 63 66 71 67 64 68 70 69 72 70 69 71 65 72 66 73 67 74 68 75
REMARK SMILES IDX 11 76 12 77 13 78 14 79 15 80 16 81 17 82 18 83 19 84 35 85
REMARK SMILES IDX 20 86 34 87 21 88 22 89 23 90 24 91 25 92 26 94 27 95 28 96
REMARK SMILES IDX 33 97 29 98 30 99 31 100 32 101
REMARK H PARENT 92 28 60 39 25 93
REMARK Flexibility Score: inf
ROOT
ATOM      1  C   UNL     1      12.555  -9.834  -6.460  1.00  0.00     0.188 C 
ENDROOT
BRANCH   1   2
ATOM      2  O   UNL     1      12.785  -8.435  -6.598  1.00  0.00    -0.377 OA
BRANCH   2   3
ATOM      3  C   UNL     1      13.778  -8.054  -7.554  1.00  0.00     0.188 C 
BRANCH   3   4
ATOM      4  C   UNL     1      15.124  -8.763  -7.396  1.00  0.00     0.188 C 
BRANCH   4   5
ATOM      5  O   UNL     1      14.999 -10.147  -7.738  1.00  0.00    -0.376 OA
BRANCH   5   6
ATOM      6  C   UNL     1      15.801 -11.042  -6.965  1.00  0.00     0.202 C 
BRANCH   6   7
ATOM      7  C   UNL     1      17.204 -11.266  -7.530  1.00  0.00     0.261 C 
BRANCH   7   8
ATOM      8  O   UNL     1      17.775 -10.040  -8.006  1.00  0.00    -0.460 OA
BRANCH   8   9
ATOM      9  C   UNL     1      17.727  -9.547  -9.268  1.00  0.00     0.338 C 
ATOM     10  O   UNL     1      18.261  -8.457  -9.481  1.00  0.00    -0.246 OA
BRANCH   9  11
ATOM     11  C   UNL     1      17.090 -10.250 -10.430  1.00  0.00     0.060 A 
ATOM     12  C   UNL     1      16.030 -11.162 -10.365  1.00  0.00     0.016 A 
ATOM     13  C   UNL     1      17.584  -9.912 -11.701  1.00  0.00     0.016 A 
ATOM     14  C   UNL     1      15.538 -11.794 -11.503  1.00  0.00     0.010 A 
ATOM     15  C   UNL     1      17.082 -10.522 -12.853  1.00  0.00     0.010 A 
ATOM     16  C   UNL     1      16.087 -11.500 -12.746  1.00  0.00    -0.014 A 
BRANCH  16  17
ATOM     17  C   UNL     1      15.786 -12.382 -13.887  1.00  0.00     0.031 A 
ATOM     18  C   UNL     1      16.812 -13.416 -14.236  1.00  0.00     0.074 A 
ATOM     19  C   UNL     1      14.617 -12.295 -14.540  1.00  0.00     0.049 A 
ATOM     20  N   UNL     1      16.904 -14.180 -15.287  1.00  0.00    -0.248 NA
ATOM     21  C   UNL     1      17.891 -13.601 -13.252  1.00  0.00     0.031 C 
ATOM     22  C   UNL     1      13.511 -11.411 -14.173  1.00  0.00     0.029 A 
ATOM     23  N   UNL     1      14.171 -12.954 -15.654  1.00  0.00    -0.354 N 
ATOM     24  C   UNL     1      18.078 -14.907 -15.115  1.00  0.00     0.074 A 
ATOM     25  C   UNL     1      18.662 -14.484 -13.862  1.00  0.00     0.031 C 
ATOM     26  C   UNL     1      12.519 -11.566 -15.066  1.00  0.00     0.029 A 
ATOM     27  C   UNL     1      12.953 -12.500 -16.101  1.00  0.00     0.049 A 
ATOM     28  H   UNL     1      14.673 -13.680 -16.091  1.00  0.00     0.167 HD
ATOM     29  C   UNL     1      18.619 -15.829 -15.948  1.00  0.00     0.034 A 
ATOM     30  C   UNL     1      12.306 -12.767 -17.252  1.00  0.00     0.034 A 
ATOM     31  C   UNL     1      18.005 -16.187 -17.201  1.00  0.00     0.049 A 
ATOM     32  C   UNL     1      12.964 -13.716 -18.223  1.00  0.00     0.074 A 
ATOM     33  C   UNL     1      18.464 -17.036 -18.189  1.00  0.00     0.029 A 
ATOM     34  N   UNL     1      16.779 -15.689 -17.640  1.00  0.00    -0.354 N 
ATOM     35  N   UNL     1      14.118 -14.339 -18.110  1.00  0.00    -0.248 NA
ATOM     36  C   UNL     1      12.250 -13.993 -19.474  1.00  0.00     0.031 C 
ATOM     37  C   UNL     1      17.548 -17.003 -19.248  1.00  0.00     0.029 A 
ATOM     38  C   UNL     1      16.478 -16.194 -18.892  1.00  0.00     0.049 A 
ATOM     39  H   UNL     1      16.210 -15.067 -17.132  1.00  0.00     0.167 HD
ATOM     40  C   UNL     1      14.260 -15.097 -19.267  1.00  0.00     0.074 A 
ATOM     41  C   UNL     1      13.069 -14.855 -20.062  1.00  0.00     0.031 C 
ATOM     42  C   UNL     1      15.272 -15.921 -19.643  1.00  0.00     0.034 A 
BRANCH  29  43
ATOM     43  C   UNL     1      19.971 -16.379 -15.558  1.00  0.00     0.023 A 
ATOM     44  C   UNL     1      20.167 -17.088 -14.358  1.00  0.00     0.031 A 
ATOM     45  C   UNL     1      21.109 -16.052 -16.318  1.00  0.00     0.131 A 
ATOM     46  C   UNL     1      21.470 -17.333 -13.894  1.00  0.00     0.055 A 
ATOM     47  C   UNL     1      22.398 -16.388 -15.898  1.00  0.00     0.041 A 
ATOM     48  F   UNL     1      20.993 -15.350 -17.456  1.00  0.00    -0.206 F 
ATOM     49  C   UNL     1      22.586 -17.008 -14.666  1.00  0.00     0.022 A 
BRANCH  46  50
ATOM     50  S   UNL     1      21.686 -17.871 -12.172  1.00  0.00     0.124 S 
ATOM     51  O   UNL     1      21.009 -16.802 -11.440  1.00  0.00    -0.237 OA
ATOM     52  O   UNL     1      21.025 -19.170 -12.162  1.00  0.00    -0.237 OA
ATOM     53  O   UNL     1      23.138 -17.906 -12.003  1.00  0.00    -0.744 OA
ENDBRANCH  46  50
ENDBRANCH  29  43
BRANCH  30  54
ATOM     54  C   UNL     1      11.033 -12.058 -17.574  1.00  0.00     0.023 A 
ATOM     55  C   UNL     1       9.813 -12.742 -17.685  1.00  0.00     0.031 A 
ATOM     56  C   UNL     1      11.023 -10.661 -17.757  1.00  0.00     0.131 A 
ATOM     57  C   UNL     1       8.636 -12.029 -17.980  1.00  0.00     0.055 A 
ATOM     58  C   UNL     1       9.846  -9.953 -18.007  1.00  0.00     0.041 A 
ATOM     59  F   UNL     1      12.162  -9.956 -17.662  1.00  0.00    -0.206 F 
ATOM     60  C   UNL     1       8.643 -10.639 -18.125  1.00  0.00     0.022 A 
BRANCH  57  61
ATOM     61  S   UNL     1       7.088 -12.949 -18.207  1.00  0.00     0.124 S 
ATOM     62  O   UNL     1       7.419 -13.815 -19.334  1.00  0.00    -0.237 OA
ATOM     63  O   UNL     1       6.933 -13.607 -16.915  1.00  0.00    -0.237 OA
ATOM     64  O   UNL     1       6.109 -11.902 -18.492  1.00  0.00    -0.744 OA
ENDBRANCH  57  61
ENDBRANCH  30  54
BRANCH  42  65
ATOM     65  C   UNL     1      15.101 -16.661 -20.942  1.00  0.00     0.023 A 
ATOM     66  C   UNL     1      15.214 -16.013 -22.182  1.00  0.00     0.031 A 
ATOM     67  C   UNL     1      14.874 -18.049 -20.927  1.00  0.00     0.131 A 
ATOM     68  C   UNL     1      15.071 -16.754 -23.364  1.00  0.00     0.055 A 
ATOM     69  C   UNL     1      14.780 -18.786 -22.105  1.00  0.00     0.041 A 
ATOM     70  F   UNL     1      14.764 -18.709 -19.763  1.00  0.00    -0.206 F 
ATOM     71  C   UNL     1      14.873 -18.138 -23.334  1.00  0.00     0.022 A 
BRANCH  68  72
ATOM     72  S   UNL     1      15.109 -15.879 -24.952  1.00  0.00     0.124 S 
ATOM     73  O   UNL     1      13.941 -15.009 -24.845  1.00  0.00    -0.237 OA
ATOM     74  O   UNL     1      16.406 -15.212 -24.913  1.00  0.00    -0.237 OA
ATOM     75  O   UNL     1      14.994 -16.952 -25.937  1.00  0.00    -0.744 OA
ENDBRANCH  68  72
ENDBRANCH  42  65
ENDBRANCH  16  17
ENDBRANCH   9  11
ENDBRANCH   8   9
ENDBRANCH   7   8
ENDBRANCH   6   7
ENDBRANCH   5   6
ENDBRANCH   4   5
ENDBRANCH   3   4
ENDBRANCH   2   3
ENDBRANCH   1   2
BRANCH   1  76
ATOM     76  C   UNL     1      12.047 -10.628  -7.682  1.00  0.00     0.188 C 
BRANCH  76  77
ATOM     77  O   UNL     1      11.923  -9.873  -8.880  1.00  0.00    -0.376 OA
BRANCH  77  78
ATOM     78  C   UNL     1      10.587  -9.673  -9.338  1.00  0.00     0.202 C 
BRANCH  78  79
ATOM     79  C   UNL     1       9.865  -8.524  -8.623  1.00  0.00     0.261 C 
BRANCH  79  80
ATOM     80  O   UNL     1       9.746  -8.707  -7.202  1.00  0.00    -0.460 OA
BRANCH  80  81
ATOM     81  C   UNL     1       8.919  -9.684  -6.776  1.00  0.00     0.338 C 
ATOM     82  O   UNL     1       8.161 -10.360  -7.445  1.00  0.00    -0.246 OA
BRANCH  81  83
ATOM     83  C   UNL     1       9.255  -9.961  -5.361  1.00  0.00     0.060 A 
ATOM     84  C   UNL     1       9.482 -11.295  -4.997  1.00  0.00     0.017 A 
ATOM     85  C   UNL     1       9.487  -8.925  -4.444  1.00  0.00     0.017 A 
ATOM     86  C   UNL     1       9.942 -11.592  -3.716  1.00  0.00     0.022 A 
ATOM     87  C   UNL     1       9.917  -9.224  -3.150  1.00  0.00     0.022 A 
ATOM     88  C   UNL     1      10.113 -10.560  -2.785  1.00  0.00     0.082 A 
BRANCH  88  89
ATOM     89  S   UNL     1      10.467 -10.973  -1.097  1.00  0.00     0.240 S 
ATOM     90  O   UNL     1      10.225 -12.391  -0.920  1.00  0.00    -0.207 OA
ATOM     91  O   UNL     1      11.726 -10.369  -0.746  1.00  0.00    -0.207 OA
BRANCH  89  92
ATOM     92  N   UNL     1       9.298 -10.159  -0.204  1.00  0.00    -0.211 NA
ATOM     93  H   UNL     1       9.633  -9.198  -0.135  1.00  0.00     0.141 HD
BRANCH  92  94
ATOM     94  C   UNL     1       7.877 -10.047  -0.550  1.00  0.00     0.103 C 
BRANCH  94  95
ATOM     95  C   UNL     1       7.035 -11.320  -0.537  1.00  0.00     0.020 C 
ATOM     96  C   UNL     1       7.081 -12.131  -1.836  1.00  0.00     0.022 C 
ATOM     97  C   UNL     1       7.325 -12.290   0.607  1.00  0.00     0.142 C 
ATOM     98  C   UNL     1       6.321 -13.429  -1.603  1.00  0.00     0.137 C 
ATOM     99  S   UNL     1       6.523 -13.814   0.128  1.00  0.00     0.150 S 
ATOM    100  O   UNL     1       5.208 -13.839   0.738  1.00  0.00    -0.229 OA
ATOM    101  O   UNL     1       7.455 -14.911   0.270  1.00  0.00    -0.229 OA
ENDBRANCH  94  95
ENDBRANCH  92  94
ENDBRANCH  89  92
ENDBRANCH  88  89
ENDBRANCH  81  83
ENDBRANCH  80  81
ENDBRANCH  79  80
ENDBRANCH  78  79
ENDBRANCH  77  78
ENDBRANCH  76  77
ENDBRANCH   1  76
TORSDOF 27
