REMARK SMILES CC1=C([C@H](NC(=O)c2cccc3ccccc23)C(=O)OCCOCCOCCOCCOC(=O)c2ccc(-c3c4nc(c(-c5cc(S(=O)(=O)[O-])ccc5F)c5ccc([nH]5)c(-c5cc(S(=O)(=O)[O-])ccc5F)c5nc(c(-c6cc(S(=O)(=O)[O-])ccc6F)c6ccc3[nH]6)C=C5)C=C4)cc2)[C@H](C)N=N1
REMARK SMILES IDX 27 1 26 2 25 3 24 4 23 5 22 6 21 7 20 8 18 9 19 10 4 11 3 12
REMARK SMILES IDX 1 13 2 14 101 15 98 16 100 17 99 18 5 19 6 20 7 22 8 23 9 24
REMARK SMILES IDX 17 25 10 26 12 27 16 28 11 29 13 30 15 31 14 32 28 33 29 34
REMARK SMILES IDX 30 35 31 36 32 37 33 38 34 39 35 40 36 41 97 42 37 43 96 44
REMARK SMILES IDX 38 45 39 46 40 47 90 48 41 49 95 50 89 51 91 52 42 53 94 54
REMARK SMILES IDX 88 55 87 56 43 58 75 59 55 60 74 61 56 62 59 63 73 64 92 65
REMARK SMILES IDX 57 66 58 67 72 69 93 70 60 71 44 72 45 73 53 74 46 75 52 76
REMARK SMILES IDX 54 77 51 78 47 79 48 80 49 81 50 82 76 83 77 84 85 85 78 86
REMARK SMILES IDX 84 87 86 88 83 89 79 90 80 91 81 92 82 93 61 94 62 95 70 96
REMARK SMILES IDX 63 97 69 98 71 99 68 100 64 101 65 102 66 103 67 104
REMARK H PARENT 5 21 91 57 59 68
REMARK Flexibility Score: inf
ROOT
ATOM      1  C   UNL     1      -0.327  -4.631   3.794  1.00  0.00     0.188 C 
ENDROOT
BRANCH   1   2
ATOM      2  O   UNL     1      -0.087  -3.616   2.468  1.00  0.00    -0.377 OA
BRANCH   2   3
ATOM      3  C   UNL     1       0.099  -2.048   2.265  1.00  0.00     0.188 C 
BRANCH   3   4
ATOM      4  C   UNL     1      -0.915  -0.651   2.538  1.00  0.00     0.188 C 
BRANCH   4   5
ATOM      5  O   UNL     1      -1.857  -0.535   3.605  1.00  0.00    -0.376 OA
BRANCH   5   6
ATOM      6  C   UNL     1      -3.191  -0.018   3.742  1.00  0.00     0.202 C 
BRANCH   6   7
ATOM      7  C   UNL     1      -4.458  -0.467   2.951  1.00  0.00     0.261 C 
BRANCH   7   8
ATOM      8  O   UNL     1      -4.192  -1.154   1.755  1.00  0.00    -0.461 OA
BRANCH   8   9
ATOM      9  C   UNL     1      -3.499  -0.391   0.896  1.00  0.00     0.333 C 
ATOM     10  O   UNL     1      -3.509   0.835   0.876  1.00  0.00    -0.249 OA
BRANCH   9  11
ATOM     11  C   UNL     1      -2.720  -1.269  -0.058  1.00  0.00     0.223 C 
BRANCH  11  12
ATOM     12  C   UNL     1      -3.509  -1.487  -1.314  1.00  0.00     0.012 C 
ATOM     13  C   UNL     1      -3.338  -3.982  -1.819  1.00  0.00     0.069 C 
ATOM     14  C   UNL     1      -3.761  -2.575  -2.051  1.00  0.00     0.064 C 
ATOM     15  N   UNL     1      -4.441  -2.287  -3.207  1.00  0.00    -0.160 NA
ATOM     16  C   UNL     1      -4.075  -0.344  -2.125  1.00  0.00     0.156 C 
ATOM     17  N   UNL     1      -4.631  -1.048  -3.313  1.00  0.00    -0.181 NA
ATOM     18  C   UNL     1      -5.213   0.478  -1.521  1.00  0.00     0.040 C 
ENDBRANCH  11  12
BRANCH  11  19
ATOM     19  N   UNL     1      -2.112  -2.502   0.524  1.00  0.00    -0.335 N 
ATOM     20  C   UNL     1      -2.320  -3.370   1.599  1.00  0.00     0.252 C 
ATOM     21  H   UNL     1      -1.334  -2.788  -0.006  1.00  0.00     0.165 HD
ATOM     22  O   UNL     1      -2.300  -4.570   1.288  1.00  0.00    -0.269 OA
BRANCH  20  23
ATOM     23  C   UNL     1      -2.551  -3.035   3.117  1.00  0.00     0.047 A 
ATOM     24  C   UNL     1      -3.857  -3.529   3.391  1.00  0.00     0.014 A 
ATOM     25  C   UNL     1      -1.520  -2.741   4.310  1.00  0.00    -0.006 A 
ATOM     26  C   UNL     1      -4.469  -3.541   4.645  1.00  0.00     0.001 A 
ATOM     27  C   UNL     1      -2.508  -2.758   5.784  1.00  0.00    -0.018 A 
ATOM     28  C   UNL     1       0.368  -2.782   4.662  1.00  0.00     0.009 A 
ATOM     29  C   UNL     1      -3.859  -3.039   5.782  1.00  0.00     0.009 A 
ATOM     30  C   UNL     1      -1.817  -2.852   7.365  1.00  0.00     0.009 A 
ATOM     31  C   UNL     1       0.957  -3.008   6.414  1.00  0.00     0.001 A 
ATOM     32  C   UNL     1      -0.172  -2.995   7.692  1.00  0.00     0.001 A 
ENDBRANCH  20  23
ENDBRANCH  11  19
ENDBRANCH   9  11
ENDBRANCH   8   9
ENDBRANCH   7   8
ENDBRANCH   6   7
ENDBRANCH   5   6
ENDBRANCH   4   5
ENDBRANCH   3   4
ENDBRANCH   2   3
ENDBRANCH   1   2
BRANCH   1  33
ATOM     33  C   UNL     1      -0.669  -4.065   5.605  1.00  0.00     0.188 C 
BRANCH  33  34
ATOM     34  O   UNL     1      -0.637  -2.056   5.949  1.00  0.00    -0.376 OA
BRANCH  34  35
ATOM     35  C   UNL     1       0.682  -0.870   5.673  1.00  0.00     0.202 C 
BRANCH  35  36
ATOM     36  C   UNL     1       2.397  -1.179   5.233  1.00  0.00     0.261 C 
BRANCH  36  37
ATOM     37  O   UNL     1       2.902  -2.479   4.672  1.00  0.00    -0.460 OA
BRANCH  37  38
ATOM     38  C   UNL     1       3.599  -3.363   5.455  1.00  0.00     0.338 C 
ATOM     39  O   UNL     1       4.232  -3.045   6.451  1.00  0.00    -0.246 OA
BRANCH  38  40
ATOM     40  C   UNL     1       3.239  -4.806   5.200  1.00  0.00     0.060 A 
ATOM     41  C   UNL     1       2.952  -5.638   6.311  1.00  0.00     0.016 A 
ATOM     42  C   UNL     1       3.379  -5.375   3.936  1.00  0.00     0.016 A 
ATOM     43  C   UNL     1       3.107  -7.012   6.215  1.00  0.00     0.010 A 
ATOM     44  C   UNL     1       3.566  -6.751   3.843  1.00  0.00     0.010 A 
ATOM     45  C   UNL     1       3.589  -7.517   5.014  1.00  0.00    -0.014 A 
BRANCH  45  46
ATOM     46  C   UNL     1       4.401  -8.732   5.071  1.00  0.00     0.031 A 
ATOM     47  C   UNL     1       3.673 -10.007   4.926  1.00  0.00     0.074 A 
ATOM     48  C   UNL     1       5.748  -8.628   5.181  1.00  0.00     0.049 A 
ATOM     49  N   UNL     1       3.446 -10.892   5.840  1.00  0.00    -0.248 NA
ATOM     50  C   UNL     1       2.971 -10.262   3.661  1.00  0.00     0.031 C 
ATOM     51  C   UNL     1       6.546  -7.395   5.131  1.00  0.00     0.029 A 
ATOM     52  N   UNL     1       6.712  -9.590   5.263  1.00  0.00    -0.354 N 
ATOM     53  C   UNL     1       2.807 -11.938   5.185  1.00  0.00     0.074 A 
ATOM     54  C   UNL     1       2.313 -11.384   3.954  1.00  0.00     0.031 C 
ATOM     55  C   UNL     1       7.848  -7.702   4.935  1.00  0.00     0.029 A 
ATOM     56  C   UNL     1       8.003  -9.146   4.961  1.00  0.00     0.049 A 
ATOM     57  H   UNL     1       6.514 -10.521   5.514  1.00  0.00     0.167 HD
ATOM     58  C   UNL     1       3.010 -13.232   5.559  1.00  0.00     0.034 A 
ATOM     59  C   UNL     1       9.102  -9.907   4.683  1.00  0.00     0.034 A 
ATOM     60  C   UNL     1       3.611 -13.304   6.873  1.00  0.00     0.049 A 
ATOM     61  C   UNL     1       8.842 -11.255   5.250  1.00  0.00     0.074 A 
ATOM     62  C   UNL     1       3.254 -12.850   8.128  1.00  0.00     0.029 A 
ATOM     63  N   UNL     1       4.954 -13.603   6.954  1.00  0.00    -0.354 N 
ATOM     64  N   UNL     1       8.761 -11.484   6.532  1.00  0.00    -0.248 NA
ATOM     65  C   UNL     1       8.160 -12.227   4.408  1.00  0.00     0.031 C 
ATOM     66  C   UNL     1       4.476 -12.438   8.734  1.00  0.00     0.029 A 
ATOM     67  C   UNL     1       5.524 -12.748   7.865  1.00  0.00     0.049 A 
ATOM     68  H   UNL     1       5.422 -14.305   6.447  1.00  0.00     0.167 HD
ATOM     69  C   UNL     1       7.669 -12.326   6.677  1.00  0.00     0.074 A 
ATOM     70  C   UNL     1       7.398 -12.826   5.329  1.00  0.00     0.031 C 
ATOM     71  C   UNL     1       6.904 -12.301   7.809  1.00  0.00     0.034 A 
BRANCH  58  72
ATOM     72  C   UNL     1       3.043 -14.409   4.603  1.00  0.00     0.023 A 
ATOM     73  C   UNL     1       3.244 -15.684   5.167  1.00  0.00     0.031 A 
ATOM     74  C   UNL     1       3.182 -14.335   3.197  1.00  0.00     0.131 A 
ATOM     75  C   UNL     1       3.672 -16.764   4.376  1.00  0.00     0.055 A 
ATOM     76  C   UNL     1       3.535 -15.431   2.406  1.00  0.00     0.041 A 
ATOM     77  F   UNL     1       3.084 -13.191   2.511  1.00  0.00    -0.206 F 
ATOM     78  C   UNL     1       3.818 -16.648   2.998  1.00  0.00     0.022 A 
BRANCH  75  79
ATOM     79  S   UNL     1       4.210 -18.275   5.214  1.00  0.00     0.124 S 
ATOM     80  O   UNL     1       5.257 -17.763   6.091  1.00  0.00    -0.237 OA
ATOM     81  O   UNL     1       2.979 -18.713   5.863  1.00  0.00    -0.237 OA
ATOM     82  O   UNL     1       4.673 -19.122   4.117  1.00  0.00    -0.744 OA
ENDBRANCH  75  79
ENDBRANCH  58  72
BRANCH  59  83
ATOM     83  C   UNL     1      10.169  -9.633   3.667  1.00  0.00     0.023 A 
ATOM     84  C   UNL     1      11.412 -10.312   3.634  1.00  0.00     0.031 A 
ATOM     85  C   UNL     1       9.865  -8.841   2.535  1.00  0.00     0.131 A 
ATOM     86  C   UNL     1      12.274 -10.181   2.513  1.00  0.00     0.055 A 
ATOM     87  C   UNL     1      10.719  -8.714   1.437  1.00  0.00     0.041 A 
ATOM     88  F   UNL     1       8.678  -8.227   2.412  1.00  0.00    -0.206 F 
ATOM     89  C   UNL     1      11.925  -9.393   1.416  1.00  0.00     0.022 A 
BRANCH  86  90
ATOM     90  S   UNL     1      13.841 -11.116   2.413  1.00  0.00     0.124 S 
ATOM     91  O   UNL     1      14.655 -10.474   3.439  1.00  0.00    -0.237 OA
ATOM     92  O   UNL     1      13.412 -12.483   2.684  1.00  0.00    -0.237 OA
ATOM     93  O   UNL     1      14.293 -10.882   1.040  1.00  0.00    -0.744 OA
ENDBRANCH  86  90
ENDBRANCH  59  83
BRANCH  71  94
ATOM     94  C   UNL     1       7.444 -11.586   9.035  1.00  0.00     0.023 A 
ATOM     95  C   UNL     1       7.848 -10.231   9.081  1.00  0.00     0.031 A 
ATOM     96  C   UNL     1       7.438 -12.303  10.245  1.00  0.00     0.131 A 
ATOM     97  C   UNL     1       8.237  -9.653  10.307  1.00  0.00     0.055 A 
ATOM     98  C   UNL     1       7.798 -11.720  11.459  1.00  0.00     0.041 A 
ATOM     99  F   UNL     1       7.043 -13.586  10.274  1.00  0.00    -0.206 F 
ATOM    100  C   UNL     1       8.206 -10.393  11.493  1.00  0.00     0.022 A 
BRANCH  97 101
ATOM    101  S   UNL     1       8.822  -7.928  10.387  1.00  0.00     0.124 S 
ATOM    102  O   UNL     1       9.719  -7.817   9.243  1.00  0.00    -0.237 OA
ATOM    103  O   UNL     1       7.575  -7.172  10.300  1.00  0.00    -0.237 OA
ATOM    104  O   UNL     1       9.485  -7.857  11.691  1.00  0.00    -0.744 OA
ENDBRANCH  97 101
ENDBRANCH  71  94
ENDBRANCH  45  46
ENDBRANCH  38  40
ENDBRANCH  37  38
ENDBRANCH  36  37
ENDBRANCH  35  36
ENDBRANCH  34  35
ENDBRANCH  33  34
ENDBRANCH   1  33
TORSDOF 26
