REMARK SMILES O=C(CN(CC(F)(F)F)S(=O)(=O)c1cccc(F)c1)OCCOCCOCCOCCOC(=O)c1ccc(-c2c3nc(c(-c4cc(S(=O)(=O)[O-])ccc4F)c4ccc([nH]4)c(-c4cc(S(=O)(=O)[O-])ccc4F)c4nc(c(-c5cc(S(=O)(=O)[O-])ccc5F)c5ccc2[nH]5)C=C4)C=C3)cc1
REMARK SMILES IDX 26 1 25 2 24 3 23 4 22 5 21 6 20 7 2 8 1 9 3 10 4 11 5 12
REMARK SMILES IDX 6 13 7 14 8 15 9 16 10 17 11 18 12 19 13 20 14 21 19 22
REMARK SMILES IDX 15 23 17 24 16 25 18 26 27 27 28 28 29 29 30 30 31 31 32 32
REMARK SMILES IDX 33 33 34 34 35 35 36 36 97 37 37 38 96 39 38 40 39 41 40 42
REMARK SMILES IDX 90 43 41 44 95 45 89 46 91 47 42 48 94 49 88 50 87 51 43 53
REMARK SMILES IDX 75 54 55 55 74 56 56 57 59 58 73 59 92 60 57 61 58 62 72 64
REMARK SMILES IDX 93 65 60 66 44 67 45 68 53 69 46 70 52 71 54 72 51 73 47 74
REMARK SMILES IDX 48 75 49 76 50 77 76 78 77 79 85 80 78 81 84 82 86 83 83 84
REMARK SMILES IDX 79 85 80 86 81 87 82 88 61 89 62 90 70 91 63 92 69 93 71 94
REMARK SMILES IDX 68 95 64 96 65 97 66 98 67 99
REMARK H PARENT 91 52 59 63
REMARK Flexibility Score: inf
ROOT
ATOM      1  O   UNL     1       2.885  -3.805   0.373  1.00  0.00    -0.377 OA
ENDROOT
BRANCH   1   2
ATOM      2  C   UNL     1       2.258  -2.538   0.236  1.00  0.00     0.188 C 
BRANCH   2   3
ATOM      3  C   UNL     1       2.580  -1.768  -1.047  1.00  0.00     0.188 C 
BRANCH   3   4
ATOM      4  O   UNL     1       3.789  -1.026  -1.218  1.00  0.00    -0.376 OA
BRANCH   4   5
ATOM      5  C   UNL     1       4.550  -0.462  -0.168  1.00  0.00     0.202 C 
BRANCH   5   6
ATOM      6  C   UNL     1       3.916   0.452   0.881  1.00  0.00     0.261 C 
BRANCH   6   7
ATOM      7  O   UNL     1       2.489   0.465   0.947  1.00  0.00    -0.462 OA
BRANCH   7   8
ATOM      8  C   UNL     1       1.680   1.072   0.051  1.00  0.00     0.321 C 
ATOM      9  O   UNL     1       0.460   1.027   0.213  1.00  0.00    -0.251 OA
BRANCH   8  10
ATOM     10  C   UNL     1       2.271   1.630  -1.224  1.00  0.00     0.225 C 
BRANCH  10  11
ATOM     11  N   UNL     1       3.334   2.673  -1.121  1.00  0.00    -0.178 NA
BRANCH  11  12
ATOM     12  C   UNL     1       4.212   2.703  -2.360  1.00  0.00     0.218 C 
BRANCH  12  13
ATOM     13  C   UNL     1       3.553   2.776  -3.744  1.00  0.00     0.402 C 
ATOM     14  F   UNL     1       2.976   3.967  -3.982  1.00  0.00    -0.170 F 
ATOM     15  F   UNL     1       4.499   2.599  -4.701  1.00  0.00    -0.170 F 
ATOM     16  F   UNL     1       2.628   1.810  -3.927  1.00  0.00    -0.170 F 
ENDBRANCH  12  13
ENDBRANCH  11  12
BRANCH  11  17
ATOM     17  S   UNL     1       2.651   4.133  -0.575  1.00  0.00     0.244 S 
ATOM     18  O   UNL     1       1.869   4.650  -1.667  1.00  0.00    -0.207 OA
ATOM     19  O   UNL     1       2.063   3.868   0.722  1.00  0.00    -0.207 OA
BRANCH  17  20
ATOM     20  C   UNL     1       3.990   5.242  -0.287  1.00  0.00     0.085 A 
ATOM     21  C   UNL     1       3.757   6.606  -0.503  1.00  0.00     0.022 A 
ATOM     22  C   UNL     1       5.230   4.786   0.158  1.00  0.00     0.061 A 
ATOM     23  C   UNL     1       4.776   7.527  -0.271  1.00  0.00     0.004 A 
ATOM     24  C   UNL     1       6.240   5.717   0.362  1.00  0.00     0.124 A 
ATOM     25  C   UNL     1       6.025   7.078   0.156  1.00  0.00     0.039 A 
ATOM     26  F   UNL     1       7.448   5.297   0.758  1.00  0.00    -0.207 F 
ENDBRANCH  17  20
ENDBRANCH  11  17
ENDBRANCH  10  11
ENDBRANCH   8  10
ENDBRANCH   7   8
ENDBRANCH   6   7
ENDBRANCH   5   6
ENDBRANCH   4   5
ENDBRANCH   3   4
ENDBRANCH   2   3
ENDBRANCH   1   2
BRANCH   1  27
ATOM     27  C   UNL     1       4.284  -3.743   0.598  1.00  0.00     0.188 C 
BRANCH  27  28
ATOM     28  C   UNL     1       5.113  -3.938  -0.683  1.00  0.00     0.188 C 
BRANCH  28  29
ATOM     29  O   UNL     1       4.330  -3.906  -1.870  1.00  0.00    -0.376 OA
BRANCH  29  30
ATOM     30  C   UNL     1       3.990  -5.164  -2.447  1.00  0.00     0.202 C 
BRANCH  30  31
ATOM     31  C   UNL     1       3.073  -6.106  -1.645  1.00  0.00     0.261 C 
BRANCH  31  32
ATOM     32  O   UNL     1       3.530  -6.485  -0.338  1.00  0.00    -0.460 OA
BRANCH  32  33
ATOM     33  C   UNL     1       4.707  -7.138  -0.240  1.00  0.00     0.338 C 
ATOM     34  O   UNL     1       5.403  -7.527  -1.160  1.00  0.00    -0.246 OA
BRANCH  33  35
ATOM     35  C   UNL     1       5.130  -7.070   1.180  1.00  0.00     0.060 A 
ATOM     36  C   UNL     1       6.427  -6.623   1.465  1.00  0.00     0.016 A 
ATOM     37  C   UNL     1       4.237  -7.351   2.222  1.00  0.00     0.016 A 
ATOM     38  C   UNL     1       6.846  -6.493   2.788  1.00  0.00     0.010 A 
ATOM     39  C   UNL     1       4.666  -7.248   3.549  1.00  0.00     0.010 A 
ATOM     40  C   UNL     1       5.985  -6.855   3.833  1.00  0.00    -0.014 A 
BRANCH  40  41
ATOM     41  C   UNL     1       6.564  -7.090   5.177  1.00  0.00     0.031 A 
ATOM     42  C   UNL     1       7.077  -8.474   5.471  1.00  0.00     0.074 A 
ATOM     43  C   UNL     1       6.697  -6.105   6.082  1.00  0.00     0.049 A 
ATOM     44  N   UNL     1       7.677  -8.930   6.538  1.00  0.00    -0.248 NA
ATOM     45  C   UNL     1       6.892  -9.478   4.409  1.00  0.00     0.031 C 
ATOM     46  C   UNL     1       6.279  -4.718   5.892  1.00  0.00     0.029 A 
ATOM     47  N   UNL     1       7.239  -6.124   7.343  1.00  0.00    -0.354 N 
ATOM     48  C   UNL     1       7.950 -10.266   6.271  1.00  0.00     0.074 A 
ATOM     49  C   UNL     1       7.420 -10.558   4.959  1.00  0.00     0.031 C 
ATOM     50  C   UNL     1       6.585  -4.016   6.999  1.00  0.00     0.029 A 
ATOM     51  C   UNL     1       7.199  -4.908   7.983  1.00  0.00     0.049 A 
ATOM     52  H   UNL     1       7.620  -6.935   7.752  1.00  0.00     0.167 HD
ATOM     53  C   UNL     1       8.595 -11.168   7.046  1.00  0.00     0.034 A 
ATOM     54  C   UNL     1       7.603  -4.561   9.223  1.00  0.00     0.034 A 
ATOM     55  C   UNL     1       9.102 -10.873   8.359  1.00  0.00     0.049 A 
ATOM     56  C   UNL     1       8.233  -5.604  10.111  1.00  0.00     0.074 A 
ATOM     57  C   UNL     1       9.784 -11.708   9.224  1.00  0.00     0.029 A 
ATOM     58  N   UNL     1       8.963  -9.651   9.004  1.00  0.00    -0.354 N 
ATOM     59  N   UNL     1       8.487  -6.865   9.848  1.00  0.00    -0.248 NA
ATOM     60  C   UNL     1       8.628  -5.183  11.463  1.00  0.00     0.031 C 
ATOM     61  C   UNL     1       9.996 -11.013  10.419  1.00  0.00     0.029 A 
ATOM     62  C   UNL     1       9.512  -9.722  10.272  1.00  0.00     0.049 A 
ATOM     63  H   UNL     1       8.537  -8.853   8.616  1.00  0.00     0.167 HD
ATOM     64  C   UNL     1       9.087  -7.383  10.993  1.00  0.00     0.074 A 
ATOM     65  C   UNL     1       9.155  -6.299  11.952  1.00  0.00     0.031 C 
ATOM     66  C   UNL     1       9.551  -8.637  11.223  1.00  0.00     0.034 A 
BRANCH  53  67
ATOM     67  C   UNL     1       8.732 -12.567   6.509  1.00  0.00     0.023 A 
ATOM     68  C   UNL     1       9.549 -12.856   5.402  1.00  0.00     0.031 A 
ATOM     69  C   UNL     1       8.015 -13.621   7.099  1.00  0.00     0.131 A 
ATOM     70  C   UNL     1       9.589 -14.161   4.889  1.00  0.00     0.055 A 
ATOM     71  C   UNL     1       8.110 -14.929   6.625  1.00  0.00     0.041 A 
ATOM     72  F   UNL     1       7.199 -13.392   8.141  1.00  0.00    -0.206 F 
ATOM     73  C   UNL     1       8.893 -15.204   5.507  1.00  0.00     0.022 A 
BRANCH  70  74
ATOM     74  S   UNL     1      10.487 -14.461   3.342  1.00  0.00     0.124 S 
ATOM     75  O   UNL     1       9.721 -13.653   2.396  1.00  0.00    -0.237 OA
ATOM     76  O   UNL     1      11.827 -13.978   3.654  1.00  0.00    -0.237 OA
ATOM     77  O   UNL     1      10.373 -15.906   3.155  1.00  0.00    -0.744 OA
ENDBRANCH  70  74
ENDBRANCH  53  67
BRANCH  54  78
ATOM     78  C   UNL     1       7.389  -3.168   9.704  1.00  0.00     0.023 A 
ATOM     79  C   UNL     1       8.461  -2.277   9.868  1.00  0.00     0.031 A 
ATOM     80  C   UNL     1       6.092  -2.705   9.986  1.00  0.00     0.131 A 
ATOM     81  C   UNL     1       8.215  -0.965  10.307  1.00  0.00     0.055 A 
ATOM     82  C   UNL     1       5.850  -1.393  10.395  1.00  0.00     0.041 A 
ATOM     83  F   UNL     1       5.035  -3.519   9.838  1.00  0.00    -0.206 F 
ATOM     84  C   UNL     1       6.916  -0.514  10.558  1.00  0.00     0.022 A 
BRANCH  81  85
ATOM     85  S   UNL     1       9.620   0.161  10.536  1.00  0.00     0.124 S 
ATOM     86  O   UNL     1      10.301  -0.442  11.676  1.00  0.00    -0.237 OA
ATOM     87  O   UNL     1      10.305   0.062   9.252  1.00  0.00    -0.237 OA
ATOM     88  O   UNL     1       8.983   1.450  10.798  1.00  0.00    -0.744 OA
ENDBRANCH  81  85
ENDBRANCH  54  78
BRANCH  66  89
ATOM     89  C   UNL     1      10.197  -8.915  12.554  1.00  0.00     0.023 A 
ATOM     90  C   UNL     1       9.435  -9.057  13.724  1.00  0.00     0.031 A 
ATOM     91  C   UNL     1      11.584  -9.131  12.628  1.00  0.00     0.131 A 
ATOM     92  C   UNL     1      10.070  -9.393  14.929  1.00  0.00     0.055 A 
ATOM     93  C   UNL     1      12.204  -9.507  13.820  1.00  0.00     0.041 A 
ATOM     94  F   UNL     1      12.352  -9.016  11.533  1.00  0.00    -0.206 F 
ATOM     95  C   UNL     1      11.446  -9.638  14.980  1.00  0.00     0.022 A 
BRANCH  92  96
ATOM     96  S   UNL     1       9.077  -9.504  16.443  1.00  0.00     0.124 S 
ATOM     97  O   UNL     1       8.670  -8.116  16.637  1.00  0.00    -0.237 OA
ATOM     98  O   UNL     1       8.017 -10.432  16.061  1.00  0.00    -0.237 OA
ATOM     99  O   UNL     1      10.019 -10.018  17.435  1.00  0.00    -0.744 OA
ENDBRANCH  92  96
ENDBRANCH  66  89
ENDBRANCH  40  41
ENDBRANCH  33  35
ENDBRANCH  32  33
ENDBRANCH  31  32
ENDBRANCH  30  31
ENDBRANCH  29  30
ENDBRANCH  28  29
ENDBRANCH  27  28
ENDBRANCH   1  27
TORSDOF 28
