REMARK SMILES COc1ccc(-c2ccc(S(=O)(=O)NC(C)(C)C)cc2)c(C(=O)OCCOCCOCCOCCOC(=O)c2ccc(-c3c4nc(c(-c5cc(S(=O)(=O)[O-])ccc5F)c5ccc([nH]5)c(-c5cc(S(=O)(=O)[O-])ccc5F)c5nc(c(-c6cc(S(=O)(=O)[O-])ccc6F)c6ccc3[nH]6)C=C5)C=C4)cc2)c1
REMARK SMILES IDX 29 1 28 2 27 3 26 4 25 5 24 6 22 7 23 8 21 9 3 10 4 11
REMARK SMILES IDX 102 12 5 13 6 14 2 15 1 16 7 17 8 18 20 19 9 20 19 21 10 22
REMARK SMILES IDX 11 23 12 24 13 25 14 26 15 28 16 29 17 30 18 31 30 32 31 33
REMARK SMILES IDX 32 34 33 35 34 36 35 37 36 38 37 39 38 40 39 41 40 42 101 43
REMARK SMILES IDX 41 44 100 45 42 46 43 47 44 48 94 49 45 50 99 51 93 52 95 53
REMARK SMILES IDX 46 54 98 55 92 56 91 57 47 59 79 60 59 61 78 62 60 63 63 64
REMARK SMILES IDX 77 65 96 66 61 67 62 68 76 70 97 71 64 72 48 73 49 74 57 75
REMARK SMILES IDX 50 76 56 77 58 78 55 79 51 80 52 81 53 82 54 83 80 84 81 85
REMARK SMILES IDX 89 86 82 87 88 88 90 89 87 90 83 91 84 92 85 93 86 94 65 95
REMARK SMILES IDX 66 96 74 97 67 98 73 99 75 100 72 101 68 102 69 103 70 104
REMARK SMILES IDX 71 105
REMARK H PARENT 14 27 95 58 63 69
REMARK Flexibility Score: inf
ROOT
ATOM      1  C   UNL     1       4.705  -0.151  -4.568  1.00  0.00     0.188 C 
ENDROOT
BRANCH   1   2
ATOM      2  C   UNL     1       5.474   1.097  -5.039  1.00  0.00     0.188 C 
BRANCH   2   3
ATOM      3  O   UNL     1       6.601   1.433  -4.241  1.00  0.00    -0.376 OA
BRANCH   3   4
ATOM      4  C   UNL     1       6.495   2.700  -3.598  1.00  0.00     0.202 C 
BRANCH   4   5
ATOM      5  C   UNL     1       5.726   2.600  -2.281  1.00  0.00     0.261 C 
BRANCH   5   6
ATOM      6  O   UNL     1       4.374   2.127  -2.428  1.00  0.00    -0.460 OA
BRANCH   6   7
ATOM      7  C   UNL     1       3.451   2.966  -2.956  1.00  0.00     0.338 C 
ATOM      8  O   UNL     1       3.652   4.105  -3.340  1.00  0.00    -0.246 OA
BRANCH   7   9
ATOM      9  C   UNL     1       2.152   2.232  -3.042  1.00  0.00     0.071 A 
ATOM     10  C   UNL     1       0.626   0.646  -2.005  1.00  0.00     0.119 A 
ATOM     11  C   UNL     1      -0.189   0.715  -3.133  1.00  0.00     0.047 A 
ATOM     12  C   UNL     1       1.792   1.407  -1.958  1.00  0.00     0.062 A 
ATOM     13  C   UNL     1       0.151   1.537  -4.210  1.00  0.00     0.013 A 
ATOM     14  C   UNL     1       1.331   2.300  -4.193  1.00  0.00    -0.004 A 
BRANCH  10  15
ATOM     15  O   UNL     1       0.194  -0.217  -1.036  1.00  0.00    -0.497 OA
ATOM     16  C   UNL     1       0.846  -0.134   0.227  1.00  0.00     0.278 C 
ENDBRANCH  10  15
BRANCH  14  17
ATOM     17  C   UNL     1       1.756   2.954  -5.436  1.00  0.00    -0.017 A 
ATOM     18  C   UNL     1       1.404   4.263  -5.787  1.00  0.00     0.010 A 
ATOM     19  C   UNL     1       2.588   2.237  -6.300  1.00  0.00     0.010 A 
ATOM     20  C   UNL     1       1.918   4.845  -6.957  1.00  0.00     0.022 A 
ATOM     21  C   UNL     1       3.192   2.846  -7.391  1.00  0.00     0.022 A 
ATOM     22  C   UNL     1       2.827   4.133  -7.749  1.00  0.00     0.082 A 
BRANCH  22  23
ATOM     23  S   UNL     1       3.505   4.897  -9.196  1.00  0.00     0.241 S 
ATOM     24  O   UNL     1       2.413   5.154 -10.105  1.00  0.00    -0.207 OA
ATOM     25  O   UNL     1       4.357   5.968  -8.721  1.00  0.00    -0.207 OA
BRANCH  23  26
ATOM     26  N   UNL     1       4.569   3.783  -9.873  1.00  0.00    -0.206 NA
ATOM     27  H   UNL     1       4.927   3.253  -9.078  1.00  0.00     0.141 HD
BRANCH  26  28
ATOM     28  C   UNL     1       4.284   2.757 -10.911  1.00  0.00     0.025 C 
ATOM     29  C   UNL     1       3.453   3.299 -12.073  1.00  0.00     0.028 C 
ATOM     30  C   UNL     1       5.658   2.317 -11.461  1.00  0.00     0.028 C 
ATOM     31  C   UNL     1       3.602   1.518 -10.325  1.00  0.00     0.028 C 
ENDBRANCH  26  28
ENDBRANCH  23  26
ENDBRANCH  22  23
ENDBRANCH  14  17
ENDBRANCH   7   9
ENDBRANCH   6   7
ENDBRANCH   5   6
ENDBRANCH   4   5
ENDBRANCH   3   4
ENDBRANCH   2   3
ENDBRANCH   1   2
BRANCH   1  32
ATOM     32  O   UNL     1       5.384  -1.228  -3.948  1.00  0.00    -0.377 OA
BRANCH  32  33
ATOM     33  C   UNL     1       6.774  -1.381  -4.179  1.00  0.00     0.188 C 
BRANCH  33  34
ATOM     34  C   UNL     1       7.262  -1.323  -5.637  1.00  0.00     0.188 C 
BRANCH  34  35
ATOM     35  O   UNL     1       6.214  -1.386  -6.606  1.00  0.00    -0.376 OA
BRANCH  35  36
ATOM     36  C   UNL     1       6.074  -2.632  -7.279  1.00  0.00     0.202 C 
BRANCH  36  37
ATOM     37  C   UNL     1       5.409  -3.731  -6.439  1.00  0.00     0.261 C 
BRANCH  37  38
ATOM     38  O   UNL     1       6.162  -4.163  -5.296  1.00  0.00    -0.460 OA
BRANCH  38  39
ATOM     39  C   UNL     1       7.398  -4.663  -5.519  1.00  0.00     0.338 C 
ATOM     40  O   UNL     1       7.931  -4.848  -6.597  1.00  0.00    -0.246 OA
BRANCH  39  41
ATOM     41  C   UNL     1       8.080  -4.753  -4.212  1.00  0.00     0.060 A 
ATOM     42  C   UNL     1       9.304  -4.093  -4.045  1.00  0.00     0.016 A 
ATOM     43  C   UNL     1       7.491  -5.440  -3.147  1.00  0.00     0.016 A 
ATOM     44  C   UNL     1       9.958  -4.146  -2.815  1.00  0.00     0.010 A 
ATOM     45  C   UNL     1       8.158  -5.513  -1.923  1.00  0.00     0.010 A 
ATOM     46  C   UNL     1       9.409  -4.893  -1.762  1.00  0.00    -0.014 A 
BRANCH  46  47
ATOM     47  C   UNL     1      10.254  -5.223  -0.590  1.00  0.00     0.031 A 
ATOM     48  C   UNL     1      11.051  -6.499  -0.643  1.00  0.00     0.074 A 
ATOM     49  C   UNL     1      10.345  -4.403   0.472  1.00  0.00     0.049 A 
ATOM     50  N   UNL     1      11.860  -7.014   0.244  1.00  0.00    -0.248 NA
ATOM     51  C   UNL     1      10.914  -7.300  -1.872  1.00  0.00     0.031 C 
ATOM     52  C   UNL     1       9.652  -3.124   0.617  1.00  0.00     0.029 A 
ATOM     53  N   UNL     1      11.063  -4.529   1.635  1.00  0.00    -0.354 N 
ATOM     54  C   UNL     1      12.350  -8.182  -0.329  1.00  0.00     0.074 A 
ATOM     55  C   UNL     1      11.703  -8.329  -1.614  1.00  0.00     0.031 C 
ATOM     56  C   UNL     1       9.973  -2.588   1.809  1.00  0.00     0.029 A 
ATOM     57  C   UNL     1      10.871  -3.495   2.521  1.00  0.00     0.049 A 
ATOM     58  H   UNL     1      11.661  -5.290   1.817  1.00  0.00     0.167 HD
ATOM     59  C   UNL     1      13.270  -9.046   0.163  1.00  0.00     0.034 A 
ATOM     60  C   UNL     1      11.355  -3.318   3.769  1.00  0.00     0.034 A 
ATOM     61  C   UNL     1      13.875  -8.917   1.463  1.00  0.00     0.049 A 
ATOM     62  C   UNL     1      12.295  -4.357   4.341  1.00  0.00     0.074 A 
ATOM     63  C   UNL     1      14.781  -9.758   2.082  1.00  0.00     0.029 A 
ATOM     64  N   UNL     1      13.623  -7.879   2.351  1.00  0.00    -0.354 N 
ATOM     65  N   UNL     1      12.753  -5.458   3.787  1.00  0.00    -0.248 NA
ATOM     66  C   UNL     1      12.794  -4.122   5.704  1.00  0.00     0.031 C 
ATOM     67  C   UNL     1      15.036  -9.259   3.365  1.00  0.00     0.029 A 
ATOM     68  C   UNL     1      14.344  -8.069   3.519  1.00  0.00     0.049 A 
ATOM     69  H   UNL     1      13.022  -7.120   2.176  1.00  0.00     0.167 HD
ATOM     70  C   UNL     1      13.623  -6.020   4.720  1.00  0.00     0.074 A 
ATOM     71  C   UNL     1      13.638  -5.130   5.861  1.00  0.00     0.031 C 
ATOM     72  C   UNL     1      14.347  -7.166   4.645  1.00  0.00     0.034 A 
BRANCH  59  73
ATOM     73  C   UNL     1      13.637 -10.221  -0.707  1.00  0.00     0.023 A 
ATOM     74  C   UNL     1      14.304 -10.043  -1.932  1.00  0.00     0.031 A 
ATOM     75  C   UNL     1      13.285 -11.528  -0.330  1.00  0.00     0.131 A 
ATOM     76  C   UNL     1      14.545 -11.145  -2.765  1.00  0.00     0.055 A 
ATOM     77  C   UNL     1      13.593 -12.630  -1.130  1.00  0.00     0.041 A 
ATOM     78  F   UNL     1      12.622 -11.754   0.815  1.00  0.00    -0.206 F 
ATOM     79  C   UNL     1      14.216 -12.441  -2.360  1.00  0.00     0.022 A 
BRANCH  76  80
ATOM     80  S   UNL     1      15.184 -10.848  -4.436  1.00  0.00     0.124 S 
ATOM     81  O   UNL     1      14.114 -10.043  -5.021  1.00  0.00    -0.237 OA
ATOM     82  O   UNL     1      16.438 -10.152  -4.177  1.00  0.00    -0.237 OA
ATOM     83  O   UNL     1      15.319 -12.192  -4.994  1.00  0.00    -0.744 OA
ENDBRANCH  76  80
ENDBRANCH  59  73
BRANCH  60  84
ATOM     84  C   UNL     1      10.944  -2.143   4.595  1.00  0.00     0.023 A 
ATOM     85  C   UNL     1      11.891  -1.219   5.067  1.00  0.00     0.031 A 
ATOM     86  C   UNL     1       9.611  -1.990   5.015  1.00  0.00     0.131 A 
ATOM     87  C   UNL     1      11.506  -0.228   5.986  1.00  0.00     0.055 A 
ATOM     88  C   UNL     1       9.222  -0.965   5.880  1.00  0.00     0.041 A 
ATOM     89  F   UNL     1       8.664  -2.846   4.599  1.00  0.00    -0.206 F 
ATOM     90  C   UNL     1      10.176  -0.088   6.386  1.00  0.00     0.022 A 
BRANCH  87  91
ATOM     91  S   UNL     1      12.795   0.795   6.751  1.00  0.00     0.124 S 
ATOM     92  O   UNL     1      13.685  -0.216   7.309  1.00  0.00    -0.237 OA
ATOM     93  O   UNL     1      13.306   1.540   5.605  1.00  0.00    -0.237 OA
ATOM     94  O   UNL     1      12.059   1.591   7.732  1.00  0.00    -0.744 OA
ENDBRANCH  87  91
ENDBRANCH  60  84
BRANCH  72  95
ATOM     95  C   UNL     1      15.255  -7.482   5.808  1.00  0.00     0.023 A 
ATOM     96  C   UNL     1      14.749  -7.792   7.082  1.00  0.00     0.031 A 
ATOM     97  C   UNL     1      16.652  -7.455   5.640  1.00  0.00     0.131 A 
ATOM     98  C   UNL     1      15.631  -8.000   8.153  1.00  0.00     0.055 A 
ATOM     99  C   UNL     1      17.525  -7.723   6.695  1.00  0.00     0.041 A 
ATOM    100  F   UNL     1      17.190  -7.168   4.444  1.00  0.00    -0.206 F 
ATOM    101  C   UNL     1      17.016  -7.982   7.964  1.00  0.00     0.022 A 
BRANCH  98 102
ATOM    102  S   UNL     1      14.945  -8.197   9.821  1.00  0.00     0.124 S 
ATOM    103  O   UNL     1      14.178  -6.966   9.982  1.00  0.00    -0.237 OA
ATOM    104  O   UNL     1      14.164  -9.423   9.693  1.00  0.00    -0.237 OA
ATOM    105  O   UNL     1      16.131  -8.305  10.669  1.00  0.00    -0.744 OA
ENDBRANCH  98 102
ENDBRANCH  72  95
ENDBRANCH  46  47
ENDBRANCH  39  41
ENDBRANCH  38  39
ENDBRANCH  37  38
ENDBRANCH  36  37
ENDBRANCH  35  36
ENDBRANCH  34  35
ENDBRANCH  33  34
ENDBRANCH  32  33
ENDBRANCH   1  32
TORSDOF 28
