REMARK SMILES C[C@H](C[C@@H]1CCCC[NH2+]1)Nc1cc(C(=O)OCCOCCOCCOCCOC(=O)c2ccc(-c3c4nc(c(-c5cc(S(=O)(=O)[O-])ccc5F)c5ccc([nH]5)c(-c5cc(S(=O)(=O)[O-])ccc5F)c5nc(c(-c6cc(S(=O)(=O)[O-])ccc6F)c6ccc3[nH]6)C=C5)C=C4)cc2)ccc1F
REMARK SMILES IDX 21 1 20 2 19 3 18 4 17 5 16 6 14 7 15 8 13 9 11 10 12 11
REMARK SMILES IDX 96 12 95 13 97 14 94 15 10 16 2 18 1 19 3 20 4 21 5 22 9 23
REMARK SMILES IDX 6 24 8 25 7 28 22 29 23 30 24 31 25 32 26 33 27 34 28 35
REMARK SMILES IDX 29 36 30 37 31 38 32 39 93 40 33 41 92 42 34 43 35 44 36 45
REMARK SMILES IDX 86 46 37 47 91 48 85 49 87 50 38 51 90 52 84 53 83 54 39 56
REMARK SMILES IDX 71 57 51 58 70 59 52 60 55 61 69 62 88 63 53 64 54 65 68 67
REMARK SMILES IDX 89 68 56 69 40 70 41 71 49 72 42 73 48 74 50 75 47 76 43 77
REMARK SMILES IDX 44 78 45 79 46 80 72 81 73 82 81 83 74 84 80 85 82 86 79 87
REMARK SMILES IDX 75 88 76 89 77 90 78 91 57 92 58 93 66 94 59 95 65 96 67 97
REMARK SMILES IDX 64 98 60 99 61 100 62 101 63 102
REMARK H PARENT 10 17 9 26 9 27 87 55 55 66
REMARK Flexibility Score: inf
ROOT
ATOM      1  C   UNL     1      -5.956   1.337   2.777  1.00  0.00     0.188 C 
ENDROOT
BRANCH   1   2
ATOM      2  C   UNL     1      -5.861  -0.167   2.458  1.00  0.00     0.188 C 
BRANCH   2   3
ATOM      3  O   UNL     1      -6.783  -0.983   3.151  1.00  0.00    -0.376 OA
BRANCH   3   4
ATOM      4  C   UNL     1      -6.513  -1.516   4.435  1.00  0.00     0.202 C 
BRANCH   4   5
ATOM      5  C   UNL     1      -5.545  -0.931   5.482  1.00  0.00     0.261 C 
BRANCH   5   6
ATOM      6  O   UNL     1      -4.566   0.007   5.045  1.00  0.00    -0.460 OA
BRANCH   6   7
ATOM      7  C   UNL     1      -3.426  -0.484   4.525  1.00  0.00     0.338 C 
ATOM      8  O   UNL     1      -3.125  -1.655   4.371  1.00  0.00    -0.246 OA
BRANCH   7   9
ATOM      9  C   UNL     1      -2.681   0.659   3.953  1.00  0.00     0.062 A 
ATOM     10  C   UNL     1      -1.496   1.571   2.034  1.00  0.00     0.071 A 
ATOM     11  C   UNL     1      -2.152   0.511   2.664  1.00  0.00     0.044 A 
ATOM     12  C   UNL     1      -1.345   2.768   2.753  1.00  0.00     0.146 A 
ATOM     13  C   UNL     1      -1.901   2.938   4.020  1.00  0.00     0.042 A 
ATOM     14  F   UNL     1      -0.701   3.812   2.211  1.00  0.00    -0.205 F 
ATOM     15  C   UNL     1      -2.582   1.884   4.623  1.00  0.00     0.019 A 
BRANCH  10  16
ATOM     16  N   UNL     1      -0.987   1.366   0.763  1.00  0.00    -0.380 N 
ATOM     17  H   UNL     1      -1.599   1.124   0.032  1.00  0.00     0.160 HD
BRANCH  16  18
ATOM     18  C   UNL     1       0.445   1.503   0.484  1.00  0.00     0.082 C 
ATOM     19  C   UNL     1       0.648   2.773  -0.342  1.00  0.00     0.031 C 
BRANCH  18  20
ATOM     20  C   UNL     1       0.927   0.140  -0.112  1.00  0.00     0.089 C 
BRANCH  20  21
ATOM     21  C   UNL     1       1.814   0.115  -1.372  1.00  0.00     0.184 C 
ATOM     22  C   UNL     1       3.243   0.587  -1.058  1.00  0.00     0.065 C 
ATOM     23  N   UNL     1       1.135   0.830  -2.452  1.00  0.00    -0.344 N 
ATOM     24  C   UNL     1       4.053   0.848  -2.321  1.00  0.00     0.012 C 
ATOM     25  C   UNL     1       1.942   1.107  -3.627  1.00  0.00     0.260 C 
ATOM     26  H   UNL     1       0.807   1.721  -2.080  1.00  0.00     0.346 HD
ATOM     27  H   UNL     1       0.387   0.213  -2.767  1.00  0.00     0.346 HD
ATOM     28  C   UNL     1       3.272   1.754  -3.261  1.00  0.00     0.062 C 
ENDBRANCH  20  21
ENDBRANCH  18  20
ENDBRANCH  16  18
ENDBRANCH  10  16
ENDBRANCH   7   9
ENDBRANCH   6   7
ENDBRANCH   5   6
ENDBRANCH   4   5
ENDBRANCH   3   4
ENDBRANCH   2   3
ENDBRANCH   1   2
BRANCH   1  29
ATOM     29  O   UNL     1      -6.595   1.639   4.004  1.00  0.00    -0.377 OA
BRANCH  29  30
ATOM     30  C   UNL     1      -8.018   1.559   4.081  1.00  0.00     0.188 C 
BRANCH  30  31
ATOM     31  C   UNL     1      -8.881   0.889   2.983  1.00  0.00     0.188 C 
BRANCH  31  32
ATOM     32  O   UNL     1      -8.361   0.993   1.665  1.00  0.00    -0.376 OA
BRANCH  32  33
ATOM     33  C   UNL     1      -8.987   1.890   0.765  1.00  0.00     0.202 C 
BRANCH  33  34
ATOM     34  C   UNL     1      -8.832   3.384   1.081  1.00  0.00     0.261 C 
BRANCH  34  35
ATOM     35  O   UNL     1      -9.294   3.796   2.376  1.00  0.00    -0.460 OA
BRANCH  35  36
ATOM     36  C   UNL     1     -10.615   3.661   2.617  1.00  0.00     0.338 C 
ATOM     37  O   UNL     1     -11.461   3.247   1.837  1.00  0.00    -0.246 OA
BRANCH  36  38
ATOM     38  C   UNL     1     -10.849   3.918   4.051  1.00  0.00     0.060 A 
ATOM     39  C   UNL     1     -11.431   2.911   4.830  1.00  0.00     0.016 A 
ATOM     40  C   UNL     1     -10.503   5.146   4.621  1.00  0.00     0.016 A 
ATOM     41  C   UNL     1     -11.716   3.149   6.173  1.00  0.00     0.010 A 
ATOM     42  C   UNL     1     -10.804   5.389   5.964  1.00  0.00     0.010 A 
ATOM     43  C   UNL     1     -11.450   4.406   6.734  1.00  0.00    -0.014 A 
BRANCH  43  44
ATOM     44  C   UNL     1     -12.028   4.742   8.059  1.00  0.00     0.031 A 
ATOM     45  C   UNL     1     -13.302   5.544   8.100  1.00  0.00     0.074 A 
ATOM     46  C   UNL     1     -11.474   4.290   9.198  1.00  0.00     0.049 A 
ATOM     47  N   UNL     1     -13.995   5.946   9.132  1.00  0.00    -0.248 NA
ATOM     48  C   UNL     1     -13.871   5.943   6.801  1.00  0.00     0.031 C 
ATOM     49  C   UNL     1     -10.273   3.461   9.279  1.00  0.00     0.029 A 
ATOM     50  N   UNL     1     -11.858   4.456  10.506  1.00  0.00    -0.354 N 
ATOM     51  C   UNL     1     -15.078   6.645   8.611  1.00  0.00     0.074 A 
ATOM     52  C   UNL     1     -14.932   6.644   7.173  1.00  0.00     0.031 C 
ATOM     53  C   UNL     1     -10.022   3.184  10.571  1.00  0.00     0.029 A 
ATOM     54  C   UNL     1     -11.021   3.846  11.410  1.00  0.00     0.049 A 
ATOM     55  H   UNL     1     -12.658   4.965  10.771  1.00  0.00     0.167 HD
ATOM     56  C   UNL     1     -16.106   7.226   9.273  1.00  0.00     0.034 A 
ATOM     57  C   UNL     1     -11.045   3.837  12.759  1.00  0.00     0.034 A 
ATOM     58  C   UNL     1     -16.242   7.216  10.707  1.00  0.00     0.049 A 
ATOM     59  C   UNL     1     -12.151   4.565  13.482  1.00  0.00     0.074 A 
ATOM     60  C   UNL     1     -17.261   7.754  11.473  1.00  0.00     0.029 A 
ATOM     61  N   UNL     1     -15.331   6.655  11.590  1.00  0.00    -0.354 N 
ATOM     62  N   UNL     1     -13.163   5.232  12.977  1.00  0.00    -0.248 NA
ATOM     63  C   UNL     1     -12.119   4.545  14.951  1.00  0.00     0.031 C 
ATOM     64  C   UNL     1     -16.926   7.590  12.819  1.00  0.00     0.029 A 
ATOM     65  C   UNL     1     -15.742   6.872  12.894  1.00  0.00     0.049 A 
ATOM     66  H   UNL     1     -14.513   6.173  11.328  1.00  0.00     0.167 HD
ATOM     67  C   UNL     1     -13.900   5.691  14.066  1.00  0.00     0.074 A 
ATOM     68  C   UNL     1     -13.216   5.227  15.256  1.00  0.00     0.031 C 
ATOM     69  C   UNL     1     -15.044   6.419  14.075  1.00  0.00     0.034 A 
BRANCH  56  70
ATOM     70  C   UNL     1     -17.140   7.962   8.462  1.00  0.00     0.023 A 
ATOM     71  C   UNL     1     -18.023   7.290   7.599  1.00  0.00     0.031 A 
ATOM     72  C   UNL     1     -17.259   9.358   8.578  1.00  0.00     0.131 A 
ATOM     73  C   UNL     1     -18.964   8.022   6.858  1.00  0.00     0.055 A 
ATOM     74  C   UNL     1     -18.239  10.072   7.887  1.00  0.00     0.041 A 
ATOM     75  F   UNL     1     -16.427  10.050   9.371  1.00  0.00    -0.206 F 
ATOM     76  C   UNL     1     -19.095   9.404   7.016  1.00  0.00     0.022 A 
BRANCH  73  77
ATOM     77  S   UNL     1     -19.966   7.152   5.622  1.00  0.00     0.124 S 
ATOM     78  O   UNL     1     -18.943   6.680   4.693  1.00  0.00    -0.237 OA
ATOM     79  O   UNL     1     -20.629   6.125   6.417  1.00  0.00    -0.237 OA
ATOM     80  O   UNL     1     -20.843   8.196   5.096  1.00  0.00    -0.744 OA
ENDBRANCH  73  77
ENDBRANCH  56  70
BRANCH  57  81
ATOM     81  C   UNL     1      -9.963   3.140  13.508  1.00  0.00     0.023 A 
ATOM     82  C   UNL     1     -10.214   1.967  14.236  1.00  0.00     0.031 A 
ATOM     83  C   UNL     1      -8.645   3.632  13.479  1.00  0.00     0.131 A 
ATOM     84  C   UNL     1      -9.161   1.326  14.910  1.00  0.00     0.055 A 
ATOM     85  C   UNL     1      -7.596   2.972  14.120  1.00  0.00     0.041 A 
ATOM     86  F   UNL     1      -8.354   4.750  12.794  1.00  0.00    -0.206 F 
ATOM     87  C   UNL     1      -7.852   1.812  14.843  1.00  0.00     0.022 A 
BRANCH  84  88
ATOM     88  S   UNL     1      -9.522  -0.159  15.889  1.00  0.00     0.124 S 
ATOM     89  O   UNL     1     -10.377   0.380  16.940  1.00  0.00    -0.237 OA
ATOM     90  O   UNL     1     -10.174  -1.020  14.908  1.00  0.00    -0.237 OA
ATOM     91  O   UNL     1      -8.202  -0.608  16.325  1.00  0.00    -0.744 OA
ENDBRANCH  84  88
ENDBRANCH  57  81
BRANCH  69  92
ATOM     92  C   UNL     1     -15.665   6.749  15.408  1.00  0.00     0.023 A 
ATOM     93  C   UNL     1     -15.099   7.703  16.269  1.00  0.00     0.031 A 
ATOM     94  C   UNL     1     -16.893   6.168  15.773  1.00  0.00     0.131 A 
ATOM     95  C   UNL     1     -15.757   8.040  17.462  1.00  0.00     0.055 A 
ATOM     96  C   UNL     1     -17.565   6.541  16.937  1.00  0.00     0.041 A 
ATOM     97  F   UNL     1     -17.479   5.255  14.980  1.00  0.00    -0.206 F 
ATOM     98  C   UNL     1     -16.996   7.481  17.790  1.00  0.00     0.022 A 
BRANCH  95  99
ATOM     99  S   UNL     1     -14.967   9.216  18.595  1.00  0.00     0.124 S 
ATOM    100  O   UNL     1     -13.771   8.484  19.002  1.00  0.00    -0.237 OA
ATOM    101  O   UNL     1     -14.743  10.378  17.741  1.00  0.00    -0.237 OA
ATOM    102  O   UNL     1     -15.966   9.404  19.645  1.00  0.00    -0.744 OA
ENDBRANCH  95  99
ENDBRANCH  69  92
ENDBRANCH  43  44
ENDBRANCH  36  38
ENDBRANCH  35  36
ENDBRANCH  34  35
ENDBRANCH  33  34
ENDBRANCH  32  33
ENDBRANCH  31  32
ENDBRANCH  30  31
ENDBRANCH  29  30
ENDBRANCH   1  29
TORSDOF 27
