REMARK SMILES O=C(OCCOCCOCCOCCOC(=O)[C@@H]1CC[C@H](CNC(=O)C2CCOCC2)O1)c1ccc(-c2c3nc(c(-c4cc(S(=O)(=O)[O-])ccc4F)c4ccc([nH]4)c(-c4cc(S(=O)(=O)[O-])ccc4F)c4nc(c(-c5cc(S(=O)(=O)[O-])ccc5F)c5ccc2[nH]5)C=C4)C=C3)cc1
REMARK SMILES IDX 9 1 8 2 7 3 6 4 5 5 4 6 3 7 2 8 1 9 33 10 34 11 95 12 35 13
REMARK SMILES IDX 94 14 36 15 37 16 38 17 88 18 39 19 93 20 87 21 89 22 40 23
REMARK SMILES IDX 92 24 86 25 85 26 41 28 73 29 53 30 72 31 54 32 57 33 71 34
REMARK SMILES IDX 90 35 55 36 56 37 70 39 91 40 58 41 42 42 43 43 51 44 44 45
REMARK SMILES IDX 50 46 52 47 49 48 45 49 46 50 47 51 48 52 74 53 75 54 83 55
REMARK SMILES IDX 76 56 82 57 84 58 81 59 77 60 78 61 79 62 80 63 59 64 60 65
REMARK SMILES IDX 68 66 61 67 67 68 69 69 66 70 62 71 63 72 64 73 65 74 10 75
REMARK SMILES IDX 11 76 12 77 13 78 14 79 15 80 16 81 17 82 18 83 19 84 32 85
REMARK SMILES IDX 20 86 21 87 22 88 23 89 24 90 25 92 26 93 27 94 31 95 28 96
REMARK SMILES IDX 30 97 29 98
REMARK H PARENT 89 27 57 38 23 91
REMARK Flexibility Score: inf
ROOT
ATOM      1  O   UNL     1       2.576  -3.318  -1.928  1.00  0.00    -0.377 OA
ENDROOT
BRANCH   1   2
ATOM      2  C   UNL     1       1.876  -2.135  -1.547  1.00  0.00     0.188 C 
BRANCH   2   3
ATOM      3  C   UNL     1       2.336  -1.517  -0.227  1.00  0.00     0.188 C 
BRANCH   3   4
ATOM      4  O   UNL     1       3.648  -0.962  -0.364  1.00  0.00    -0.376 OA
BRANCH   4   5
ATOM      5  C   UNL     1       4.511  -1.127   0.762  1.00  0.00     0.202 C 
BRANCH   5   6
ATOM      6  C   UNL     1       4.384  -0.022   1.810  1.00  0.00     0.261 C 
BRANCH   6   7
ATOM      7  O   UNL     1       3.019   0.373   1.992  1.00  0.00    -0.460 OA
BRANCH   7   8
ATOM      8  C   UNL     1       2.345   1.335   1.312  1.00  0.00     0.338 C 
ATOM      9  O   UNL     1       1.151   1.492   1.573  1.00  0.00    -0.246 OA
BRANCH   8  10
ATOM     10  C   UNL     1       2.956   2.233   0.277  1.00  0.00     0.060 A 
ATOM     11  C   UNL     1       4.081   1.953  -0.506  1.00  0.00     0.016 A 
ATOM     12  C   UNL     1       2.301   3.458   0.060  1.00  0.00     0.016 A 
ATOM     13  C   UNL     1       4.603   2.881  -1.399  1.00  0.00     0.010 A 
ATOM     14  C   UNL     1       2.807   4.396  -0.843  1.00  0.00     0.010 A 
ATOM     15  C   UNL     1       3.992   4.122  -1.534  1.00  0.00    -0.014 A 
BRANCH  15  16
ATOM     16  C   UNL     1       4.756   5.200  -2.181  1.00  0.00     0.031 A 
ATOM     17  C   UNL     1       5.492   6.143  -1.278  1.00  0.00     0.074 A 
ATOM     18  C   UNL     1       4.881   5.251  -3.516  1.00  0.00     0.049 A 
ATOM     19  N   UNL     1       6.121   7.249  -1.557  1.00  0.00    -0.248 NA
ATOM     20  C   UNL     1       5.522   5.772   0.148  1.00  0.00     0.031 C 
ATOM     21  C   UNL     1       4.334   4.267  -4.451  1.00  0.00     0.029 A 
ATOM     22  N   UNL     1       5.517   6.160  -4.315  1.00  0.00    -0.354 N 
ATOM     23  C   UNL     1       6.588   7.729  -0.338  1.00  0.00     0.074 A 
ATOM     24  C   UNL     1       6.167   6.795   0.681  1.00  0.00     0.031 C 
ATOM     25  C   UNL     1       4.652   4.635  -5.703  1.00  0.00     0.029 A 
ATOM     26  C   UNL     1       5.354   5.914  -5.657  1.00  0.00     0.049 A 
ATOM     27  H   UNL     1       6.040   6.917  -3.963  1.00  0.00     0.167 HD
ATOM     28  C   UNL     1       7.290   8.863  -0.101  1.00  0.00     0.034 A 
ATOM     29  C   UNL     1       5.687   6.679  -6.716  1.00  0.00     0.034 A 
ATOM     30  C   UNL     1       7.651   9.773  -1.158  1.00  0.00     0.049 A 
ATOM     31  C   UNL     1       6.360   8.000  -6.433  1.00  0.00     0.074 A 
ATOM     32  C   UNL     1       8.256  11.012  -1.077  1.00  0.00     0.029 A 
ATOM     33  N   UNL     1       7.421   9.528  -2.510  1.00  0.00    -0.354 N 
ATOM     34  N   UNL     1       6.699   8.520  -5.272  1.00  0.00    -0.248 NA
ATOM     35  C   UNL     1       6.684   8.842  -7.588  1.00  0.00     0.031 C 
ATOM     36  C   UNL     1       8.338  11.538  -2.373  1.00  0.00     0.029 A 
ATOM     37  C   UNL     1       7.854  10.597  -3.272  1.00  0.00     0.049 A 
ATOM     38  H   UNL     1       7.008   8.710  -2.872  1.00  0.00     0.167 HD
ATOM     39  C   UNL     1       7.294   9.744  -5.559  1.00  0.00     0.074 A 
ATOM     40  C   UNL     1       7.275   9.876  -7.005  1.00  0.00     0.031 C 
ATOM     41  C   UNL     1       7.811  10.676  -4.715  1.00  0.00     0.034 A 
BRANCH  28  42
ATOM     42  C   UNL     1       7.562   9.198   1.346  1.00  0.00     0.023 A 
ATOM     43  C   UNL     1       8.338   8.360   2.170  1.00  0.00     0.031 A 
ATOM     44  C   UNL     1       6.907  10.286   1.950  1.00  0.00     0.131 A 
ATOM     45  C   UNL     1       8.342   8.556   3.561  1.00  0.00     0.055 A 
ATOM     46  C   UNL     1       6.994  10.530   3.322  1.00  0.00     0.041 A 
ATOM     47  F   UNL     1       6.125  11.101   1.225  1.00  0.00    -0.206 F 
ATOM     48  C   UNL     1       7.694   9.649   4.141  1.00  0.00     0.022 A 
BRANCH  45  49
ATOM     49  S   UNL     1       9.027   7.247   4.619  1.00  0.00     0.124 S 
ATOM     50  O   UNL     1       8.209   6.098   4.234  1.00  0.00    -0.237 OA
ATOM     51  O   UNL     1      10.424   7.203   4.205  1.00  0.00    -0.237 OA
ATOM     52  O   UNL     1       8.792   7.741   5.974  1.00  0.00    -0.744 OA
ENDBRANCH  45  49
ENDBRANCH  28  42
BRANCH  29  53
ATOM     53  C   UNL     1       5.311   6.260  -8.098  1.00  0.00     0.023 A 
ATOM     54  C   UNL     1       6.280   5.999  -9.079  1.00  0.00     0.031 A 
ATOM     55  C   UNL     1       3.957   6.119  -8.460  1.00  0.00     0.131 A 
ATOM     56  C   UNL     1       5.881   5.628 -10.376  1.00  0.00     0.055 A 
ATOM     57  C   UNL     1       3.567   5.705  -9.734  1.00  0.00     0.041 A 
ATOM     58  F   UNL     1       2.986   6.360  -7.564  1.00  0.00    -0.206 F 
ATOM     59  C   UNL     1       4.533   5.464 -10.705  1.00  0.00     0.022 A 
BRANCH  56  60
ATOM     60  S   UNL     1       7.151   5.411 -11.653  1.00  0.00     0.124 S 
ATOM     61  O   UNL     1       7.786   6.724 -11.670  1.00  0.00    -0.237 OA
ATOM     62  O   UNL     1       7.949   4.319 -11.105  1.00  0.00    -0.237 OA
ATOM     63  O   UNL     1       6.380   5.076 -12.848  1.00  0.00    -0.744 OA
ENDBRANCH  56  60
ENDBRANCH  29  53
BRANCH  41  64
ATOM     64  C   UNL     1       8.443  11.884  -5.351  1.00  0.00     0.023 A 
ATOM     65  C   UNL     1       7.674  12.872  -5.985  1.00  0.00     0.031 A 
ATOM     66  C   UNL     1       9.837  12.053  -5.293  1.00  0.00     0.131 A 
ATOM     67  C   UNL     1       8.311  13.973  -6.575  1.00  0.00     0.055 A 
ATOM     68  C   UNL     1      10.460  13.176  -5.834  1.00  0.00     0.041 A 
ATOM     69  F   UNL     1      10.612  11.134  -4.694  1.00  0.00    -0.206 F 
ATOM     70  C   UNL     1       9.697  14.140  -6.488  1.00  0.00     0.022 A 
BRANCH  67  71
ATOM     71  S   UNL     1       7.310  15.155  -7.516  1.00  0.00     0.124 S 
ATOM     72  O   UNL     1       6.749  14.309  -8.564  1.00  0.00    -0.237 OA
ATOM     73  O   UNL     1       6.367  15.636  -6.511  1.00  0.00    -0.237 OA
ATOM     74  O   UNL     1       8.286  16.143  -7.971  1.00  0.00    -0.744 OA
ENDBRANCH  67  71
ENDBRANCH  41  64
ENDBRANCH  15  16
ENDBRANCH   8  10
ENDBRANCH   7   8
ENDBRANCH   6   7
ENDBRANCH   5   6
ENDBRANCH   4   5
ENDBRANCH   3   4
ENDBRANCH   2   3
ENDBRANCH   1   2
BRANCH   1  75
ATOM     75  C   UNL     1       3.997  -3.253  -1.879  1.00  0.00     0.188 C 
BRANCH  75  76
ATOM     76  C   UNL     1       4.725  -2.205  -2.759  1.00  0.00     0.188 C 
BRANCH  76  77
ATOM     77  O   UNL     1       3.871  -1.336  -3.492  1.00  0.00    -0.376 OA
BRANCH  77  78
ATOM     78  C   UNL     1       3.808  -1.575  -4.897  1.00  0.00     0.202 C 
BRANCH  78  79
ATOM     79  C   UNL     1       3.078  -2.868  -5.289  1.00  0.00     0.261 C 
BRANCH  79  80
ATOM     80  O   UNL     1       3.668  -4.034  -4.685  1.00  0.00    -0.461 OA
BRANCH  80  81
ATOM     81  C   UNL     1       4.811  -4.532  -5.237  1.00  0.00     0.335 C 
ATOM     82  O   UNL     1       5.231  -4.256  -6.340  1.00  0.00    -0.249 OA
BRANCH  81  83
ATOM     83  C   UNL     1       5.543  -5.397  -4.184  1.00  0.00     0.228 C 
ATOM     84  C   UNL     1       6.807  -6.078  -4.689  1.00  0.00     0.047 C 
ATOM     85  O   UNL     1       4.716  -6.411  -3.585  1.00  0.00    -0.361 OA
ATOM     86  C   UNL     1       6.756  -7.420  -3.998  1.00  0.00     0.037 C 
ATOM     87  C   UNL     1       5.268  -7.691  -3.929  1.00  0.00     0.138 C 
BRANCH  87  88
ATOM     88  C   UNL     1       4.610  -8.114  -5.245  1.00  0.00     0.147 C 
BRANCH  88  89
ATOM     89  N   UNL     1       5.134  -9.325  -5.835  1.00  0.00    -0.353 N 
ATOM     90  C   UNL     1       4.438 -10.308  -6.475  1.00  0.00     0.223 C 
ATOM     91  H   UNL     1       6.108  -9.456  -5.767  1.00  0.00     0.163 HD
ATOM     92  O   UNL     1       5.071 -11.196  -7.045  1.00  0.00    -0.275 OA
BRANCH  90  93
ATOM     93  C   UNL     1       2.916 -10.289  -6.409  1.00  0.00     0.083 C 
ATOM     94  C   UNL     1       2.332 -11.636  -6.846  1.00  0.00     0.042 C 
ATOM     95  C   UNL     1       2.293  -9.184  -7.272  1.00  0.00     0.042 C 
ATOM     96  C   UNL     1       0.812 -11.591  -6.784  1.00  0.00     0.161 C 
ATOM     97  C   UNL     1       0.776  -9.247  -7.157  1.00  0.00     0.161 C 
ATOM     98  O   UNL     1       0.296 -10.523  -7.578  1.00  0.00    -0.381 OA
ENDBRANCH  90  93
ENDBRANCH  88  89
ENDBRANCH  87  88
ENDBRANCH  81  83
ENDBRANCH  80  81
ENDBRANCH  79  80
ENDBRANCH  78  79
ENDBRANCH  77  78
ENDBRANCH  76  77
ENDBRANCH  75  76
ENDBRANCH   1  75
TORSDOF 26
