REMARK SMILES COc1ccc(NS(=O)(=O)c2ccc(NC(=O)[C@H]3CCCC[C@@H]3C(=O)OCCOCCOCCOCCOC(=O)c3ccc(-c4c5nc(c(-c6cc(S(=O)(=O)[O-])ccc6F)c6ccc([nH]6)c(-c6cc(S(=O)(=O)[O-])ccc6F)c6nc(c(-c7cc(S(=O)(=O)[O-])ccc7F)c7ccc4[nH]7)C=C6)C=C5)cc3)cc2)cc1
REMARK SMILES IDX 30 1 29 2 28 3 27 4 26 5 24 6 25 7 23 8 18 9 19 10 20 11
REMARK SMILES IDX 22 12 21 13 16 14 15 15 17 17 14 18 11 19 12 20 105 21 13 22
REMARK SMILES IDX 104 23 8 24 9 25 10 26 7 27 6 29 3 30 4 31 107 32 5 33
REMARK SMILES IDX 106 34 2 35 1 36 31 37 32 38 33 39 34 40 35 41 36 42 37 43
REMARK SMILES IDX 38 44 39 45 40 46 41 47 42 48 103 49 43 50 102 51 44 52
REMARK SMILES IDX 45 53 46 54 96 55 47 56 101 57 95 58 97 59 48 60 100 61
REMARK SMILES IDX 94 62 93 63 49 65 81 66 61 67 80 68 62 69 65 70 79 71 98 72
REMARK SMILES IDX 63 73 64 74 78 76 99 77 66 78 50 79 51 80 59 81 52 82 58 83
REMARK SMILES IDX 60 84 57 85 53 86 54 87 55 88 56 89 82 90 83 91 91 92 84 93
REMARK SMILES IDX 90 94 92 95 89 96 85 97 86 98 87 99 88 100 67 101 68 102
REMARK SMILES IDX 76 103 69 104 75 105 77 106 74 107 70 108 71 109 72 110
REMARK SMILES IDX 73 111
REMARK H PARENT 15 16 7 28 97 64 65 75
REMARK Flexibility Score: inf
ROOT
ATOM      1  C   UNL     1      -8.154  10.124  -2.849  1.00  0.00     0.188 C 
ENDROOT
BRANCH   1   2
ATOM      2  O   UNL     1      -9.010   9.062  -3.263  1.00  0.00    -0.376 OA
BRANCH   2   3
ATOM      3  C   UNL     1      -9.463   8.167  -2.240  1.00  0.00     0.202 C 
BRANCH   3   4
ATOM      4  C   UNL     1      -8.427   7.237  -1.552  1.00  0.00     0.261 C 
BRANCH   4   5
ATOM      5  O   UNL     1      -7.303   7.884  -0.907  1.00  0.00    -0.463 OA
BRANCH   5   6
ATOM      6  C   UNL     1      -6.042   7.381  -1.081  1.00  0.00     0.309 C 
ATOM      7  O   UNL     1      -5.789   6.382  -1.744  1.00  0.00    -0.252 OA
BRANCH   6   8
ATOM      8  C   UNL     1      -4.928   8.249  -0.426  1.00  0.00     0.111 C 
ATOM      9  C   UNL     1      -4.520   7.948   1.037  1.00  0.00     0.093 C 
ATOM     10  C   UNL     1      -5.671   8.152   2.005  1.00  0.00     0.014 C 
ATOM     11  C   UNL     1      -6.342   9.504   1.887  1.00  0.00     0.001 C 
ATOM     12  C   UNL     1      -5.280   9.708  -0.551  1.00  0.00     0.016 C 
ATOM     13  C   UNL     1      -6.320  10.142   0.491  1.00  0.00     0.001 C 
BRANCH   9  14
ATOM     14  C   UNL     1      -3.089   8.446   1.495  1.00  0.00     0.228 C 
ATOM     15  N   UNL     1      -2.762   9.424   2.415  1.00  0.00    -0.326 N 
ATOM     16  H   UNL     1      -1.981   9.175   2.960  1.00  0.00     0.169 HD
ATOM     17  O   UNL     1      -2.116   7.798   1.070  1.00  0.00    -0.274 OA
BRANCH  15  18
ATOM     18  C   UNL     1      -3.273  10.696   2.767  1.00  0.00     0.041 A 
ATOM     19  C   UNL     1      -4.509  13.169   3.442  1.00  0.00     0.087 A 
ATOM     20  C   UNL     1      -4.703  12.576   2.209  1.00  0.00     0.024 A 
ATOM     21  C   UNL     1      -3.578  12.596   4.313  1.00  0.00     0.024 A 
ATOM     22  C   UNL     1      -3.980  11.445   1.863  1.00  0.00     0.027 A 
ATOM     23  C   UNL     1      -2.973  11.346   3.974  1.00  0.00     0.027 A 
BRANCH  19  24
ATOM     24  S   UNL     1      -5.326  14.739   3.654  1.00  0.00     0.261 S 
ATOM     25  O   UNL     1      -6.128  14.663   4.853  1.00  0.00    -0.201 OA
ATOM     26  O   UNL     1      -5.914  15.107   2.380  1.00  0.00    -0.201 OA
BRANCH  24  27
ATOM     27  N   UNL     1      -4.138  15.872   3.917  1.00  0.00    -0.280 N 
ATOM     28  H   UNL     1      -4.182  16.407   4.743  1.00  0.00     0.180 HD
BRANCH  27  29
ATOM     29  C   UNL     1      -3.058  16.115   3.019  1.00  0.00     0.049 A 
ATOM     30  C   UNL     1      -0.396  16.011   2.226  1.00  0.00     0.119 A 
ATOM     31  C   UNL     1      -1.302  15.111   1.691  1.00  0.00     0.048 A 
ATOM     32  C   UNL     1      -0.858  17.091   2.979  1.00  0.00     0.048 A 
ATOM     33  C   UNL     1      -2.641  15.200   2.053  1.00  0.00     0.030 A 
ATOM     34  C   UNL     1      -2.188  17.133   3.391  1.00  0.00     0.030 A 
BRANCH  30  35
ATOM     35  O   UNL     1       0.923  15.754   1.982  1.00  0.00    -0.497 OA
ATOM     36  C   UNL     1       1.773  16.117   3.070  1.00  0.00     0.278 C 
ENDBRANCH  30  35
ENDBRANCH  27  29
ENDBRANCH  24  27
ENDBRANCH  19  24
ENDBRANCH  15  18
ENDBRANCH   9  14
ENDBRANCH   6   8
ENDBRANCH   5   6
ENDBRANCH   4   5
ENDBRANCH   3   4
ENDBRANCH   2   3
ENDBRANCH   1   2
BRANCH   1  37
ATOM     37  C   UNL     1      -8.734  11.116  -1.827  1.00  0.00     0.188 C 
BRANCH  37  38
ATOM     38  O   UNL     1      -9.209  10.405  -0.695  1.00  0.00    -0.377 OA
BRANCH  38  39
ATOM     39  C   UNL     1      -9.829  11.094   0.377  1.00  0.00     0.188 C 
BRANCH  39  40
ATOM     40  C   UNL     1     -10.593  12.353  -0.014  1.00  0.00     0.188 C 
BRANCH  40  41
ATOM     41  O   UNL     1      -9.779  13.467  -0.394  1.00  0.00    -0.376 OA
BRANCH  41  42
ATOM     42  C   UNL     1      -8.661  13.787   0.438  1.00  0.00     0.202 C 
BRANCH  42  43
ATOM     43  C   UNL     1      -8.999  14.336   1.819  1.00  0.00     0.261 C 
BRANCH  43  44
ATOM     44  O   UNL     1      -9.502  13.316   2.686  1.00  0.00    -0.460 OA
BRANCH  44  45
ATOM     45  C   UNL     1     -10.777  13.498   3.077  1.00  0.00     0.338 C 
ATOM     46  O   UNL     1     -11.546  14.395   2.745  1.00  0.00    -0.246 OA
BRANCH  45  47
ATOM     47  C   UNL     1     -11.185  12.325   3.840  1.00  0.00     0.060 A 
ATOM     48  C   UNL     1     -12.242  11.556   3.344  1.00  0.00     0.016 A 
ATOM     49  C   UNL     1     -10.583  12.044   5.069  1.00  0.00     0.016 A 
ATOM     50  C   UNL     1     -12.757  10.532   4.119  1.00  0.00     0.010 A 
ATOM     51  C   UNL     1     -11.108  11.022   5.851  1.00  0.00     0.010 A 
ATOM     52  C   UNL     1     -12.227  10.305   5.395  1.00  0.00    -0.014 A 
BRANCH  52  53
ATOM     53  C   UNL     1     -13.001   9.475   6.335  1.00  0.00     0.031 A 
ATOM     54  C   UNL     1     -13.885  10.175   7.327  1.00  0.00     0.074 A 
ATOM     55  C   UNL     1     -12.952   8.138   6.246  1.00  0.00     0.049 A 
ATOM     56  N   UNL     1     -14.632   9.672   8.271  1.00  0.00    -0.248 NA
ATOM     57  C   UNL     1     -13.929  11.645   7.241  1.00  0.00     0.031 C 
ATOM     58  C   UNL     1     -12.173   7.389   5.260  1.00  0.00     0.029 A 
ATOM     59  N   UNL     1     -13.573   7.175   6.992  1.00  0.00    -0.354 N 
ATOM     60  C   UNL     1     -15.227  10.761   8.899  1.00  0.00     0.074 A 
ATOM     61  C   UNL     1     -14.724  11.953   8.253  1.00  0.00     0.031 C 
ATOM     62  C   UNL     1     -12.361   6.075   5.467  1.00  0.00     0.029 A 
ATOM     63  C   UNL     1     -13.230   5.896   6.627  1.00  0.00     0.049 A 
ATOM     64  H   UNL     1     -14.205   7.379   7.719  1.00  0.00     0.167 HD
ATOM     65  C   UNL     1     -16.117  10.756   9.919  1.00  0.00     0.034 A 
ATOM     66  C   UNL     1     -13.561   4.723   7.197  1.00  0.00     0.034 A 
ATOM     67  C   UNL     1     -16.582   9.543  10.544  1.00  0.00     0.049 A 
ATOM     68  C   UNL     1     -14.476   4.747   8.397  1.00  0.00     0.074 A 
ATOM     69  C   UNL     1     -17.481   9.398  11.585  1.00  0.00     0.029 A 
ATOM     70  N   UNL     1     -16.170   8.262  10.192  1.00  0.00    -0.354 N 
ATOM     71  N   UNL     1     -15.032   5.780   8.992  1.00  0.00    -0.248 NA
ATOM     72  C   UNL     1     -14.815   3.452   8.995  1.00  0.00     0.031 C 
ATOM     73  C   UNL     1     -17.546   8.041  11.917  1.00  0.00     0.029 A 
ATOM     74  C   UNL     1     -16.765   7.325  11.021  1.00  0.00     0.049 A 
ATOM     75  H   UNL     1     -15.546   8.052   9.460  1.00  0.00     0.167 HD
ATOM     76  C   UNL     1     -15.815   5.253  10.015  1.00  0.00     0.074 A 
ATOM     77  C   UNL     1     -15.668   3.812   9.942  1.00  0.00     0.031 C 
ATOM     78  C   UNL     1     -16.590   5.894  10.929  1.00  0.00     0.034 A 
BRANCH  65  79
ATOM     79  C   UNL     1     -16.575  12.091  10.454  1.00  0.00     0.023 A 
ATOM     80  C   UNL     1     -17.289  13.009   9.662  1.00  0.00     0.031 A 
ATOM     81  C   UNL     1     -16.255  12.471  11.769  1.00  0.00     0.131 A 
ATOM     82  C   UNL     1     -17.597  14.281  10.169  1.00  0.00     0.055 A 
ATOM     83  C   UNL     1     -16.638  13.706  12.296  1.00  0.00     0.041 A 
ATOM     84  F   UNL     1     -15.546  11.653  12.563  1.00  0.00    -0.206 F 
ATOM     85  C   UNL     1     -17.301  14.626  11.490  1.00  0.00     0.022 A 
BRANCH  82  86
ATOM     86  S   UNL     1     -18.255  15.534   9.033  1.00  0.00     0.124 S 
ATOM     87  O   UNL     1     -17.198  15.603   8.026  1.00  0.00    -0.237 OA
ATOM     88  O   UNL     1     -19.513  14.938   8.600  1.00  0.00    -0.237 OA
ATOM     89  O   UNL     1     -18.383  16.724   9.872  1.00  0.00    -0.744 OA
ENDBRANCH  82  86
ENDBRANCH  65  79
BRANCH  66  90
ATOM     90  C   UNL     1     -13.002   3.445   6.672  1.00  0.00     0.023 A 
ATOM     91  C   UNL     1     -13.841   2.440   6.170  1.00  0.00     0.031 A 
ATOM     92  C   UNL     1     -11.618   3.193   6.706  1.00  0.00     0.131 A 
ATOM     93  C   UNL     1     -13.295   1.211   5.769  1.00  0.00     0.055 A 
ATOM     94  C   UNL     1     -11.074   1.993   6.247  1.00  0.00     0.041 A 
ATOM     95  F   UNL     1     -10.769   4.120   7.178  1.00  0.00    -0.206 F 
ATOM     96  C   UNL     1     -11.916   0.986   5.789  1.00  0.00     0.022 A 
BRANCH  93  97
ATOM     97  S   UNL     1     -14.427  -0.131   5.314  1.00  0.00     0.124 S 
ATOM     98  O   UNL     1     -15.239  -0.253   6.520  1.00  0.00    -0.237 OA
ATOM     99  O   UNL     1     -15.098   0.424   4.143  1.00  0.00    -0.237 OA
ATOM    100  O   UNL     1     -13.533  -1.254   5.046  1.00  0.00    -0.744 OA
ENDBRANCH  93  97
ENDBRANCH  66  90
BRANCH  78 101
ATOM    101  C   UNL     1     -17.373   5.028  11.886  1.00  0.00     0.023 A 
ATOM    102  C   UNL     1     -16.738   4.217  12.842  1.00  0.00     0.031 A 
ATOM    103  C   UNL     1     -18.779   5.014  11.833  1.00  0.00     0.131 A 
ATOM    104  C   UNL     1     -17.505   3.377  13.662  1.00  0.00     0.055 A 
ATOM    105  C   UNL     1     -19.539   4.234  12.704  1.00  0.00     0.041 A 
ATOM    106  F   UNL     1     -19.437   5.767  10.937  1.00  0.00    -0.206 F 
ATOM    107  C   UNL     1     -18.901   3.397  13.614  1.00  0.00     0.022 A 
BRANCH 104 108
ATOM    108  S   UNL     1     -16.648   2.175  14.714  1.00  0.00     0.124 S 
ATOM    109  O   UNL     1     -15.879   1.412  13.737  1.00  0.00    -0.237 OA
ATOM    110  O   UNL     1     -15.873   3.034  15.604  1.00  0.00    -0.237 OA
ATOM    111  O   UNL     1     -17.738   1.442  15.355  1.00  0.00    -0.744 OA
ENDBRANCH 104 108
ENDBRANCH  78 101
ENDBRANCH  52  53
ENDBRANCH  45  47
ENDBRANCH  44  45
ENDBRANCH  43  44
ENDBRANCH  42  43
ENDBRANCH  41  42
ENDBRANCH  40  41
ENDBRANCH  39  40
ENDBRANCH  38  39
ENDBRANCH  37  38
ENDBRANCH   1  37
TORSDOF 29
