REMARK SMILES Cc1noc(-c2ccc(CCl)cc2)c1C(=O)OCCOCCOCCOCCOC(=O)c1ccc(-c2c3nc(c(-c4cc(S(=O)(=O)[O-])ccc4F)c4ccc([nH]4)c(-c4cc(S(=O)(=O)[O-])ccc4F)c4nc(c(-c5cc(S(=O)(=O)[O-])ccc5F)c5ccc2[nH]5)C=C4)C=C3)cc1
REMARK SMILES IDX 24 1 23 2 22 3 21 4 20 5 19 6 18 7 17 8 15 9 16 10 14 11
REMARK SMILES IDX 1 12 2 13 3 14 4 15 5 16 6 17 7 18 13 19 8 20 12 21 9 22
REMARK SMILES IDX 10 23 11 24 25 25 26 26 27 27 28 28 29 29 30 30 31 31 32 32
REMARK SMILES IDX 33 33 94 34 34 35 93 36 35 37 36 38 37 39 87 40 38 41 92 42
REMARK SMILES IDX 86 43 88 44 39 45 91 46 85 47 84 48 40 50 72 51 52 52 71 53
REMARK SMILES IDX 53 54 56 55 70 56 89 57 54 58 55 59 69 61 90 62 57 63 41 64
REMARK SMILES IDX 42 65 50 66 43 67 49 68 51 69 48 70 44 71 45 72 46 73 47 74
REMARK SMILES IDX 73 75 74 76 82 77 75 78 81 79 83 80 80 81 76 82 77 83 78 84
REMARK SMILES IDX 79 85 58 86 59 87 67 88 60 89 66 90 68 91 65 92 61 93 62 94
REMARK SMILES IDX 63 95 64 96
REMARK H PARENT 88 49 56 60
REMARK Flexibility Score: inf
ROOT
ATOM      1  C   UNL     1       2.286  -4.163   3.105  1.00  0.00     0.188 C 
ENDROOT
BRANCH   1   2
ATOM      2  O   UNL     1       1.857  -3.347   2.018  1.00  0.00    -0.377 OA
BRANCH   2   3
ATOM      3  C   UNL     1       0.467  -3.117   1.885  1.00  0.00     0.188 C 
BRANCH   3   4
ATOM      4  C   UNL     1      -0.252  -4.253   1.142  1.00  0.00     0.188 C 
BRANCH   4   5
ATOM      5  O   UNL     1       0.646  -5.228   0.606  1.00  0.00    -0.376 OA
BRANCH   5   6
ATOM      6  C   UNL     1       0.877  -5.147  -0.797  1.00  0.00     0.202 C 
BRANCH   6   7
ATOM      7  C   UNL     1       1.872  -4.061  -1.230  1.00  0.00     0.261 C 
BRANCH   7   8
ATOM      8  O   UNL     1       1.463  -2.709  -0.963  1.00  0.00    -0.459 OA
BRANCH   8   9
ATOM      9  C   UNL     1       0.323  -2.246  -1.530  1.00  0.00     0.344 C 
ATOM     10  O   UNL     1      -0.356  -2.869  -2.337  1.00  0.00    -0.246 OA
BRANCH   9  11
ATOM     11  C   UNL     1      -0.060  -0.967  -0.979  1.00  0.00     0.130 A 
ATOM     12  C   UNL     1       2.213   0.276  -0.513  1.00  0.00     0.071 C 
ATOM     13  C   UNL     1       0.737   0.125  -0.528  1.00  0.00     0.096 A 
ATOM     14  N   UNL     1      -0.025   1.112  -0.036  1.00  0.00    -0.084 NA
ATOM     15  O   UNL     1      -1.321   0.637  -0.060  1.00  0.00    -0.355 OA
ATOM     16  C   UNL     1      -1.337  -0.612  -0.594  1.00  0.00     0.181 A 
BRANCH  16  17
ATOM     17  C   UNL     1      -2.596  -1.321  -0.465  1.00  0.00     0.021 A 
ATOM     18  C   UNL     1      -3.415  -1.564  -1.568  1.00  0.00     0.012 A 
ATOM     19  C   UNL     1      -2.977  -1.815   0.791  1.00  0.00     0.012 A 
ATOM     20  C   UNL     1      -4.588  -2.313  -1.420  1.00  0.00     0.006 A 
ATOM     21  C   UNL     1      -4.137  -2.579   0.936  1.00  0.00     0.006 A 
ATOM     22  C   UNL     1      -4.947  -2.848  -0.173  1.00  0.00    -0.033 A 
BRANCH  22  23
ATOM     23  C   UNL     1      -6.187  -3.685  -0.023  1.00  0.00     0.145 C 
ATOM     24  Cl  UNL     1      -7.609  -2.659   0.247  1.00  0.00    -0.122 Cl
ENDBRANCH  22  23
ENDBRANCH  16  17
ENDBRANCH   9  11
ENDBRANCH   8   9
ENDBRANCH   7   8
ENDBRANCH   6   7
ENDBRANCH   5   6
ENDBRANCH   4   5
ENDBRANCH   3   4
ENDBRANCH   2   3
ENDBRANCH   1   2
BRANCH   1  25
ATOM     25  C   UNL     1       1.326  -5.196   3.726  1.00  0.00     0.188 C 
BRANCH  25  26
ATOM     26  O   UNL     1       0.112  -4.622   4.224  1.00  0.00    -0.376 OA
BRANCH  26  27
ATOM     27  C   UNL     1       0.007  -4.516   5.643  1.00  0.00     0.202 C 
BRANCH  27  28
ATOM     28  C   UNL     1       0.685  -3.263   6.211  1.00  0.00     0.261 C 
BRANCH  28  29
ATOM     29  O   UNL     1       2.116  -3.259   6.100  1.00  0.00    -0.460 OA
BRANCH  29  30
ATOM     30  C   UNL     1       2.774  -4.264   6.719  1.00  0.00     0.338 C 
ATOM     31  O   UNL     1       2.290  -5.122   7.434  1.00  0.00    -0.246 OA
BRANCH  30  32
ATOM     32  C   UNL     1       4.163  -4.269   6.224  1.00  0.00     0.060 A 
ATOM     33  C   UNL     1       4.690  -5.466   5.723  1.00  0.00     0.016 A 
ATOM     34  C   UNL     1       4.939  -3.107   6.257  1.00  0.00     0.016 A 
ATOM     35  C   UNL     1       6.016  -5.514   5.295  1.00  0.00     0.010 A 
ATOM     36  C   UNL     1       6.271  -3.160   5.846  1.00  0.00     0.010 A 
ATOM     37  C   UNL     1       6.824  -4.372   5.398  1.00  0.00    -0.014 A 
BRANCH  37  38
ATOM     38  C   UNL     1       8.293  -4.495   5.258  1.00  0.00     0.031 A 
ATOM     39  C   UNL     1       9.096  -4.782   6.497  1.00  0.00     0.074 A 
ATOM     40  C   UNL     1       8.898  -4.344   4.067  1.00  0.00     0.049 A 
ATOM     41  N   UNL     1      10.390  -4.896   6.643  1.00  0.00    -0.248 NA
ATOM     42  C   UNL     1       8.329  -4.957   7.741  1.00  0.00     0.031 C 
ATOM     43  C   UNL     1       8.220  -4.087   2.799  1.00  0.00     0.029 A 
ATOM     44  N   UNL     1      10.230  -4.374   3.739  1.00  0.00    -0.354 N 
ATOM     45  C   UNL     1      10.593  -5.167   7.992  1.00  0.00     0.074 A 
ATOM     46  C   UNL     1       9.292  -5.159   8.625  1.00  0.00     0.031 C 
ATOM     47  C   UNL     1       9.144  -3.963   1.829  1.00  0.00     0.029 A 
ATOM     48  C   UNL     1      10.477  -4.107   2.414  1.00  0.00     0.049 A 
ATOM     49  H   UNL     1      10.941  -4.568   4.391  1.00  0.00     0.167 HD
ATOM     50  C   UNL     1      11.757  -5.407   8.642  1.00  0.00     0.034 A 
ATOM     51  C   UNL     1      11.648  -3.973   1.759  1.00  0.00     0.034 A 
ATOM     52  C   UNL     1      13.049  -5.371   8.008  1.00  0.00     0.049 A 
ATOM     53  C   UNL     1      12.939  -4.155   2.522  1.00  0.00     0.074 A 
ATOM     54  C   UNL     1      14.294  -5.601   8.566  1.00  0.00     0.029 A 
ATOM     55  N   UNL     1      13.264  -5.064   6.670  1.00  0.00    -0.354 N 
ATOM     56  N   UNL     1      13.118  -4.437   3.792  1.00  0.00    -0.248 NA
ATOM     57  C   UNL     1      14.185  -4.005   1.758  1.00  0.00     0.031 C 
ATOM     58  C   UNL     1      15.263  -5.374   7.582  1.00  0.00     0.029 A 
ATOM     59  C   UNL     1      14.621  -5.067   6.393  1.00  0.00     0.049 A 
ATOM     60  H   UNL     1      12.554  -4.873   6.015  1.00  0.00     0.167 HD
ATOM     61  C   UNL     1      14.496  -4.526   3.971  1.00  0.00     0.074 A 
ATOM     62  C   UNL     1      15.100  -4.274   2.679  1.00  0.00     0.031 C 
ATOM     63  C   UNL     1      15.201  -4.800   5.098  1.00  0.00     0.034 A 
BRANCH  50  64
ATOM     64  C   UNL     1      11.666  -5.670  10.123  1.00  0.00     0.023 A 
ATOM     65  C   UNL     1      11.024  -6.816  10.627  1.00  0.00     0.031 A 
ATOM     66  C   UNL     1      12.170  -4.736  11.044  1.00  0.00     0.131 A 
ATOM     67  C   UNL     1      10.838  -6.962  12.010  1.00  0.00     0.055 A 
ATOM     68  C   UNL     1      12.046  -4.923  12.422  1.00  0.00     0.041 A 
ATOM     69  F   UNL     1      12.768  -3.612  10.618  1.00  0.00    -0.206 F 
ATOM     70  C   UNL     1      11.364  -6.033  12.912  1.00  0.00     0.022 A 
BRANCH  67  71
ATOM     71  S   UNL     1       9.777  -8.307  12.605  1.00  0.00     0.124 S 
ATOM     72  O   UNL     1       8.511  -8.000  11.943  1.00  0.00    -0.237 OA
ATOM     73  O   UNL     1      10.476  -9.495  12.129  1.00  0.00    -0.237 OA
ATOM     74  O   UNL     1       9.773  -8.124  14.055  1.00  0.00    -0.744 OA
ENDBRANCH  67  71
ENDBRANCH  50  64
BRANCH  51  75
ATOM     75  C   UNL     1      11.670  -3.610   0.315  1.00  0.00     0.023 A 
ATOM     76  C   UNL     1      12.154  -4.504  -0.652  1.00  0.00     0.031 A 
ATOM     77  C   UNL     1      11.260  -2.333  -0.110  1.00  0.00     0.131 A 
ATOM     78  C   UNL     1      12.256  -4.096  -1.992  1.00  0.00     0.055 A 
ATOM     79  C   UNL     1      11.324  -1.947  -1.450  1.00  0.00     0.041 A 
ATOM     80  F   UNL     1      10.788  -1.442   0.776  1.00  0.00    -0.206 F 
ATOM     81  C   UNL     1      11.836  -2.827  -2.398  1.00  0.00     0.022 A 
BRANCH  78  82
ATOM     82  S   UNL     1      13.014  -5.227  -3.190  1.00  0.00     0.124 S 
ATOM     83  O   UNL     1      14.341  -5.423  -2.617  1.00  0.00    -0.237 OA
ATOM     84  O   UNL     1      12.115  -6.375  -3.133  1.00  0.00    -0.237 OA
ATOM     85  O   UNL     1      12.978  -4.473  -4.441  1.00  0.00    -0.744 OA
ENDBRANCH  78  82
ENDBRANCH  51  75
BRANCH  63  86
ATOM     86  C   UNL     1      16.701  -4.884   4.964  1.00  0.00     0.023 A 
ATOM     87  C   UNL     1      17.486  -3.745   4.721  1.00  0.00     0.031 A 
ATOM     88  C   UNL     1      17.348  -6.127   5.078  1.00  0.00     0.131 A 
ATOM     89  C   UNL     1      18.873  -3.877   4.555  1.00  0.00     0.055 A 
ATOM     90  C   UNL     1      18.733  -6.246   4.961  1.00  0.00     0.041 A 
ATOM     91  F   UNL     1      16.643  -7.246   5.310  1.00  0.00    -0.206 F 
ATOM     92  C   UNL     1      19.503  -5.118   4.688  1.00  0.00     0.022 A 
BRANCH  89  93
ATOM     93  S   UNL     1      19.840  -2.414   4.092  1.00  0.00     0.124 S 
ATOM     94  O   UNL     1      19.219  -2.027   2.829  1.00  0.00    -0.237 OA
ATOM     95  O   UNL     1      19.608  -1.516   5.218  1.00  0.00    -0.237 OA
ATOM     96  O   UNL     1      21.205  -2.926   3.980  1.00  0.00    -0.744 OA
ENDBRANCH  89  93
ENDBRANCH  63  86
ENDBRANCH  37  38
ENDBRANCH  30  32
ENDBRANCH  29  30
ENDBRANCH  28  29
ENDBRANCH  27  28
ENDBRANCH  26  27
ENDBRANCH  25  26
ENDBRANCH   1  25
TORSDOF 25
