REMARK SMILES CC(C)(C)c1ccc(NS(=O)(=O)c2cccc(C(=O)OCCOCCOCCOCCOC(=O)c3ccc(-c4c5nc(c(-c6cc(S(=O)(=O)[O-])ccc6F)c6ccc([nH]6)c(-c6cc(S(=O)(=O)[O-])ccc6F)c6nc(c(-c7cc(S(=O)(=O)[O-])ccc7F)c7ccc4[nH]7)C=C6)C=C5)cc3)c2)cc1
REMARK SMILES IDX 25 1 24 2 23 3 22 4 21 5 20 6 18 7 19 8 17 9 13 10 14 11
REMARK SMILES IDX 98 12 15 13 16 14 10 15 11 16 12 17 9 18 8 20 5 21 6 22
REMARK SMILES IDX 100 23 7 24 99 25 2 26 1 27 3 28 4 29 26 30 27 31 28 32
REMARK SMILES IDX 29 33 30 34 31 35 32 36 33 37 34 38 35 39 36 40 97 41 37 42
REMARK SMILES IDX 96 43 38 44 39 45 40 46 90 47 41 48 95 49 89 50 91 51 42 52
REMARK SMILES IDX 94 53 88 54 87 55 43 57 75 58 55 59 74 60 56 61 59 62 73 63
REMARK SMILES IDX 92 64 57 65 58 66 72 68 93 69 60 70 44 71 45 72 53 73 46 74
REMARK SMILES IDX 52 75 54 76 51 77 47 78 48 79 49 80 50 81 76 82 77 83 85 84
REMARK SMILES IDX 78 85 84 86 86 87 83 88 79 89 80 90 81 91 82 92 61 93 62 94
REMARK SMILES IDX 70 95 63 96 69 97 71 98 68 99 64 100 65 101 66 102 67 103
REMARK H PARENT 9 19 91 56 59 67
REMARK Flexibility Score: inf
ROOT
ATOM      1  C   UNL     1       3.223  -2.559  -2.732  1.00  0.00     0.188 C 
ENDROOT
BRANCH   1   2
ATOM      2  C   UNL     1       4.432  -3.471  -2.484  1.00  0.00     0.188 C 
BRANCH   2   3
ATOM      3  O   UNL     1       5.166  -3.150  -1.317  1.00  0.00    -0.376 OA
BRANCH   3   4
ATOM      4  C   UNL     1       6.482  -2.652  -1.541  1.00  0.00     0.202 C 
BRANCH   4   5
ATOM      5  C   UNL     1       6.647  -1.269  -2.214  1.00  0.00     0.261 C 
BRANCH   5   6
ATOM      6  O   UNL     1       5.856  -1.000  -3.387  1.00  0.00    -0.460 OA
BRANCH   6   7
ATOM      7  C   UNL     1       6.264  -1.551  -4.546  1.00  0.00     0.338 C 
ATOM      8  O   UNL     1       7.202  -2.315  -4.696  1.00  0.00    -0.246 OA
BRANCH   7   9
ATOM      9  C   UNL     1       5.280  -1.247  -5.617  1.00  0.00     0.061 A 
ATOM     10  C   UNL     1       3.997   0.242  -7.019  1.00  0.00     0.088 A 
ATOM     11  C   UNL     1       3.506  -0.861  -7.738  1.00  0.00     0.022 A 
ATOM     12  C   UNL     1       4.882   0.060  -5.946  1.00  0.00     0.038 A 
ATOM     13  C   UNL     1       3.876  -2.154  -7.380  1.00  0.00     0.002 A 
ATOM     14  C   UNL     1       4.773  -2.345  -6.332  1.00  0.00     0.016 A 
BRANCH  10  15
ATOM     15  S   UNL     1       3.477   1.870  -7.549  1.00  0.00     0.261 S 
ATOM     16  O   UNL     1       2.466   1.704  -8.572  1.00  0.00    -0.201 OA
ATOM     17  O   UNL     1       4.689   2.618  -7.822  1.00  0.00    -0.201 OA
BRANCH  15  18
ATOM     18  N   UNL     1       2.763   2.588  -6.231  1.00  0.00    -0.280 N 
ATOM     19  H   UNL     1       3.186   3.407  -5.885  1.00  0.00     0.180 HD
BRANCH  18  20
ATOM     20  C   UNL     1       1.600   2.129  -5.558  1.00  0.00     0.049 A 
ATOM     21  C   UNL     1      -0.164   1.083  -3.639  1.00  0.00    -0.042 A 
ATOM     22  C   UNL     1       0.206   0.329  -4.759  1.00  0.00     0.006 A 
ATOM     23  C   UNL     1       0.166   2.446  -3.636  1.00  0.00     0.006 A 
ATOM     24  C   UNL     1       1.080   0.851  -5.709  1.00  0.00     0.027 A 
ATOM     25  C   UNL     1       1.068   2.956  -4.570  1.00  0.00     0.027 A 
BRANCH  21  26
ATOM     26  C   UNL     1      -0.697   0.401  -2.380  1.00  0.00    -0.013 C 
ATOM     27  C   UNL     1      -0.073   1.058  -1.136  1.00  0.00     0.016 C 
ATOM     28  C   UNL     1      -0.278  -1.077  -2.328  1.00  0.00     0.016 C 
ATOM     29  C   UNL     1      -2.223   0.434  -2.261  1.00  0.00     0.016 C 
ENDBRANCH  21  26
ENDBRANCH  18  20
ENDBRANCH  15  18
ENDBRANCH  10  15
ENDBRANCH   7   9
ENDBRANCH   6   7
ENDBRANCH   5   6
ENDBRANCH   4   5
ENDBRANCH   3   4
ENDBRANCH   2   3
ENDBRANCH   1   2
BRANCH   1  30
ATOM     30  O   UNL     1       3.253  -1.236  -2.216  1.00  0.00    -0.377 OA
BRANCH  30  31
ATOM     31  C   UNL     1       3.401  -1.083  -0.808  1.00  0.00     0.188 C 
BRANCH  31  32
ATOM     32  C   UNL     1       2.377  -1.759   0.104  1.00  0.00     0.188 C 
BRANCH  32  33
ATOM     33  O   UNL     1       2.187  -3.167   0.009  1.00  0.00    -0.376 OA
BRANCH  33  34
ATOM     34  C   UNL     1       0.835  -3.586  -0.207  1.00  0.00     0.202 C 
BRANCH  34  35
ATOM     35  C   UNL     1      -0.264  -3.203   0.816  1.00  0.00     0.261 C 
BRANCH  35  36
ATOM     36  O   UNL     1      -0.266  -1.820   1.226  1.00  0.00    -0.460 OA
BRANCH  36  37
ATOM     37  C   UNL     1       0.316  -1.579   2.432  1.00  0.00     0.338 C 
ATOM     38  O   UNL     1       0.681  -2.430   3.227  1.00  0.00    -0.246 OA
BRANCH  37  39
ATOM     39  C   UNL     1       0.682  -0.142   2.571  1.00  0.00     0.060 A 
ATOM     40  C   UNL     1       1.919   0.153   3.153  1.00  0.00     0.016 A 
ATOM     41  C   UNL     1      -0.130   0.908   2.142  1.00  0.00     0.016 A 
ATOM     42  C   UNL     1       2.303   1.478   3.382  1.00  0.00     0.010 A 
ATOM     43  C   UNL     1       0.303   2.240   2.283  1.00  0.00     0.010 A 
ATOM     44  C   UNL     1       1.474   2.542   3.000  1.00  0.00    -0.014 A 
BRANCH  44  45
ATOM     45  C   UNL     1       1.713   3.900   3.598  1.00  0.00     0.031 A 
ATOM     46  C   UNL     1       0.689   4.458   4.570  1.00  0.00     0.074 A 
ATOM     47  C   UNL     1       2.862   4.584   3.403  1.00  0.00     0.049 A 
ATOM     48  N   UNL     1       0.753   5.524   5.331  1.00  0.00    -0.248 NA
ATOM     49  C   UNL     1      -0.586   3.734   4.683  1.00  0.00     0.031 C 
ATOM     50  C   UNL     1       3.937   4.203   2.485  1.00  0.00     0.029 A 
ATOM     51  N   UNL     1       3.332   5.735   3.997  1.00  0.00    -0.354 N 
ATOM     52  C   UNL     1      -0.465   5.583   6.005  1.00  0.00     0.074 A 
ATOM     53  C   UNL     1      -1.287   4.521   5.477  1.00  0.00     0.031 C 
ATOM     54  C   UNL     1       4.954   5.075   2.612  1.00  0.00     0.029 A 
ATOM     55  C   UNL     1       4.607   6.089   3.607  1.00  0.00     0.049 A 
ATOM     56  H   UNL     1       2.804   6.259   4.642  1.00  0.00     0.167 HD
ATOM     57  C   UNL     1      -0.861   6.399   7.013  1.00  0.00     0.034 A 
ATOM     58  C   UNL     1       5.409   7.097   4.016  1.00  0.00     0.034 A 
ATOM     59  C   UNL     1      -0.049   7.451   7.562  1.00  0.00     0.049 A 
ATOM     60  C   UNL     1       4.934   8.030   5.111  1.00  0.00     0.074 A 
ATOM     61  C   UNL     1      -0.344   8.312   8.603  1.00  0.00     0.029 A 
ATOM     62  N   UNL     1       1.218   7.792   7.109  1.00  0.00    -0.354 N 
ATOM     63  N   UNL     1       3.805   8.018   5.783  1.00  0.00    -0.248 NA
ATOM     64  C   UNL     1       5.859   9.099   5.517  1.00  0.00     0.031 C 
ATOM     65  C   UNL     1       0.709   9.224   8.729  1.00  0.00     0.029 A 
ATOM     66  C   UNL     1       1.702   8.874   7.828  1.00  0.00     0.049 A 
ATOM     67  H   UNL     1       1.701   7.334   6.384  1.00  0.00     0.167 HD
ATOM     68  C   UNL     1       3.907   9.052   6.716  1.00  0.00     0.074 A 
ATOM     69  C   UNL     1       5.213   9.647   6.535  1.00  0.00     0.031 C 
ATOM     70  C   UNL     1       3.003   9.469   7.641  1.00  0.00     0.034 A 
BRANCH  57  71
ATOM     71  C   UNL     1      -2.252   6.181   7.566  1.00  0.00     0.023 A 
ATOM     72  C   UNL     1      -2.623   4.965   8.169  1.00  0.00     0.031 A 
ATOM     73  C   UNL     1      -3.236   7.175   7.431  1.00  0.00     0.131 A 
ATOM     74  C   UNL     1      -3.962   4.737   8.521  1.00  0.00     0.055 A 
ATOM     75  C   UNL     1      -4.545   6.978   7.876  1.00  0.00     0.041 A 
ATOM     76  F   UNL     1      -2.949   8.346   6.842  1.00  0.00    -0.206 F 
ATOM     77  C   UNL     1      -4.919   5.746   8.406  1.00  0.00     0.022 A 
BRANCH  74  78
ATOM     78  S   UNL     1      -4.466   3.049   8.955  1.00  0.00     0.124 S 
ATOM     79  O   UNL     1      -4.107   2.315   7.744  1.00  0.00    -0.237 OA
ATOM     80  O   UNL     1      -3.657   2.771  10.136  1.00  0.00    -0.237 OA
ATOM     81  O   UNL     1      -5.902   3.172   9.196  1.00  0.00    -0.744 OA
ENDBRANCH  74  78
ENDBRANCH  57  71
BRANCH  58  82
ATOM     82  C   UNL     1       6.758   7.307   3.400  1.00  0.00     0.023 A 
ATOM     83  C   UNL     1       7.937   7.230   4.164  1.00  0.00     0.031 A 
ATOM     84  C   UNL     1       6.879   7.689   2.051  1.00  0.00     0.131 A 
ATOM     85  C   UNL     1       9.170   7.589   3.594  1.00  0.00     0.055 A 
ATOM     86  C   UNL     1       8.115   7.988   1.474  1.00  0.00     0.041 A 
ATOM     87  F   UNL     1       5.788   7.785   1.274  1.00  0.00    -0.206 F 
ATOM     88  C   UNL     1       9.268   7.954   2.250  1.00  0.00     0.022 A 
BRANCH  85  89
ATOM     89  S   UNL     1      10.637   7.674   4.662  1.00  0.00     0.124 S 
ATOM     90  O   UNL     1      10.225   8.660   5.654  1.00  0.00    -0.237 OA
ATOM     91  O   UNL     1      10.750   6.297   5.131  1.00  0.00    -0.237 OA
ATOM     92  O   UNL     1      11.696   8.108   3.752  1.00  0.00    -0.744 OA
ENDBRANCH  85  89
ENDBRANCH  58  82
BRANCH  70  93
ATOM     93  C   UNL     1       3.417  10.595   8.563  1.00  0.00     0.023 A 
ATOM     94  C   UNL     1       3.716  11.881   8.080  1.00  0.00     0.031 A 
ATOM     95  C   UNL     1       3.533  10.371   9.948  1.00  0.00     0.131 A 
ATOM     96  C   UNL     1       4.191  12.867   8.959  1.00  0.00     0.055 A 
ATOM     97  C   UNL     1       3.931  11.379  10.828  1.00  0.00     0.041 A 
ATOM     98  F   UNL     1       3.261   9.165  10.472  1.00  0.00    -0.206 F 
ATOM     99  C   UNL     1       4.282  12.630  10.332  1.00  0.00     0.022 A 
BRANCH  96 100
ATOM    100  S   UNL     1       4.815  14.422   8.263  1.00  0.00     0.124 S 
ATOM    101  O   UNL     1       5.817  13.949   7.313  1.00  0.00    -0.237 OA
ATOM    102  O   UNL     1       3.612  15.008   7.681  1.00  0.00    -0.237 OA
ATOM    103  O   UNL     1       5.348  15.128   9.427  1.00  0.00    -0.744 OA
ENDBRANCH  96 100
ENDBRANCH  70  93
ENDBRANCH  44  45
ENDBRANCH  37  39
ENDBRANCH  36  37
ENDBRANCH  35  36
ENDBRANCH  34  35
ENDBRANCH  33  34
ENDBRANCH  32  33
ENDBRANCH  31  32
ENDBRANCH  30  31
ENDBRANCH   1  30
TORSDOF 27
