REMARK SMILES CC[C@H](NC(=O)[C@H]1[C@@H](C(=O)OCCOCCOCCOCCOC(=O)c2ccc(-c3c4nc(c(-c5cc(S(=O)(=O)[O-])ccc5F)c5ccc([nH]5)c(-c5cc(S(=O)(=O)[O-])ccc5F)c5nc(c(-c6cc(S(=O)(=O)[O-])ccc6F)c6ccc3[nH]6)C=C5)C=C4)cc2)[C@@H]2C=C[C@H]1C2)c1ccccc1
REMARK SMILES IDX 17 1 16 2 15 3 14 4 13 5 12 6 11 7 9 8 10 9 8 10 7 11 92 12
REMARK SMILES IDX 89 13 91 14 93 15 90 16 5 17 4 18 6 20 3 21 2 22 1 23 94 24
REMARK SMILES IDX 95 25 99 26 96 27 98 28 97 29 18 30 19 31 20 32 21 33 22 34
REMARK SMILES IDX 23 35 24 36 25 37 26 38 27 39 88 40 28 41 87 42 29 43 30 44
REMARK SMILES IDX 31 45 81 46 32 47 86 48 80 49 82 50 33 51 85 52 79 53 78 54
REMARK SMILES IDX 34 56 66 57 46 58 65 59 47 60 50 61 64 62 83 63 48 64 49 65
REMARK SMILES IDX 63 67 84 68 51 69 35 70 36 71 44 72 37 73 43 74 45 75 42 76
REMARK SMILES IDX 38 77 39 78 40 79 41 80 67 81 68 82 76 83 69 84 75 85 77 86
REMARK SMILES IDX 74 87 70 88 71 89 72 90 73 91 52 92 53 93 61 94 54 95 60 96
REMARK SMILES IDX 62 97 59 98 55 99 56 100 57 101 58 102
REMARK H PARENT 4 19 82 55 50 66
REMARK Flexibility Score: inf
ROOT
ATOM      1  O   UNL     1      -6.262  -8.716  -2.748  1.00  0.00    -0.377 OA
ENDROOT
BRANCH   1   2
ATOM      2  C   UNL     1      -6.646  -7.362  -2.599  1.00  0.00     0.188 C 
BRANCH   2   3
ATOM      3  C   UNL     1      -6.263  -6.395  -3.726  1.00  0.00     0.188 C 
BRANCH   3   4
ATOM      4  O   UNL     1      -5.575  -7.016  -4.798  1.00  0.00    -0.376 OA
BRANCH   4   5
ATOM      5  C   UNL     1      -4.169  -7.117  -4.684  1.00  0.00     0.202 C 
BRANCH   5   6
ATOM      6  C   UNL     1      -3.572  -8.050  -3.624  1.00  0.00     0.261 C 
BRANCH   6   7
ATOM      7  O   UNL     1      -3.686  -7.810  -2.199  1.00  0.00    -0.463 OA
BRANCH   7   8
ATOM      8  C   UNL     1      -3.794  -6.615  -1.598  1.00  0.00     0.310 C 
ATOM      9  O   UNL     1      -3.996  -5.542  -2.154  1.00  0.00    -0.252 OA
BRANCH   8  10
ATOM     10  C   UNL     1      -3.571  -6.673  -0.111  1.00  0.00     0.119 C 
ATOM     11  C   UNL     1      -2.491  -7.655   0.438  1.00  0.00     0.100 C 
ATOM     12  C   UNL     1      -3.357  -8.466   1.480  1.00  0.00     0.025 C 
ATOM     13  C   UNL     1      -4.863  -7.045   0.656  1.00  0.00     0.027 C 
ATOM     14  C   UNL     1      -3.763  -7.532   2.607  1.00  0.00    -0.027 C 
ATOM     15  C   UNL     1      -4.720  -8.559   0.776  1.00  0.00     0.017 C 
ATOM     16  C   UNL     1      -4.667  -6.678   2.110  1.00  0.00    -0.027 C 
BRANCH  11  17
ATOM     17  C   UNL     1      -1.704  -8.614  -0.471  1.00  0.00     0.225 C 
ATOM     18  N   UNL     1      -0.751  -8.268  -1.378  1.00  0.00    -0.349 N 
ATOM     19  H   UNL     1      -0.104  -9.003  -1.476  1.00  0.00     0.164 HD
ATOM     20  O   UNL     1      -1.808  -9.835  -0.291  1.00  0.00    -0.275 OA
BRANCH  18  21
ATOM     21  C   UNL     1      -0.371  -7.144  -2.266  1.00  0.00     0.112 C 
BRANCH  21  22
ATOM     22  C   UNL     1      -1.079  -5.804  -2.054  1.00  0.00     0.026 C 
ATOM     23  C   UNL     1      -0.466  -4.455  -2.390  1.00  0.00     0.006 C 
ENDBRANCH  21  22
BRANCH  21  24
ATOM     24  C   UNL     1       1.117  -6.983  -2.474  1.00  0.00    -0.026 A 
ATOM     25  C   UNL     1       2.063  -7.349  -1.518  1.00  0.00     0.006 A 
ATOM     26  C   UNL     1       1.547  -6.326  -3.645  1.00  0.00     0.006 A 
ATOM     27  C   UNL     1       3.392  -6.959  -1.681  1.00  0.00     0.000 A 
ATOM     28  C   UNL     1       2.856  -5.884  -3.775  1.00  0.00     0.000 A 
ATOM     29  C   UNL     1       3.777  -6.189  -2.781  1.00  0.00     0.000 A 
ENDBRANCH  21  24
ENDBRANCH  18  21
ENDBRANCH  11  17
ENDBRANCH   8  10
ENDBRANCH   7   8
ENDBRANCH   6   7
ENDBRANCH   5   6
ENDBRANCH   4   5
ENDBRANCH   3   4
ENDBRANCH   2   3
ENDBRANCH   1   2
BRANCH   1  30
ATOM     30  C   UNL     1      -6.743  -9.470  -3.857  1.00  0.00     0.188 C 
BRANCH  30  31
ATOM     31  C   UNL     1      -7.771  -8.881  -4.844  1.00  0.00     0.188 C 
BRANCH  31  32
ATOM     32  O   UNL     1      -8.549  -7.811  -4.341  1.00  0.00    -0.376 OA
BRANCH  32  33
ATOM     33  C   UNL     1      -9.812  -8.059  -3.758  1.00  0.00     0.202 C 
BRANCH  33  34
ATOM     34  C   UNL     1      -9.915  -9.017  -2.559  1.00  0.00     0.261 C 
BRANCH  34  35
ATOM     35  O   UNL     1      -9.351 -10.323  -2.721  1.00  0.00    -0.460 OA
BRANCH  35  36
ATOM     36  C   UNL     1      -9.824 -11.075  -3.738  1.00  0.00     0.338 C 
ATOM     37  O   UNL     1     -10.727 -10.776  -4.503  1.00  0.00    -0.246 OA
BRANCH  36  38
ATOM     38  C   UNL     1      -8.905 -12.218  -3.918  1.00  0.00     0.060 A 
ATOM     39  C   UNL     1      -8.288 -12.388  -5.165  1.00  0.00     0.016 A 
ATOM     40  C   UNL     1      -8.631 -13.095  -2.865  1.00  0.00     0.016 A 
ATOM     41  C   UNL     1      -7.443 -13.470  -5.383  1.00  0.00     0.010 A 
ATOM     42  C   UNL     1      -7.816 -14.207  -3.096  1.00  0.00     0.010 A 
ATOM     43  C   UNL     1      -7.269 -14.424  -4.373  1.00  0.00    -0.014 A 
BRANCH  43  44
ATOM     44  C   UNL     1      -6.813 -15.773  -4.784  1.00  0.00     0.031 A 
ATOM     45  C   UNL     1      -7.876 -16.777  -5.145  1.00  0.00     0.074 A 
ATOM     46  C   UNL     1      -5.512 -16.066  -4.935  1.00  0.00     0.049 A 
ATOM     47  N   UNL     1      -7.756 -17.999  -5.591  1.00  0.00    -0.248 NA
ATOM     48  C   UNL     1      -9.268 -16.331  -4.977  1.00  0.00     0.031 C 
ATOM     49  C   UNL     1      -4.403 -15.153  -4.670  1.00  0.00     0.029 A 
ATOM     50  N   UNL     1      -4.908 -17.221  -5.360  1.00  0.00    -0.354 N 
ATOM     51  C   UNL     1      -9.056 -18.468  -5.755  1.00  0.00     0.074 A 
ATOM     52  C   UNL     1      -9.944 -17.415  -5.314  1.00  0.00     0.031 C 
ATOM     53  C   UNL     1      -3.247 -15.788  -4.932  1.00  0.00     0.029 A 
ATOM     54  C   UNL     1      -3.535 -17.158  -5.356  1.00  0.00     0.049 A 
ATOM     55  H   UNL     1      -5.410 -18.019  -5.642  1.00  0.00     0.167 HD
ATOM     56  C   UNL     1      -9.472 -19.663  -6.240  1.00  0.00     0.034 A 
ATOM     57  C   UNL     1      -2.622 -18.108  -5.643  1.00  0.00     0.034 A 
ATOM     58  C   UNL     1      -8.567 -20.708  -6.649  1.00  0.00     0.049 A 
ATOM     59  C   UNL     1      -3.102 -19.463  -6.104  1.00  0.00     0.074 A 
ATOM     60  C   UNL     1      -8.866 -21.960  -7.154  1.00  0.00     0.029 A 
ATOM     61  N   UNL     1      -7.180 -20.631  -6.577  1.00  0.00    -0.354 N 
ATOM     62  N   UNL     1      -4.332 -19.898  -6.268  1.00  0.00    -0.248 NA
ATOM     63  C   UNL     1      -2.067 -20.448  -6.439  1.00  0.00     0.031 C 
ATOM     64  C   UNL     1      -7.669 -22.669  -7.303  1.00  0.00     0.029 A 
ATOM     65  C   UNL     1      -6.612 -21.826  -6.992  1.00  0.00     0.049 A 
ATOM     66  H   UNL     1      -6.674 -19.842  -6.276  1.00  0.00     0.167 HD
ATOM     67  C   UNL     1      -4.216 -21.198  -6.756  1.00  0.00     0.074 A 
ATOM     68  C   UNL     1      -2.796 -21.464  -6.876  1.00  0.00     0.031 C 
ATOM     69  C   UNL     1      -5.191 -22.088  -7.085  1.00  0.00     0.034 A 
BRANCH  56  70
ATOM     70  C   UNL     1     -10.964 -19.910  -6.265  1.00  0.00     0.023 A 
ATOM     71  C   UNL     1     -11.843 -19.103  -7.012  1.00  0.00     0.031 A 
ATOM     72  C   UNL     1     -11.525 -20.916  -5.460  1.00  0.00     0.131 A 
ATOM     73  C   UNL     1     -13.231 -19.249  -6.858  1.00  0.00     0.055 A 
ATOM     74  C   UNL     1     -12.904 -21.122  -5.388  1.00  0.00     0.041 A 
ATOM     75  F   UNL     1     -10.743 -21.700  -4.700  1.00  0.00    -0.206 F 
ATOM     76  C   UNL     1     -13.767 -20.271  -6.073  1.00  0.00     0.022 A 
BRANCH  73  77
ATOM     77  S   UNL     1     -14.319 -17.964  -7.536  1.00  0.00     0.124 S 
ATOM     78  O   UNL     1     -13.790 -16.762  -6.896  1.00  0.00    -0.237 OA
ATOM     79  O   UNL     1     -14.087 -18.080  -8.971  1.00  0.00    -0.237 OA
ATOM     80  O   UNL     1     -15.649 -18.367  -7.083  1.00  0.00    -0.744 OA
ENDBRANCH  73  77
ENDBRANCH  56  70
BRANCH  57  81
ATOM     81  C   UNL     1      -1.169 -17.824  -5.466  1.00  0.00     0.023 A 
ATOM     82  C   UNL     1      -0.279 -17.815  -6.551  1.00  0.00     0.031 A 
ATOM     83  C   UNL     1      -0.645 -17.582  -4.182  1.00  0.00     0.131 A 
ATOM     84  C   UNL     1       1.092 -17.600  -6.330  1.00  0.00     0.055 A 
ATOM     85  C   UNL     1       0.709 -17.319  -3.974  1.00  0.00     0.041 A 
ATOM     86  F   UNL     1      -1.451 -17.584  -3.109  1.00  0.00    -0.206 F 
ATOM     87  C   UNL     1       1.588 -17.336  -5.051  1.00  0.00     0.022 A 
BRANCH  84  88
ATOM     88  S   UNL     1       2.235 -17.728  -7.733  1.00  0.00     0.124 S 
ATOM     89  O   UNL     1       2.031 -19.107  -8.160  1.00  0.00    -0.237 OA
ATOM     90  O   UNL     1       1.728 -16.696  -8.633  1.00  0.00    -0.237 OA
ATOM     91  O   UNL     1       3.539 -17.444  -7.138  1.00  0.00    -0.744 OA
ENDBRANCH  84  88
ENDBRANCH  57  81
BRANCH  69  92
ATOM     92  C   UNL     1      -4.745 -23.417  -7.654  1.00  0.00     0.023 A 
ATOM     93  C   UNL     1      -3.965 -24.322  -6.912  1.00  0.00     0.031 A 
ATOM     94  C   UNL     1      -5.077 -23.767  -8.976  1.00  0.00     0.131 A 
ATOM     95  C   UNL     1      -3.468 -25.483  -7.524  1.00  0.00     0.055 A 
ATOM     96  C   UNL     1      -4.651 -24.965  -9.552  1.00  0.00     0.041 A 
ATOM     97  F   UNL     1      -5.817 -22.945  -9.737  1.00  0.00    -0.206 F 
ATOM     98  C   UNL     1      -3.823 -25.821  -8.832  1.00  0.00     0.022 A 
BRANCH  95  99
ATOM     99  S   UNL     1      -2.226 -26.468  -6.640  1.00  0.00     0.124 S 
ATOM    100  O   UNL     1      -1.210 -25.466  -6.333  1.00  0.00    -0.237 OA
ATOM    101  O   UNL     1      -2.985 -26.977  -5.503  1.00  0.00    -0.237 OA
ATOM    102  O   UNL     1      -1.827 -27.476  -7.621  1.00  0.00    -0.744 OA
ENDBRANCH  95  99
ENDBRANCH  69  92
ENDBRANCH  43  44
ENDBRANCH  36  38
ENDBRANCH  35  36
ENDBRANCH  34  35
ENDBRANCH  33  34
ENDBRANCH  32  33
ENDBRANCH  31  32
ENDBRANCH  30  31
ENDBRANCH   1  30
TORSDOF 27
