REMARK SMILES CC(C)[C@@H](NC(=O)/C(=C\c1ccccc1F)NC(=O)c1ccccc1)C(=O)OCCOCCOCCOCCOC(=O)c1ccc(-c2c3nc(c(-c4cc(S(=O)(=O)[O-])ccc4F)c4ccc([nH]4)c(-c4cc(S(=O)(=O)[O-])ccc4F)c4nc(c(-c5cc(S(=O)(=O)[O-])ccc5F)c5ccc2[nH]5)C=C4)C=C3)cc1
REMARK SMILES IDX 33 1 32 2 31 3 30 4 29 5 28 6 26 7 27 8 4 9 2 10 1 11 3 12
REMARK SMILES IDX 5 13 6 14 7 16 8 17 9 18 17 19 18 20 19 22 20 23 21 24 25 25
REMARK SMILES IDX 22 26 24 27 23 28 10 29 11 30 15 31 12 32 14 33 16 34 13 35
REMARK SMILES IDX 34 36 35 37 36 38 37 39 38 40 39 41 40 42 41 43 42 44 43 45
REMARK SMILES IDX 44 46 105 47 45 48 104 49 46 50 47 51 48 52 98 53 49 54
REMARK SMILES IDX 103 55 97 56 99 57 50 58 102 59 96 60 95 61 51 63 83 64
REMARK SMILES IDX 63 65 82 66 64 67 67 68 81 69 100 70 65 71 66 72 80 74
REMARK SMILES IDX 101 75 68 76 52 77 53 78 61 79 54 80 60 81 62 82 59 83 55 84
REMARK SMILES IDX 56 85 57 86 58 87 84 88 85 89 93 90 86 91 92 92 94 93 91 94
REMARK SMILES IDX 87 95 88 96 89 97 90 98 69 99 70 100 78 101 71 102 77 103
REMARK SMILES IDX 79 104 76 105 72 106 73 107 74 108 75 109
REMARK H PARENT 5 15 17 21 99 62 67 73
REMARK Flexibility Score: inf
ROOT
ATOM      1  C   UNL     1      -0.402   0.273   4.874  1.00  0.00     0.188 C 
ENDROOT
BRANCH   1   2
ATOM      2  C   UNL     1      -1.623  -0.235   5.646  1.00  0.00     0.188 C 
BRANCH   2   3
ATOM      3  O   UNL     1      -1.505  -1.569   6.126  1.00  0.00    -0.376 OA
BRANCH   3   4
ATOM      4  C   UNL     1      -2.002  -2.615   5.295  1.00  0.00     0.202 C 
BRANCH   4   5
ATOM      5  C   UNL     1      -0.954  -3.291   4.370  1.00  0.00     0.261 C 
BRANCH   5   6
ATOM      6  O   UNL     1      -0.457  -2.666   3.151  1.00  0.00    -0.462 OA
BRANCH   6   7
ATOM      7  C   UNL     1      -1.208  -1.730   2.550  1.00  0.00     0.328 C 
ATOM      8  O   UNL     1      -2.235  -1.288   3.048  1.00  0.00    -0.250 OA
BRANCH   7   9
ATOM      9  C   UNL     1      -0.744  -1.242   1.165  1.00  0.00     0.195 C 
BRANCH   9  10
ATOM     10  C   UNL     1       0.766  -1.412   0.827  1.00  0.00     0.017 C 
ATOM     11  C   UNL     1       1.080  -1.036  -0.635  1.00  0.00     0.010 C 
ATOM     12  C   UNL     1       1.635  -0.508   1.714  1.00  0.00     0.010 C 
ENDBRANCH   9  10
BRANCH   9  13
ATOM     13  N   UNL     1      -1.630  -1.742   0.095  1.00  0.00    -0.337 N 
ATOM     14  C   UNL     1      -2.954  -1.497  -0.149  1.00  0.00     0.268 C 
ATOM     15  H   UNL     1      -1.198  -2.349  -0.548  1.00  0.00     0.164 HD
ATOM     16  O   UNL     1      -3.373  -1.579  -1.302  1.00  0.00    -0.268 OA
BRANCH  14  17
ATOM     17  C   UNL     1      -3.904  -1.269   0.985  1.00  0.00     0.107 C 
ATOM     18  C   UNL     1      -4.138  -0.020   1.449  1.00  0.00     0.043 C 
BRANCH  17  19
ATOM     19  N   UNL     1      -4.408  -2.349   1.704  1.00  0.00    -0.317 N 
ATOM     20  C   UNL     1      -4.231  -3.711   1.585  1.00  0.00     0.255 C 
ATOM     21  H   UNL     1      -5.008  -2.090   2.441  1.00  0.00     0.170 HD
ATOM     22  O   UNL     1      -4.504  -4.455   2.524  1.00  0.00    -0.269 OA
BRANCH  20  23
ATOM     23  C   UNL     1      -3.772  -4.310   0.327  1.00  0.00     0.040 A 
ATOM     24  C   UNL     1      -4.695  -4.469  -0.708  1.00  0.00     0.014 A 
ATOM     25  C   UNL     1      -2.443  -4.718   0.175  1.00  0.00     0.014 A 
ATOM     26  C   UNL     1      -4.267  -4.969  -1.935  1.00  0.00     0.001 A 
ATOM     27  C   UNL     1      -2.014  -5.190  -1.065  1.00  0.00     0.001 A 
ATOM     28  C   UNL     1      -2.924  -5.306  -2.120  1.00  0.00     0.000 A 
ENDBRANCH  20  23
ENDBRANCH  17  19
BRANCH  18  29
ATOM     29  C   UNL     1      -3.378   1.184   1.079  1.00  0.00     0.012 A 
ATOM     30  C   UNL     1      -2.564   1.773   2.063  1.00  0.00     0.011 A 
ATOM     31  C   UNL     1      -3.345   1.711  -0.209  1.00  0.00     0.130 A 
ATOM     32  C   UNL     1      -1.664   2.789   1.736  1.00  0.00     0.001 A 
ATOM     33  C   UNL     1      -2.459   2.735  -0.540  1.00  0.00     0.040 A 
ATOM     34  F   UNL     1      -4.157   1.230  -1.160  1.00  0.00    -0.206 F 
ATOM     35  C   UNL     1      -1.601   3.259   0.427  1.00  0.00     0.003 A 
ENDBRANCH  18  29
ENDBRANCH  14  17
ENDBRANCH   9  13
ENDBRANCH   7   9
ENDBRANCH   6   7
ENDBRANCH   5   6
ENDBRANCH   4   5
ENDBRANCH   3   4
ENDBRANCH   2   3
ENDBRANCH   1   2
BRANCH   1  36
ATOM     36  O   UNL     1       0.823  -0.406   5.099  1.00  0.00    -0.377 OA
BRANCH  36  37
ATOM     37  C   UNL     1       1.178  -0.670   6.453  1.00  0.00     0.188 C 
BRANCH  37  38
ATOM     38  C   UNL     1       0.997   0.490   7.442  1.00  0.00     0.188 C 
BRANCH  38  39
ATOM     39  O   UNL     1       1.033   1.775   6.825  1.00  0.00    -0.376 OA
BRANCH  39  40
ATOM     40  C   UNL     1       2.276   2.466   6.873  1.00  0.00     0.202 C 
BRANCH  40  41
ATOM     41  C   UNL     1       3.389   1.898   5.981  1.00  0.00     0.261 C 
BRANCH  41  42
ATOM     42  O   UNL     1       3.901   0.607   6.349  1.00  0.00    -0.460 OA
BRANCH  42  43
ATOM     43  C   UNL     1       4.330   0.420   7.622  1.00  0.00     0.338 C 
ATOM     44  O   UNL     1       4.451   1.258   8.483  1.00  0.00    -0.246 OA
BRANCH  43  45
ATOM     45  C   UNL     1       4.389  -1.048   7.836  1.00  0.00     0.060 A 
ATOM     46  C   UNL     1       3.656  -1.596   8.897  1.00  0.00     0.016 A 
ATOM     47  C   UNL     1       5.078  -1.879   6.947  1.00  0.00     0.016 A 
ATOM     48  C   UNL     1       3.624  -2.978   9.078  1.00  0.00     0.010 A 
ATOM     49  C   UNL     1       5.075  -3.262   7.150  1.00  0.00     0.010 A 
ATOM     50  C   UNL     1       4.370  -3.814   8.232  1.00  0.00    -0.014 A 
BRANCH  50  51
ATOM     51  C   UNL     1       4.626  -5.211   8.657  1.00  0.00     0.031 A 
ATOM     52  C   UNL     1       5.769  -5.437   9.610  1.00  0.00     0.074 A 
ATOM     53  C   UNL     1       3.845  -6.235   8.268  1.00  0.00     0.049 A 
ATOM     54  N   UNL     1       6.166  -6.540  10.183  1.00  0.00    -0.248 NA
ATOM     55  C   UNL     1       6.561  -4.248   9.976  1.00  0.00     0.031 C 
ATOM     56  C   UNL     1       2.680  -6.130   7.392  1.00  0.00     0.029 A 
ATOM     57  N   UNL     1       3.912  -7.571   8.579  1.00  0.00    -0.354 N 
ATOM     58  C   UNL     1       7.226  -6.174  11.003  1.00  0.00     0.074 A 
ATOM     59  C   UNL     1       7.441  -4.756  10.823  1.00  0.00     0.031 C 
ATOM     60  C   UNL     1       2.135  -7.352   7.242  1.00  0.00     0.029 A 
ATOM     61  C   UNL     1       2.924  -8.329   7.994  1.00  0.00     0.049 A 
ATOM     62  H   UNL     1       4.604  -7.952   9.167  1.00  0.00     0.167 HD
ATOM     63  C   UNL     1       7.951  -6.947  11.843  1.00  0.00     0.034 A 
ATOM     64  C   UNL     1       2.690  -9.658   8.059  1.00  0.00     0.034 A 
ATOM     65  C   UNL     1       7.766  -8.364  11.984  1.00  0.00     0.049 A 
ATOM     66  C   UNL     1       3.596 -10.524   8.904  1.00  0.00     0.074 A 
ATOM     67  C   UNL     1       8.474  -9.248  12.777  1.00  0.00     0.029 A 
ATOM     68  N   UNL     1       6.814  -9.107  11.301  1.00  0.00    -0.354 N 
ATOM     69  N   UNL     1       4.609 -10.165   9.659  1.00  0.00    -0.248 NA
ATOM     70  C   UNL     1       3.331 -11.971   8.906  1.00  0.00     0.031 C 
ATOM     71  C   UNL     1       7.987 -10.535  12.532  1.00  0.00     0.029 A 
ATOM     72  C   UNL     1       6.933 -10.443  11.636  1.00  0.00     0.049 A 
ATOM     73  H   UNL     1       6.153  -8.737  10.673  1.00  0.00     0.167 HD
ATOM     74  C   UNL     1       5.078 -11.336  10.249  1.00  0.00     0.074 A 
ATOM     75  C   UNL     1       4.248 -12.415   9.757  1.00  0.00     0.031 C 
ATOM     76  C   UNL     1       6.096 -11.501  11.131  1.00  0.00     0.034 A 
BRANCH  63  77
ATOM     77  C   UNL     1       9.034  -6.275  12.636  1.00  0.00     0.023 A 
ATOM     78  C   UNL     1       8.727  -5.401  13.693  1.00  0.00     0.031 A 
ATOM     79  C   UNL     1      10.386  -6.507  12.332  1.00  0.00     0.131 A 
ATOM     80  C   UNL     1       9.763  -4.763  14.389  1.00  0.00     0.055 A 
ATOM     81  C   UNL     1      11.412  -5.913  13.065  1.00  0.00     0.041 A 
ATOM     82  F   UNL     1      10.726  -7.311  11.313  1.00  0.00    -0.206 F 
ATOM     83  C   UNL     1      11.103  -5.031  14.098  1.00  0.00     0.022 A 
BRANCH  80  84
ATOM     84  S   UNL     1       9.337  -3.522  15.640  1.00  0.00     0.124 S 
ATOM     85  O   UNL     1       8.752  -2.465  14.818  1.00  0.00    -0.237 OA
ATOM     86  O   UNL     1       8.410  -4.244  16.504  1.00  0.00    -0.237 OA
ATOM     87  O   UNL     1      10.625  -3.192  16.247  1.00  0.00    -0.744 OA
ENDBRANCH  80  84
ENDBRANCH  63  77
BRANCH  64  88
ATOM     88  C   UNL     1       1.569 -10.266   7.286  1.00  0.00     0.023 A 
ATOM     89  C   UNL     1       0.463 -10.838   7.934  1.00  0.00     0.031 A 
ATOM     90  C   UNL     1       1.609 -10.314   5.881  1.00  0.00     0.131 A 
ATOM     91  C   UNL     1      -0.548 -11.457   7.179  1.00  0.00     0.055 A 
ATOM     92  C   UNL     1       0.584 -10.897   5.133  1.00  0.00     0.041 A 
ATOM     93  F   UNL     1       2.647  -9.786   5.214  1.00  0.00    -0.206 F 
ATOM     94  C   UNL     1      -0.500 -11.479   5.783  1.00  0.00     0.022 A 
BRANCH  91  95
ATOM     95  S   UNL     1      -1.914 -12.275   8.050  1.00  0.00     0.124 S 
ATOM     96  O   UNL     1      -1.215 -13.341   8.759  1.00  0.00    -0.237 OA
ATOM     97  O   UNL     1      -2.442 -11.193   8.873  1.00  0.00    -0.237 OA
ATOM     98  O   UNL     1      -2.791 -12.716   6.967  1.00  0.00    -0.744 OA
ENDBRANCH  91  95
ENDBRANCH  64  88
BRANCH  76  99
ATOM     99  C   UNL     1       6.354 -12.883  11.664  1.00  0.00     0.023 A 
ATOM    100  C   UNL     1       7.017 -13.854  10.896  1.00  0.00     0.031 A 
ATOM    101  C   UNL     1       6.031 -13.187  12.998  1.00  0.00     0.131 A 
ATOM    102  C   UNL     1       7.331 -15.095  11.471  1.00  0.00     0.055 A 
ATOM    103  C   UNL     1       6.378 -14.408  13.575  1.00  0.00     0.041 A 
ATOM    104  F   UNL     1       5.410 -12.283  13.772  1.00  0.00    -0.206 F 
ATOM    105  C   UNL     1       7.033 -15.370  12.810  1.00  0.00     0.022 A 
BRANCH 102 106
ATOM    106  S   UNL     1       8.156 -16.349  10.454  1.00  0.00     0.124 S 
ATOM    107  O   UNL     1       7.103 -16.713   9.511  1.00  0.00    -0.237 OA
ATOM    108  O   UNL     1       9.285 -15.614   9.893  1.00  0.00    -0.237 OA
ATOM    109  O   UNL     1       8.515 -17.389  11.416  1.00  0.00    -0.744 OA
ENDBRANCH 102 106
ENDBRANCH  76  99
ENDBRANCH  50  51
ENDBRANCH  43  45
ENDBRANCH  42  43
ENDBRANCH  41  42
ENDBRANCH  40  41
ENDBRANCH  39  40
ENDBRANCH  38  39
ENDBRANCH  37  38
ENDBRANCH  36  37
ENDBRANCH   1  36
TORSDOF 29
