REMARK SMILES O=C(OCCOCCOCCOCCOC(=O)[C@H](Cc1ccccn1)c1ccc(F)cc1)c1ccc(-c2c3nc(c(-c4cc(S(=O)(=O)[O-])ccc4F)c4ccc([nH]4)c(-c4cc(S(=O)(=O)[O-])ccc4F)c4nc(c(-c5cc(S(=O)(=O)[O-])ccc5F)c5ccc2[nH]5)C=C4)C=C3)cc1
REMARK SMILES IDX 8 1 7 2 6 3 5 4 4 5 3 6 2 7 1 8 33 9 34 10 95 11 35 12 94 13
REMARK SMILES IDX 36 14 37 15 38 16 88 17 39 18 93 19 87 20 89 21 40 22 92 23
REMARK SMILES IDX 86 24 85 25 41 27 73 28 53 29 72 30 54 31 57 32 71 33 90 34
REMARK SMILES IDX 55 35 56 36 70 38 91 39 58 40 42 41 43 42 51 43 44 44 50 45
REMARK SMILES IDX 52 46 49 47 45 48 46 49 47 50 48 51 74 52 75 53 83 54 76 55
REMARK SMILES IDX 82 56 84 57 81 58 77 59 78 60 79 61 80 62 59 63 60 64 68 65
REMARK SMILES IDX 61 66 67 67 69 68 66 69 62 70 63 71 64 72 65 73 9 74 10 75
REMARK SMILES IDX 11 76 12 77 13 78 14 79 15 80 16 81 17 82 18 83 26 84 27 85
REMARK SMILES IDX 32 86 28 87 31 88 29 89 30 90 19 91 20 92 21 93 25 94 22 95
REMARK SMILES IDX 24 96 23 97
REMARK H PARENT 89 26 57 37
REMARK Flexibility Score: inf
ROOT
ATOM      1  C   UNL     1       5.433   1.702   1.967  1.00  0.00     0.188 C 
ENDROOT
BRANCH   1   2
ATOM      2  C   UNL     1       5.274   0.880   0.689  1.00  0.00     0.188 C 
BRANCH   2   3
ATOM      3  O   UNL     1       4.166  -0.005   0.811  1.00  0.00    -0.376 OA
BRANCH   3   4
ATOM      4  C   UNL     1       4.316  -1.317   0.278  1.00  0.00     0.202 C 
BRANCH   4   5
ATOM      5  C   UNL     1       4.026  -1.401  -1.216  1.00  0.00     0.261 C 
BRANCH   5   6
ATOM      6  O   UNL     1       4.321  -0.178  -1.902  1.00  0.00    -0.460 OA
BRANCH   6   7
ATOM      7  C   UNL     1       3.535   0.921  -2.020  1.00  0.00     0.338 C 
ATOM      8  O   UNL     1       4.012   1.897  -2.603  1.00  0.00    -0.246 OA
BRANCH   7   9
ATOM      9  C   UNL     1       2.134   1.049  -1.500  1.00  0.00     0.060 A 
ATOM     10  C   UNL     1       1.580   0.367  -0.413  1.00  0.00     0.016 A 
ATOM     11  C   UNL     1       1.340   2.029  -2.123  1.00  0.00     0.016 A 
ATOM     12  C   UNL     1       0.298   0.638   0.049  1.00  0.00     0.010 A 
ATOM     13  C   UNL     1       0.048   2.307  -1.673  1.00  0.00     0.010 A 
ATOM     14  C   UNL     1      -0.474   1.602  -0.586  1.00  0.00    -0.014 A 
BRANCH  14  15
ATOM     15  C   UNL     1      -1.888   1.728  -0.203  1.00  0.00     0.031 A 
ATOM     16  C   UNL     1      -2.901   1.073  -1.087  1.00  0.00     0.074 A 
ATOM     17  C   UNL     1      -2.222   2.296   0.966  1.00  0.00     0.049 A 
ATOM     18  N   UNL     1      -4.201   1.144  -1.054  1.00  0.00    -0.248 NA
ATOM     19  C   UNL     1      -2.366   0.205  -2.149  1.00  0.00     0.031 C 
ATOM     20  C   UNL     1      -1.272   2.778   1.972  1.00  0.00     0.029 A 
ATOM     21  N   UNL     1      -3.448   2.535   1.521  1.00  0.00    -0.354 N 
ATOM     22  C   UNL     1      -4.642   0.346  -2.103  1.00  0.00     0.074 A 
ATOM     23  C   UNL     1      -3.470  -0.185  -2.762  1.00  0.00     0.031 C 
ATOM     24  C   UNL     1      -1.956   3.237   3.033  1.00  0.00     0.029 A 
ATOM     25  C   UNL     1      -3.383   3.160   2.743  1.00  0.00     0.049 A 
ATOM     26  H   UNL     1      -4.296   2.283   1.088  1.00  0.00     0.167 HD
ATOM     27  C   UNL     1      -5.919   0.095  -2.474  1.00  0.00     0.034 A 
ATOM     28  C   UNL     1      -4.375   3.651   3.509  1.00  0.00     0.034 A 
ATOM     29  C   UNL     1      -7.044   0.684  -1.795  1.00  0.00     0.049 A 
ATOM     30  C   UNL     1      -5.781   3.520   2.989  1.00  0.00     0.074 A 
ATOM     31  C   UNL     1      -8.383   0.645  -2.130  1.00  0.00     0.029 A 
ATOM     32  N   UNL     1      -6.945   1.431  -0.623  1.00  0.00    -0.354 N 
ATOM     33  N   UNL     1      -6.199   2.926   1.893  1.00  0.00    -0.248 NA
ATOM     34  C   UNL     1      -6.843   4.138   3.786  1.00  0.00     0.031 C 
ATOM     35  C   UNL     1      -9.084   1.417  -1.195  1.00  0.00     0.029 A 
ATOM     36  C   UNL     1      -8.196   1.868  -0.227  1.00  0.00     0.049 A 
ATOM     37  H   UNL     1      -6.106   1.619  -0.145  1.00  0.00     0.167 HD
ATOM     38  C   UNL     1      -7.581   3.071   1.881  1.00  0.00     0.074 A 
ATOM     39  C   UNL     1      -7.920   3.818   3.081  1.00  0.00     0.031 C 
ATOM     40  C   UNL     1      -8.487   2.619   0.975  1.00  0.00     0.034 A 
BRANCH  27  41
ATOM     41  C   UNL     1      -6.112  -0.744  -3.712  1.00  0.00     0.023 A 
ATOM     42  C   UNL     1      -5.711  -2.092  -3.763  1.00  0.00     0.031 A 
ATOM     43  C   UNL     1      -6.589  -0.154  -4.895  1.00  0.00     0.131 A 
ATOM     44  C   UNL     1      -5.716  -2.777  -4.989  1.00  0.00     0.055 A 
ATOM     45  C   UNL     1      -6.667  -0.866  -6.094  1.00  0.00     0.041 A 
ATOM     46  F   UNL     1      -6.950   1.138  -4.917  1.00  0.00    -0.206 F 
ATOM     47  C   UNL     1      -6.213  -2.180  -6.150  1.00  0.00     0.022 A 
BRANCH  44  48
ATOM     48  S   UNL     1      -4.918  -4.405  -5.083  1.00  0.00     0.124 S 
ATOM     49  O   UNL     1      -3.529  -4.070  -4.778  1.00  0.00    -0.237 OA
ATOM     50  O   UNL     1      -5.629  -5.168  -4.063  1.00  0.00    -0.237 OA
ATOM     51  O   UNL     1      -5.162  -4.829  -6.460  1.00  0.00    -0.744 OA
ENDBRANCH  44  48
ENDBRANCH  27  41
BRANCH  28  52
ATOM     52  C   UNL     1      -4.055   4.339   4.789  1.00  0.00     0.023 A 
ATOM     53  C   UNL     1      -4.402   3.772   6.024  1.00  0.00     0.031 A 
ATOM     54  C   UNL     1      -3.343   5.554   4.798  1.00  0.00     0.131 A 
ATOM     55  C   UNL     1      -4.035   4.417   7.218  1.00  0.00     0.055 A 
ATOM     56  C   UNL     1      -2.953   6.175   5.985  1.00  0.00     0.041 A 
ATOM     57  F   UNL     1      -2.980   6.136   3.643  1.00  0.00    -0.206 F 
ATOM     58  C   UNL     1      -3.300   5.606   7.206  1.00  0.00     0.022 A 
BRANCH  55  59
ATOM     59  S   UNL     1      -4.526   3.678   8.800  1.00  0.00     0.124 S 
ATOM     60  O   UNL     1      -5.979   3.798   8.747  1.00  0.00    -0.237 OA
ATOM     61  O   UNL     1      -3.987   2.327   8.688  1.00  0.00    -0.237 OA
ATOM     62  O   UNL     1      -3.866   4.526   9.791  1.00  0.00    -0.744 OA
ENDBRANCH  55  59
ENDBRANCH  28  52
BRANCH  40  63
ATOM     63  C   UNL     1      -9.937   2.870   1.285  1.00  0.00     0.023 A 
ATOM     64  C   UNL     1     -10.496   4.156   1.224  1.00  0.00     0.031 A 
ATOM     65  C   UNL     1     -10.775   1.788   1.607  1.00  0.00     0.131 A 
ATOM     66  C   UNL     1     -11.854   4.334   1.522  1.00  0.00     0.055 A 
ATOM     67  C   UNL     1     -12.137   1.964   1.844  1.00  0.00     0.041 A 
ATOM     68  F   UNL     1     -10.284   0.540   1.675  1.00  0.00    -0.206 F 
ATOM     69  C   UNL     1     -12.681   3.244   1.811  1.00  0.00     0.022 A 
BRANCH  66  70
ATOM     70  S   UNL     1     -12.514   6.020   1.589  1.00  0.00     0.124 S 
ATOM     71  O   UNL     1     -11.730   6.608   2.671  1.00  0.00    -0.237 OA
ATOM     72  O   UNL     1     -12.230   6.523   0.249  1.00  0.00    -0.237 OA
ATOM     73  O   UNL     1     -13.931   5.821   1.887  1.00  0.00    -0.744 OA
ENDBRANCH  66  70
ENDBRANCH  40  63
ENDBRANCH  14  15
ENDBRANCH   7   9
ENDBRANCH   6   7
ENDBRANCH   5   6
ENDBRANCH   4   5
ENDBRANCH   3   4
ENDBRANCH   2   3
ENDBRANCH   1   2
BRANCH   1  74
ATOM     74  O   UNL     1       5.835   0.952   3.108  1.00  0.00    -0.377 OA
BRANCH  74  75
ATOM     75  C   UNL     1       5.074  -0.215   3.402  1.00  0.00     0.188 C 
BRANCH  75  76
ATOM     76  C   UNL     1       3.526  -0.104   3.500  1.00  0.00     0.188 C 
BRANCH  76  77
ATOM     77  O   UNL     1       3.049   1.227   3.564  1.00  0.00    -0.376 OA
BRANCH  77  78
ATOM     78  C   UNL     1       2.710   1.686   4.866  1.00  0.00     0.202 C 
BRANCH  78  79
ATOM     79  C   UNL     1       3.885   1.737   5.854  1.00  0.00     0.261 C 
BRANCH  79  80
ATOM     80  O   UNL     1       4.543   0.481   6.166  1.00  0.00    -0.463 OA
BRANCH  80  81
ATOM     81  C   UNL     1       3.797  -0.575   6.601  1.00  0.00     0.313 C 
ATOM     82  O   UNL     1       2.599  -0.529   6.808  1.00  0.00    -0.252 OA
BRANCH  81  83
ATOM     83  C   UNL     1       4.680  -1.834   6.785  1.00  0.00     0.135 C 
BRANCH  83  84
ATOM     84  C   UNL     1       4.399  -2.416   8.171  1.00  0.00    -0.033 A 
ATOM     85  C   UNL     1       4.142  -3.779   8.388  1.00  0.00     0.007 A 
ATOM     86  C   UNL     1       4.304  -1.535   9.266  1.00  0.00     0.007 A 
ATOM     87  C   UNL     1       3.732  -4.236   9.637  1.00  0.00     0.039 A 
ATOM     88  C   UNL     1       3.860  -1.988  10.505  1.00  0.00     0.039 A 
ATOM     89  C   UNL     1       3.570  -3.333  10.676  1.00  0.00     0.123 A 
ATOM     90  F   UNL     1       3.118  -3.767  11.859  1.00  0.00    -0.207 F 
ENDBRANCH  83  84
BRANCH  83  91
ATOM     91  C   UNL     1       4.419  -2.816   5.610  1.00  0.00     0.076 C 
BRANCH  91  92
ATOM     92  C   UNL     1       5.348  -3.990   5.383  1.00  0.00     0.042 A 
ATOM     93  C   UNL     1       6.634  -4.078   5.906  1.00  0.00     0.024 A 
ATOM     94  N   UNL     1       4.821  -4.988   4.628  1.00  0.00    -0.261 NA
ATOM     95  C   UNL     1       7.361  -5.255   5.717  1.00  0.00     0.003 A 
ATOM     96  C   UNL     1       5.549  -6.110   4.447  1.00  0.00     0.111 A 
ATOM     97  C   UNL     1       6.807  -6.297   4.985  1.00  0.00     0.020 A 
ENDBRANCH  91  92
ENDBRANCH  83  91
ENDBRANCH  81  83
ENDBRANCH  80  81
ENDBRANCH  79  80
ENDBRANCH  78  79
ENDBRANCH  77  78
ENDBRANCH  76  77
ENDBRANCH  75  76
ENDBRANCH  74  75
ENDBRANCH   1  74
TORSDOF 26
