REMARK SMILES O=C(OCCOCCOCCOCCOC(=O)c1ccc(-c2c3nc(c(-c4cc(S(=O)(=O)[O-])ccc4F)c4ccc([nH]4)c(-c4cc(S(=O)(=O)[O-])ccc4F)c4nc(c(-c5cc(S(=O)(=O)[O-])ccc5F)c5ccc2[nH]5)C=C4)C=C3)cc1)C1=Cc2cc(OC(F)(F)F)ccc2O[C@@H]1C(F)(F)F
REMARK SMILES IDX 10 1 9 2 8 3 7 4 6 5 5 6 4 7 3 8 2 9 1 10 81 11 82 12 95 13
REMARK SMILES IDX 83 14 94 15 84 16 93 17 85 18 92 19 91 20 96 21 97 22 98 23
REMARK SMILES IDX 99 24 86 25 87 26 88 27 89 28 90 29 11 30 12 31 13 32 14 33
REMARK SMILES IDX 15 34 16 35 17 36 18 37 19 38 80 39 20 40 79 41 21 42 22 43
REMARK SMILES IDX 23 44 73 45 24 46 78 47 72 48 74 49 25 50 77 51 71 52 70 53
REMARK SMILES IDX 26 55 58 56 38 57 57 58 39 59 42 60 56 61 75 62 40 63 41 64
REMARK SMILES IDX 55 66 76 67 43 68 27 69 28 70 36 71 29 72 35 73 37 74 34 75
REMARK SMILES IDX 30 76 31 77 32 78 33 79 59 80 60 81 68 82 61 83 67 84 69 85
REMARK SMILES IDX 66 86 62 87 63 88 64 89 65 90 44 91 45 92 53 93 46 94 52 95
REMARK SMILES IDX 54 96 51 97 47 98 48 99 49 100 50 101
REMARK H PARENT 74 54 42 65
REMARK Flexibility Score: inf
ROOT
ATOM      1  C   UNL     1       2.994  -0.647  -4.292  1.00  0.00     0.188 C 
ENDROOT
BRANCH   1   2
ATOM      2  O   UNL     1       1.696  -0.066  -4.236  1.00  0.00    -0.377 OA
BRANCH   2   3
ATOM      3  C   UNL     1       0.938  -0.370  -3.073  1.00  0.00     0.188 C 
BRANCH   3   4
ATOM      4  C   UNL     1       1.309   0.522  -1.897  1.00  0.00     0.188 C 
BRANCH   4   5
ATOM      5  O   UNL     1       2.667   0.406  -1.504  1.00  0.00    -0.376 OA
BRANCH   5   6
ATOM      6  C   UNL     1       3.100  -0.814  -0.918  1.00  0.00     0.202 C 
BRANCH   6   7
ATOM      7  C   UNL     1       2.580  -1.090   0.493  1.00  0.00     0.261 C 
BRANCH   7   8
ATOM      8  O   UNL     1       2.104   0.106   1.137  1.00  0.00    -0.460 OA
BRANCH   8   9
ATOM      9  C   UNL     1       2.710   0.445   2.300  1.00  0.00     0.338 C 
ATOM     10  O   UNL     1       2.276   0.120   3.395  1.00  0.00    -0.246 OA
BRANCH   9  11
ATOM     11  C   UNL     1       3.869   1.368   2.116  1.00  0.00     0.087 C 
ATOM     12  C   UNL     1       4.955   0.922   2.775  1.00  0.00     0.027 C 
ATOM     13  C   UNL     1       3.987   2.036   0.765  1.00  0.00     0.316 C 
ATOM     14  C   UNL     1       6.004   0.396   1.895  1.00  0.00     0.021 A 
ATOM     15  O   UNL     1       5.161   1.664   0.004  1.00  0.00    -0.475 OA
ATOM     16  C   UNL     1       6.952  -0.512   2.382  1.00  0.00     0.058 A 
ATOM     17  C   UNL     1       5.970   0.697   0.535  1.00  0.00     0.128 A 
ATOM     18  C   UNL     1       7.789  -1.202   1.497  1.00  0.00     0.130 A 
ATOM     19  C   UNL     1       6.758  -0.029  -0.351  1.00  0.00     0.051 A 
ATOM     20  C   UNL     1       7.620  -1.020   0.124  1.00  0.00     0.050 A 
BRANCH  13  21
ATOM     21  C   UNL     1       3.833   3.554   0.876  1.00  0.00     0.430 C 
ATOM     22  F   UNL     1       3.535   4.110  -0.323  1.00  0.00    -0.167 F 
ATOM     23  F   UNL     1       2.810   3.879   1.710  1.00  0.00    -0.167 F 
ATOM     24  F   UNL     1       4.942   4.162   1.350  1.00  0.00    -0.167 F 
ENDBRANCH  13  21
BRANCH  18  25
ATOM     25  O   UNL     1       8.716  -2.012   2.088  1.00  0.00    -0.406 OA
BRANCH  25  26
ATOM     26  C   UNL     1       9.703  -2.614   1.256  1.00  0.00     0.573 C 
ATOM     27  F   UNL     1       9.180  -3.677   0.616  1.00  0.00    -0.132 F 
ATOM     28  F   UNL     1      10.205  -1.743   0.353  1.00  0.00    -0.132 F 
ATOM     29  F   UNL     1      10.727  -3.029   2.032  1.00  0.00    -0.132 F 
ENDBRANCH  25  26
ENDBRANCH  18  25
ENDBRANCH   9  11
ENDBRANCH   8   9
ENDBRANCH   7   8
ENDBRANCH   6   7
ENDBRANCH   5   6
ENDBRANCH   4   5
ENDBRANCH   3   4
ENDBRANCH   2   3
ENDBRANCH   1   2
BRANCH   1  30
ATOM     30  C   UNL     1       4.192   0.305  -4.063  1.00  0.00     0.188 C 
BRANCH  30  31
ATOM     31  O   UNL     1       4.243   1.639  -4.561  1.00  0.00    -0.376 OA
BRANCH  31  32
ATOM     32  C   UNL     1       3.157   2.151  -5.305  1.00  0.00     0.202 C 
BRANCH  32  33
ATOM     33  C   UNL     1       3.101   1.710  -6.776  1.00  0.00     0.261 C 
BRANCH  33  34
ATOM     34  O   UNL     1       3.462   0.337  -7.003  1.00  0.00    -0.460 OA
BRANCH  34  35
ATOM     35  C   UNL     1       4.785   0.110  -7.252  1.00  0.00     0.338 C 
ATOM     36  O   UNL     1       5.630   0.943  -7.459  1.00  0.00    -0.246 OA
BRANCH  35  37
ATOM     37  C   UNL     1       5.087  -1.339  -7.031  1.00  0.00     0.060 A 
ATOM     38  C   UNL     1       6.275  -1.657  -6.357  1.00  0.00     0.016 A 
ATOM     39  C   UNL     1       4.219  -2.365  -7.419  1.00  0.00     0.016 A 
ATOM     40  C   UNL     1       6.613  -2.989  -6.096  1.00  0.00     0.010 A 
ATOM     41  C   UNL     1       4.565  -3.703  -7.172  1.00  0.00     0.010 A 
ATOM     42  C   UNL     1       5.783  -4.025  -6.541  1.00  0.00    -0.014 A 
BRANCH  42  43
ATOM     43  C   UNL     1       6.314  -5.415  -6.604  1.00  0.00     0.031 A 
ATOM     44  C   UNL     1       6.927  -5.859  -7.910  1.00  0.00     0.074 A 
ATOM     45  C   UNL     1       6.301  -6.255  -5.551  1.00  0.00     0.049 A 
ATOM     46  N   UNL     1       7.400  -7.027  -8.257  1.00  0.00    -0.248 NA
ATOM     47  C   UNL     1       7.013  -4.837  -8.966  1.00  0.00     0.031 C 
ATOM     48  C   UNL     1       5.806  -5.933  -4.214  1.00  0.00     0.029 A 
ATOM     49  N   UNL     1       6.715  -7.563  -5.446  1.00  0.00    -0.354 N 
ATOM     50  C   UNL     1       7.830  -6.883  -9.573  1.00  0.00     0.074 A 
ATOM     51  C   UNL     1       7.532  -5.525  -9.969  1.00  0.00     0.031 C 
ATOM     52  C   UNL     1       5.931  -7.020  -3.429  1.00  0.00     0.029 A 
ATOM     53  C   UNL     1       6.475  -8.129  -4.213  1.00  0.00     0.049 A 
ATOM     54  H   UNL     1       7.145  -8.050  -6.186  1.00  0.00     0.167 HD
ATOM     55  C   UNL     1       8.423  -7.796 -10.378  1.00  0.00     0.034 A 
ATOM     56  C   UNL     1       6.646  -9.398  -3.782  1.00  0.00     0.034 A 
ATOM     57  C   UNL     1       8.709  -9.151  -9.982  1.00  0.00     0.049 A 
ATOM     58  C   UNL     1       7.213 -10.431  -4.737  1.00  0.00     0.074 A 
ATOM     59  C   UNL     1       9.314 -10.153 -10.720  1.00  0.00     0.029 A 
ATOM     60  N   UNL     1       8.399  -9.700  -8.745  1.00  0.00    -0.354 N 
ATOM     61  N   UNL     1       7.616 -10.280  -5.978  1.00  0.00    -0.248 NA
ATOM     62  C   UNL     1       7.351 -11.805  -4.229  1.00  0.00     0.031 C 
ATOM     63  C   UNL     1       9.296 -11.326  -9.960  1.00  0.00     0.029 A 
ATOM     64  C   UNL     1       8.764 -11.036  -8.714  1.00  0.00     0.049 A 
ATOM     65  H   UNL     1       7.981  -9.211  -7.999  1.00  0.00     0.167 HD
ATOM     66  C   UNL     1       8.087 -11.530  -6.381  1.00  0.00     0.074 A 
ATOM     67  C   UNL     1       7.934 -12.417  -5.249  1.00  0.00     0.031 C 
ATOM     68  C   UNL     1       8.604 -11.912  -7.578  1.00  0.00     0.034 A 
BRANCH  55  69
ATOM     69  C   UNL     1       8.743  -7.373 -11.790  1.00  0.00     0.023 A 
ATOM     70  C   UNL     1       9.694  -6.376 -12.071  1.00  0.00     0.031 A 
ATOM     71  C   UNL     1       8.071  -7.968 -12.872  1.00  0.00     0.131 A 
ATOM     72  C   UNL     1       9.904  -5.966 -13.396  1.00  0.00     0.055 A 
ATOM     73  C   UNL     1       8.341  -7.610 -14.193  1.00  0.00     0.041 A 
ATOM     74  F   UNL     1       7.133  -8.905 -12.661  1.00  0.00    -0.206 F 
ATOM     75  C   UNL     1       9.254  -6.595 -14.461  1.00  0.00     0.022 A 
BRANCH  72  76
ATOM     76  S   UNL     1      10.945  -4.512 -13.700  1.00  0.00     0.124 S 
ATOM     77  O   UNL     1      10.229  -3.477 -12.959  1.00  0.00    -0.237 OA
ATOM     78  O   UNL     1      12.229  -4.922 -13.146  1.00  0.00    -0.237 OA
ATOM     79  O   UNL     1      10.910  -4.364 -15.154  1.00  0.00    -0.744 OA
ENDBRANCH  72  76
ENDBRANCH  55  69
BRANCH  56  80
ATOM     80  C   UNL     1       6.223  -9.811  -2.407  1.00  0.00     0.023 A 
ATOM     81  C   UNL     1       7.139 -10.354  -1.490  1.00  0.00     0.031 A 
ATOM     82  C   UNL     1       4.869  -9.767  -2.026  1.00  0.00     0.131 A 
ATOM     83  C   UNL     1       6.684 -10.885  -0.271  1.00  0.00     0.055 A 
ATOM     84  C   UNL     1       4.430 -10.238  -0.787  1.00  0.00     0.041 A 
ATOM     85  F   UNL     1       3.943  -9.270  -2.863  1.00  0.00    -0.206 F 
ATOM     86  C   UNL     1       5.338 -10.817   0.093  1.00  0.00     0.022 A 
BRANCH  83  87
ATOM     87  S   UNL     1       7.861 -11.777   0.786  1.00  0.00     0.124 S 
ATOM     88  O   UNL     1       8.342 -12.815  -0.119  1.00  0.00    -0.237 OA
ATOM     89  O   UNL     1       8.815 -10.728   1.127  1.00  0.00    -0.237 OA
ATOM     90  O   UNL     1       7.032 -12.249   1.894  1.00  0.00    -0.744 OA
ENDBRANCH  83  87
ENDBRANCH  56  80
BRANCH  68  91
ATOM     91  C   UNL     1       9.093 -13.336  -7.705  1.00  0.00     0.023 A 
ATOM     92  C   UNL     1       8.216 -14.433  -7.641  1.00  0.00     0.031 A 
ATOM     93  C   UNL     1      10.463 -13.598  -7.896  1.00  0.00     0.131 A 
ATOM     94  C   UNL     1       8.724 -15.740  -7.710  1.00  0.00     0.055 A 
ATOM     95  C   UNL     1      10.954 -14.897  -8.031  1.00  0.00     0.041 A 
ATOM     96  F   UNL     1      11.348 -12.590  -7.964  1.00  0.00    -0.206 F 
ATOM     97  C   UNL     1      10.085 -15.978  -7.924  1.00  0.00     0.022 A 
BRANCH  94  98
ATOM     98  S   UNL     1       7.596 -17.130  -7.419  1.00  0.00     0.124 S 
ATOM     99  O   UNL     1       7.083 -16.830  -6.087  1.00  0.00    -0.237 OA
ATOM    100  O   UNL     1       6.642 -16.992  -8.515  1.00  0.00    -0.237 OA
ATOM    101  O   UNL     1       8.466 -18.302  -7.500  1.00  0.00    -0.744 OA
ENDBRANCH  94  98
ENDBRANCH  68  91
ENDBRANCH  42  43
ENDBRANCH  35  37
ENDBRANCH  34  35
ENDBRANCH  33  34
ENDBRANCH  32  33
ENDBRANCH  31  32
ENDBRANCH  30  31
ENDBRANCH   1  30
TORSDOF 26
