REMARK SMILES O=C(COc1ccccc1C[NH+]1CCC2(CC[NH2+]CC2)CC1)OCCOCCOCCOCCOC(=O)c1ccc(-c2c3nc(c(-c4cc(S(=O)(=O)[O-])ccc4F)c4ccc([nH]4)c(-c4cc(S(=O)(=O)[O-])ccc4F)c4nc(c(-c5cc(S(=O)(=O)[O-])ccc5F)c5ccc2[nH]5)C=C4)C=C3)cc1
REMARK SMILES IDX 28 1 27 2 26 3 25 4 24 5 23 6 2 7 1 8 3 9 4 10 5 11 6 12
REMARK SMILES IDX 10 13 7 14 9 15 8 16 11 17 12 18 13 19 22 20 14 22 21 23
REMARK SMILES IDX 15 24 16 25 20 26 17 27 19 28 18 29 29 32 30 33 31 34 32 35
REMARK SMILES IDX 33 36 34 37 35 38 36 39 37 40 38 41 39 42 100 43 40 44 99 45
REMARK SMILES IDX 41 46 42 47 43 48 93 49 44 50 98 51 92 52 94 53 45 54 97 55
REMARK SMILES IDX 91 56 90 57 46 59 78 60 58 61 77 62 59 63 62 64 76 65 95 66
REMARK SMILES IDX 60 67 61 68 75 70 96 71 63 72 47 73 48 74 56 75 49 76 55 77
REMARK SMILES IDX 57 78 54 79 50 80 51 81 52 82 53 83 79 84 80 85 88 86 81 87
REMARK SMILES IDX 87 88 89 89 86 90 82 91 83 92 84 93 85 94 64 95 65 96 73 97
REMARK SMILES IDX 66 98 72 99 74 100 71 101 67 102 68 103 69 104 70 105
REMARK H PARENT 12 21 18 30 18 31 94 58 62 69
REMARK Flexibility Score: inf
ROOT
ATOM      1  C   UNL     1       2.465   2.363  -1.743  1.00  0.00     0.188 C 
ENDROOT
BRANCH   1   2
ATOM      2  C   UNL     1       3.356   2.915  -0.604  1.00  0.00     0.188 C 
BRANCH   2   3
ATOM      3  O   UNL     1       4.696   2.442  -0.596  1.00  0.00    -0.376 OA
BRANCH   3   4
ATOM      4  C   UNL     1       5.094   1.256   0.064  1.00  0.00     0.202 C 
BRANCH   4   5
ATOM      5  C   UNL     1       4.284  -0.019  -0.130  1.00  0.00     0.261 C 
BRANCH   5   6
ATOM      6  O   UNL     1       2.854   0.137  -0.018  1.00  0.00    -0.461 OA
BRANCH   6   7
ATOM      7  C   UNL     1       2.161   0.638   1.027  1.00  0.00     0.344 C 
ATOM      8  O   UNL     1       1.055   1.149   0.858  1.00  0.00    -0.248 OA
BRANCH   7   9
ATOM      9  C   UNL     1       2.780   0.527   2.384  1.00  0.00     0.351 C 
BRANCH   9  10
ATOM     10  O   UNL     1       3.467  -0.712   2.461  1.00  0.00    -0.481 OA
BRANCH  10  11
ATOM     11  C   UNL     1       2.818  -1.616   3.248  1.00  0.00     0.129 A 
ATOM     12  C   UNL     1       3.400  -1.762   4.514  1.00  0.00     0.047 A 
ATOM     13  C   UNL     1       1.732  -2.408   2.829  1.00  0.00     0.048 A 
ATOM     14  C   UNL     1       2.874  -2.665   5.423  1.00  0.00     0.004 A 
ATOM     15  C   UNL     1       1.183  -3.264   3.800  1.00  0.00     0.013 A 
ATOM     16  C   UNL     1       1.753  -3.405   5.070  1.00  0.00     0.001 A 
BRANCH  13  17
ATOM     17  C   UNL     1       1.076  -2.403   1.453  1.00  0.00     0.302 C 
BRANCH  17  18
ATOM     18  N   UNL     1       1.419  -3.395   0.429  1.00  0.00    -0.331 N 
ATOM     19  C   UNL     1       2.667  -3.229  -0.293  1.00  0.00     0.263 C 
ATOM     20  C   UNL     1       1.170  -4.795   0.710  1.00  0.00     0.263 C 
ATOM     21  H   UNL     1       0.679  -3.111  -0.213  1.00  0.00     0.348 HD
ATOM     22  C   UNL     1       3.872  -3.681   0.517  1.00  0.00     0.069 C 
ATOM     23  C   UNL     1       2.292  -5.476   1.489  1.00  0.00     0.069 C 
ATOM     24  C   UNL     1       3.746  -5.131   1.055  1.00  0.00    -0.008 C 
ATOM     25  C   UNL     1       4.238  -6.138  -0.017  1.00  0.00     0.069 C 
ATOM     26  C   UNL     1       4.642  -5.289   2.311  1.00  0.00     0.069 C 
ATOM     27  C   UNL     1       5.758  -6.098  -0.230  1.00  0.00     0.261 C 
ATOM     28  C   UNL     1       6.130  -5.226   1.993  1.00  0.00     0.261 C 
ATOM     29  N   UNL     1       6.502  -6.250   1.025  1.00  0.00    -0.346 N 
ATOM     30  H   UNL     1       7.500  -6.176   0.830  1.00  0.00     0.346 HD
ATOM     31  H   UNL     1       6.277  -7.163   1.421  1.00  0.00     0.346 HD
ENDBRANCH  17  18
ENDBRANCH  13  17
ENDBRANCH  10  11
ENDBRANCH   9  10
ENDBRANCH   7   9
ENDBRANCH   6   7
ENDBRANCH   5   6
ENDBRANCH   4   5
ENDBRANCH   3   4
ENDBRANCH   2   3
ENDBRANCH   1   2
BRANCH   1  32
ATOM     32  O   UNL     1       2.959   2.563  -3.061  1.00  0.00    -0.377 OA
BRANCH  32  33
ATOM     33  C   UNL     1       4.262   2.047  -3.289  1.00  0.00     0.188 C 
BRANCH  33  34
ATOM     34  C   UNL     1       5.371   3.112  -3.204  1.00  0.00     0.188 C 
BRANCH  34  35
ATOM     35  O   UNL     1       5.078   4.473  -2.925  1.00  0.00    -0.376 OA
BRANCH  35  36
ATOM     36  C   UNL     1       3.892   5.097  -3.384  1.00  0.00     0.202 C 
BRANCH  36  37
ATOM     37  C   UNL     1       3.307   4.902  -4.795  1.00  0.00     0.261 C 
BRANCH  37  38
ATOM     38  O   UNL     1       3.719   3.761  -5.544  1.00  0.00    -0.460 OA
BRANCH  38  39
ATOM     39  C   UNL     1       4.875   3.881  -6.232  1.00  0.00     0.338 C 
ATOM     40  O   UNL     1       5.606   4.853  -6.285  1.00  0.00    -0.246 OA
BRANCH  39  41
ATOM     41  C   UNL     1       5.189   2.539  -6.766  1.00  0.00     0.060 A 
ATOM     42  C   UNL     1       6.394   1.925  -6.399  1.00  0.00     0.016 A 
ATOM     43  C   UNL     1       4.268   1.870  -7.576  1.00  0.00     0.016 A 
ATOM     44  C   UNL     1       6.680   0.633  -6.832  1.00  0.00     0.010 A 
ATOM     45  C   UNL     1       4.579   0.599  -8.055  1.00  0.00     0.010 A 
ATOM     46  C   UNL     1       5.794  -0.013  -7.701  1.00  0.00    -0.014 A 
BRANCH  46  47
ATOM     47  C   UNL     1       6.236  -1.218  -8.435  1.00  0.00     0.031 A 
ATOM     48  C   UNL     1       6.920  -1.006  -9.756  1.00  0.00     0.074 A 
ATOM     49  C   UNL     1       6.006  -2.453  -7.958  1.00  0.00     0.049 A 
ATOM     50  N   UNL     1       7.267  -1.881 -10.659  1.00  0.00    -0.248 NA
ATOM     51  C   UNL     1       7.252   0.387 -10.105  1.00  0.00     0.031 C 
ATOM     52  C   UNL     1       5.407  -2.761  -6.660  1.00  0.00     0.029 A 
ATOM     53  N   UNL     1       6.225  -3.682  -8.528  1.00  0.00    -0.354 N 
ATOM     54  C   UNL     1       7.838  -1.147 -11.692  1.00  0.00     0.074 A 
ATOM     55  C   UNL     1       7.791   0.245 -11.306  1.00  0.00     0.031 C 
ATOM     56  C   UNL     1       5.269  -4.095  -6.551  1.00  0.00     0.029 A 
ATOM     57  C   UNL     1       5.720  -4.728  -7.790  1.00  0.00     0.049 A 
ATOM     58  H   UNL     1       6.699  -3.804  -9.383  1.00  0.00     0.167 HD
ATOM     59  C   UNL     1       8.341  -1.599 -12.863  1.00  0.00     0.034 A 
ATOM     60  C   UNL     1       5.588  -6.032  -8.111  1.00  0.00     0.034 A 
ATOM     61  C   UNL     1       8.361  -2.989 -13.232  1.00  0.00     0.049 A 
ATOM     62  C   UNL     1       6.066  -6.495  -9.471  1.00  0.00     0.074 A 
ATOM     63  C   UNL     1       8.885  -3.567 -14.373  1.00  0.00     0.029 A 
ATOM     64  N   UNL     1       7.810  -4.016 -12.478  1.00  0.00    -0.354 N 
ATOM     65  N   UNL     1       6.639  -5.798 -10.428  1.00  0.00    -0.248 NA
ATOM     66  C   UNL     1       5.875  -7.914  -9.799  1.00  0.00     0.031 C 
ATOM     67  C   UNL     1       8.575  -4.929 -14.350  1.00  0.00     0.029 A 
ATOM     68  C   UNL     1       7.933  -5.217 -13.155  1.00  0.00     0.049 A 
ATOM     69  H   UNL     1       7.393  -3.907 -11.593  1.00  0.00     0.167 HD
ATOM     70  C   UNL     1       6.896  -6.703 -11.456  1.00  0.00     0.074 A 
ATOM     71  C   UNL     1       6.438  -7.996 -10.995  1.00  0.00     0.031 C 
ATOM     72  C   UNL     1       7.459  -6.492 -12.674  1.00  0.00     0.034 A 
BRANCH  59  73
ATOM     73  C   UNL     1       8.838  -0.581 -13.853  1.00  0.00     0.023 A 
ATOM     74  C   UNL     1       9.987   0.192 -13.618  1.00  0.00     0.031 A 
ATOM     75  C   UNL     1       8.146  -0.391 -15.062  1.00  0.00     0.131 A 
ATOM     76  C   UNL     1      10.392   1.145 -14.566  1.00  0.00     0.055 A 
ATOM     77  C   UNL     1       8.589   0.512 -16.028  1.00  0.00     0.041 A 
ATOM     78  F   UNL     1       7.025  -1.082 -15.323  1.00  0.00    -0.206 F 
ATOM     79  C   UNL     1       9.715   1.291 -15.780  1.00  0.00     0.022 A 
BRANCH  76  80
ATOM     80  S   UNL     1      11.766   2.254 -14.155  1.00  0.00     0.124 S 
ATOM     81  O   UNL     1      11.243   2.952 -12.984  1.00  0.00    -0.237 OA
ATOM     82  O   UNL     1      12.861   1.323 -13.908  1.00  0.00    -0.237 OA
ATOM     83  O   UNL     1      11.909   3.080 -15.353  1.00  0.00    -0.744 OA
ENDBRANCH  76  80
ENDBRANCH  59  73
BRANCH  60  84
ATOM     84  C   UNL     1       4.897  -6.986  -7.191  1.00  0.00     0.023 A 
ATOM     85  C   UNL     1       5.548  -8.132  -6.707  1.00  0.00     0.031 A 
ATOM     86  C   UNL     1       3.537  -6.820  -6.868  1.00  0.00     0.131 A 
ATOM     87  C   UNL     1       4.826  -9.098  -5.987  1.00  0.00     0.055 A 
ATOM     88  C   UNL     1       2.841  -7.751  -6.094  1.00  0.00     0.041 A 
ATOM     89  F   UNL     1       2.858  -5.750  -7.310  1.00  0.00    -0.206 F 
ATOM     90  C   UNL     1       3.481  -8.908  -5.665  1.00  0.00     0.022 A 
BRANCH  87  91
ATOM     91  S   UNL     1       5.638 -10.672  -5.591  1.00  0.00     0.124 S 
ATOM     92  O   UNL     1       6.069 -11.122  -6.910  1.00  0.00    -0.237 OA
ATOM     93  O   UNL     1       6.695 -10.244  -4.681  1.00  0.00    -0.237 OA
ATOM     94  O   UNL     1       4.571 -11.460  -4.978  1.00  0.00    -0.744 OA
ENDBRANCH  87  91
ENDBRANCH  60  84
BRANCH  72  95
ATOM     95  C   UNL     1       7.639  -7.692 -13.569  1.00  0.00     0.023 A 
ATOM     96  C   UNL     1       6.541  -8.364 -14.132  1.00  0.00     0.031 A 
ATOM     97  C   UNL     1       8.930  -8.157 -13.877  1.00  0.00     0.131 A 
ATOM     98  C   UNL     1       6.752  -9.492 -14.938  1.00  0.00     0.055 A 
ATOM     99  C   UNL     1       9.136  -9.243 -14.728  1.00  0.00     0.041 A 
ATOM    100  F   UNL     1      10.015  -7.552 -13.365  1.00  0.00    -0.206 F 
ATOM    101  C   UNL     1       8.043  -9.924 -15.255  1.00  0.00     0.022 A 
BRANCH  98 102
ATOM    102  S   UNL     1       5.313 -10.436 -15.509  1.00  0.00     0.124 S 
ATOM    103  O   UNL     1       4.706 -10.855 -14.250  1.00  0.00    -0.237 OA
ATOM    104  O   UNL     1       4.569  -9.442 -16.276  1.00  0.00    -0.237 OA
ATOM    105  O   UNL     1       5.903 -11.514 -16.302  1.00  0.00    -0.744 OA
ENDBRANCH  98 102
ENDBRANCH  72  95
ENDBRANCH  46  47
ENDBRANCH  39  41
ENDBRANCH  38  39
ENDBRANCH  37  38
ENDBRANCH  36  37
ENDBRANCH  35  36
ENDBRANCH  34  35
ENDBRANCH  33  34
ENDBRANCH  32  33
ENDBRANCH   1  32
TORSDOF 27
