REMARK SMILES O=C(OCCOCCOCCOCCOC(=O)[C@@H]1[C@H](C(=O)Nc2ccccc2OC(F)F)[C@@H]2C=C[C@H]1C2)c1ccc(-c2c3nc(c(-c4cc(S(=O)(=O)[O-])ccc4F)c4ccc([nH]4)c(-c4cc(S(=O)(=O)[O-])ccc4F)c4nc(c(-c5cc(S(=O)(=O)[O-])ccc5F)c5ccc2[nH]5)C=C4)C=C3)cc1
REMARK SMILES IDX 10 1 9 2 8 3 7 4 6 5 5 6 4 7 3 8 2 9 1 10 38 11 39 12 100 13
REMARK SMILES IDX 40 14 99 15 41 16 42 17 43 18 93 19 44 20 98 21 92 22 94 23
REMARK SMILES IDX 45 24 97 25 91 26 90 27 46 29 78 30 58 31 77 32 59 33 62 34
REMARK SMILES IDX 76 35 95 36 60 37 61 38 75 40 96 41 63 42 47 43 48 44 56 45
REMARK SMILES IDX 49 46 55 47 57 48 54 49 50 50 51 51 52 52 53 53 79 54 80 55
REMARK SMILES IDX 88 56 81 57 87 58 89 59 86 60 82 61 83 62 84 63 85 64 64 65
REMARK SMILES IDX 65 66 73 67 66 68 72 69 74 70 71 71 67 72 68 73 69 74 70 75
REMARK SMILES IDX 11 76 12 77 13 78 14 79 15 80 16 81 17 82 18 83 19 84 36 85
REMARK SMILES IDX 33 86 35 87 37 88 34 89 20 90 21 91 22 92 23 94 24 95 28 96
REMARK SMILES IDX 25 97 27 98 26 99 29 100 30 101 31 102 32 103
REMARK H PARENT 94 28 62 39 22 93
REMARK Flexibility Score: inf
ROOT
ATOM      1  C   UNL     1       5.253   2.680   1.570  1.00  0.00     0.188 C 
ENDROOT
BRANCH   1   2
ATOM      2  O   UNL     1       4.055   3.157   0.969  1.00  0.00    -0.377 OA
BRANCH   2   3
ATOM      3  C   UNL     1       2.934   2.303   1.160  1.00  0.00     0.188 C 
BRANCH   3   4
ATOM      4  C   UNL     1       3.095   0.954   0.458  1.00  0.00     0.188 C 
BRANCH   4   5
ATOM      5  O   UNL     1       3.859   0.994  -0.746  1.00  0.00    -0.376 OA
BRANCH   5   6
ATOM      6  C   UNL     1       4.773  -0.055  -1.022  1.00  0.00     0.202 C 
BRANCH   6   7
ATOM      7  C   UNL     1       4.214  -1.484  -1.161  1.00  0.00     0.261 C 
BRANCH   7   8
ATOM      8  O   UNL     1       2.869  -1.643  -0.680  1.00  0.00    -0.460 OA
BRANCH   8   9
ATOM      9  C   UNL     1       2.457  -2.286   0.440  1.00  0.00     0.338 C 
ATOM     10  O   UNL     1       1.352  -2.822   0.442  1.00  0.00    -0.246 OA
BRANCH   9  11
ATOM     11  C   UNL     1       3.185  -2.133   1.744  1.00  0.00     0.060 A 
ATOM     12  C   UNL     1       4.471  -1.607   1.882  1.00  0.00     0.016 A 
ATOM     13  C   UNL     1       2.476  -2.440   2.920  1.00  0.00     0.016 A 
ATOM     14  C   UNL     1       4.992  -1.262   3.116  1.00  0.00     0.010 A 
ATOM     15  C   UNL     1       3.039  -2.209   4.180  1.00  0.00     0.010 A 
ATOM     16  C   UNL     1       4.304  -1.619   4.268  1.00  0.00    -0.014 A 
BRANCH  16  17
ATOM     17  C   UNL     1       5.136  -1.697   5.476  1.00  0.00     0.031 A 
ATOM     18  C   UNL     1       5.905  -2.976   5.649  1.00  0.00     0.074 A 
ATOM     19  C   UNL     1       5.384  -0.597   6.205  1.00  0.00     0.049 A 
ATOM     20  N   UNL     1       6.748  -3.323   6.578  1.00  0.00    -0.248 NA
ATOM     21  C   UNL     1       5.727  -3.989   4.590  1.00  0.00     0.031 C 
ATOM     22  C   UNL     1       4.829   0.733   5.942  1.00  0.00     0.029 A 
ATOM     23  N   UNL     1       6.199  -0.413   7.286  1.00  0.00    -0.354 N 
ATOM     24  C   UNL     1       7.200  -4.588   6.215  1.00  0.00     0.074 A 
ATOM     25  C   UNL     1       6.539  -4.951   4.986  1.00  0.00     0.031 C 
ATOM     26  C   UNL     1       5.319   1.596   6.849  1.00  0.00     0.029 A 
ATOM     27  C   UNL     1       6.168   0.868   7.788  1.00  0.00     0.049 A 
ATOM     28  H   UNL     1       6.756  -1.128   7.669  1.00  0.00     0.167 HD
ATOM     29  C   UNL     1       8.082  -5.377   6.867  1.00  0.00     0.034 A 
ATOM     30  C   UNL     1       6.731   1.357   8.910  1.00  0.00     0.034 A 
ATOM     31  C   UNL     1       8.654  -4.991   8.128  1.00  0.00     0.049 A 
ATOM     32  C   UNL     1       7.564   0.395   9.729  1.00  0.00     0.074 A 
ATOM     33  C   UNL     1       9.407  -5.736   9.011  1.00  0.00     0.029 A 
ATOM     34  N   UNL     1       8.508  -3.724   8.688  1.00  0.00    -0.354 N 
ATOM     35  N   UNL     1       7.881  -0.856   9.463  1.00  0.00    -0.248 NA
ATOM     36  C   UNL     1       8.106   0.895  10.995  1.00  0.00     0.031 C 
ATOM     37  C   UNL     1       9.671  -4.935  10.130  1.00  0.00     0.029 A 
ATOM     38  C   UNL     1       9.145  -3.668   9.911  1.00  0.00     0.049 A 
ATOM     39  H   UNL     1       8.022  -2.977   8.271  1.00  0.00     0.167 HD
ATOM     40  C   UNL     1       8.675  -1.284  10.521  1.00  0.00     0.074 A 
ATOM     41  C   UNL     1       8.809  -0.147  11.414  1.00  0.00     0.031 C 
ATOM     42  C   UNL     1       9.238  -2.499  10.755  1.00  0.00     0.034 A 
BRANCH  29  43
ATOM     43  C   UNL     1       8.326  -6.742   6.275  1.00  0.00     0.023 A 
ATOM     44  C   UNL     1       8.941  -6.901   5.017  1.00  0.00     0.031 A 
ATOM     45  C   UNL     1       7.797  -7.884   6.899  1.00  0.00     0.131 A 
ATOM     46  C   UNL     1       8.928  -8.157   4.388  1.00  0.00     0.055 A 
ATOM     47  C   UNL     1       7.864  -9.146   6.303  1.00  0.00     0.041 A 
ATOM     48  F   UNL     1       7.158  -7.786   8.075  1.00  0.00    -0.206 F 
ATOM     49  C   UNL     1       8.415  -9.284   5.032  1.00  0.00     0.022 A 
BRANCH  46  50
ATOM     50  S   UNL     1       9.432  -8.256   2.646  1.00  0.00     0.124 S 
ATOM     51  O   UNL     1       8.429  -7.402   2.002  1.00  0.00    -0.237 OA
ATOM     52  O   UNL     1      10.784  -7.744   2.671  1.00  0.00    -0.237 OA
ATOM     53  O   UNL     1       9.303  -9.685   2.335  1.00  0.00    -0.744 OA
ENDBRANCH  46  50
ENDBRANCH  29  43
BRANCH  30  54
ATOM     54  C   UNL     1       6.454   2.751   9.377  1.00  0.00     0.023 A 
ATOM     55  C   UNL     1       7.486   3.666   9.640  1.00  0.00     0.031 A 
ATOM     56  C   UNL     1       5.135   3.166   9.651  1.00  0.00     0.131 A 
ATOM     57  C   UNL     1       7.190   4.922  10.202  1.00  0.00     0.055 A 
ATOM     58  C   UNL     1       4.840   4.436  10.150  1.00  0.00     0.041 A 
ATOM     59  F   UNL     1       4.101   2.334   9.441  1.00  0.00    -0.206 F 
ATOM     60  C   UNL     1       5.873   5.317  10.444  1.00  0.00     0.022 A 
BRANCH  57  61
ATOM     61  S   UNL     1       8.560   5.991  10.729  1.00  0.00     0.124 S 
ATOM     62  O   UNL     1       9.316   5.098  11.600  1.00  0.00    -0.237 OA
ATOM     63  O   UNL     1       9.186   6.329   9.455  1.00  0.00    -0.237 OA
ATOM     64  O   UNL     1       7.886   7.098  11.404  1.00  0.00    -0.744 OA
ENDBRANCH  57  61
ENDBRANCH  30  54
BRANCH  42  65
ATOM     65  C   UNL     1      10.073  -2.620  12.000  1.00  0.00     0.023 A 
ATOM     66  C   UNL     1       9.492  -2.571  13.277  1.00  0.00     0.031 A 
ATOM     67  C   UNL     1      11.465  -2.784  11.901  1.00  0.00     0.131 A 
ATOM     68  C   UNL     1      10.311  -2.624  14.411  1.00  0.00     0.055 A 
ATOM     69  C   UNL     1      12.267  -2.901  13.034  1.00  0.00     0.041 A 
ATOM     70  F   UNL     1      12.062  -2.841  10.700  1.00  0.00    -0.206 F 
ATOM     71  C   UNL     1      11.692  -2.806  14.299  1.00  0.00     0.022 A 
BRANCH  68  72
ATOM     72  S   UNL     1       9.554  -2.357  16.035  1.00  0.00     0.124 S 
ATOM     73  O   UNL     1       8.967  -1.029  15.881  1.00  0.00    -0.237 OA
ATOM     74  O   UNL     1       8.608  -3.464  16.125  1.00  0.00    -0.237 OA
ATOM     75  O   UNL     1      10.686  -2.433  16.957  1.00  0.00    -0.744 OA
ENDBRANCH  68  72
ENDBRANCH  42  65
ENDBRANCH  16  17
ENDBRANCH   9  11
ENDBRANCH   8   9
ENDBRANCH   7   8
ENDBRANCH   6   7
ENDBRANCH   5   6
ENDBRANCH   4   5
ENDBRANCH   3   4
ENDBRANCH   2   3
ENDBRANCH   1   2
BRANCH   1  76
ATOM     76  C   UNL     1       6.080   3.861   2.061  1.00  0.00     0.188 C 
BRANCH  76  77
ATOM     77  O   UNL     1       5.420   4.646   3.051  1.00  0.00    -0.376 OA
BRANCH  77  78
ATOM     78  C   UNL     1       4.298   5.426   2.621  1.00  0.00     0.202 C 
BRANCH  78  79
ATOM     79  C   UNL     1       4.577   6.486   1.534  1.00  0.00     0.261 C 
BRANCH  79  80
ATOM     80  O   UNL     1       4.195   6.138   0.167  1.00  0.00    -0.463 OA
BRANCH  80  81
ATOM     81  C   UNL     1       5.160   6.120  -0.774  1.00  0.00     0.310 C 
ATOM     82  O   UNL     1       6.356   6.184  -0.467  1.00  0.00    -0.252 OA
BRANCH  81  83
ATOM     83  C   UNL     1       4.801   6.168  -2.280  1.00  0.00     0.119 C 
ATOM     84  C   UNL     1       3.671   6.505  -3.360  1.00  0.00     0.100 C 
ATOM     85  C   UNL     1       5.704   5.145  -3.062  1.00  0.00     0.027 C 
ATOM     86  C   UNL     1       4.169   5.684  -4.607  1.00  0.00     0.025 C 
ATOM     87  C   UNL     1       4.953   3.888  -3.415  1.00  0.00    -0.027 C 
ATOM     88  C   UNL     1       5.697   5.780  -4.460  1.00  0.00     0.017 C 
ATOM     89  C   UNL     1       4.050   4.207  -4.353  1.00  0.00    -0.027 C 
BRANCH  84  90
ATOM     90  C   UNL     1       2.140   6.837  -3.514  1.00  0.00     0.229 C 
ATOM     91  O   UNL     1       1.843   7.962  -3.960  1.00  0.00    -0.274 OA
ATOM     92  N   UNL     1       1.075   5.980  -3.458  1.00  0.00    -0.323 N 
ATOM     93  H   UNL     1       0.239   6.318  -3.854  1.00  0.00     0.170 HD
BRANCH  92  94
ATOM     94  C   UNL     1       1.007   4.703  -2.924  1.00  0.00     0.084 A 
ATOM     95  C   UNL     1       0.246   3.702  -3.537  1.00  0.00     0.030 A 
ATOM     96  C   UNL     1       1.804   4.390  -1.864  1.00  0.00     0.149 A 
ATOM     97  C   UNL     1       0.570   2.363  -3.306  1.00  0.00     0.002 A 
ATOM     98  C   UNL     1       2.279   3.107  -1.817  1.00  0.00     0.049 A 
ATOM     99  C   UNL     1       1.675   2.075  -2.525  1.00  0.00     0.004 A 
BRANCH  96 100
ATOM    100  O   UNL     1       2.263   5.263  -0.948  1.00  0.00    -0.433 OA
BRANCH 100 101
ATOM    101  C   UNL     1       1.374   6.245  -0.411  1.00  0.00     0.542 C 
ATOM    102  F   UNL     1       1.664   7.445  -0.973  1.00  0.00    -0.167 F 
ATOM    103  F   UNL     1       0.073   5.967  -0.666  1.00  0.00    -0.167 F 
ENDBRANCH 100 101
ENDBRANCH  96 100
ENDBRANCH  92  94
ENDBRANCH  84  90
ENDBRANCH  81  83
ENDBRANCH  80  81
ENDBRANCH  79  80
ENDBRANCH  78  79
ENDBRANCH  77  78
ENDBRANCH  76  77
ENDBRANCH   1  76
TORSDOF 27
