REMARK SMILES O=C(COc1ccc(C(=O)/C=C/c2ccc(Cl)c([N+](=O)[O-])c2)cc1)OCCOCCOCCOCCOC(=O)c1ccc(-c2c3nc(c(-c4cc(S(=O)(=O)[O-])ccc4F)c4ccc([nH]4)c(-c4cc(S(=O)(=O)[O-])ccc4F)c4nc(c(-c5cc(S(=O)(=O)[O-])ccc5F)c5ccc2[nH]5)C=C4)C=C3)cc1
REMARK SMILES IDX 29 1 28 2 27 3 26 4 25 5 2 6 1 7 3 8 4 9 5 10 6 11 24 12
REMARK SMILES IDX 7 13 23 14 8 15 9 16 10 17 11 18 12 19 13 20 14 21 22 22
REMARK SMILES IDX 15 23 18 24 16 25 17 26 19 27 20 28 21 29 30 30 31 31 32 32
REMARK SMILES IDX 33 33 34 34 35 35 36 36 37 37 38 38 39 39 40 40 41 41 102 42
REMARK SMILES IDX 42 43 101 44 43 45 44 46 45 47 95 48 46 49 100 50 94 51
REMARK SMILES IDX 96 52 47 53 99 54 93 55 92 56 48 58 80 59 60 60 79 61 61 62
REMARK SMILES IDX 64 63 78 64 97 65 62 66 63 67 77 69 98 70 65 71 49 72 50 73
REMARK SMILES IDX 58 74 51 75 57 76 59 77 56 78 52 79 53 80 54 81 55 82 81 83
REMARK SMILES IDX 82 84 90 85 83 86 89 87 91 88 88 89 84 90 85 91 86 92 87 93
REMARK SMILES IDX 66 94 67 95 75 96 68 97 74 98 76 99 73 100 69 101 70 102
REMARK SMILES IDX 71 103 72 104
REMARK H PARENT 96 57 64 68
REMARK Flexibility Score: inf
ROOT
ATOM      1  C   UNL     1       2.861   1.672  -1.362  1.00  0.00     0.188 C 
ENDROOT
BRANCH   1   2
ATOM      2  O   UNL     1       4.236   1.536  -1.051  1.00  0.00    -0.376 OA
BRANCH   2   3
ATOM      3  C   UNL     1       4.847   0.509  -0.302  1.00  0.00     0.202 C 
BRANCH   3   4
ATOM      4  C   UNL     1       4.166  -0.821  -0.005  1.00  0.00     0.261 C 
BRANCH   4   5
ATOM      5  O   UNL     1       2.747  -0.808   0.221  1.00  0.00    -0.461 OA
BRANCH   5   6
ATOM      6  C   UNL     1       2.073  -0.070   1.128  1.00  0.00     0.344 C 
ATOM      7  O   UNL     1       0.844  -0.110   1.149  1.00  0.00    -0.248 OA
BRANCH   6   8
ATOM      8  C   UNL     1       2.854   0.856   2.056  1.00  0.00     0.351 C 
BRANCH   8   9
ATOM      9  O   UNL     1       4.034   0.346   2.669  1.00  0.00    -0.482 OA
BRANCH   9  10
ATOM     10  C   UNL     1       3.687  -0.554   3.633  1.00  0.00     0.120 A 
ATOM     11  C   UNL     1       3.704  -0.145   4.960  1.00  0.00     0.047 A 
ATOM     12  C   UNL     1       3.293  -1.841   3.281  1.00  0.00     0.047 A 
ATOM     13  C   UNL     1       3.152  -0.983   5.927  1.00  0.00     0.016 A 
ATOM     14  C   UNL     1       2.765  -2.682   4.243  1.00  0.00     0.016 A 
ATOM     15  C   UNL     1       2.606  -2.219   5.549  1.00  0.00     0.022 A 
BRANCH  15  16
ATOM     16  C   UNL     1       1.828  -3.003   6.537  1.00  0.00     0.185 C 
ATOM     17  O   UNL     1       2.080  -2.915   7.734  1.00  0.00    -0.289 OA
BRANCH  16  18
ATOM     18  C   UNL     1       0.712  -3.886   6.079  1.00  0.00     0.053 C 
ATOM     19  C   UNL     1      -0.027  -3.683   4.974  1.00  0.00     0.012 C 
BRANCH  19  20
ATOM     20  C   UNL     1      -1.091  -4.596   4.559  1.00  0.00    -0.019 A 
ATOM     21  C   UNL     1      -0.966  -5.331   3.379  1.00  0.00     0.010 A 
ATOM     22  C   UNL     1      -2.262  -4.703   5.312  1.00  0.00     0.095 A 
ATOM     23  C   UNL     1      -2.001  -6.176   2.967  1.00  0.00     0.028 A 
ATOM     24  C   UNL     1      -3.315  -5.544   4.894  1.00  0.00     0.288 A 
ATOM     25  C   UNL     1      -3.183  -6.291   3.715  1.00  0.00     0.118 A 
ATOM     26  Cl  UNL     1      -4.361  -7.375   3.063  1.00  0.00    -0.077 Cl
BRANCH  24  27
ATOM     27  N   UNL     1      -4.520  -5.565   5.739  1.00  0.00     0.064 N 
ATOM     28  O   UNL     1      -5.502  -6.226   5.388  1.00  0.00    -0.258 OA
ATOM     29  O   UNL     1      -4.492  -4.890   6.780  1.00  0.00    -0.258 OA
ENDBRANCH  24  27
ENDBRANCH  19  20
ENDBRANCH  16  18
ENDBRANCH  15  16
ENDBRANCH   9  10
ENDBRANCH   8   9
ENDBRANCH   6   8
ENDBRANCH   5   6
ENDBRANCH   4   5
ENDBRANCH   3   4
ENDBRANCH   2   3
ENDBRANCH   1   2
BRANCH   1  30
ATOM     30  C   UNL     1       2.246   0.711  -2.388  1.00  0.00     0.188 C 
BRANCH  30  31
ATOM     31  O   UNL     1       2.893   0.646  -3.651  1.00  0.00    -0.377 OA
BRANCH  31  32
ATOM     32  C   UNL     1       4.253   0.246  -3.598  1.00  0.00     0.188 C 
BRANCH  32  33
ATOM     33  C   UNL     1       5.242   1.417  -3.724  1.00  0.00     0.188 C 
BRANCH  33  34
ATOM     34  O   UNL     1       4.763   2.733  -3.539  1.00  0.00    -0.376 OA
BRANCH  34  35
ATOM     35  C   UNL     1       3.772   3.304  -4.375  1.00  0.00     0.202 C 
BRANCH  35  36
ATOM     36  C   UNL     1       3.248   2.753  -5.718  1.00  0.00     0.261 C 
BRANCH  36  37
ATOM     37  O   UNL     1       3.697   1.480  -6.173  1.00  0.00    -0.460 OA
BRANCH  37  38
ATOM     38  C   UNL     1       4.845   1.458  -6.882  1.00  0.00     0.338 C 
ATOM     39  O   UNL     1       5.548   2.409  -7.175  1.00  0.00    -0.246 OA
BRANCH  38  40
ATOM     40  C   UNL     1       5.218   0.034  -7.032  1.00  0.00     0.060 A 
ATOM     41  C   UNL     1       6.431  -0.404  -6.483  1.00  0.00     0.016 A 
ATOM     42  C   UNL     1       4.341  -0.875  -7.630  1.00  0.00     0.016 A 
ATOM     43  C   UNL     1       6.768  -1.755  -6.522  1.00  0.00     0.010 A 
ATOM     44  C   UNL     1       4.703  -2.221  -7.714  1.00  0.00     0.010 A 
ATOM     45  C   UNL     1       5.925  -2.662  -7.174  1.00  0.00    -0.014 A 
BRANCH  45  46
ATOM     46  C   UNL     1       6.417  -4.025  -7.475  1.00  0.00     0.031 A 
ATOM     47  C   UNL     1       7.084  -4.249  -8.803  1.00  0.00     0.074 A 
ATOM     48  C   UNL     1       6.286  -5.030  -6.590  1.00  0.00     0.049 A 
ATOM     49  N   UNL     1       7.517  -5.359  -9.337  1.00  0.00    -0.248 NA
ATOM     50  C   UNL     1       7.289  -3.054  -9.640  1.00  0.00     0.031 C 
ATOM     51  C   UNL     1       5.715  -4.908  -5.250  1.00  0.00     0.029 A 
ATOM     52  N   UNL     1       6.614  -6.358  -6.696  1.00  0.00    -0.354 N 
ATOM     53  C   UNL     1       8.035  -5.001 -10.576  1.00  0.00     0.074 A 
ATOM     54  C   UNL     1       7.848  -3.574 -10.721  1.00  0.00     0.031 C 
ATOM     55  C   UNL     1       5.710  -6.120  -4.667  1.00  0.00     0.029 A 
ATOM     56  C   UNL     1       6.230  -7.110  -5.609  1.00  0.00     0.049 A 
ATOM     57  H   UNL     1       7.080  -6.737  -7.476  1.00  0.00     0.167 HD
ATOM     58  C   UNL     1       8.611  -5.796 -11.508  1.00  0.00     0.034 A 
ATOM     59  C   UNL     1       6.257  -8.447  -5.423  1.00  0.00     0.034 A 
ATOM     60  C   UNL     1       8.776  -7.218 -11.350  1.00  0.00     0.049 A 
ATOM     61  C   UNL     1       6.807  -9.324  -6.528  1.00  0.00     0.074 A 
ATOM     62  C   UNL     1       9.368  -8.115 -12.220  1.00  0.00     0.029 A 
ATOM     63  N   UNL     1       8.328  -7.954 -10.261  1.00  0.00    -0.354 N 
ATOM     64  N   UNL     1       7.317  -8.974  -7.687  1.00  0.00    -0.248 NA
ATOM     65  C   UNL     1       6.785 -10.776  -6.299  1.00  0.00     0.031 C 
ATOM     66  C   UNL     1       9.201  -9.402 -11.700  1.00  0.00     0.029 A 
ATOM     67  C   UNL     1       8.586  -9.301 -10.462  1.00  0.00     0.049 A 
ATOM     68  H   UNL     1       7.891  -7.576  -9.464  1.00  0.00     0.167 HD
ATOM     69  C   UNL     1       7.699 -10.161  -8.309  1.00  0.00     0.074 A 
ATOM     70  C   UNL     1       7.386 -11.232  -7.387  1.00  0.00     0.031 C 
ATOM     71  C   UNL     1       8.257 -10.355  -9.533  1.00  0.00     0.034 A 
BRANCH  58  72
ATOM     72  C   UNL     1       9.044  -5.160 -12.803  1.00  0.00     0.023 A 
ATOM     73  C   UNL     1      10.094  -4.228 -12.861  1.00  0.00     0.031 A 
ATOM     74  C   UNL     1       8.398  -5.505 -14.003  1.00  0.00     0.131 A 
ATOM     75  C   UNL     1      10.440  -3.644 -14.090  1.00  0.00     0.055 A 
ATOM     76  C   UNL     1       8.793  -4.974 -15.231  1.00  0.00     0.041 A 
ATOM     77  F   UNL     1       7.369  -6.367 -14.000  1.00  0.00    -0.206 F 
ATOM     78  C   UNL     1       9.816  -4.032 -15.278  1.00  0.00     0.022 A 
BRANCH  75  79
ATOM     79  S   UNL     1      11.650  -2.294 -14.101  1.00  0.00     0.124 S 
ATOM     80  O   UNL     1      10.996  -1.304 -13.248  1.00  0.00    -0.237 OA
ATOM     81  O   UNL     1      12.839  -2.930 -13.545  1.00  0.00    -0.237 OA
ATOM     82  O   UNL     1      11.741  -1.926 -15.512  1.00  0.00    -0.744 OA
ENDBRANCH  75  79
ENDBRANCH  58  72
BRANCH  59  83
ATOM     83  C   UNL     1       5.684  -9.064  -4.188  1.00  0.00     0.023 A 
ATOM     84  C   UNL     1       6.468  -9.869  -3.346  1.00  0.00     0.031 A 
ATOM     85  C   UNL     1       4.314  -8.944  -3.889  1.00  0.00     0.131 A 
ATOM     86  C   UNL     1       5.867 -10.575  -2.291  1.00  0.00     0.055 A 
ATOM     87  C   UNL     1       3.734  -9.594  -2.798  1.00  0.00     0.041 A 
ATOM     88  F   UNL     1       3.512  -8.195  -4.662  1.00  0.00    -0.206 F 
ATOM     89  C   UNL     1       4.508 -10.431  -2.003  1.00  0.00     0.022 A 
BRANCH  86  90
ATOM     90  S   UNL     1       6.862 -11.790  -1.382  1.00  0.00     0.124 S 
ATOM     91  O   UNL     1       7.324 -12.657  -2.459  1.00  0.00    -0.237 OA
ATOM     92  O   UNL     1       7.873 -10.942  -0.759  1.00  0.00    -0.237 OA
ATOM     93  O   UNL     1       5.901 -12.392  -0.460  1.00  0.00    -0.744 OA
ENDBRANCH  86  90
ENDBRANCH  59  83
BRANCH  71  94
ATOM     94  C   UNL     1       8.595 -11.774  -9.921  1.00  0.00     0.023 A 
ATOM     95  C   UNL     1       7.597 -12.743 -10.121  1.00  0.00     0.031 A 
ATOM     96  C   UNL     1       9.937 -12.162 -10.095  1.00  0.00     0.131 A 
ATOM     97  C   UNL     1       7.956 -14.065 -10.425  1.00  0.00     0.055 A 
ATOM     98  C   UNL     1      10.284 -13.461 -10.466  1.00  0.00     0.041 A 
ATOM     99  F   UNL     1      10.932 -11.280  -9.915  1.00  0.00    -0.206 F 
ATOM    100  C   UNL     1       9.292 -14.425 -10.620  1.00  0.00     0.022 A 
BRANCH  97 101
ATOM    101  S   UNL     1       6.659 -15.330 -10.468  1.00  0.00     0.124 S 
ATOM    102  O   UNL     1       6.109 -15.246  -9.119  1.00  0.00    -0.237 OA
ATOM    103  O   UNL     1       5.791 -14.853 -11.540  1.00  0.00    -0.237 OA
ATOM    104  O   UNL     1       7.390 -16.561 -10.764  1.00  0.00    -0.744 OA
ENDBRANCH  97 101
ENDBRANCH  71  94
ENDBRANCH  45  46
ENDBRANCH  38  40
ENDBRANCH  37  38
ENDBRANCH  36  37
ENDBRANCH  35  36
ENDBRANCH  34  35
ENDBRANCH  33  34
ENDBRANCH  32  33
ENDBRANCH  31  32
ENDBRANCH  30  31
ENDBRANCH   1  30
TORSDOF 29
