REMARK SMILES O=C(OCCOCCOCCOCCOC(=O)c1ccc(-c2c3nc(c(-c4cc(S(=O)(=O)[O-])ccc4F)c4ccc([nH]4)c(-c4cc(S(=O)(=O)[O-])ccc4F)c4nc(c(-c5cc(S(=O)(=O)[O-])ccc5F)c5ccc2[nH]5)C=C4)C=C3)cc1)C1=Cc2c(ccc(Cl)c2-c2ccccc2)O[C@H]1C(F)(F)F
REMARK SMILES IDX 10 1 9 2 8 3 7 4 6 5 5 6 4 7 3 8 2 9 1 10 81 11 82 12 97 13
REMARK SMILES IDX 83 14 96 15 84 16 89 17 85 18 87 19 86 20 88 21 98 22 99 23
REMARK SMILES IDX 100 24 101 25 90 26 91 27 95 28 92 29 94 30 93 31 11 32
REMARK SMILES IDX 12 33 13 34 14 35 15 36 16 37 17 38 18 39 19 40 80 41 20 42
REMARK SMILES IDX 79 43 21 44 22 45 23 46 73 47 24 48 78 49 72 50 74 51 25 52
REMARK SMILES IDX 77 53 71 54 70 55 26 57 58 58 38 59 57 60 39 61 42 62 56 63
REMARK SMILES IDX 75 64 40 65 41 66 55 68 76 69 43 70 27 71 28 72 36 73 29 74
REMARK SMILES IDX 35 75 37 76 34 77 30 78 31 79 32 80 33 81 59 82 60 83 68 84
REMARK SMILES IDX 61 85 67 86 69 87 66 88 62 89 63 90 64 91 65 92 44 93 45 94
REMARK SMILES IDX 53 95 46 96 52 97 54 98 51 99 47 100 48 101 49 102 50 103
REMARK H PARENT 74 56 42 67
REMARK Flexibility Score: inf
ROOT
ATOM      1  C   UNL     1       3.709  -1.424   3.965  1.00  0.00     0.188 C 
ENDROOT
BRANCH   1   2
ATOM      2  O   UNL     1       2.673  -0.680   3.181  1.00  0.00    -0.377 OA
BRANCH   2   3
ATOM      3  C   UNL     1       1.381  -0.305   1.740  1.00  0.00     0.188 C 
BRANCH   3   4
ATOM      4  C   UNL     1       0.241  -1.224   0.925  1.00  0.00     0.188 C 
BRANCH   4   5
ATOM      5  O   UNL     1       0.454  -1.741  -0.392  1.00  0.00    -0.376 OA
BRANCH   5   6
ATOM      6  C   UNL     1       1.426  -1.119  -1.196  1.00  0.00     0.202 C 
BRANCH   6   7
ATOM      7  C   UNL     1       1.318   0.388  -1.486  1.00  0.00     0.261 C 
BRANCH   7   8
ATOM      8  O   UNL     1       1.776   0.703  -2.830  1.00  0.00    -0.460 OA
BRANCH   8   9
ATOM      9  C   UNL     1       2.975   0.373  -3.374  1.00  0.00     0.338 C 
ATOM     10  O   UNL     1       3.092   0.278  -4.591  1.00  0.00    -0.246 OA
BRANCH   9  11
ATOM     11  C   UNL     1       4.174   0.217  -2.524  1.00  0.00     0.087 C 
ATOM     12  C   UNL     1       4.082  -0.056  -1.221  1.00  0.00     0.028 C 
ATOM     13  C   UNL     1       5.441  -0.297  -3.169  1.00  0.00     0.316 C 
ATOM     14  C   UNL     1       5.200   0.231  -0.359  1.00  0.00     0.027 A 
ATOM     15  O   UNL     1       6.625  -0.045  -2.327  1.00  0.00    -0.475 OA
ATOM     16  C   UNL     1       6.447   0.287  -1.002  1.00  0.00     0.128 A 
ATOM     17  C   UNL     1       4.979   0.432   1.027  1.00  0.00     0.011 A 
ATOM     18  C   UNL     1       7.545   0.675  -0.264  1.00  0.00     0.049 A 
ATOM     19  C   UNL     1       6.109   0.900   1.721  1.00  0.00     0.049 A 
ATOM     20  C   UNL     1       7.366   1.021   1.081  1.00  0.00     0.025 A 
ATOM     21  Cl  UNL     1       6.072   1.346   3.389  1.00  0.00    -0.084 Cl
BRANCH  13  22
ATOM     22  C   UNL     1       5.277  -1.805  -3.537  1.00  0.00     0.430 C 
ATOM     23  F   UNL     1       4.485  -2.475  -2.659  1.00  0.00    -0.167 F 
ATOM     24  F   UNL     1       4.707  -1.968  -4.754  1.00  0.00    -0.167 F 
ATOM     25  F   UNL     1       6.457  -2.463  -3.566  1.00  0.00    -0.167 F 
ENDBRANCH  13  22
BRANCH  17  26
ATOM     26  C   UNL     1       3.660   0.052   1.686  1.00  0.00    -0.016 A 
ATOM     27  C   UNL     1       2.804   1.190   2.816  1.00  0.00     0.009 A 
ATOM     28  C   UNL     1       3.042  -1.669   1.567  1.00  0.00     0.009 A 
ATOM     29  C   UNL     1       1.457   0.617   3.885  1.00  0.00     0.001 A 
ATOM     30  C   UNL     1       1.695  -2.253   2.654  1.00  0.00     0.001 A 
ATOM     31  C   UNL     1       0.893  -1.097   3.793  1.00  0.00     0.000 A 
ENDBRANCH  17  26
ENDBRANCH   9  11
ENDBRANCH   8   9
ENDBRANCH   7   8
ENDBRANCH   6   7
ENDBRANCH   5   6
ENDBRANCH   4   5
ENDBRANCH   3   4
ENDBRANCH   2   3
ENDBRANCH   1   2
BRANCH   1  32
ATOM     32  C   UNL     1       4.902  -2.286   3.436  1.00  0.00     0.188 C 
BRANCH  32  33
ATOM     33  O   UNL     1       4.987  -3.690   3.708  1.00  0.00    -0.376 OA
BRANCH  33  34
ATOM     34  C   UNL     1       3.832  -4.502   3.778  1.00  0.00     0.202 C 
BRANCH  34  35
ATOM     35  C   UNL     1       3.211  -4.671   5.180  1.00  0.00     0.261 C 
BRANCH  35  36
ATOM     36  O   UNL     1       3.474  -3.590   6.078  1.00  0.00    -0.460 OA
BRANCH  36  37
ATOM     37  C   UNL     1       4.760  -3.545   6.522  1.00  0.00     0.338 C 
ATOM     38  O   UNL     1       5.580  -4.430   6.448  1.00  0.00    -0.246 OA
BRANCH  37  39
ATOM     39  C   UNL     1       5.066  -2.151   6.933  1.00  0.00     0.060 A 
ATOM     40  C   UNL     1       6.328  -1.647   6.596  1.00  0.00     0.016 A 
ATOM     41  C   UNL     1       4.147  -1.353   7.627  1.00  0.00     0.016 A 
ATOM     42  C   UNL     1       6.716  -0.386   7.035  1.00  0.00     0.010 A 
ATOM     43  C   UNL     1       4.544  -0.097   8.096  1.00  0.00     0.010 A 
ATOM     44  C   UNL     1       5.860   0.344   7.869  1.00  0.00    -0.014 A 
BRANCH  44  45
ATOM     45  C   UNL     1       6.504   1.281   8.820  1.00  0.00     0.031 A 
ATOM     46  C   UNL     1       6.942   0.697  10.143  1.00  0.00     0.074 A 
ATOM     47  C   UNL     1       6.807   2.546   8.487  1.00  0.00     0.049 A 
ATOM     48  N   UNL     1       7.589   1.251  11.133  1.00  0.00    -0.248 NA
ATOM     49  C   UNL     1       6.604  -0.720  10.372  1.00  0.00     0.031 C 
ATOM     50  C   UNL     1       6.501   3.182   7.207  1.00  0.00     0.029 A 
ATOM     51  N   UNL     1       7.465   3.517   9.198  1.00  0.00    -0.354 N 
ATOM     52  C   UNL     1       7.731   0.252  12.093  1.00  0.00     0.074 A 
ATOM     53  C   UNL     1       7.063  -0.923  11.592  1.00  0.00     0.031 C 
ATOM     54  C   UNL     1       6.978   4.440   7.222  1.00  0.00     0.029 A 
ATOM     55  C   UNL     1       7.596   4.706   8.521  1.00  0.00     0.049 A 
ATOM     56  H   UNL     1       7.811   3.375  10.109  1.00  0.00     0.167 HD
ATOM     57  C   UNL     1       8.376   0.305  13.282  1.00  0.00     0.034 A 
ATOM     58  C   UNL     1       8.145   5.871   8.921  1.00  0.00     0.034 A 
ATOM     59  C   UNL     1       9.023   1.494  13.769  1.00  0.00     0.049 A 
ATOM     60  C   UNL     1       8.772   5.939  10.296  1.00  0.00     0.074 A 
ATOM     61  C   UNL     1       9.692   1.685  14.963  1.00  0.00     0.029 A 
ATOM     62  N   UNL     1       9.068   2.704  13.086  1.00  0.00    -0.354 N 
ATOM     63  N   UNL     1       8.894   4.993  11.202  1.00  0.00    -0.248 NA
ATOM     64  C   UNL     1       9.352   7.227  10.694  1.00  0.00     0.031 C 
ATOM     65  C   UNL     1      10.067   3.030  15.040  1.00  0.00     0.029 A 
ATOM     66  C   UNL     1       9.725   3.654  13.849  1.00  0.00     0.049 A 
ATOM     67  H   UNL     1       8.689   2.862  12.192  1.00  0.00     0.167 HD
ATOM     68  C   UNL     1       9.606   5.563  12.256  1.00  0.00     0.074 A 
ATOM     69  C   UNL     1       9.894   6.928  11.865  1.00  0.00     0.031 C 
ATOM     70  C   UNL     1       9.998   5.012  13.436  1.00  0.00     0.034 A 
BRANCH  57  71
ATOM     71  C   UNL     1       8.328  -0.930  14.150  1.00  0.00     0.023 A 
ATOM     72  C   UNL     1       8.893  -2.155  13.746  1.00  0.00     0.031 A 
ATOM     73  C   UNL     1       7.644  -0.897  15.378  1.00  0.00     0.131 A 
ATOM     74  C   UNL     1       8.697  -3.307  14.524  1.00  0.00     0.055 A 
ATOM     75  C   UNL     1       7.529  -2.027  16.189  1.00  0.00     0.041 A 
ATOM     76  F   UNL     1       7.051   0.231  15.800  1.00  0.00    -0.206 F 
ATOM     77  C   UNL     1       8.043  -3.245  15.756  1.00  0.00     0.022 A 
BRANCH  74  78
ATOM     78  S   UNL     1       9.161  -4.918  13.828  1.00  0.00     0.124 S 
ATOM     79  O   UNL     1       8.348  -4.960  12.616  1.00  0.00    -0.237 OA
ATOM     80  O   UNL     1      10.598  -4.775  13.631  1.00  0.00    -0.237 OA
ATOM     81  O   UNL     1       8.765  -5.867  14.867  1.00  0.00    -0.744 OA
ENDBRANCH  74  78
ENDBRANCH  57  71
BRANCH  58  82
ATOM     82  C   UNL     1       8.111   7.075   8.037  1.00  0.00     0.023 A 
ATOM     83  C   UNL     1       9.292   7.697   7.599  1.00  0.00     0.031 A 
ATOM     84  C   UNL     1       6.887   7.667   7.676  1.00  0.00     0.131 A 
ATOM     85  C   UNL     1       9.226   8.898   6.874  1.00  0.00     0.055 A 
ATOM     86  C   UNL     1       6.825   8.828   6.904  1.00  0.00     0.041 A 
ATOM     87  F   UNL     1       5.725   7.122   8.072  1.00  0.00    -0.206 F 
ATOM     88  C   UNL     1       8.000   9.459   6.511  1.00  0.00     0.022 A 
BRANCH  85  89
ATOM     89  S   UNL     1      10.769   9.774   6.495  1.00  0.00     0.124 S 
ATOM     90  O   UNL     1      11.325   9.984   7.827  1.00  0.00    -0.237 OA
ATOM     91  O   UNL     1      11.466   8.809   5.652  1.00  0.00    -0.237 OA
ATOM     92  O   UNL     1      10.315  10.982   5.810  1.00  0.00    -0.744 OA
ENDBRANCH  85  89
ENDBRANCH  58  82
BRANCH  70  93
ATOM     93  C   UNL     1      10.840   5.869  14.351  1.00  0.00     0.023 A 
ATOM     94  C   UNL     1      10.348   7.053  14.927  1.00  0.00     0.031 A 
ATOM     95  C   UNL     1      12.168   5.499  14.635  1.00  0.00     0.131 A 
ATOM     96  C   UNL     1      11.202   7.865  15.688  1.00  0.00     0.055 A 
ATOM     97  C   UNL     1      12.986   6.269  15.461  1.00  0.00     0.041 A 
ATOM     98  F   UNL     1      12.693   4.379  14.113  1.00  0.00    -0.206 F 
ATOM     99  C   UNL     1      12.511   7.471  15.976  1.00  0.00     0.022 A 
BRANCH  96 100
ATOM    100  S   UNL     1      10.621   9.511  16.180  1.00  0.00     0.124 S 
ATOM    101  O   UNL     1      10.245  10.095  14.897  1.00  0.00    -0.237 OA
ATOM    102  O   UNL     1       9.519   9.195  17.084  1.00  0.00    -0.237 OA
ATOM    103  O   UNL     1      11.792  10.111  16.817  1.00  0.00    -0.744 OA
ENDBRANCH  96 100
ENDBRANCH  70  93
ENDBRANCH  44  45
ENDBRANCH  37  39
ENDBRANCH  36  37
ENDBRANCH  35  36
ENDBRANCH  34  35
ENDBRANCH  33  34
ENDBRANCH  32  33
ENDBRANCH   1  32
TORSDOF 25
