REMARK SMILES O=C(OCCOCCOCCOCCOC(=O)c1ccc(S(=O)(=O)Cc2ncccn2)c(F)c1)c1ccc(-c2c3nc(c(-c4cc(S(=O)(=O)[O-])ccc4F)c4ccc([nH]4)c(-c4cc(S(=O)(=O)[O-])ccc4F)c4nc(c(-c5cc(S(=O)(=O)[O-])ccc5F)c5ccc2[nH]5)C=C4)C=C3)cc1
REMARK SMILES IDX 9 1 8 2 7 3 6 4 5 5 4 6 3 7 2 8 1 9 35 10 36 11 97 12 37 13
REMARK SMILES IDX 96 14 38 15 39 16 40 17 90 18 41 19 95 20 89 21 91 22 42 23
REMARK SMILES IDX 94 24 88 25 87 26 43 28 75 29 55 30 74 31 56 32 59 33 73 34
REMARK SMILES IDX 92 35 57 36 58 37 72 39 93 40 60 41 44 42 45 43 53 44 46 45
REMARK SMILES IDX 52 46 54 47 51 48 47 49 48 50 49 51 50 52 76 53 77 54 85 55
REMARK SMILES IDX 78 56 84 57 86 58 83 59 79 60 80 61 81 62 82 63 61 64 62 65
REMARK SMILES IDX 70 66 63 67 69 68 71 69 68 70 64 71 65 72 66 73 67 74 10 75
REMARK SMILES IDX 11 76 12 77 13 78 14 79 15 80 16 81 17 82 18 83 19 84 34 85
REMARK SMILES IDX 20 86 32 87 21 88 33 89 22 90 23 91 24 92 25 93 26 94 27 95
REMARK SMILES IDX 31 96 28 97 30 98 29 99
REMARK H PARENT 91 27 59 38
REMARK Flexibility Score: inf
ROOT
ATOM      1  O   UNL     1       2.479   0.327   4.015  1.00  0.00    -0.377 OA
ENDROOT
BRANCH   1   2
ATOM      2  C   UNL     1       1.803  -0.046   2.816  1.00  0.00     0.188 C 
BRANCH   2   3
ATOM      3  C   UNL     1       2.302   0.661   1.556  1.00  0.00     0.188 C 
BRANCH   3   4
ATOM      4  O   UNL     1       3.624   0.231   1.231  1.00  0.00    -0.376 OA
BRANCH   4   5
ATOM      5  C   UNL     1       4.483   1.214   0.658  1.00  0.00     0.202 C 
BRANCH   5   6
ATOM      6  C   UNL     1       4.245   1.484  -0.830  1.00  0.00     0.261 C 
BRANCH   6   7
ATOM      7  O   UNL     1       2.878   1.283  -1.218  1.00  0.00    -0.460 OA
BRANCH   7   8
ATOM      8  C   UNL     1       2.324   0.150  -1.720  1.00  0.00     0.338 C 
ATOM      9  O   UNL     1       1.144   0.185  -2.070  1.00  0.00    -0.246 OA
BRANCH   8  10
ATOM     10  C   UNL     1       3.061  -1.141  -1.881  1.00  0.00     0.060 A 
ATOM     11  C   UNL     1       4.121  -1.568  -1.081  1.00  0.00     0.016 A 
ATOM     12  C   UNL     1       2.586  -2.028  -2.862  1.00  0.00     0.016 A 
ATOM     13  C   UNL     1       4.737  -2.794  -1.271  1.00  0.00     0.010 A 
ATOM     14  C   UNL     1       3.177  -3.283  -3.042  1.00  0.00     0.010 A 
ATOM     15  C   UNL     1       4.268  -3.658  -2.253  1.00  0.00    -0.014 A 
BRANCH  15  16
ATOM     16  C   UNL     1       5.052  -4.875  -2.515  1.00  0.00     0.031 A 
ATOM     17  C   UNL     1       5.940  -4.884  -3.718  1.00  0.00     0.074 A 
ATOM     18  C   UNL     1       5.090  -5.856  -1.597  1.00  0.00     0.049 A 
ATOM     19  N   UNL     1       6.670  -5.849  -4.202  1.00  0.00    -0.248 NA
ATOM     20  C   UNL     1       6.030  -3.620  -4.469  1.00  0.00     0.031 C 
ATOM     21  C   UNL     1       4.397  -5.828  -0.304  1.00  0.00     0.029 A 
ATOM     22  N   UNL     1       5.772  -7.041  -1.582  1.00  0.00    -0.354 N 
ATOM     23  C   UNL     1       7.286  -5.319  -5.330  1.00  0.00     0.074 A 
ATOM     24  C   UNL     1       6.837  -3.952  -5.463  1.00  0.00     0.031 C 
ATOM     25  C   UNL     1       4.723  -6.928   0.391  1.00  0.00     0.029 A 
ATOM     26  C   UNL     1       5.570  -7.777  -0.439  1.00  0.00     0.049 A 
ATOM     27  H   UNL     1       6.353  -7.338  -2.319  1.00  0.00     0.167 HD
ATOM     28  C   UNL     1       8.142  -5.937  -6.176  1.00  0.00     0.034 A 
ATOM     29  C   UNL     1       5.992  -9.017  -0.126  1.00  0.00     0.034 A 
ATOM     30  C   UNL     1       8.538  -7.310  -6.005  1.00  0.00     0.049 A 
ATOM     31  C   UNL     1       6.810  -9.749  -1.155  1.00  0.00     0.074 A 
ATOM     32  C   UNL     1       9.288  -8.111  -6.843  1.00  0.00     0.029 A 
ATOM     33  N   UNL     1       8.203  -8.088  -4.899  1.00  0.00    -0.354 N 
ATOM     34  N   UNL     1       7.253  -9.311  -2.313  1.00  0.00    -0.248 NA
ATOM     35  C   UNL     1       7.160 -11.141  -0.859  1.00  0.00     0.031 C 
ATOM     36  C   UNL     1       9.357  -9.387  -6.271  1.00  0.00     0.029 A 
ATOM     37  C   UNL     1       8.715  -9.364  -5.040  1.00  0.00     0.049 A 
ATOM     38  H   UNL     1       7.676  -7.774  -4.129  1.00  0.00     0.167 HD
ATOM     39  C   UNL     1       7.949 -10.370  -2.881  1.00  0.00     0.074 A 
ATOM     40  C   UNL     1       7.866 -11.469  -1.935  1.00  0.00     0.031 C 
ATOM     41  C   UNL     1       8.600 -10.431  -4.071  1.00  0.00     0.034 A 
BRANCH  28  42
ATOM     42  C   UNL     1       8.580  -5.154  -7.387  1.00  0.00     0.023 A 
ATOM     43  C   UNL     1       9.378  -4.001  -7.278  1.00  0.00     0.031 A 
ATOM     44  C   UNL     1       8.093  -5.501  -8.659  1.00  0.00     0.131 A 
ATOM     45  C   UNL     1       9.596  -3.193  -8.406  1.00  0.00     0.055 A 
ATOM     46  C   UNL     1       8.379  -4.736  -9.791  1.00  0.00     0.041 A 
ATOM     47  F   UNL     1       7.297  -6.570  -8.818  1.00  0.00    -0.206 F 
ATOM     48  C   UNL     1       9.121  -3.565  -9.666  1.00  0.00     0.022 A 
BRANCH  45  49
ATOM     49  S   UNL     1      10.381  -1.573  -8.179  1.00  0.00     0.124 S 
ATOM     50  O   UNL     1       9.401  -0.887  -7.340  1.00  0.00    -0.237 OA
ATOM     51  O   UNL     1      11.642  -1.917  -7.533  1.00  0.00    -0.237 OA
ATOM     52  O   UNL     1      10.499  -1.054  -9.540  1.00  0.00    -0.744 OA
ENDBRANCH  45  49
ENDBRANCH  28  42
BRANCH  29  53
ATOM     53  C   UNL     1       5.584  -9.640   1.164  1.00  0.00     0.023 A 
ATOM     54  C   UNL     1       6.518  -9.906   2.176  1.00  0.00     0.031 A 
ATOM     55  C   UNL     1       4.231  -9.936   1.421  1.00  0.00     0.131 A 
ATOM     56  C   UNL     1       6.087 -10.447   3.400  1.00  0.00     0.055 A 
ATOM     57  C   UNL     1       3.803 -10.441   2.649  1.00  0.00     0.041 A 
ATOM     58  F   UNL     1       3.296  -9.696   0.487  1.00  0.00    -0.206 F 
ATOM     59  C   UNL     1       4.735 -10.701   3.648  1.00  0.00     0.022 A 
BRANCH  56  60
ATOM     60  S   UNL     1       7.319 -10.813   4.681  1.00  0.00     0.124 S 
ATOM     61  O   UNL     1       8.084 -11.888   4.059  1.00  0.00    -0.237 OA
ATOM     62  O   UNL     1       8.006  -9.534   4.820  1.00  0.00    -0.237 OA
ATOM     63  O   UNL     1       6.508 -11.208   5.831  1.00  0.00    -0.744 OA
ENDBRANCH  56  60
ENDBRANCH  29  53
BRANCH  41  64
ATOM     64  C   UNL     1       9.311 -11.715  -4.392  1.00  0.00     0.023 A 
ATOM     65  C   UNL     1       8.608 -12.874  -4.755  1.00  0.00     0.031 A 
ATOM     66  C   UNL     1      10.716 -11.751  -4.395  1.00  0.00     0.131 A 
ATOM     67  C   UNL     1       9.317 -14.037  -5.084  1.00  0.00     0.055 A 
ATOM     68  C   UNL     1      11.416 -12.896  -4.771  1.00  0.00     0.041 A 
ATOM     69  F   UNL     1      11.428 -10.663  -4.058  1.00  0.00    -0.206 F 
ATOM     70  C   UNL     1      10.715 -14.049  -5.114  1.00  0.00     0.022 A 
BRANCH  67  71
ATOM     71  S   UNL     1       8.387 -15.550  -5.444  1.00  0.00     0.124 S 
ATOM     72  O   UNL     1       7.747 -15.821  -4.161  1.00  0.00    -0.237 OA
ATOM     73  O   UNL     1       7.499 -15.127  -6.522  1.00  0.00    -0.237 OA
ATOM     74  O   UNL     1       9.423 -16.504  -5.835  1.00  0.00    -0.744 OA
ENDBRANCH  67  71
ENDBRANCH  41  64
ENDBRANCH  15  16
ENDBRANCH   8  10
ENDBRANCH   7   8
ENDBRANCH   6   7
ENDBRANCH   5   6
ENDBRANCH   4   5
ENDBRANCH   3   4
ENDBRANCH   2   3
ENDBRANCH   1   2
BRANCH   1  75
ATOM     75  C   UNL     1       3.901   0.314   3.965  1.00  0.00     0.188 C 
BRANCH  75  76
ATOM     76  C   UNL     1       4.623  -1.013   3.633  1.00  0.00     0.188 C 
BRANCH  76  77
ATOM     77  O   UNL     1       3.748  -2.088   3.333  1.00  0.00    -0.376 OA
BRANCH  77  78
ATOM     78  C   UNL     1       3.707  -3.124   4.309  1.00  0.00     0.202 C 
BRANCH  78  79
ATOM     79  C   UNL     1       3.035  -2.757   5.643  1.00  0.00     0.261 C 
BRANCH  79  80
ATOM     80  O   UNL     1       3.517  -1.556   6.279  1.00  0.00    -0.460 OA
BRANCH  80  81
ATOM     81  C   UNL     1       4.702  -1.614   6.931  1.00  0.00     0.338 C 
ATOM     82  O   UNL     1       5.419  -2.573   7.083  1.00  0.00    -0.246 OA
BRANCH  81  83
ATOM     83  C   UNL     1       5.091  -0.220   7.253  1.00  0.00     0.063 A 
ATOM     84  C   UNL     1       4.376   0.549   8.175  1.00  0.00     0.017 A 
ATOM     85  C   UNL     1       6.127   0.358   6.511  1.00  0.00     0.056 A 
ATOM     86  C   UNL     1       4.772   1.870   8.420  1.00  0.00     0.024 A 
ATOM     87  C   UNL     1       6.402   1.712   6.654  1.00  0.00     0.142 A 
ATOM     88  C   UNL     1       5.816   2.439   7.673  1.00  0.00     0.103 A 
ATOM     89  F   UNL     1       7.225   2.285   5.766  1.00  0.00    -0.206 F 
BRANCH  88  90
ATOM     90  S   UNL     1       6.420   4.031   8.148  1.00  0.00     0.188 S 
ATOM     91  O   UNL     1       5.397   4.960   7.688  1.00  0.00    -0.223 OA
ATOM     92  O   UNL     1       6.699   3.958   9.573  1.00  0.00    -0.223 OA
BRANCH  90  93
ATOM     93  C   UNL     1       7.898   4.479   7.314  1.00  0.00     0.219 C 
BRANCH  93  94
ATOM     94  C   UNL     1       9.060   3.564   7.553  1.00  0.00     0.143 A 
ATOM     95  N   UNL     1      10.264   4.066   7.197  1.00  0.00    -0.240 NA
ATOM     96  N   UNL     1       8.865   2.264   7.830  1.00  0.00    -0.240 NA
ATOM     97  C   UNL     1      11.284   3.192   7.079  1.00  0.00     0.115 A 
ATOM     98  C   UNL     1       9.906   1.425   7.661  1.00  0.00     0.115 A 
ATOM     99  C   UNL     1      11.153   1.840   7.272  1.00  0.00     0.040 A 
ENDBRANCH  93  94
ENDBRANCH  90  93
ENDBRANCH  88  90
ENDBRANCH  81  83
ENDBRANCH  80  81
ENDBRANCH  79  80
ENDBRANCH  78  79
ENDBRANCH  77  78
ENDBRANCH  76  77
ENDBRANCH  75  76
ENDBRANCH   1  75
TORSDOF 26
