REMARK SMILES O=C(OCCOCCOCCOCCOC(=O)c1ccc(-c2c3nc(c(-c4cc(S(=O)(=O)[O-])ccc4F)c4ccc([nH]4)c(-c4cc(S(=O)(=O)[O-])ccc4F)c4nc(c(-c5cc(S(=O)(=O)[O-])ccc5F)c5ccc2[nH]5)C=C4)C=C3)cc1)C1=Cc2cc(Cl)c(Cl)c(Cl)c2O[C@@H]1C(F)(F)F
REMARK SMILES IDX 10 1 9 2 8 3 7 4 6 5 5 6 4 7 3 8 2 9 1 10 81 11 82 12 93 13
REMARK SMILES IDX 83 14 92 15 84 16 91 17 85 18 89 19 86 20 87 21 90 22 88 23
REMARK SMILES IDX 94 24 95 25 96 26 97 27 11 28 12 29 13 30 14 31 15 32 16 33
REMARK SMILES IDX 17 34 18 35 19 36 80 37 20 38 79 39 21 40 22 41 23 42 73 43
REMARK SMILES IDX 24 44 78 45 72 46 74 47 25 48 77 49 71 50 70 51 26 53 58 54
REMARK SMILES IDX 38 55 57 56 39 57 42 58 56 59 75 60 40 61 41 62 55 64 76 65
REMARK SMILES IDX 43 66 27 67 28 68 36 69 29 70 35 71 37 72 34 73 30 74 31 75
REMARK SMILES IDX 32 76 33 77 59 78 60 79 68 80 61 81 67 82 69 83 66 84 62 85
REMARK SMILES IDX 63 86 64 87 65 88 44 89 45 90 53 91 46 92 52 93 54 94 51 95
REMARK SMILES IDX 47 96 48 97 49 98 50 99
REMARK H PARENT 74 52 42 63
REMARK Flexibility Score: inf
ROOT
ATOM      1  C   UNL     1       4.238   3.285  -1.719  1.00  0.00     0.188 C 
ENDROOT
BRANCH   1   2
ATOM      2  O   UNL     1       2.891   3.698  -1.702  1.00  0.00    -0.377 OA
BRANCH   2   3
ATOM      3  C   UNL     1       2.043   2.698  -1.193  1.00  0.00     0.188 C 
BRANCH   3   4
ATOM      4  C   UNL     1       2.305   2.332   0.273  1.00  0.00     0.188 C 
BRANCH   4   5
ATOM      5  O   UNL     1       3.605   1.901   0.788  1.00  0.00    -0.376 OA
BRANCH   5   6
ATOM      6  C   UNL     1       4.344   0.445   0.938  1.00  0.00     0.202 C 
BRANCH   6   7
ATOM      7  C   UNL     1       3.655  -1.501   0.236  1.00  0.00     0.261 C 
BRANCH   7   8
ATOM      8  O   UNL     1       2.806  -2.500   1.027  1.00  0.00    -0.460 OA
BRANCH   8   9
ATOM      9  C   UNL     1       3.020  -2.434   2.346  1.00  0.00     0.338 C 
ATOM     10  O   UNL     1       2.437  -2.985   3.245  1.00  0.00    -0.246 OA
BRANCH   9  11
ATOM     11  C   UNL     1       3.815  -1.227   2.309  1.00  0.00     0.087 C 
ATOM     12  C   UNL     1       5.204  -1.469   1.879  1.00  0.00     0.027 C 
ATOM     13  C   UNL     1       2.514  -0.197   1.327  1.00  0.00     0.316 C 
ATOM     14  C   UNL     1       5.841  -1.014   0.252  1.00  0.00     0.020 A 
ATOM     15  O   UNL     1       3.141   0.192  -0.473  1.00  0.00    -0.474 OA
ATOM     16  C   UNL     1       7.123  -1.358  -0.075  1.00  0.00     0.034 A 
ATOM     17  C   UNL     1       4.841  -0.296  -0.967  1.00  0.00     0.148 A 
ATOM     18  C   UNL     1       7.519  -1.061  -1.398  1.00  0.00     0.062 A 
ATOM     19  C   UNL     1       5.289  -0.103  -2.256  1.00  0.00     0.103 A 
ATOM     20  Cl  UNL     1       9.175  -1.501  -1.742  1.00  0.00    -0.083 Cl
ATOM     21  C   UNL     1       6.660  -0.468  -2.438  1.00  0.00     0.082 A 
ATOM     22  Cl  UNL     1       4.268   0.407  -3.529  1.00  0.00    -0.079 Cl
ATOM     23  Cl  UNL     1       7.391  -0.187  -4.005  1.00  0.00    -0.081 Cl
BRANCH  13  24
ATOM     24  C   UNL     1       2.123   0.773   2.596  1.00  0.00     0.430 C 
ATOM     25  F   UNL     1       1.179   1.712   2.408  1.00  0.00    -0.167 F 
ATOM     26  F   UNL     1       1.584  -0.046   3.554  1.00  0.00    -0.167 F 
ATOM     27  F   UNL     1       3.177   1.357   3.216  1.00  0.00    -0.167 F 
ENDBRANCH  13  24
ENDBRANCH   9  11
ENDBRANCH   8   9
ENDBRANCH   7   8
ENDBRANCH   6   7
ENDBRANCH   5   6
ENDBRANCH   4   5
ENDBRANCH   3   4
ENDBRANCH   2   3
ENDBRANCH   1   2
BRANCH   1  28
ATOM     28  C   UNL     1       5.188   4.055  -0.798  1.00  0.00     0.188 C 
BRANCH  28  29
ATOM     29  O   UNL     1       4.720   4.886   0.251  1.00  0.00    -0.376 OA
BRANCH  29  30
ATOM     30  C   UNL     1       3.540   5.657   0.106  1.00  0.00     0.202 C 
BRANCH  30  31
ATOM     31  C   UNL     1       3.351   6.658  -1.046  1.00  0.00     0.261 C 
BRANCH  31  32
ATOM     32  O   UNL     1       3.633   6.177  -2.365  1.00  0.00    -0.460 OA
BRANCH  32  33
ATOM     33  C   UNL     1       4.885   6.423  -2.815  1.00  0.00     0.338 C 
ATOM     34  O   UNL     1       5.755   7.050  -2.234  1.00  0.00    -0.246 OA
BRANCH  33  35
ATOM     35  C   UNL     1       5.132   5.636  -4.045  1.00  0.00     0.060 A 
ATOM     36  C   UNL     1       6.311   4.877  -4.117  1.00  0.00     0.016 A 
ATOM     37  C   UNL     1       4.235   5.644  -5.115  1.00  0.00     0.016 A 
ATOM     38  C   UNL     1       6.617   4.154  -5.267  1.00  0.00     0.010 A 
ATOM     39  C   UNL     1       4.565   4.958  -6.288  1.00  0.00     0.010 A 
ATOM     40  C   UNL     1       5.777   4.246  -6.381  1.00  0.00    -0.014 A 
BRANCH  40  41
ATOM     41  C   UNL     1       6.290   3.829  -7.707  1.00  0.00     0.031 A 
ATOM     42  C   UNL     1       6.882   4.893  -8.591  1.00  0.00     0.074 A 
ATOM     43  C   UNL     1       6.266   2.546  -8.105  1.00  0.00     0.049 A 
ATOM     44  N   UNL     1       7.310   4.811  -9.822  1.00  0.00    -0.248 NA
ATOM     45  C   UNL     1       6.999   6.237  -8.000  1.00  0.00     0.031 C 
ATOM     46  C   UNL     1       5.792   1.423  -7.301  1.00  0.00     0.029 A 
ATOM     47  N   UNL     1       6.644   1.974  -9.294  1.00  0.00    -0.354 N 
ATOM     48  C   UNL     1       7.732   6.092 -10.160  1.00  0.00     0.074 A 
ATOM     49  C   UNL     1       7.478   6.938  -9.014  1.00  0.00     0.031 C 
ATOM     50  C   UNL     1       5.890   0.296  -8.028  1.00  0.00     0.029 A 
ATOM     51  C   UNL     1       6.382   0.626  -9.365  1.00  0.00     0.049 A 
ATOM     52  H   UNL     1       7.062   2.481 -10.027  1.00  0.00     0.167 HD
ATOM     53  C   UNL     1       8.281   6.521 -11.321  1.00  0.00     0.034 A 
ATOM     54  C   UNL     1       6.490  -0.229 -10.403  1.00  0.00     0.034 A 
ATOM     55  C   UNL     1       8.511   5.661 -12.455  1.00  0.00     0.049 A 
ATOM     56  C   UNL     1       6.995   0.296 -11.729  1.00  0.00     0.074 A 
ATOM     57  C   UNL     1       9.070   5.983 -13.678  1.00  0.00     0.029 A 
ATOM     58  N   UNL     1       8.178   4.313 -12.512  1.00  0.00    -0.354 N 
ATOM     59  N   UNL     1       7.387   1.510 -12.044  1.00  0.00    -0.248 NA
ATOM     60  C   UNL     1       7.074  -0.664 -12.839  1.00  0.00     0.031 C 
ATOM     61  C   UNL     1       8.987   4.859 -14.505  1.00  0.00     0.029 A 
ATOM     62  C   UNL     1       8.475   3.803 -13.766  1.00  0.00     0.049 A 
ATOM     63  H   UNL     1       7.788   3.796 -11.770  1.00  0.00     0.167 HD
ATOM     64  C   UNL     1       7.793   1.447 -13.377  1.00  0.00     0.074 A 
ATOM     65  C   UNL     1       7.608   0.075 -13.800  1.00  0.00     0.031 C 
ATOM     66  C   UNL     1       8.280   2.432 -14.176  1.00  0.00     0.034 A 
BRANCH  53  67
ATOM     67  C   UNL     1       8.600   7.991 -11.442  1.00  0.00     0.023 A 
ATOM     68  C   UNL     1       9.546   8.620 -10.614  1.00  0.00     0.031 A 
ATOM     69  C   UNL     1       7.924   8.783 -12.387  1.00  0.00     0.131 A 
ATOM     70  C   UNL     1       9.737  10.007 -10.699  1.00  0.00     0.055 A 
ATOM     71  C   UNL     1       8.183  10.147 -12.527  1.00  0.00     0.041 A 
ATOM     72  F   UNL     1       6.987   8.246 -13.184  1.00  0.00    -0.206 F 
ATOM     73  C   UNL     1       9.085  10.770 -11.670  1.00  0.00     0.022 A 
BRANCH  70  74
ATOM     74  S   UNL     1      10.733  10.825  -9.422  1.00  0.00     0.124 S 
ATOM     75  O   UNL     1      10.020  10.446  -8.204  1.00  0.00    -0.237 OA
ATOM     76  O   UNL     1      12.046  10.217  -9.609  1.00  0.00    -0.237 OA
ATOM     77  O   UNL     1      10.644  12.241  -9.773  1.00  0.00    -0.744 OA
ENDBRANCH  70  74
ENDBRANCH  53  67
BRANCH  54  78
ATOM     78  C   UNL     1       6.058  -1.651 -10.264  1.00  0.00     0.023 A 
ATOM     79  C   UNL     1       6.958  -2.710 -10.465  1.00  0.00     0.031 A 
ATOM     80  C   UNL     1       4.715  -1.976  -9.996  1.00  0.00     0.131 A 
ATOM     81  C   UNL     1       6.497  -4.036 -10.445  1.00  0.00     0.055 A 
ATOM     82  C   UNL     1       4.275  -3.298  -9.910  1.00  0.00     0.041 A 
ATOM     83  F   UNL     1       3.805  -1.006  -9.810  1.00  0.00    -0.206 F 
ATOM     84  C   UNL     1       5.166  -4.338 -10.150  1.00  0.00     0.022 A 
BRANCH  81  85
ATOM     85  S   UNL     1       7.640  -5.361 -10.924  1.00  0.00     0.124 S 
ATOM     86  O   UNL     1       8.029  -4.944 -12.266  1.00  0.00    -0.237 OA
ATOM     87  O   UNL     1       8.670  -5.260  -9.896  1.00  0.00    -0.237 OA
ATOM     88  O   UNL     1       6.812  -6.564 -10.859  1.00  0.00    -0.744 OA
ENDBRANCH  81  85
ENDBRANCH  54  78
BRANCH  66  89
ATOM     89  C   UNL     1       8.702   2.049 -15.575  1.00  0.00     0.023 A 
ATOM     90  C   UNL     1       7.779   1.608 -16.538  1.00  0.00     0.031 A 
ATOM     91  C   UNL     1      10.054   2.143 -15.953  1.00  0.00     0.131 A 
ATOM     92  C   UNL     1       8.226   1.229 -17.814  1.00  0.00     0.055 A 
ATOM     93  C   UNL     1      10.483   1.835 -17.244  1.00  0.00     0.041 A 
ATOM     94  F   UNL     1      10.983   2.553 -15.073  1.00  0.00    -0.206 F 
ATOM     95  C   UNL     1       9.568   1.363 -18.180  1.00  0.00     0.022 A 
BRANCH  92  96
ATOM     96  S   UNL     1       7.048   0.463 -18.960  1.00  0.00     0.124 S 
ATOM     97  O   UNL     1       6.598  -0.698 -18.199  1.00  0.00    -0.237 OA
ATOM     98  O   UNL     1       6.062   1.522 -19.150  1.00  0.00    -0.237 OA
ATOM     99  O   UNL     1       7.862   0.157 -20.135  1.00  0.00    -0.744 OA
ENDBRANCH  92  96
ENDBRANCH  66  89
ENDBRANCH  40  41
ENDBRANCH  33  35
ENDBRANCH  32  33
ENDBRANCH  31  32
ENDBRANCH  30  31
ENDBRANCH  29  30
ENDBRANCH  28  29
ENDBRANCH   1  28
TORSDOF 24
