REMARK SMILES O=C(OCCOCCOCCOCCOC(=O)c1ccc(-c2c3nc(c(-c4cc(S(=O)(=O)[O-])ccc4F)c4ccc([nH]4)c(-c4cc(S(=O)(=O)[O-])ccc4F)c4nc(c(-c5cc(S(=O)(=O)[O-])ccc5F)c5ccc2[nH]5)C=C4)C=C3)cc1)C1=Cc2ccc(Cl)c(Cl)c2O[C@@H]1C(F)(F)F
REMARK SMILES IDX 10 1 9 2 8 3 7 4 6 5 5 6 4 7 3 8 2 9 1 10 81 11 82 12 92 13
REMARK SMILES IDX 83 14 91 15 84 16 90 17 85 18 88 19 86 20 89 21 87 22 93 23
REMARK SMILES IDX 94 24 95 25 96 26 11 27 12 28 13 29 14 30 15 31 16 32 17 33
REMARK SMILES IDX 18 34 19 35 80 36 20 37 79 38 21 39 22 40 23 41 73 42 24 43
REMARK SMILES IDX 78 44 72 45 74 46 25 47 77 48 71 49 70 50 26 52 58 53 38 54
REMARK SMILES IDX 57 55 39 56 42 57 56 58 75 59 40 60 41 61 55 63 76 64 43 65
REMARK SMILES IDX 27 66 28 67 36 68 29 69 35 70 37 71 34 72 30 73 31 74 32 75
REMARK SMILES IDX 33 76 59 77 60 78 68 79 61 80 67 81 69 82 66 83 62 84 63 85
REMARK SMILES IDX 64 86 65 87 44 88 45 89 53 90 46 91 52 92 54 93 51 94 47 95
REMARK SMILES IDX 48 96 49 97 50 98
REMARK H PARENT 74 51 42 62
REMARK Flexibility Score: inf
ROOT
ATOM      1  C   UNL     1       4.170  -3.751  -0.199  1.00  0.00     0.188 C 
ENDROOT
BRANCH   1   2
ATOM      2  O   UNL     1       2.825  -4.067  -0.477  1.00  0.00    -0.377 OA
BRANCH   2   3
ATOM      3  C   UNL     1       1.999  -2.931  -0.419  1.00  0.00     0.188 C 
BRANCH   3   4
ATOM      4  C   UNL     1       2.335  -1.837  -1.439  1.00  0.00     0.188 C 
BRANCH   4   5
ATOM      5  O   UNL     1       3.661  -1.229  -1.616  1.00  0.00    -0.376 OA
BRANCH   5   6
ATOM      6  C   UNL     1       4.431   0.062  -0.919  1.00  0.00     0.202 C 
BRANCH   6   7
ATOM      7  C   UNL     1       3.742   1.248   0.780  1.00  0.00     0.261 C 
BRANCH   7   8
ATOM      8  O   UNL     1       2.816   2.444   0.727  1.00  0.00    -0.460 OA
BRANCH   8   9
ATOM      9  C   UNL     1       2.984   3.166  -0.386  1.00  0.00     0.338 C 
ATOM     10  O   UNL     1       2.298   4.070  -0.797  1.00  0.00    -0.246 OA
BRANCH   9  11
ATOM     11  C   UNL     1       3.841   2.223  -1.089  1.00  0.00     0.087 C 
ATOM     12  C   UNL     1       5.232   2.203  -0.627  1.00  0.00     0.027 C 
ATOM     13  C   UNL     1       2.596   0.781  -0.869  1.00  0.00     0.316 C 
ATOM     14  C   UNL     1       5.934   0.924   0.428  1.00  0.00     0.019 A 
ATOM     15  O   UNL     1       3.264  -0.546   0.396  1.00  0.00    -0.474 OA
ATOM     16  C   UNL     1       7.240   1.034   0.820  1.00  0.00     0.013 A 
ATOM     17  C   UNL     1       4.979  -0.386   1.056  1.00  0.00     0.148 A 
ATOM     18  C   UNL     1       7.685   0.032   1.700  1.00  0.00     0.023 A 
ATOM     19  C   UNL     1       5.484  -1.272   1.983  1.00  0.00     0.102 A 
ATOM     20  C   UNL     1       6.866  -1.046   2.256  1.00  0.00     0.063 A 
ATOM     21  Cl  UNL     1       4.541  -2.411   2.838  1.00  0.00    -0.079 Cl
ATOM     22  Cl  UNL     1       7.738  -2.102   3.336  1.00  0.00    -0.083 Cl
BRANCH  13  23
ATOM     23  C   UNL     1       2.278   0.724  -2.517  1.00  0.00     0.430 C 
ATOM     24  F   UNL     1       1.393  -0.180  -2.974  1.00  0.00    -0.167 F 
ATOM     25  F   UNL     1       1.705   1.927  -2.839  1.00  0.00    -0.167 F 
ATOM     26  F   UNL     1       3.375   0.660  -3.314  1.00  0.00    -0.167 F 
ENDBRANCH  13  23
ENDBRANCH   9  11
ENDBRANCH   8   9
ENDBRANCH   7   8
ENDBRANCH   6   7
ENDBRANCH   5   6
ENDBRANCH   4   5
ENDBRANCH   3   4
ENDBRANCH   2   3
ENDBRANCH   1   2
BRANCH   1  27
ATOM     27  C   UNL     1       5.148  -3.835  -1.375  1.00  0.00     0.188 C 
BRANCH  27  28
ATOM     28  O   UNL     1       4.725  -3.972  -2.720  1.00  0.00    -0.376 OA
BRANCH  28  29
ATOM     29  C   UNL     1       3.536  -4.659  -3.057  1.00  0.00     0.202 C 
BRANCH  29  30
ATOM     30  C   UNL     1       3.267  -6.113  -2.635  1.00  0.00     0.261 C 
BRANCH  30  31
ATOM     31  O   UNL     1       3.592  -6.468  -1.287  1.00  0.00    -0.460 OA
BRANCH  31  32
ATOM     32  C   UNL     1       4.854  -6.917  -1.111  1.00  0.00     0.338 C 
ATOM     33  O   UNL     1       5.683  -7.103  -1.986  1.00  0.00    -0.246 OA
BRANCH  32  34
ATOM     34  C   UNL     1       5.180  -6.962   0.333  1.00  0.00     0.060 A 
ATOM     35  C   UNL     1       6.405  -6.408   0.733  1.00  0.00     0.016 A 
ATOM     36  C   UNL     1       4.333  -7.550   1.275  1.00  0.00     0.016 A 
ATOM     37  C   UNL     1       6.822  -6.502   2.053  1.00  0.00     0.010 A 
ATOM     38  C   UNL     1       4.773  -7.685   2.598  1.00  0.00     0.010 A 
ATOM     39  C   UNL     1       6.045  -7.214   2.972  1.00  0.00    -0.014 A 
BRANCH  39  40
ATOM     40  C   UNL     1       6.704  -7.672   4.218  1.00  0.00     0.031 A 
ATOM     41  C   UNL     1       7.225  -9.084   4.266  1.00  0.00     0.074 A 
ATOM     42  C   UNL     1       6.952  -6.817   5.226  1.00  0.00     0.049 A 
ATOM     43  N   UNL     1       7.860  -9.704   5.226  1.00  0.00    -0.248 NA
ATOM     44  C   UNL     1       7.001  -9.907   3.065  1.00  0.00     0.031 C 
ATOM     45  C   UNL     1       6.559  -5.409   5.250  1.00  0.00     0.029 A 
ATOM     46  N   UNL     1       7.605  -7.006   6.416  1.00  0.00    -0.354 N 
ATOM     47  C   UNL     1       8.116 -10.984   4.744  1.00  0.00     0.074 A 
ATOM     48  C   UNL     1       7.517 -11.069   3.430  1.00  0.00     0.031 C 
ATOM     49  C   UNL     1       6.976  -4.862   6.404  1.00  0.00     0.029 A 
ATOM     50  C   UNL     1       7.624  -5.889   7.217  1.00  0.00     0.049 A 
ATOM     51  H   UNL     1       8.021  -7.861   6.673  1.00  0.00     0.167 HD
ATOM     52  C   UNL     1       8.806 -11.989   5.335  1.00  0.00     0.034 A 
ATOM     53  C   UNL     1       8.083  -5.727   8.475  1.00  0.00     0.034 A 
ATOM     54  C   UNL     1       9.382 -11.891   6.653  1.00  0.00     0.049 A 
ATOM     55  C   UNL     1       8.743  -6.901   9.161  1.00  0.00     0.074 A 
ATOM     56  C   UNL     1      10.083 -12.851   7.360  1.00  0.00     0.029 A 
ATOM     57  N   UNL     1       9.319 -10.766   7.467  1.00  0.00    -0.354 N 
ATOM     58  N   UNL     1       8.967  -8.112   8.701  1.00  0.00    -0.248 NA
ATOM     59  C   UNL     1       9.227  -6.680  10.529  1.00  0.00     0.031 C 
ATOM     60  C   UNL     1      10.365 -12.340   8.630  1.00  0.00     0.029 A 
ATOM     61  C   UNL     1       9.937 -11.023   8.681  1.00  0.00     0.049 A 
ATOM     62  H   UNL     1       8.896  -9.913   7.218  1.00  0.00     0.167 HD
ATOM     63  C   UNL     1       9.650  -8.783   9.715  1.00  0.00     0.074 A 
ATOM     64  C   UNL     1       9.823  -7.832  10.793  1.00  0.00     0.031 C 
ATOM     65  C   UNL     1      10.094 -10.067   9.753  1.00  0.00     0.034 A 
BRANCH  52  66
ATOM     66  C   UNL     1       8.932 -13.289   4.578  1.00  0.00     0.023 A 
ATOM     67  C   UNL     1       9.610 -13.367   3.349  1.00  0.00     0.031 A 
ATOM     68  C   UNL     1       8.351 -14.466   5.083  1.00  0.00     0.131 A 
ATOM     69  C   UNL     1       9.635 -14.575   2.638  1.00  0.00     0.055 A 
ATOM     70  C   UNL     1       8.456 -15.686   4.413  1.00  0.00     0.041 A 
ATOM     71  F   UNL     1       7.663 -14.450   6.236  1.00  0.00    -0.206 F 
ATOM     72  C   UNL     1       9.089 -15.743   3.175  1.00  0.00     0.022 A 
BRANCH  69  73
ATOM     73  S   UNL     1      10.257 -14.565   0.934  1.00  0.00     0.124 S 
ATOM     74  O   UNL     1       9.368 -13.593   0.303  1.00  0.00    -0.237 OA
ATOM     75  O   UNL     1      11.643 -14.146   1.106  1.00  0.00    -0.237 OA
ATOM     76  O   UNL     1      10.071 -15.946   0.493  1.00  0.00    -0.744 OA
ENDBRANCH  69  73
ENDBRANCH  52  66
BRANCH  53  77
ATOM     77  C   UNL     1       7.881  -4.436   9.196  1.00  0.00     0.023 A 
ATOM     78  C   UNL     1       8.963  -3.698   9.702  1.00  0.00     0.031 A 
ATOM     79  C   UNL     1       6.583  -3.963   9.466  1.00  0.00     0.131 A 
ATOM     80  C   UNL     1       8.727  -2.570  10.505  1.00  0.00     0.055 A 
ATOM     81  C   UNL     1       6.356  -2.798  10.199  1.00  0.00     0.041 A 
ATOM     82  F   UNL     1       5.508  -4.634   9.021  1.00  0.00    -0.206 F 
ATOM     83  C   UNL     1       7.432  -2.104  10.740  1.00  0.00     0.022 A 
BRANCH  80  84
ATOM     84  S   UNL     1      10.132  -1.799  11.355  1.00  0.00     0.124 S 
ATOM     85  O   UNL     1      10.680  -2.926  12.101  1.00  0.00    -0.237 OA
ATOM     86  O   UNL     1      10.936  -1.317  10.236  1.00  0.00    -0.237 OA
ATOM     87  O   UNL     1       9.508  -0.756  12.165  1.00  0.00    -0.744 OA
ENDBRANCH  80  84
ENDBRANCH  53  77
BRANCH  65  88
ATOM     88  C   UNL     1      10.861 -10.494  10.984  1.00  0.00     0.023 A 
ATOM     89  C   UNL     1      10.272 -10.495  12.261  1.00  0.00     0.031 A 
ATOM     90  C   UNL     1      12.213 -10.868  10.884  1.00  0.00     0.131 A 
ATOM     91  C   UNL     1      11.056 -10.768  13.391  1.00  0.00     0.055 A 
ATOM     92  C   UNL     1      12.963 -11.231  12.003  1.00  0.00     0.041 A 
ATOM     93  F   UNL     1      12.834 -10.882   9.693  1.00  0.00    -0.206 F 
ATOM     94  C   UNL     1      12.391 -11.160  13.269  1.00  0.00     0.022 A 
BRANCH  91  95
ATOM     95  S   UNL     1      10.350 -10.447  15.031  1.00  0.00     0.124 S 
ATOM     96  O   UNL     1       9.966  -9.043  14.922  1.00  0.00    -0.237 OA
ATOM     97  O   UNL     1       9.252 -11.406  15.092  1.00  0.00    -0.237 OA
ATOM     98  O   UNL     1      11.462 -10.717  15.941  1.00  0.00    -0.744 OA
ENDBRANCH  91  95
ENDBRANCH  65  88
ENDBRANCH  39  40
ENDBRANCH  32  34
ENDBRANCH  31  32
ENDBRANCH  30  31
ENDBRANCH  29  30
ENDBRANCH  28  29
ENDBRANCH  27  28
ENDBRANCH   1  27
TORSDOF 24
