REMARK SMILES CCCC1CN(c2cc(C(=O)OCCOCCOCCOCCOC(=O)c3ccc(-c4c5nc(c(-c6cc(S(=O)(=O)[O-])ccc6F)c6ccc([nH]6)c(-c6cc(S(=O)(=O)[O-])ccc6F)c6nc(c(-c7cc(S(=O)(=O)[O-])ccc7F)c7ccc4[nH]7)C=C6)C=C5)cc3)ccc2F)C1
REMARK SMILES IDX 18 1 17 2 16 3 15 4 14 5 13 6 12 7 10 8 11 9 9 10 7 11 8 12
REMARK SMILES IDX 92 13 91 14 93 15 90 16 6 17 4 18 5 19 94 20 3 21 2 22 1 23
REMARK SMILES IDX 19 24 20 25 21 26 22 27 23 28 24 29 25 30 26 31 27 32 28 33
REMARK SMILES IDX 89 34 29 35 88 36 30 37 31 38 32 39 82 40 33 41 87 42 81 43
REMARK SMILES IDX 83 44 34 45 86 46 80 47 79 48 35 50 67 51 47 52 66 53 48 54
REMARK SMILES IDX 51 55 65 56 84 57 49 58 50 59 64 61 85 62 52 63 36 64 37 65
REMARK SMILES IDX 45 66 38 67 44 68 46 69 43 70 39 71 40 72 41 73 42 74 68 75
REMARK SMILES IDX 69 76 77 77 70 78 76 79 78 80 75 81 71 82 72 83 73 84 74 85
REMARK SMILES IDX 53 86 54 87 62 88 55 89 61 90 63 91 60 92 56 93 57 94 58 95
REMARK SMILES IDX 59 96
REMARK H PARENT 83 49 51 60
REMARK Flexibility Score: inf
ROOT
ATOM      1  O   UNL     1       3.453   2.986   9.475  1.00  0.00    -0.377 OA
ENDROOT
BRANCH   1   2
ATOM      2  C   UNL     1       3.481   1.975   8.483  1.00  0.00     0.188 C 
BRANCH   2   3
ATOM      3  C   UNL     1       4.698   2.041   7.541  1.00  0.00     0.188 C 
BRANCH   3   4
ATOM      4  O   UNL     1       5.783   2.809   8.020  1.00  0.00    -0.376 OA
BRANCH   4   5
ATOM      5  C   UNL     1       5.857   4.213   7.842  1.00  0.00     0.202 C 
BRANCH   5   6
ATOM      6  C   UNL     1       4.670   5.163   7.596  1.00  0.00     0.261 C 
BRANCH   6   7
ATOM      7  O   UNL     1       3.436   4.603   7.153  1.00  0.00    -0.460 OA
BRANCH   7   8
ATOM      8  C   UNL     1       3.289   4.336   5.840  1.00  0.00     0.338 C 
ATOM      9  O   UNL     1       4.104   4.514   4.952  1.00  0.00    -0.246 OA
BRANCH   8  10
ATOM     10  C   UNL     1       2.019   3.582   5.696  1.00  0.00     0.062 A 
ATOM     11  C   UNL     1       0.832   1.666   4.801  1.00  0.00     0.074 A 
ATOM     12  C   UNL     1       2.004   2.419   4.904  1.00  0.00     0.044 A 
ATOM     13  C   UNL     1      -0.310   2.103   5.496  1.00  0.00     0.146 A 
ATOM     14  C   UNL     1      -0.294   3.235   6.302  1.00  0.00     0.042 A 
ATOM     15  F   UNL     1      -1.457   1.413   5.388  1.00  0.00    -0.205 F 
ATOM     16  C   UNL     1       0.876   3.979   6.408  1.00  0.00     0.019 A 
BRANCH  11  17
ATOM     17  N   UNL     1       0.718   0.534   3.985  1.00  0.00    -0.368 N 
ATOM     18  C   UNL     1       0.615  -0.955   2.606  1.00  0.00     0.028 C 
ATOM     19  C   UNL     1       1.491  -0.661   3.855  1.00  0.00     0.122 C 
ATOM     20  C   UNL     1       0.405   0.569   2.590  1.00  0.00     0.122 C 
BRANCH  18  21
ATOM     21  C   UNL     1       1.253  -1.666   1.423  1.00  0.00     0.007 C 
BRANCH  21  22
ATOM     22  C   UNL     1       0.516  -1.387   0.107  1.00  0.00    -0.003 C 
ATOM     23  C   UNL     1       0.888  -0.049  -0.522  1.00  0.00     0.004 C 
ENDBRANCH  21  22
ENDBRANCH  18  21
ENDBRANCH  11  17
ENDBRANCH   8  10
ENDBRANCH   7   8
ENDBRANCH   6   7
ENDBRANCH   5   6
ENDBRANCH   4   5
ENDBRANCH   3   4
ENDBRANCH   2   3
ENDBRANCH   1   2
BRANCH   1  24
ATOM     24  C   UNL     1       4.301   2.852  10.617  1.00  0.00     0.188 C 
BRANCH  24  25
ATOM     25  C   UNL     1       5.477   1.846  10.668  1.00  0.00     0.188 C 
BRANCH  25  26
ATOM     26  O   UNL     1       5.273   0.646   9.935  1.00  0.00    -0.376 OA
BRANCH  26  27
ATOM     27  C   UNL     1       5.003  -0.548  10.646  1.00  0.00     0.202 C 
BRANCH  27  28
ATOM     28  C   UNL     1       3.652  -0.618  11.371  1.00  0.00     0.261 C 
BRANCH  28  29
ATOM     29  O   UNL     1       3.400   0.432  12.314  1.00  0.00    -0.460 OA
BRANCH  29  30
ATOM     30  C   UNL     1       4.220   0.486  13.384  1.00  0.00     0.338 C 
ATOM     31  O   UNL     1       5.138  -0.280  13.639  1.00  0.00    -0.246 OA
BRANCH  30  32
ATOM     32  C   UNL     1       3.950   1.740  14.113  1.00  0.00     0.060 A 
ATOM     33  C   UNL     1       5.002   2.643  14.306  1.00  0.00     0.016 A 
ATOM     34  C   UNL     1       2.677   2.012  14.619  1.00  0.00     0.016 A 
ATOM     35  C   UNL     1       4.796   3.795  15.063  1.00  0.00     0.010 A 
ATOM     36  C   UNL     1       2.476   3.160  15.391  1.00  0.00     0.010 A 
ATOM     37  C   UNL     1       3.548   4.032  15.655  1.00  0.00    -0.014 A 
BRANCH  37  38
ATOM     38  C   UNL     1       3.440   5.068  16.711  1.00  0.00     0.031 A 
ATOM     39  C   UNL     1       3.493   4.627  18.151  1.00  0.00     0.074 A 
ATOM     40  C   UNL     1       3.383   6.377  16.403  1.00  0.00     0.049 A 
ATOM     41  N   UNL     1       3.440   5.347  19.240  1.00  0.00    -0.248 NA
ATOM     42  C   UNL     1       3.632   3.180  18.395  1.00  0.00     0.031 C 
ATOM     43  C   UNL     1       3.385   6.925  15.047  1.00  0.00     0.029 A 
ATOM     44  N   UNL     1       3.329   7.485  17.212  1.00  0.00    -0.354 N 
ATOM     45  C   UNL     1       3.543   4.446  20.294  1.00  0.00     0.074 A 
ATOM     46  C   UNL     1       3.623   3.123  19.719  1.00  0.00     0.031 C 
ATOM     47  C   UNL     1       3.347   8.267  15.120  1.00  0.00     0.029 A 
ATOM     48  C   UNL     1       3.280   8.674  16.523  1.00  0.00     0.049 A 
ATOM     49  H   UNL     1       3.326   7.433  18.195  1.00  0.00     0.167 HD
ATOM     50  C   UNL     1       3.586   4.702  21.622  1.00  0.00     0.034 A 
ATOM     51  C   UNL     1       3.177   9.943  16.971  1.00  0.00     0.034 A 
ATOM     52  C   UNL     1       3.516   6.024  22.187  1.00  0.00     0.049 A 
ATOM     53  C   UNL     1       3.130  10.195  18.459  1.00  0.00     0.074 A 
ATOM     54  C   UNL     1       3.561   6.387  23.521  1.00  0.00     0.029 A 
ATOM     55  N   UNL     1       3.384   7.195  21.456  1.00  0.00    -0.354 N 
ATOM     56  N   UNL     1       3.207   9.330  19.443  1.00  0.00    -0.248 NA
ATOM     57  C   UNL     1       2.981  11.590  18.898  1.00  0.00     0.031 C 
ATOM     58  C   UNL     1       3.383   7.770  23.601  1.00  0.00     0.029 A 
ATOM     59  C   UNL     1       3.309   8.279  22.314  1.00  0.00     0.049 A 
ATOM     60  H   UNL     1       3.348   7.248  20.473  1.00  0.00     0.167 HD
ATOM     61  C   UNL     1       3.140  10.079  20.615  1.00  0.00     0.074 A 
ATOM     62  C   UNL     1       3.021  11.466  20.218  1.00  0.00     0.031 C 
ATOM     63  C   UNL     1       3.183   9.655  21.903  1.00  0.00     0.034 A 
BRANCH  50  64
ATOM     64  C   UNL     1       3.684   3.535  22.567  1.00  0.00     0.023 A 
ATOM     65  C   UNL     1       4.861   2.778  22.682  1.00  0.00     0.031 A 
ATOM     66  C   UNL     1       2.604   3.219  23.409  1.00  0.00     0.131 A 
ATOM     67  C   UNL     1       4.925   1.727  23.610  1.00  0.00     0.055 A 
ATOM     68  C   UNL     1       2.692   2.210  24.368  1.00  0.00     0.041 A 
ATOM     69  F   UNL     1       1.450   3.900  23.323  1.00  0.00    -0.206 F 
ATOM     70  C   UNL     1       3.858   1.456  24.471  1.00  0.00     0.022 A 
BRANCH  67  71
ATOM     71  S   UNL     1       6.407   0.685  23.647  1.00  0.00     0.124 S 
ATOM     72  O   UNL     1       6.353   0.047  22.334  1.00  0.00    -0.237 OA
ATOM     73  O   UNL     1       7.476   1.658  23.840  1.00  0.00    -0.237 OA
ATOM     74  O   UNL     1       6.169  -0.210  24.778  1.00  0.00    -0.744 OA
ENDBRANCH  67  71
ENDBRANCH  50  64
BRANCH  51  75
ATOM     75  C   UNL     1       3.075  11.073  16.003  1.00  0.00     0.023 A 
ATOM     76  C   UNL     1       4.082  12.045  15.905  1.00  0.00     0.031 A 
ATOM     77  C   UNL     1       1.949  11.203  15.170  1.00  0.00     0.131 A 
ATOM     78  C   UNL     1       3.934  13.117  15.010  1.00  0.00     0.055 A 
ATOM     79  C   UNL     1       1.826  12.246  14.251  1.00  0.00     0.041 A 
ATOM     80  F   UNL     1       0.956  10.301  15.225  1.00  0.00    -0.206 F 
ATOM     81  C   UNL     1       2.820  13.216  14.172  1.00  0.00     0.022 A 
BRANCH  78  82
ATOM     82  S   UNL     1       5.203  14.414  14.982  1.00  0.00     0.124 S 
ATOM     83  O   UNL     1       5.098  14.959  16.331  1.00  0.00    -0.237 OA
ATOM     84  O   UNL     1       6.411  13.651  14.689  1.00  0.00    -0.237 OA
ATOM     85  O   UNL     1       4.756  15.303  13.912  1.00  0.00    -0.744 OA
ENDBRANCH  78  82
ENDBRANCH  51  75
BRANCH  63  86
ATOM     86  C   UNL     1       3.130  10.696  22.991  1.00  0.00     0.023 A 
ATOM     87  C   UNL     1       1.947  11.392  23.285  1.00  0.00     0.031 A 
ATOM     88  C   UNL     1       4.259  10.927  23.799  1.00  0.00     0.131 A 
ATOM     89  C   UNL     1       1.923  12.302  24.353  1.00  0.00     0.055 A 
ATOM     90  C   UNL     1       4.215  11.797  24.888  1.00  0.00     0.041 A 
ATOM     91  F   UNL     1       5.411  10.279  23.563  1.00  0.00    -0.206 F 
ATOM     92  C   UNL     1       3.043  12.493  25.168  1.00  0.00     0.022 A 
BRANCH  89  93
ATOM     93  S   UNL     1       0.409  13.253  24.654  1.00  0.00     0.124 S 
ATOM     94  O   UNL     1       0.311  14.058  23.441  1.00  0.00    -0.237 OA
ATOM     95  O   UNL     1      -0.596  12.207  24.808  1.00  0.00    -0.237 OA
ATOM     96  O   UNL     1       0.712  14.003  25.873  1.00  0.00    -0.744 OA
ENDBRANCH  89  93
ENDBRANCH  63  86
ENDBRANCH  37  38
ENDBRANCH  30  32
ENDBRANCH  29  30
ENDBRANCH  28  29
ENDBRANCH  27  28
ENDBRANCH  26  27
ENDBRANCH  25  26
ENDBRANCH  24  25
ENDBRANCH   1  24
TORSDOF 26
