REMARK SMILES Cc1c(NC(=O)[C@@H]2CC=CC[C@@H]2C(=O)OCCOCCOCCOCCOC(=O)c2ccc(-c3c4nc(c(-c5cc(S(=O)(=O)[O-])ccc5F)c5ccc([nH]5)c(-c5cc(S(=O)(=O)[O-])ccc5F)c5nc(c(-c6cc(S(=O)(=O)[O-])ccc6F)c6ccc3[nH]6)C=C5)C=C4)cc2)cccc1C(=O)N1CCOCC1
REMARK SMILES IDX 21 1 20 2 19 3 18 4 17 5 16 6 15 7 13 8 14 9 12 10 7 11 8 12
REMARK SMILES IDX 9 13 11 14 10 15 5 16 4 17 6 19 3 20 1 21 2 22 96 23 93 24
REMARK SMILES IDX 95 25 94 26 97 27 98 28 99 29 100 30 104 31 101 32 103 33
REMARK SMILES IDX 102 34 22 35 23 36 24 37 25 38 26 39 27 40 28 41 29 42 30 43
REMARK SMILES IDX 31 44 92 45 32 46 91 47 33 48 34 49 35 50 85 51 36 52 90 53
REMARK SMILES IDX 84 54 86 55 37 56 89 57 83 58 82 59 38 61 70 62 50 63 69 64
REMARK SMILES IDX 51 65 54 66 68 67 87 68 52 69 53 70 67 72 88 73 55 74 39 75
REMARK SMILES IDX 40 76 48 77 41 78 47 79 49 80 46 81 42 82 43 83 44 84 45 85
REMARK SMILES IDX 71 86 72 87 80 88 73 89 79 90 81 91 78 92 74 93 75 94 76 95
REMARK SMILES IDX 77 96 56 97 57 98 65 99 58 100 64 101 66 102 63 103 59 104
REMARK SMILES IDX 60 105 61 106 62 107
REMARK H PARENT 4 18 86 60 54 71
REMARK Flexibility Score: inf
ROOT
ATOM      1  O   UNL     1      -3.000   0.361   1.294  1.00  0.00    -0.377 OA
ENDROOT
BRANCH   1   2
ATOM      2  C   UNL     1      -3.770   0.401   0.069  1.00  0.00     0.188 C 
BRANCH   2   3
ATOM      3  C   UNL     1      -5.448   0.630   0.014  1.00  0.00     0.188 C 
BRANCH   3   4
ATOM      4  O   UNL     1      -6.711  -0.253  -0.908  1.00  0.00    -0.376 OA
BRANCH   4   5
ATOM      5  C   UNL     1      -6.981  -1.974  -1.340  1.00  0.00     0.202 C 
BRANCH   5   6
ATOM      6  C   UNL     1      -5.726  -3.381  -1.720  1.00  0.00     0.261 C 
BRANCH   6   7
ATOM      7  O   UNL     1      -3.932  -3.274  -2.036  1.00  0.00    -0.463 OA
BRANCH   7   8
ATOM      8  C   UNL     1      -2.850  -2.531  -2.650  1.00  0.00     0.310 C 
ATOM      9  O   UNL     1      -2.979  -1.657  -3.528  1.00  0.00    -0.252 OA
BRANCH   8  10
ATOM     10  C   UNL     1      -1.258  -2.461  -2.168  1.00  0.00     0.116 C 
ATOM     11  C   UNL     1      -0.294  -3.249  -1.192  1.00  0.00     0.097 C 
ATOM     12  C   UNL     1      -0.251  -2.735   0.278  1.00  0.00     0.041 C 
ATOM     13  C   UNL     1      -0.089  -1.254   0.358  1.00  0.00    -0.030 C 
ATOM     14  C   UNL     1      -0.852  -0.923  -2.017  1.00  0.00     0.043 C 
ATOM     15  C   UNL     1      -0.331  -0.450  -0.681  1.00  0.00    -0.030 C 
BRANCH  11  16
ATOM     16  C   UNL     1      -0.316  -4.731  -1.491  1.00  0.00     0.228 C 
ATOM     17  N   UNL     1       0.297  -5.699  -0.771  1.00  0.00    -0.326 N 
ATOM     18  H   UNL     1       0.006  -6.593  -1.064  1.00  0.00     0.169 HD
ATOM     19  O   UNL     1      -0.897  -5.149  -2.500  1.00  0.00    -0.274 OA
BRANCH  17  20
ATOM     20  C   UNL     1       1.229  -5.793   0.276  1.00  0.00     0.044 A 
ATOM     21  C   UNL     1       0.078  -7.950   0.869  1.00  0.00     0.047 C 
ATOM     22  C   UNL     1       1.239  -7.001   1.031  1.00  0.00    -0.015 A 
ATOM     23  C   UNL     1       2.261  -7.221   1.982  1.00  0.00     0.045 A 
ATOM     24  C   UNL     1       2.165  -4.800   0.560  1.00  0.00     0.026 A 
ATOM     25  C   UNL     1       3.113  -6.152   2.311  1.00  0.00     0.014 A 
ATOM     26  C   UNL     1       3.046  -4.941   1.628  1.00  0.00     0.003 A 
BRANCH  23  27
ATOM     27  C   UNL     1       2.441  -8.455   2.814  1.00  0.00     0.254 C 
ATOM     28  O   UNL     1       2.847  -8.304   3.970  1.00  0.00    -0.269 OA
ATOM     29  N   UNL     1       2.170  -9.732   2.330  1.00  0.00    -0.334 N 
ATOM     30  C   UNL     1       2.272 -10.216   0.946  1.00  0.00     0.148 C 
ATOM     31  C   UNL     1       1.980 -10.801   3.310  1.00  0.00     0.148 C 
ATOM     32  C   UNL     1       1.142 -11.212   0.611  1.00  0.00     0.181 C 
ATOM     33  C   UNL     1       0.786 -11.663   2.903  1.00  0.00     0.181 C 
ATOM     34  O   UNL     1       1.020 -12.242   1.609  1.00  0.00    -0.378 OA
ENDBRANCH  23  27
ENDBRANCH  17  20
ENDBRANCH  11  16
ENDBRANCH   8  10
ENDBRANCH   7   8
ENDBRANCH   6   7
ENDBRANCH   5   6
ENDBRANCH   4   5
ENDBRANCH   3   4
ENDBRANCH   2   3
ENDBRANCH   1   2
BRANCH   1  35
ATOM     35  C   UNL     1      -3.297  -0.570   2.346  1.00  0.00     0.188 C 
BRANCH  35  36
ATOM     36  C   UNL     1      -3.682   0.225   3.565  1.00  0.00     0.188 C 
BRANCH  36  37
ATOM     37  O   UNL     1      -4.601   1.179   3.035  1.00  0.00    -0.376 OA
BRANCH  37  38
ATOM     38  C   UNL     1      -4.535   2.452   3.624  1.00  0.00     0.202 C 
BRANCH  38  39
ATOM     39  C   UNL     1      -5.375   2.419   4.891  1.00  0.00     0.261 C 
BRANCH  39  40
ATOM     40  O   UNL     1      -6.700   1.943   4.542  1.00  0.00    -0.460 OA
BRANCH  40  41
ATOM     41  C   UNL     1      -6.969   0.661   4.953  1.00  0.00     0.338 C 
ATOM     42  O   UNL     1      -6.843   0.256   6.081  1.00  0.00    -0.246 OA
BRANCH  41  43
ATOM     43  C   UNL     1      -7.245  -0.193   3.756  1.00  0.00     0.060 A 
ATOM     44  C   UNL     1      -6.871  -1.522   3.722  1.00  0.00     0.016 A 
ATOM     45  C   UNL     1      -7.728   0.320   2.580  1.00  0.00     0.016 A 
ATOM     46  C   UNL     1      -6.577  -2.134   2.475  1.00  0.00     0.010 A 
ATOM     47  C   UNL     1      -7.483  -0.376   1.374  1.00  0.00     0.010 A 
ATOM     48  C   UNL     1      -6.518  -1.435   1.257  1.00  0.00    -0.014 A 
BRANCH  48  49
ATOM     49  C   UNL     1      -5.191  -1.720   0.008  1.00  0.00     0.031 A 
ATOM     50  C   UNL     1      -5.017  -1.013  -1.849  1.00  0.00     0.074 A 
ATOM     51  C   UNL     1      -4.397  -2.706   0.559  1.00  0.00     0.049 A 
ATOM     52  N   UNL     1      -5.283  -1.748  -2.966  1.00  0.00    -0.248 NA
ATOM     53  C   UNL     1      -5.234   0.410  -2.550  1.00  0.00     0.031 C 
ATOM     54  C   UNL     1      -3.136  -3.157   0.107  1.00  0.00     0.029 A 
ATOM     55  N   UNL     1      -4.631  -3.672   1.542  1.00  0.00    -0.354 N 
ATOM     56  C   UNL     1      -5.474  -1.151  -4.179  1.00  0.00     0.074 A 
ATOM     57  C   UNL     1      -5.651   0.202  -3.812  1.00  0.00     0.031 C 
ATOM     58  C   UNL     1      -2.967  -4.466   0.302  1.00  0.00     0.029 A 
ATOM     59  C   UNL     1      -4.047  -4.859   1.123  1.00  0.00     0.049 A 
ATOM     60  H   UNL     1      -5.123  -3.534   2.384  1.00  0.00     0.167 HD
ATOM     61  C   UNL     1      -5.405  -1.812  -5.385  1.00  0.00     0.034 A 
ATOM     62  C   UNL     1      -4.472  -6.119   1.277  1.00  0.00     0.034 A 
ATOM     63  C   UNL     1      -4.804  -3.168  -5.286  1.00  0.00     0.049 A 
ATOM     64  C   UNL     1      -4.571  -6.743  -0.115  1.00  0.00     0.074 A 
ATOM     65  C   UNL     1      -3.496  -3.589  -5.489  1.00  0.00     0.029 A 
ATOM     66  N   UNL     1      -5.435  -4.267  -4.686  1.00  0.00    -0.354 N 
ATOM     67  N   UNL     1      -4.696  -6.053  -1.243  1.00  0.00    -0.248 NA
ATOM     68  C   UNL     1      -4.369  -8.161  -0.368  1.00  0.00     0.031 C 
ATOM     69  C   UNL     1      -3.299  -4.815  -4.783  1.00  0.00     0.029 A 
ATOM     70  C   UNL     1      -4.510  -5.237  -4.241  1.00  0.00     0.049 A 
ATOM     71  H   UNL     1      -6.411  -4.353  -4.587  1.00  0.00     0.167 HD
ATOM     72  C   UNL     1      -4.655  -6.892  -2.343  1.00  0.00     0.074 A 
ATOM     73  C   UNL     1      -4.365  -8.185  -1.713  1.00  0.00     0.031 C 
ATOM     74  C   UNL     1      -4.875  -6.565  -3.678  1.00  0.00     0.034 A 
BRANCH  61  75
ATOM     75  C   UNL     1      -5.485  -0.976  -6.673  1.00  0.00     0.023 A 
ATOM     76  C   UNL     1      -4.595  -1.159  -7.753  1.00  0.00     0.031 A 
ATOM     77  C   UNL     1      -6.403   0.090  -6.832  1.00  0.00     0.131 A 
ATOM     78  C   UNL     1      -4.540  -0.230  -8.823  1.00  0.00     0.055 A 
ATOM     79  C   UNL     1      -6.290   1.059  -7.843  1.00  0.00     0.041 A 
ATOM     80  F   UNL     1      -7.452   0.225  -6.003  1.00  0.00    -0.206 F 
ATOM     81  C   UNL     1      -5.334   0.915  -8.833  1.00  0.00     0.022 A 
BRANCH  78  82
ATOM     82  S   UNL     1      -3.441  -0.535 -10.243  1.00  0.00     0.124 S 
ATOM     83  O   UNL     1      -2.122  -0.573  -9.624  1.00  0.00    -0.237 OA
ATOM     84  O   UNL     1      -3.952  -1.799 -10.762  1.00  0.00    -0.237 OA
ATOM     85  O   UNL     1      -3.676   0.619 -11.114  1.00  0.00    -0.744 OA
ENDBRANCH  78  82
ENDBRANCH  61  75
BRANCH  62  86
ATOM     86  C   UNL     1      -4.942  -6.296   2.692  1.00  0.00     0.023 A 
ATOM     87  C   UNL     1      -3.928  -5.960   3.652  1.00  0.00     0.031 A 
ATOM     88  C   UNL     1      -6.266  -6.028   3.070  1.00  0.00     0.131 A 
ATOM     89  C   UNL     1      -4.218  -5.106   4.735  1.00  0.00     0.055 A 
ATOM     90  C   UNL     1      -6.561  -5.298   4.243  1.00  0.00     0.041 A 
ATOM     91  F   UNL     1      -7.275  -6.283   2.227  1.00  0.00    -0.206 F 
ATOM     92  C   UNL     1      -5.535  -4.774   5.038  1.00  0.00     0.022 A 
BRANCH  89  93
ATOM     93  S   UNL     1      -2.876  -4.047   5.421  1.00  0.00     0.124 S 
ATOM     94  O   UNL     1      -2.527  -4.744   6.651  1.00  0.00    -0.237 OA
ATOM     95  O   UNL     1      -1.873  -4.066   4.360  1.00  0.00    -0.237 OA
ATOM     96  O   UNL     1      -3.540  -2.754   5.580  1.00  0.00    -0.744 OA
ENDBRANCH  89  93
ENDBRANCH  62  86
BRANCH  74  97
ATOM     97  C   UNL     1      -5.341  -7.607  -4.708  1.00  0.00     0.023 A 
ATOM     98  C   UNL     1      -5.700  -8.917  -4.368  1.00  0.00     0.031 A 
ATOM     99  C   UNL     1      -5.556  -7.277  -6.073  1.00  0.00     0.131 A 
ATOM    100  C   UNL     1      -6.133  -9.846  -5.328  1.00  0.00     0.055 A 
ATOM    101  C   UNL     1      -6.078  -8.173  -7.012  1.00  0.00     0.041 A 
ATOM    102  F   UNL     1      -5.312  -6.057  -6.570  1.00  0.00    -0.206 F 
ATOM    103  C   UNL     1      -6.355  -9.477  -6.647  1.00  0.00     0.022 A 
BRANCH 100 104
ATOM    104  S   UNL     1      -6.346 -11.561  -4.796  1.00  0.00     0.124 S 
ATOM    105  O   UNL     1      -4.977 -11.938  -4.452  1.00  0.00    -0.237 OA
ATOM    106  O   UNL     1      -7.263 -11.428  -3.668  1.00  0.00    -0.237 OA
ATOM    107  O   UNL     1      -6.899 -12.221  -5.975  1.00  0.00    -0.744 OA
ENDBRANCH 100 104
ENDBRANCH  74  97
ENDBRANCH  48  49
ENDBRANCH  41  43
ENDBRANCH  40  41
ENDBRANCH  39  40
ENDBRANCH  38  39
ENDBRANCH  37  38
ENDBRANCH  36  37
ENDBRANCH  35  36
ENDBRANCH   1  35
TORSDOF 26
