REMARK SMILES O=C(Cc1ccccc1C(=O)OCCOCCOCCOCCOC(=O)c1ccc(-c2c3nc(c(-c4cc(S(=O)(=O)[O-])ccc4F)c4ccc([nH]4)c(-c4cc(S(=O)(=O)[O-])ccc4F)c4nc(c(-c5cc(S(=O)(=O)[O-])ccc5F)c5ccc2[nH]5)C=C4)C=C3)cc1)Nc1cccc(OC[C@@H]2CCCO2)c1
REMARK SMILES IDX 16 1 15 2 14 3 13 4 12 5 10 6 11 7 9 8 4 9 5 10 6 11 8 12
REMARK SMILES IDX 7 13 3 14 2 15 1 16 90 17 91 19 92 20 103 21 93 22 95 23
REMARK SMILES IDX 94 24 96 25 97 26 98 27 99 28 102 29 100 30 101 31 17 32
REMARK SMILES IDX 18 33 19 34 20 35 21 36 22 37 23 38 24 39 25 40 26 41 27 42
REMARK SMILES IDX 28 43 89 44 29 45 88 46 30 47 31 48 32 49 82 50 33 51 87 52
REMARK SMILES IDX 81 53 83 54 34 55 86 56 80 57 79 58 35 60 67 61 47 62 66 63
REMARK SMILES IDX 48 64 51 65 65 66 84 67 49 68 50 69 64 71 85 72 52 73 36 74
REMARK SMILES IDX 37 75 45 76 38 77 44 78 46 79 43 80 39 81 40 82 41 83 42 84
REMARK SMILES IDX 68 85 69 86 77 87 70 88 76 89 78 90 75 91 71 92 72 93 73 94
REMARK SMILES IDX 74 95 53 96 54 97 62 98 55 99 61 100 63 101 60 102 56 103
REMARK SMILES IDX 57 104 58 105 59 106
REMARK H PARENT 90 18 83 59 51 70
REMARK Flexibility Score: inf
ROOT
ATOM      1  C   UNL     1       4.480   3.394   4.207  1.00  0.00     0.188 C 
ENDROOT
BRANCH   1   2
ATOM      2  O   UNL     1       4.572   4.677   3.614  1.00  0.00    -0.376 OA
BRANCH   2   3
ATOM      3  C   UNL     1       5.481   4.879   2.546  1.00  0.00     0.202 C 
BRANCH   3   4
ATOM      4  C   UNL     1       5.285   4.058   1.268  1.00  0.00     0.261 C 
BRANCH   4   5
ATOM      5  O   UNL     1       4.963   2.682   1.494  1.00  0.00    -0.460 OA
BRANCH   5   6
ATOM      6  C   UNL     1       5.967   1.814   1.721  1.00  0.00     0.338 C 
ATOM      7  O   UNL     1       7.157   2.076   1.761  1.00  0.00    -0.246 OA
BRANCH   6   8
ATOM      8  C   UNL     1       5.378   0.503   2.131  1.00  0.00     0.063 A 
ATOM      9  C   UNL     1       4.207  -0.055   1.567  1.00  0.00    -0.024 A 
ATOM     10  C   UNL     1       3.698  -1.244   2.127  1.00  0.00     0.005 A 
ATOM     11  C   UNL     1       4.340  -1.874   3.194  1.00  0.00     0.000 A 
ATOM     12  C   UNL     1       6.006  -0.135   3.215  1.00  0.00     0.016 A 
ATOM     13  C   UNL     1       5.487  -1.316   3.744  1.00  0.00     0.001 A 
BRANCH   9  14
ATOM     14  C   UNL     1       3.454   0.661   0.461  1.00  0.00     0.136 C 
BRANCH  14  15
ATOM     15  C   UNL     1       2.471  -0.176  -0.317  1.00  0.00     0.228 C 
ATOM     16  O   UNL     1       1.264   0.041  -0.243  1.00  0.00    -0.274 OA
ATOM     17  N   UNL     1       3.058  -1.202  -1.050  1.00  0.00    -0.326 N 
ATOM     18  H   UNL     1       4.020  -1.378  -0.934  1.00  0.00     0.169 HD
BRANCH  17  19
ATOM     19  C   UNL     1       2.326  -1.997  -1.948  1.00  0.00     0.044 A 
ATOM     20  C   UNL     1       2.638  -3.345  -2.091  1.00  0.00     0.026 A 
ATOM     21  C   UNL     1       1.262  -1.450  -2.665  1.00  0.00     0.072 A 
ATOM     22  C   UNL     1       1.809  -4.158  -2.867  1.00  0.00     0.006 A 
ATOM     23  C   UNL     1       0.403  -2.255  -3.406  1.00  0.00     0.121 A 
ATOM     24  C   UNL     1       0.685  -3.617  -3.504  1.00  0.00     0.046 A 
BRANCH  23  25
ATOM     25  O   UNL     1      -0.749  -1.825  -4.012  1.00  0.00    -0.491 OA
BRANCH  25  26
ATOM     26  C   UNL     1      -1.017  -0.412  -3.981  1.00  0.00     0.261 C 
BRANCH  26  27
ATOM     27  C   UNL     1      -1.518   0.086  -2.619  1.00  0.00     0.156 C 
ATOM     28  C   UNL     1      -2.979  -0.197  -2.325  1.00  0.00     0.038 C 
ATOM     29  O   UNL     1      -1.374   1.514  -2.530  1.00  0.00    -0.375 OA
ATOM     30  C   UNL     1      -3.254   0.832  -1.252  1.00  0.00     0.031 C 
ATOM     31  C   UNL     1      -2.450   2.027  -1.732  1.00  0.00     0.161 C 
ENDBRANCH  26  27
ENDBRANCH  25  26
ENDBRANCH  23  25
ENDBRANCH  17  19
ENDBRANCH  14  15
ENDBRANCH   9  14
ENDBRANCH   6   8
ENDBRANCH   5   6
ENDBRANCH   4   5
ENDBRANCH   3   4
ENDBRANCH   2   3
ENDBRANCH   1   2
BRANCH   1  32
ATOM     32  C   UNL     1       3.141   2.664   3.959  1.00  0.00     0.188 C 
BRANCH  32  33
ATOM     33  O   UNL     1       2.187   3.187   3.046  1.00  0.00    -0.377 OA
BRANCH  33  34
ATOM     34  C   UNL     1       1.956   4.591   2.981  1.00  0.00     0.188 C 
BRANCH  34  35
ATOM     35  C   UNL     1       2.017   5.452   4.263  1.00  0.00     0.188 C 
BRANCH  35  36
ATOM     36  O   UNL     1       2.242   4.714   5.455  1.00  0.00    -0.376 OA
BRANCH  36  37
ATOM     37  C   UNL     1       1.132   4.530   6.316  1.00  0.00     0.202 C 
BRANCH  37  38
ATOM     38  C   UNL     1      -0.074   3.759   5.760  1.00  0.00     0.261 C 
BRANCH  38  39
ATOM     39  O   UNL     1      -0.649   4.258   4.544  1.00  0.00    -0.460 OA
BRANCH  39  40
ATOM     40  C   UNL     1      -1.214   5.486   4.569  1.00  0.00     0.338 C 
ATOM     41  O   UNL     1      -1.292   6.237   5.526  1.00  0.00    -0.246 OA
BRANCH  40  42
ATOM     42  C   UNL     1      -1.555   5.832   3.173  1.00  0.00     0.060 A 
ATOM     43  C   UNL     1      -0.921   6.916   2.551  1.00  0.00     0.016 A 
ATOM     44  C   UNL     1      -2.472   5.049   2.468  1.00  0.00     0.016 A 
ATOM     45  C   UNL     1      -1.212   7.224   1.220  1.00  0.00     0.010 A 
ATOM     46  C   UNL     1      -2.780   5.375   1.145  1.00  0.00     0.010 A 
ATOM     47  C   UNL     1      -2.166   6.475   0.520  1.00  0.00    -0.014 A 
BRANCH  47  48
ATOM     48  C   UNL     1      -2.666   6.935  -0.799  1.00  0.00     0.031 A 
ATOM     49  C   UNL     1      -3.952   7.713  -0.839  1.00  0.00     0.074 A 
ATOM     50  C   UNL     1      -2.004   6.661  -1.937  1.00  0.00     0.049 A 
ATOM     51  N   UNL     1      -4.647   8.124  -1.866  1.00  0.00    -0.248 NA
ATOM     52  C   UNL     1      -4.534   8.062   0.466  1.00  0.00     0.031 C 
ATOM     53  C   UNL     1      -0.724   5.962  -2.021  1.00  0.00     0.029 A 
ATOM     54  N   UNL     1      -2.329   6.930  -3.244  1.00  0.00    -0.354 N 
ATOM     55  C   UNL     1      -5.754   8.777  -1.334  1.00  0.00     0.074 A 
ATOM     56  C   UNL     1      -5.654   8.668   0.106  1.00  0.00     0.031 C 
ATOM     57  C   UNL     1      -0.376   5.848  -3.316  1.00  0.00     0.029 A 
ATOM     58  C   UNL     1      -1.431   6.420  -4.152  1.00  0.00     0.049 A 
ATOM     59  H   UNL     1      -3.130   7.439  -3.506  1.00  0.00     0.167 HD
ATOM     60  C   UNL     1      -6.757   9.412  -1.988  1.00  0.00     0.034 A 
ATOM     61  C   UNL     1      -1.476   6.388  -5.500  1.00  0.00     0.034 A 
ATOM     62  C   UNL     1      -6.853   9.487  -3.425  1.00  0.00     0.049 A 
ATOM     63  C   UNL     1      -2.666   6.995  -6.209  1.00  0.00     0.074 A 
ATOM     64  C   UNL     1      -7.824  10.106  -4.193  1.00  0.00     0.029 A 
ATOM     65  N   UNL     1      -5.955   8.908  -4.314  1.00  0.00    -0.354 N 
ATOM     66  N   UNL     1      -3.710   7.609  -5.700  1.00  0.00    -0.248 NA
ATOM     67  C   UNL     1      -2.683   6.902  -7.676  1.00  0.00     0.031 C 
ATOM     68  C   UNL     1      -7.561   9.830  -5.539  1.00  0.00     0.029 A 
ATOM     69  C   UNL     1      -6.373   9.119  -5.620  1.00  0.00     0.049 A 
ATOM     70  H   UNL     1      -5.141   8.419  -4.055  1.00  0.00     0.167 HD
ATOM     71  C   UNL     1      -4.489   8.002  -6.787  1.00  0.00     0.074 A 
ATOM     72  C   UNL     1      -3.789   7.567  -7.978  1.00  0.00     0.031 C 
ATOM     73  C   UNL     1      -5.672   8.669  -6.801  1.00  0.00     0.034 A 
BRANCH  60  74
ATOM     74  C   UNL     1      -7.855  10.017  -1.145  1.00  0.00     0.023 A 
ATOM     75  C   UNL     1      -7.598  11.048  -0.224  1.00  0.00     0.031 A 
ATOM     76  C   UNL     1      -9.169   9.522  -1.228  1.00  0.00     0.131 A 
ATOM     77  C   UNL     1      -8.617  11.491   0.633  1.00  0.00     0.055 A 
ATOM     78  C   UNL     1     -10.199  10.030  -0.435  1.00  0.00     0.041 A 
ATOM     79  F   UNL     1      -9.470   8.520  -2.069  1.00  0.00    -0.206 F 
ATOM     80  C   UNL     1      -9.922  11.009   0.515  1.00  0.00     0.022 A 
BRANCH  77  81
ATOM     81  S   UNL     1      -8.172  12.580   2.013  1.00  0.00     0.124 S 
ATOM     82  O   UNL     1      -7.167  11.780   2.709  1.00  0.00    -0.237 OA
ATOM     83  O   UNL     1      -7.681  13.771   1.330  1.00  0.00    -0.237 OA
ATOM     84  O   UNL     1      -9.431  12.749   2.736  1.00  0.00    -0.744 OA
ENDBRANCH  77  81
ENDBRANCH  60  74
BRANCH  61  85
ATOM     85  C   UNL     1      -0.391   5.723  -6.281  1.00  0.00     0.023 A 
ATOM     86  C   UNL     1       0.402   6.448  -7.184  1.00  0.00     0.031 A 
ATOM     87  C   UNL     1      -0.171   4.337  -6.178  1.00  0.00     0.131 A 
ATOM     88  C   UNL     1       1.349   5.781  -7.978  1.00  0.00     0.055 A 
ATOM     89  C   UNL     1       0.814   3.688  -6.925  1.00  0.00     0.041 A 
ATOM     90  F   UNL     1      -0.913   3.591  -5.345  1.00  0.00    -0.206 F 
ATOM     91  C   UNL     1       1.573   4.409  -7.841  1.00  0.00     0.022 A 
BRANCH  88  92
ATOM     92  S   UNL     1       2.223   6.719  -9.262  1.00  0.00     0.124 S 
ATOM     93  O   UNL     1       1.117   7.198 -10.084  1.00  0.00    -0.237 OA
ATOM     94  O   UNL     1       2.923   7.730  -8.476  1.00  0.00    -0.237 OA
ATOM     95  O   UNL     1       3.081   5.718  -9.891  1.00  0.00    -0.744 OA
ENDBRANCH  88  92
ENDBRANCH  61  85
BRANCH  73  96
ATOM     96  C   UNL     1      -6.261   9.015  -8.149  1.00  0.00     0.023 A 
ATOM     97  C   UNL     1      -6.726   8.027  -9.035  1.00  0.00     0.031 A 
ATOM     98  C   UNL     1      -6.367  10.361  -8.548  1.00  0.00     0.131 A 
ATOM     99  C   UNL     1      -7.230   8.396 -10.293  1.00  0.00     0.055 A 
ATOM    100  C   UNL     1      -6.928  10.725  -9.772  1.00  0.00     0.041 A 
ATOM    101  F   UNL     1      -5.935  11.347  -7.745  1.00  0.00    -0.206 F 
ATOM    102  C   UNL     1      -7.353   9.739 -10.658  1.00  0.00     0.022 A 
BRANCH  99 103
ATOM    103  S   UNL     1      -7.646   7.093 -11.485  1.00  0.00     0.124 S 
ATOM    104  O   UNL     1      -6.370   6.401 -11.634  1.00  0.00    -0.237 OA
ATOM    105  O   UNL     1      -8.695   6.355 -10.789  1.00  0.00    -0.237 OA
ATOM    106  O   UNL     1      -8.089   7.835 -12.664  1.00  0.00    -0.744 OA
ENDBRANCH  99 103
ENDBRANCH  73  96
ENDBRANCH  47  48
ENDBRANCH  40  42
ENDBRANCH  39  40
ENDBRANCH  38  39
ENDBRANCH  37  38
ENDBRANCH  36  37
ENDBRANCH  35  36
ENDBRANCH  34  35
ENDBRANCH  33  34
ENDBRANCH  32  33
ENDBRANCH   1  32
TORSDOF 29
