REMARK SMILES COc1ncccc1NS(=O)(=O)c1ccc(Br)c(C(=O)OCCOCCOCCOCCOC(=O)c2ccc(-c3c4nc(c(-c5cc(S(=O)(=O)[O-])ccc5F)c5ccc([nH]5)c(-c5cc(S(=O)(=O)[O-])ccc5F)c5nc(c(-c6cc(S(=O)(=O)[O-])ccc6F)c6ccc3[nH]6)C=C5)C=C4)cc2)c1
REMARK SMILES IDX 26 1 25 2 24 3 23 4 22 5 21 6 19 7 20 8 18 9 13 10 14 11
REMARK SMILES IDX 99 12 15 13 16 14 17 15 10 16 11 17 12 18 9 19 8 21 3 22
REMARK SMILES IDX 4 23 5 24 7 25 6 26 2 27 1 28 27 29 28 30 29 31 30 32 31 33
REMARK SMILES IDX 32 34 33 35 34 36 35 37 36 38 37 39 98 40 38 41 97 42 39 43
REMARK SMILES IDX 40 44 41 45 91 46 42 47 96 48 90 49 92 50 43 51 95 52 89 53
REMARK SMILES IDX 88 54 44 56 76 57 56 58 75 59 57 60 60 61 74 62 93 63 58 64
REMARK SMILES IDX 59 65 73 67 94 68 61 69 45 70 46 71 54 72 47 73 53 74 55 75
REMARK SMILES IDX 52 76 48 77 49 78 50 79 51 80 77 81 78 82 86 83 79 84 85 85
REMARK SMILES IDX 87 86 84 87 80 88 81 89 82 90 83 91 62 92 63 93 71 94 64 95
REMARK SMILES IDX 70 96 72 97 69 98 65 99 66 100 67 101 68 102
REMARK H PARENT 9 20 92 55 60 66
REMARK Flexibility Score: inf
ROOT
ATOM      1  C   UNL     1      -1.771   3.816   0.835  1.00  0.00     0.188 C 
ENDROOT
BRANCH   1   2
ATOM      2  C   UNL     1      -1.091   5.061   0.203  1.00  0.00     0.188 C 
BRANCH   2   3
ATOM      3  O   UNL     1      -1.954   6.125  -0.147  1.00  0.00    -0.376 OA
BRANCH   3   4
ATOM      4  C   UNL     1      -2.297   6.387  -1.492  1.00  0.00     0.202 C 
BRANCH   4   5
ATOM      5  C   UNL     1      -2.945   5.271  -2.314  1.00  0.00     0.261 C 
BRANCH   5   6
ATOM      6  O   UNL     1      -2.367   3.980  -2.112  1.00  0.00    -0.460 OA
BRANCH   6   7
ATOM      7  C   UNL     1      -1.235   3.701  -2.785  1.00  0.00     0.339 C 
ATOM      8  O   UNL     1      -0.615   4.454  -3.516  1.00  0.00    -0.246 OA
BRANCH   7   9
ATOM      9  C   UNL     1      -0.719   2.394  -2.324  1.00  0.00     0.075 A 
ATOM     10  C   UNL     1       1.184   1.167  -1.448  1.00  0.00     0.088 A 
ATOM     11  C   UNL     1       0.450  -0.021  -1.574  1.00  0.00     0.023 A 
ATOM     12  C   UNL     1       0.620   2.368  -1.879  1.00  0.00     0.039 A 
ATOM     13  C   UNL     1      -0.894   0.014  -1.945  1.00  0.00     0.018 A 
ATOM     14  C   UNL     1      -1.492   1.223  -2.307  1.00  0.00     0.032 A 
ATOM     15  Br  UNL     1      -3.327   1.147  -2.789  1.00  0.00    -0.050 Br
BRANCH  10  16
ATOM     16  S   UNL     1       2.888   1.090  -0.972  1.00  0.00     0.262 S 
ATOM     17  O   UNL     1       3.609   1.983  -1.856  1.00  0.00    -0.201 OA
ATOM     18  O   UNL     1       3.263  -0.312  -0.929  1.00  0.00    -0.201 OA
BRANCH  16  19
ATOM     19  N   UNL     1       3.200   1.631   0.592  1.00  0.00    -0.274 N 
ATOM     20  H   UNL     1       4.149   1.778   0.810  1.00  0.00     0.180 HD
BRANCH  19  21
ATOM     21  C   UNL     1       2.270   1.909   1.652  1.00  0.00     0.111 A 
ATOM     22  C   UNL     1       1.095   1.230   1.965  1.00  0.00     0.238 A 
ATOM     23  N   UNL     1       0.352   1.435   3.080  1.00  0.00    -0.220 NA
ATOM     24  C   UNL     1       0.841   2.296   3.992  1.00  0.00     0.115 A 
ATOM     25  C   UNL     1       2.779   2.720   2.675  1.00  0.00     0.034 A 
ATOM     26  C   UNL     1       2.062   2.926   3.854  1.00  0.00     0.023 A 
BRANCH  22  27
ATOM     27  O   UNL     1       0.651   0.225   1.161  1.00  0.00    -0.480 OA
ATOM     28  C   UNL     1       1.000  -1.036   1.719  1.00  0.00     0.280 C 
ENDBRANCH  22  27
ENDBRANCH  19  21
ENDBRANCH  16  19
ENDBRANCH  10  16
ENDBRANCH   7   9
ENDBRANCH   6   7
ENDBRANCH   5   6
ENDBRANCH   4   5
ENDBRANCH   3   4
ENDBRANCH   2   3
ENDBRANCH   1   2
BRANCH   1  29
ATOM     29  O   UNL     1      -3.057   3.832   1.448  1.00  0.00    -0.377 OA
BRANCH  29  30
ATOM     30  C   UNL     1      -3.861   4.996   1.358  1.00  0.00     0.188 C 
BRANCH  30  31
ATOM     31  C   UNL     1      -3.346   6.197   2.173  1.00  0.00     0.188 C 
BRANCH  31  32
ATOM     32  O   UNL     1      -2.020   6.016   2.653  1.00  0.00    -0.376 OA
BRANCH  32  33
ATOM     33  C   UNL     1      -1.842   5.573   3.986  1.00  0.00     0.202 C 
BRANCH  33  34
ATOM     34  C   UNL     1      -2.581   4.329   4.506  1.00  0.00     0.261 C 
BRANCH  34  35
ATOM     35  O   UNL     1      -3.992   4.253   4.278  1.00  0.00    -0.460 OA
BRANCH  35  36
ATOM     36  C   UNL     1      -4.785   5.177   4.856  1.00  0.00     0.338 C 
ATOM     37  O   UNL     1      -4.438   6.099   5.577  1.00  0.00    -0.246 OA
BRANCH  36  38
ATOM     38  C   UNL     1      -6.131   4.982   4.280  1.00  0.00     0.060 A 
ATOM     39  C   UNL     1      -6.721   6.011   3.533  1.00  0.00     0.016 A 
ATOM     40  C   UNL     1      -6.777   3.752   4.432  1.00  0.00     0.016 A 
ATOM     41  C   UNL     1      -7.975   5.817   2.955  1.00  0.00     0.010 A 
ATOM     42  C   UNL     1      -8.041   3.568   3.873  1.00  0.00     0.010 A 
ATOM     43  C   UNL     1      -8.658   4.611   3.159  1.00  0.00    -0.014 A 
BRANCH  43  44
ATOM     44  C   UNL     1     -10.097   4.517   2.824  1.00  0.00     0.031 A 
ATOM     45  C   UNL     1     -11.089   4.730   3.933  1.00  0.00     0.074 A 
ATOM     46  C   UNL     1     -10.511   4.264   1.571  1.00  0.00     0.049 A 
ATOM     47  N   UNL     1     -12.393   4.648   3.914  1.00  0.00    -0.248 NA
ATOM     48  C   UNL     1     -10.524   5.075   5.247  1.00  0.00     0.031 C 
ATOM     49  C   UNL     1      -9.637   4.089   0.413  1.00  0.00     0.029 A 
ATOM     50  N   UNL     1     -11.777   4.107   1.067  1.00  0.00    -0.354 N 
ATOM     51  C   UNL     1     -12.805   4.923   5.214  1.00  0.00     0.074 A 
ATOM     52  C   UNL     1     -11.608   5.127   6.002  1.00  0.00     0.031 C 
ATOM     53  C   UNL     1     -10.396   3.845  -0.670  1.00  0.00     0.029 A 
ATOM     54  C   UNL     1     -11.803   3.803  -0.273  1.00  0.00     0.049 A 
ATOM     55  H   UNL     1     -12.590   4.204   1.613  1.00  0.00     0.167 HD
ATOM     56  C   UNL     1     -14.067   5.009   5.701  1.00  0.00     0.034 A 
ATOM     57  C   UNL     1     -12.844   3.499  -1.075  1.00  0.00     0.034 A 
ATOM     58  C   UNL     1     -15.242   4.777   4.898  1.00  0.00     0.049 A 
ATOM     59  C   UNL     1     -14.237   3.495  -0.489  1.00  0.00     0.074 A 
ATOM     60  C   UNL     1     -16.571   4.844   5.277  1.00  0.00     0.029 A 
ATOM     61  N   UNL     1     -15.230   4.413   3.557  1.00  0.00    -0.354 N 
ATOM     62  N   UNL     1     -14.621   3.767   0.738  1.00  0.00    -0.248 NA
ATOM     63  C   UNL     1     -15.336   3.149  -1.399  1.00  0.00     0.031 C 
ATOM     64  C   UNL     1     -17.355   4.434   4.193  1.00  0.00     0.029 A 
ATOM     65  C   UNL     1     -16.525   4.208   3.105  1.00  0.00     0.049 A 
ATOM     66  H   UNL     1     -14.419   4.314   3.007  1.00  0.00     0.167 HD
ATOM     67  C   UNL     1     -16.011   3.659   0.736  1.00  0.00     0.074 A 
ATOM     68  C   UNL     1     -16.394   3.308  -0.617  1.00  0.00     0.031 C 
ATOM     69  C   UNL     1     -16.891   3.843   1.755  1.00  0.00     0.034 A 
BRANCH  56  70
ATOM     70  C   UNL     1     -14.219   5.297   7.176  1.00  0.00     0.023 A 
ATOM     71  C   UNL     1     -13.733   6.484   7.755  1.00  0.00     0.031 A 
ATOM     72  C   UNL     1     -14.802   4.343   8.029  1.00  0.00     0.131 A 
ATOM     73  C   UNL     1     -13.754   6.643   9.149  1.00  0.00     0.055 A 
ATOM     74  C   UNL     1     -14.907   4.551   9.405  1.00  0.00     0.041 A 
ATOM     75  F   UNL     1     -15.258   3.178   7.542  1.00  0.00    -0.206 F 
ATOM     76  C   UNL     1     -14.364   5.698   9.976  1.00  0.00     0.022 A 
BRANCH  73  77
ATOM     77  S   UNL     1     -12.812   8.012   9.878  1.00  0.00     0.124 S 
ATOM     78  O   UNL     1     -11.470   7.757   9.357  1.00  0.00    -0.237 OA
ATOM     79  O   UNL     1     -13.493   9.185   9.342  1.00  0.00    -0.237 OA
ATOM     80  O   UNL     1     -12.962   7.804  11.317  1.00  0.00    -0.744 OA
ENDBRANCH  73  77
ENDBRANCH  56  70
BRANCH  57  81
ATOM     81  C   UNL     1     -12.615   3.144  -2.506  1.00  0.00     0.023 A 
ATOM     82  C   UNL     1     -13.138   3.933  -3.542  1.00  0.00     0.031 A 
ATOM     83  C   UNL     1     -11.900   1.984  -2.857  1.00  0.00     0.131 A 
ATOM     84  C   UNL     1     -12.971   3.534  -4.878  1.00  0.00     0.055 A 
ATOM     85  C   UNL     1     -11.688   1.622  -4.189  1.00  0.00     0.041 A 
ATOM     86  F   UNL     1     -11.384   1.190  -1.906  1.00  0.00    -0.206 F 
ATOM     87  C   UNL     1     -12.235   2.393  -5.209  1.00  0.00     0.022 A 
BRANCH  84  88
ATOM     88  S   UNL     1     -13.799   4.487  -6.181  1.00  0.00     0.124 S 
ATOM     89  O   UNL     1     -15.199   4.369  -5.789  1.00  0.00    -0.237 OA
ATOM     90  O   UNL     1     -13.197   5.806  -6.020  1.00  0.00    -0.237 OA
ATOM     91  O   UNL     1     -13.431   3.781  -7.406  1.00  0.00    -0.744 OA
ENDBRANCH  84  88
ENDBRANCH  57  81
BRANCH  69  92
ATOM     92  C   UNL     1     -18.361   3.717   1.430  1.00  0.00     0.023 A 
ATOM     93  C   UNL     1     -18.934   2.499   1.025  1.00  0.00     0.031 A 
ATOM     94  C   UNL     1     -19.203   4.841   1.527  1.00  0.00     0.131 A 
ATOM     95  C   UNL     1     -20.293   2.447   0.675  1.00  0.00     0.055 A 
ATOM     96  C   UNL     1     -20.568   4.766   1.248  1.00  0.00     0.041 A 
ATOM     97  F   UNL     1     -18.712   6.033   1.903  1.00  0.00    -0.206 F 
ATOM     98  C   UNL     1     -21.118   3.567   0.805  1.00  0.00     0.022 A 
BRANCH  95  99
ATOM     99  S   UNL     1     -20.946   0.921  -0.056  1.00  0.00     0.124 S 
ATOM    100  O   UNL     1     -20.086   0.752  -1.223  1.00  0.00    -0.237 OA
ATOM    101  O   UNL     1     -20.759  -0.047   1.019  1.00  0.00    -0.237 OA
ATOM    102  O   UNL     1     -22.338   1.253  -0.356  1.00  0.00    -0.744 OA
ENDBRANCH  95  99
ENDBRANCH  69  92
ENDBRANCH  43  44
ENDBRANCH  36  38
ENDBRANCH  35  36
ENDBRANCH  34  35
ENDBRANCH  33  34
ENDBRANCH  32  33
ENDBRANCH  31  32
ENDBRANCH  30  31
ENDBRANCH  29  30
ENDBRANCH   1  29
TORSDOF 27
