REMARK SMILES C[N@H+]1[C@H](C(=O)OCCOCCOCCOCCOC(=O)c2ccc(-c3c4nc(c(-c5cc(S(=O)(=O)[O-])ccc5F)c5ccc([nH]5)c(-c5cc(S(=O)(=O)[O-])ccc5F)c5nc(c(-c6cc(S(=O)(=O)[O-])ccc6F)c6ccc3[nH]6)C=C5)C=C4)cc2)C[C@H](C(=O)NCC2(CO)CCCC2)[C@@H]1c1ccccc1F
REMARK SMILES IDX 11 1 10 2 9 3 8 4 7 5 6 6 4 7 5 8 3 9 1 10 2 11 97 12 84 14
REMARK SMILES IDX 85 15 98 16 99 17 103 18 100 19 102 20 104 21 101 22 86 23
REMARK SMILES IDX 87 24 88 25 89 27 90 28 93 29 96 30 94 31 95 32 91 33 92 34
REMARK SMILES IDX 12 36 13 37 14 38 15 39 16 40 17 41 18 42 19 43 20 44 21 45
REMARK SMILES IDX 22 46 83 47 23 48 82 49 24 50 25 51 26 52 76 53 27 54 81 55
REMARK SMILES IDX 75 56 77 57 28 58 80 59 74 60 73 61 29 63 61 64 41 65 60 66
REMARK SMILES IDX 42 67 45 68 59 69 78 70 43 71 44 72 58 74 79 75 46 76 30 77
REMARK SMILES IDX 31 78 39 79 32 80 38 81 40 82 37 83 33 84 34 85 35 86 36 87
REMARK SMILES IDX 62 88 63 89 71 90 64 91 70 92 72 93 69 94 65 95 66 96 67 97
REMARK SMILES IDX 68 98 47 99 48 100 56 101 49 102 55 103 57 104 54 105 50 106
REMARK SMILES IDX 51 107 52 108 53 109
REMARK H PARENT 2 13 88 26 92 35 77 62 45 73
REMARK Flexibility Score: inf
ROOT
ATOM      1  C   UNL     1      -2.431   2.438  -1.355  1.00  0.00     0.188 C 
ENDROOT
BRANCH   1   2
ATOM      2  C   UNL     1      -2.337   3.536  -0.268  1.00  0.00     0.188 C 
BRANCH   2   3
ATOM      3  O   UNL     1      -1.500   4.686  -0.423  1.00  0.00    -0.376 OA
BRANCH   3   4
ATOM      4  C   UNL     1      -0.742   4.836  -1.610  1.00  0.00     0.202 C 
BRANCH   4   5
ATOM      5  C   UNL     1       0.499   3.937  -1.717  1.00  0.00     0.261 C 
BRANCH   5   6
ATOM      6  O   UNL     1       0.378   2.607  -1.174  1.00  0.00    -0.459 OA
BRANCH   6   7
ATOM      7  C   UNL     1       0.468   2.483   0.178  1.00  0.00     0.365 C 
ATOM      8  O   UNL     1       0.706   3.415   0.944  1.00  0.00    -0.245 OA
BRANCH   7   9
ATOM      9  C   UNL     1       0.493   1.032   0.678  1.00  0.00     0.296 C 
ATOM     10  C   UNL     1      -1.660  -0.109   0.868  1.00  0.00     0.333 C 
ATOM     11  N   UNL     1      -0.418   0.003   0.094  1.00  0.00    -0.319 N 
ATOM     12  C   UNL     1       0.362  -1.266   0.180  1.00  0.00     0.231 C 
ATOM     13  H   UNL     1      -0.698   0.235  -0.859  1.00  0.00     0.349 HD
ATOM     14  C   UNL     1       1.890   0.557   0.344  1.00  0.00     0.097 C 
ATOM     15  C   UNL     1       1.789  -0.854  -0.223  1.00  0.00     0.148 C 
BRANCH  12  16
ATOM     16  C   UNL     1      -0.124  -2.552  -0.458  1.00  0.00     0.046 A 
ATOM     17  C   UNL     1       0.525  -3.749  -0.073  1.00  0.00     0.013 A 
ATOM     18  C   UNL     1      -1.074  -2.637  -1.479  1.00  0.00     0.132 A 
ATOM     19  C   UNL     1       0.271  -4.960  -0.721  1.00  0.00     0.001 A 
ATOM     20  C   UNL     1      -1.333  -3.848  -2.129  1.00  0.00     0.040 A 
ATOM     21  F   UNL     1      -1.754  -1.556  -1.884  1.00  0.00    -0.206 F 
ATOM     22  C   UNL     1      -0.650  -5.007  -1.762  1.00  0.00     0.003 A 
ENDBRANCH  12  16
BRANCH  15  23
ATOM     23  C   UNL     1       2.156  -0.941  -1.716  1.00  0.00     0.229 C 
ATOM     24  O   UNL     1       1.488  -1.537  -2.557  1.00  0.00    -0.275 OA
ATOM     25  N   UNL     1       3.365  -0.454  -2.134  1.00  0.00    -0.355 N 
ATOM     26  H   UNL     1       3.581  -0.633  -3.078  1.00  0.00     0.163 HD
BRANCH  25  27
ATOM     27  C   UNL     1       4.376   0.281  -1.405  1.00  0.00     0.125 C 
BRANCH  27  28
ATOM     28  C   UNL     1       5.750  -0.386  -1.338  1.00  0.00     0.011 C 
ATOM     29  C   UNL     1       6.457   0.064  -0.042  1.00  0.00     0.011 C 
ATOM     30  C   UNL     1       5.668  -1.904  -1.117  1.00  0.00     0.011 C 
ATOM     31  C   UNL     1       7.499  -1.006   0.237  1.00  0.00     0.001 C 
ATOM     32  C   UNL     1       6.975  -2.280  -0.423  1.00  0.00     0.001 C 
BRANCH  28  33
ATOM     33  C   UNL     1       6.574  -0.003  -2.579  1.00  0.00     0.164 C 
BRANCH  33  34
ATOM     34  O   UNL     1       5.893  -0.345  -3.778  1.00  0.00    -0.396 OA
ATOM     35  H   UNL     1       5.745  -1.303  -3.804  1.00  0.00     0.210 HD
ENDBRANCH  33  34
ENDBRANCH  28  33
ENDBRANCH  27  28
ENDBRANCH  25  27
ENDBRANCH  15  23
ENDBRANCH   7   9
ENDBRANCH   6   7
ENDBRANCH   5   6
ENDBRANCH   4   5
ENDBRANCH   3   4
ENDBRANCH   2   3
ENDBRANCH   1   2
BRANCH   1  36
ATOM     36  O   UNL     1      -2.379   2.951  -2.674  1.00  0.00    -0.377 OA
BRANCH  36  37
ATOM     37  C   UNL     1      -3.619   2.970  -3.352  1.00  0.00     0.188 C 
BRANCH  37  38
ATOM     38  C   UNL     1      -4.714   3.767  -2.629  1.00  0.00     0.188 C 
BRANCH  38  39
ATOM     39  O   UNL     1      -4.999   3.251  -1.332  1.00  0.00    -0.376 OA
BRANCH  39  40
ATOM     40  C   UNL     1      -6.129   2.421  -1.136  1.00  0.00     0.202 C 
BRANCH  40  41
ATOM     41  C   UNL     1      -6.110   1.004  -1.732  1.00  0.00     0.261 C 
BRANCH  41  42
ATOM     42  O   UNL     1      -5.818   0.876  -3.128  1.00  0.00    -0.460 OA
BRANCH  42  43
ATOM     43  C   UNL     1      -6.607   1.535  -4.012  1.00  0.00     0.338 C 
ATOM     44  O   UNL     1      -7.580   2.200  -3.758  1.00  0.00    -0.246 OA
BRANCH  43  45
ATOM     45  C   UNL     1      -5.919   1.469  -5.328  1.00  0.00     0.060 A 
ATOM     46  C   UNL     1      -5.592   2.664  -5.982  1.00  0.00     0.016 A 
ATOM     47  C   UNL     1      -5.545   0.240  -5.878  1.00  0.00     0.016 A 
ATOM     48  C   UNL     1      -4.900   2.633  -7.194  1.00  0.00     0.010 A 
ATOM     49  C   UNL     1      -4.888   0.208  -7.111  1.00  0.00     0.010 A 
ATOM     50  C   UNL     1      -4.587   1.404  -7.787  1.00  0.00    -0.014 A 
BRANCH  50  51
ATOM     51  C   UNL     1      -4.173   1.361  -9.211  1.00  0.00     0.031 A 
ATOM     52  C   UNL     1      -5.251   1.157 -10.241  1.00  0.00     0.074 A 
ATOM     53  C   UNL     1      -2.890   1.509  -9.585  1.00  0.00     0.049 A 
ATOM     54  N   UNL     1      -5.152   1.008 -11.535  1.00  0.00    -0.248 NA
ATOM     55  C   UNL     1      -6.631   1.112  -9.731  1.00  0.00     0.031 C 
ATOM     56  C   UNL     1      -1.770   1.769  -8.683  1.00  0.00     0.029 A 
ATOM     57  N   UNL     1      -2.313   1.452 -10.830  1.00  0.00    -0.354 N 
ATOM     58  C   UNL     1      -6.455   0.846 -11.994  1.00  0.00     0.074 A 
ATOM     59  C   UNL     1      -7.320   0.879 -10.836  1.00  0.00     0.031 C 
ATOM     60  C   UNL     1      -0.636   1.833  -9.405  1.00  0.00     0.029 A 
ATOM     61  C   UNL     1      -0.943   1.576 -10.812  1.00  0.00     0.049 A 
ATOM     62  H   UNL     1      -2.832   1.335 -11.659  1.00  0.00     0.167 HD
ATOM     63  C   UNL     1      -6.889   0.688 -13.268  1.00  0.00     0.034 A 
ATOM     64  C   UNL     1      -0.044   1.459 -11.812  1.00  0.00     0.034 A 
ATOM     65  C   UNL     1      -6.008   0.632 -14.408  1.00  0.00     0.049 A 
ATOM     66  C   UNL     1      -0.542   1.171 -13.211  1.00  0.00     0.074 A 
ATOM     67  C   UNL     1      -6.335   0.479 -15.743  1.00  0.00     0.029 A 
ATOM     68  N   UNL     1      -4.622   0.706 -14.344  1.00  0.00    -0.354 N 
ATOM     69  N   UNL     1      -1.776   1.025 -13.639  1.00  0.00    -0.248 NA
ATOM     70  C   UNL     1       0.475   1.035 -14.264  1.00  0.00     0.031 C 
ATOM     71  C   UNL     1      -5.148   0.378 -16.475  1.00  0.00     0.029 A 
ATOM     72  C   UNL     1      -4.079   0.562 -15.612  1.00  0.00     0.049 A 
ATOM     73  H   UNL     1      -4.101   0.842 -13.520  1.00  0.00     0.167 HD
ATOM     74  C   UNL     1      -1.682   0.816 -15.014  1.00  0.00     0.074 A 
ATOM     75  C   UNL     1      -0.273   0.867 -15.345  1.00  0.00     0.031 C 
ATOM     76  C   UNL     1      -2.669   0.609 -15.924  1.00  0.00     0.034 A 
BRANCH  63  77
ATOM     77  C   UNL     1      -8.372   0.502 -13.475  1.00  0.00     0.023 A 
ATOM     78  C   UNL     1      -9.299   1.507 -13.146  1.00  0.00     0.031 A 
ATOM     79  C   UNL     1      -8.870  -0.715 -13.973  1.00  0.00     0.131 A 
ATOM     80  C   UNL     1     -10.675   1.250 -13.249  1.00  0.00     0.055 A 
ATOM     81  C   UNL     1     -10.236  -0.933 -14.154  1.00  0.00     0.041 A 
ATOM     82  F   UNL     1      -8.035  -1.721 -14.278  1.00  0.00    -0.206 F 
ATOM     83  C   UNL     1     -11.149   0.047 -13.777  1.00  0.00     0.022 A 
BRANCH  80  84
ATOM     84  S   UNL     1     -11.837   2.452 -12.544  1.00  0.00     0.124 S 
ATOM     85  O   UNL     1     -11.406   2.496 -11.149  1.00  0.00    -0.237 OA
ATOM     86  O   UNL     1     -11.571   3.649 -13.334  1.00  0.00    -0.237 OA
ATOM     87  O   UNL     1     -13.144   1.836 -12.766  1.00  0.00    -0.744 OA
ENDBRANCH  80  84
ENDBRANCH  63  77
BRANCH  64  88
ATOM     88  C   UNL     1       1.420   1.559 -11.536  1.00  0.00     0.023 A 
ATOM     89  C   UNL     1       2.208   2.559 -12.129  1.00  0.00     0.031 A 
ATOM     90  C   UNL     1       2.068   0.608 -10.726  1.00  0.00     0.131 A 
ATOM     91  C   UNL     1       3.601   2.557 -11.944  1.00  0.00     0.055 A 
ATOM     92  C   UNL     1       3.445   0.647 -10.495  1.00  0.00     0.041 A 
ATOM     93  F   UNL     1       1.368  -0.379 -10.145  1.00  0.00    -0.206 F 
ATOM     94  C   UNL     1       4.222   1.618 -11.118  1.00  0.00     0.022 A 
BRANCH  91  95
ATOM     95  S   UNL     1       4.605   3.743 -12.881  1.00  0.00     0.124 S 
ATOM     96  O   UNL     1       4.254   3.406 -14.257  1.00  0.00    -0.237 OA
ATOM     97  O   UNL     1       4.107   5.022 -12.387  1.00  0.00    -0.237 OA
ATOM     98  O   UNL     1       5.974   3.415 -12.489  1.00  0.00    -0.744 OA
ENDBRANCH  91  95
ENDBRANCH  64  88
BRANCH  76  99
ATOM     99  C   UNL     1      -2.263   0.478 -17.373  1.00  0.00     0.023 A 
ATOM    100  C   UNL     1      -1.505  -0.611 -17.840  1.00  0.00     0.031 A 
ATOM    101  C   UNL     1      -2.652   1.458 -18.304  1.00  0.00     0.131 A 
ATOM    102  C   UNL     1      -1.118  -0.666 -19.188  1.00  0.00     0.055 A 
ATOM    103  C   UNL     1      -2.321   1.364 -19.656  1.00  0.00     0.041 A 
ATOM    104  F   UNL     1      -3.375   2.521 -17.916  1.00  0.00    -0.206 F 
ATOM    105  C   UNL     1      -1.539   0.304 -20.103  1.00  0.00     0.022 A 
BRANCH 102 106
ATOM    106  S   UNL     1       0.018  -1.977 -19.718  1.00  0.00     0.124 S 
ATOM    107  O   UNL     1       1.175  -1.741 -18.859  1.00  0.00    -0.237 OA
ATOM    108  O   UNL     1      -0.747  -3.187 -19.438  1.00  0.00    -0.237 OA
ATOM    109  O   UNL     1       0.231  -1.694 -21.136  1.00  0.00    -0.744 OA
ENDBRANCH 102 106
ENDBRANCH  76  99
ENDBRANCH  50  51
ENDBRANCH  43  45
ENDBRANCH  42  43
ENDBRANCH  41  42
ENDBRANCH  40  41
ENDBRANCH  39  40
ENDBRANCH  38  39
ENDBRANCH  37  38
ENDBRANCH  36  37
ENDBRANCH   1  36
TORSDOF 29
