REMARK SMILES N#C[C@H]1CN(C(=O)c2csc(/C=C/C(=O)OCCOCCOCCOCCOC(=O)c3ccc(-c4c5nc(c(-c6cc(S(=O)(=O)[O-])ccc6F)c6ccc([nH]6)c(-c6cc(S(=O)(=O)[O-])ccc6F)c6nc(c(-c7cc(S(=O)(=O)[O-])ccc7F)c7ccc4[nH]7)C=C6)C=C5)cc3)c2)CCO1
REMARK SMILES IDX 21 1 20 2 19 3 18 4 17 5 16 6 14 7 15 8 13 9 12 10 11 11
REMARK SMILES IDX 8 12 9 13 94 14 10 15 6 16 7 17 5 18 3 19 4 20 97 21 96 22
REMARK SMILES IDX 95 23 2 24 1 25 22 26 23 27 24 28 25 29 26 30 27 31 28 32
REMARK SMILES IDX 29 33 30 34 31 35 32 36 93 37 33 38 92 39 34 40 35 41 36 42
REMARK SMILES IDX 86 43 37 44 91 45 85 46 87 47 38 48 90 49 84 50 83 51 39 53
REMARK SMILES IDX 71 54 51 55 70 56 52 57 55 58 69 59 88 60 53 61 54 62 68 64
REMARK SMILES IDX 89 65 56 66 40 67 41 68 49 69 42 70 48 71 50 72 47 73 43 74
REMARK SMILES IDX 44 75 45 76 46 77 72 78 73 79 81 80 74 81 80 82 82 83 79 84
REMARK SMILES IDX 75 85 76 86 77 87 78 88 57 89 58 90 66 91 59 92 65 93 67 94
REMARK SMILES IDX 64 95 60 96 61 97 62 98 63 99
REMARK H PARENT 87 52 55 63
REMARK Flexibility Score: inf
ROOT
ATOM      1  C   UNL     1      -1.278   6.521   0.718  1.00  0.00     0.188 C 
ENDROOT
BRANCH   1   2
ATOM      2  C   UNL     1      -1.358   8.020   0.360  1.00  0.00     0.188 C 
BRANCH   2   3
ATOM      3  O   UNL     1      -2.636   8.616   0.390  1.00  0.00    -0.376 OA
BRANCH   3   4
ATOM      4  C   UNL     1      -3.532   8.603  -0.704  1.00  0.00     0.202 C 
BRANCH   4   5
ATOM      5  C   UNL     1      -3.468   7.664  -1.921  1.00  0.00     0.261 C 
BRANCH   5   6
ATOM      6  O   UNL     1      -2.299   6.867  -2.087  1.00  0.00    -0.460 OA
BRANCH   6   7
ATOM      7  C   UNL     1      -1.288   7.440  -2.771  1.00  0.00     0.330 C 
ATOM      8  O   UNL     1      -1.277   8.566  -3.243  1.00  0.00    -0.247 OA
BRANCH   7   9
ATOM      9  C   UNL     1      -0.077   6.596  -2.735  1.00  0.00     0.095 C 
ATOM     10  C   UNL     1      -0.073   5.264  -2.567  1.00  0.00     0.026 C 
BRANCH  10  11
ATOM     11  C   UNL     1       1.131   4.494  -2.557  1.00  0.00     0.028 A 
ATOM     12  C   UNL     1       2.622   2.675  -2.833  1.00  0.00     0.051 A 
ATOM     13  C   UNL     1       3.488   3.704  -2.523  1.00  0.00     0.079 A 
ATOM     14  C   UNL     1       1.264   3.143  -2.837  1.00  0.00     0.033 A 
ATOM     15  S   UNL     1       2.674   5.157  -2.159  1.00  0.00    -0.144 S 
BRANCH  12  16
ATOM     16  C   UNL     1       3.032   1.330  -3.224  1.00  0.00     0.254 C 
ATOM     17  O   UNL     1       2.597   0.839  -4.263  1.00  0.00    -0.269 OA
BRANCH  16  18
ATOM     18  N   UNL     1       3.891   0.626  -2.387  1.00  0.00    -0.333 N 
ATOM     19  C   UNL     1       3.802  -0.126  -0.024  1.00  0.00     0.240 C 
ATOM     20  C   UNL     1       4.257   0.976  -1.006  1.00  0.00     0.167 C 
ATOM     21  O   UNL     1       4.306  -1.414  -0.448  1.00  0.00    -0.360 OA
ATOM     22  C   UNL     1       3.841  -1.745  -1.768  1.00  0.00     0.183 C 
ATOM     23  C   UNL     1       4.331  -0.713  -2.787  1.00  0.00     0.148 C 
BRANCH  19  24
ATOM     24  C   UNL     1       4.298   0.195   1.330  1.00  0.00     0.096 C 
ATOM     25  N   UNL     1       4.694   0.488   2.378  1.00  0.00    -0.195 NA
ENDBRANCH  19  24
ENDBRANCH  16  18
ENDBRANCH  12  16
ENDBRANCH  10  11
ENDBRANCH   7   9
ENDBRANCH   6   7
ENDBRANCH   5   6
ENDBRANCH   4   5
ENDBRANCH   3   4
ENDBRANCH   2   3
ENDBRANCH   1   2
BRANCH   1  26
ATOM     26  O   UNL     1      -2.444   5.737   0.560  1.00  0.00    -0.377 OA
BRANCH  26  27
ATOM     27  C   UNL     1      -3.603   6.001   1.348  1.00  0.00     0.188 C 
BRANCH  27  28
ATOM     28  C   UNL     1      -3.631   7.044   2.493  1.00  0.00     0.188 C 
BRANCH  28  29
ATOM     29  O   UNL     1      -2.360   7.468   2.942  1.00  0.00    -0.376 OA
BRANCH  29  30
ATOM     30  C   UNL     1      -1.851   6.980   4.166  1.00  0.00     0.202 C 
BRANCH  30  31
ATOM     31  C   UNL     1      -1.747   5.465   4.392  1.00  0.00     0.261 C 
BRANCH  31  32
ATOM     32  O   UNL     1      -2.861   4.665   3.979  1.00  0.00    -0.460 OA
BRANCH  32  33
ATOM     33  C   UNL     1      -3.985   4.748   4.729  1.00  0.00     0.338 C 
ATOM     34  O   UNL     1      -4.157   5.454   5.704  1.00  0.00    -0.246 OA
BRANCH  33  35
ATOM     35  C   UNL     1      -5.039   3.971   4.039  1.00  0.00     0.060 A 
ATOM     36  C   UNL     1      -6.174   4.636   3.555  1.00  0.00     0.016 A 
ATOM     37  C   UNL     1      -4.898   2.594   3.861  1.00  0.00     0.016 A 
ATOM     38  C   UNL     1      -7.190   3.917   2.922  1.00  0.00     0.010 A 
ATOM     39  C   UNL     1      -5.925   1.872   3.247  1.00  0.00     0.010 A 
ATOM     40  C   UNL     1      -7.091   2.525   2.806  1.00  0.00    -0.014 A 
BRANCH  40  41
ATOM     41  C   UNL     1      -8.282   1.726   2.417  1.00  0.00     0.031 A 
ATOM     42  C   UNL     1      -9.060   1.037   3.505  1.00  0.00     0.074 A 
ATOM     43  C   UNL     1      -8.675   1.623   1.136  1.00  0.00     0.049 A 
ATOM     44  N   UNL     1     -10.073   0.216   3.414  1.00  0.00    -0.248 NA
ATOM     45  C   UNL     1      -8.622   1.306   4.883  1.00  0.00     0.031 C 
ATOM     46  C   UNL     1      -8.038   2.290   0.002  1.00  0.00     0.029 A 
ATOM     47  N   UNL     1      -9.702   0.906   0.573  1.00  0.00    -0.354 N 
ATOM     48  C   UNL     1     -10.387  -0.142   4.721  1.00  0.00     0.074 A 
ATOM     49  C   UNL     1      -9.425   0.518   5.579  1.00  0.00     0.031 C 
ATOM     50  C   UNL     1      -8.684   1.941  -1.125  1.00  0.00     0.029 A 
ATOM     51  C   UNL     1      -9.744   0.988  -0.799  1.00  0.00     0.049 A 
ATOM     52  H   UNL     1     -10.347   0.383   1.101  1.00  0.00     0.167 HD
ATOM     53  C   UNL     1     -11.389  -0.941   5.164  1.00  0.00     0.034 A 
ATOM     54  C   UNL     1     -10.524   0.341  -1.690  1.00  0.00     0.034 A 
ATOM     55  C   UNL     1     -12.326  -1.603   4.290  1.00  0.00     0.049 A 
ATOM     56  C   UNL     1     -11.567  -0.630  -1.185  1.00  0.00     0.074 A 
ATOM     57  C   UNL     1     -13.387  -2.424   4.630  1.00  0.00     0.029 A 
ATOM     58  N   UNL     1     -12.305  -1.539   2.902  1.00  0.00    -0.354 N 
ATOM     59  N   UNL     1     -11.857  -0.963   0.052  1.00  0.00    -0.248 NA
ATOM     60  C   UNL     1     -12.389  -1.307  -2.196  1.00  0.00     0.031 C 
ATOM     61  C   UNL     1     -13.942  -2.933   3.451  1.00  0.00     0.029 A 
ATOM     62  C   UNL     1     -13.303  -2.342   2.372  1.00  0.00     0.049 A 
ATOM     63  H   UNL     1     -11.673  -1.002   2.372  1.00  0.00     0.167 HD
ATOM     64  C   UNL     1     -12.921  -1.860  -0.033  1.00  0.00     0.074 A 
ATOM     65  C   UNL     1     -13.224  -2.007  -1.442  1.00  0.00     0.031 C 
ATOM     66  C   UNL     1     -13.593  -2.493   0.964  1.00  0.00     0.034 A 
BRANCH  53  67
ATOM     67  C   UNL     1     -11.472  -1.188   6.652  1.00  0.00     0.023 A 
ATOM     68  C   UNL     1     -11.675  -0.142   7.570  1.00  0.00     0.031 A 
ATOM     69  C   UNL     1     -11.296  -2.486   7.166  1.00  0.00     0.131 A 
ATOM     70  C   UNL     1     -11.604  -0.396   8.948  1.00  0.00     0.055 A 
ATOM     71  C   UNL     1     -11.327  -2.747   8.537  1.00  0.00     0.041 A 
ATOM     72  F   UNL     1     -11.070  -3.523   6.344  1.00  0.00    -0.206 F 
ATOM     73  C   UNL     1     -11.462  -1.696   9.438  1.00  0.00     0.022 A 
BRANCH  70  74
ATOM     74  S   UNL     1     -11.512   1.017  10.082  1.00  0.00     0.124 S 
ATOM     75  O   UNL     1     -10.343   1.729   9.570  1.00  0.00    -0.237 OA
ATOM     76  O   UNL     1     -12.799   1.670   9.876  1.00  0.00    -0.237 OA
ATOM     77  O   UNL     1     -11.328   0.394  11.391  1.00  0.00    -0.744 OA
ENDBRANCH  70  74
ENDBRANCH  53  67
BRANCH  54  78
ATOM     78  C   UNL     1     -10.325   0.550  -3.155  1.00  0.00     0.023 A 
ATOM     79  C   UNL     1     -11.338   1.096  -3.959  1.00  0.00     0.031 A 
ATOM     80  C   UNL     1      -9.125   0.166  -3.780  1.00  0.00     0.131 A 
ATOM     81  C   UNL     1     -11.147   1.207  -5.345  1.00  0.00     0.055 A 
ATOM     82  C   UNL     1      -8.917   0.336  -5.150  1.00  0.00     0.041 A 
ATOM     83  F   UNL     1      -8.126  -0.372  -3.062  1.00  0.00    -0.206 F 
ATOM     84  C   UNL     1      -9.937   0.849  -5.943  1.00  0.00     0.022 A 
BRANCH  81  85
ATOM     85  S   UNL     1     -12.541   1.745  -6.375  1.00  0.00     0.124 S 
ATOM     86  O   UNL     1     -13.539   0.724  -6.076  1.00  0.00    -0.237 OA
ATOM     87  O   UNL     1     -12.809   3.079  -5.850  1.00  0.00    -0.237 OA
ATOM     88  O   UNL     1     -11.996   1.708  -7.731  1.00  0.00    -0.744 OA
ENDBRANCH  81  85
ENDBRANCH  54  78
BRANCH  66  89
ATOM     89  C   UNL     1     -14.767  -3.362   0.571  1.00  0.00     0.023 A 
ATOM     90  C   UNL     1     -14.613  -4.526  -0.202  1.00  0.00     0.031 A 
ATOM     91  C   UNL     1     -16.067  -3.017   0.986  1.00  0.00     0.131 A 
ATOM     92  C   UNL     1     -15.742  -5.266  -0.585  1.00  0.00     0.055 A 
ATOM     93  C   UNL     1     -17.177  -3.799   0.667  1.00  0.00     0.041 A 
ATOM     94  F   UNL     1     -16.280  -1.912   1.719  1.00  0.00    -0.206 F 
ATOM     95  C   UNL     1     -17.020  -4.924  -0.136  1.00  0.00     0.022 A 
BRANCH  92  96
ATOM     96  S   UNL     1     -15.535  -6.619  -1.777  1.00  0.00     0.124 S 
ATOM     97  O   UNL     1     -14.924  -5.931  -2.910  1.00  0.00    -0.237 OA
ATOM     98  O   UNL     1     -14.672  -7.545  -1.052  1.00  0.00    -0.237 OA
ATOM     99  O   UNL     1     -16.901  -7.090  -2.001  1.00  0.00    -0.744 OA
ENDBRANCH  92  96
ENDBRANCH  66  89
ENDBRANCH  40  41
ENDBRANCH  33  35
ENDBRANCH  32  33
ENDBRANCH  31  32
ENDBRANCH  30  31
ENDBRANCH  29  30
ENDBRANCH  28  29
ENDBRANCH  27  28
ENDBRANCH  26  27
ENDBRANCH   1  26
TORSDOF 27
