REMARK SMILES O=Cc1c(OCc2ccc(C(=O)OCCOCCOCCOCCOC(=O)c3ccc(-c4c5nc(c(-c6cc(S(=O)(=O)[O-])ccc6F)c6ccc([nH]6)c(-c6cc(S(=O)(=O)[O-])ccc6F)c6nc(c(-c7cc(S(=O)(=O)[O-])ccc7F)c7ccc4[nH]7)C=C6)C=C5)cc3)cc2)ccc2ccccc12
REMARK SMILES IDX 18 1 17 2 16 3 15 4 14 5 13 6 11 7 12 8 10 9 7 10 8 11 92 12
REMARK SMILES IDX 9 13 91 14 6 15 5 16 4 17 3 18 100 19 93 20 95 21 99 22
REMARK SMILES IDX 94 23 96 24 98 25 97 26 2 27 1 28 19 29 20 30 21 31 22 32
REMARK SMILES IDX 23 33 24 34 25 35 26 36 27 37 28 38 29 39 90 40 30 41 89 42
REMARK SMILES IDX 31 43 32 44 33 45 83 46 34 47 88 48 82 49 84 50 35 51 87 52
REMARK SMILES IDX 81 53 80 54 36 56 68 57 48 58 67 59 49 60 52 61 66 62 85 63
REMARK SMILES IDX 50 64 51 65 65 67 86 68 53 69 37 70 38 71 46 72 39 73 45 74
REMARK SMILES IDX 47 75 44 76 40 77 41 78 42 79 43 80 69 81 70 82 78 83 71 84
REMARK SMILES IDX 77 85 79 86 76 87 72 88 73 89 74 90 75 91 54 92 55 93 63 94
REMARK SMILES IDX 56 95 62 96 64 97 61 98 57 99 58 100 59 101 60 102
REMARK H PARENT 84 55 52 66
REMARK Flexibility Score: inf
ROOT
ATOM      1  C   UNL     1       4.366   7.666   3.327  1.00  0.00     0.188 C 
ENDROOT
BRANCH   1   2
ATOM      2  C   UNL     1       5.866   7.334   3.190  1.00  0.00     0.188 C 
BRANCH   2   3
ATOM      3  O   UNL     1       6.718   8.456   3.335  1.00  0.00    -0.376 OA
BRANCH   3   4
ATOM      4  C   UNL     1       7.350   9.002   2.192  1.00  0.00     0.202 C 
BRANCH   4   5
ATOM      5  C   UNL     1       6.505   9.481   0.999  1.00  0.00     0.261 C 
BRANCH   5   6
ATOM      6  O   UNL     1       5.402   8.648   0.630  1.00  0.00    -0.460 OA
BRANCH   6   7
ATOM      7  C   UNL     1       5.692   7.508  -0.026  1.00  0.00     0.338 C 
ATOM      8  O   UNL     1       6.793   7.114  -0.370  1.00  0.00    -0.246 OA
BRANCH   7   9
ATOM      9  C   UNL     1       4.469   6.678  -0.057  1.00  0.00     0.060 A 
ATOM     10  C   UNL     1       2.255   4.977  -0.201  1.00  0.00    -0.011 A 
ATOM     11  C   UNL     1       3.447   4.537   0.392  1.00  0.00     0.008 A 
ATOM     12  C   UNL     1       2.135   6.331  -0.558  1.00  0.00     0.008 A 
ATOM     13  C   UNL     1       4.567   5.361   0.402  1.00  0.00     0.016 A 
ATOM     14  C   UNL     1       3.236   7.188  -0.470  1.00  0.00     0.016 A 
BRANCH  10  15
ATOM     15  C   UNL     1       1.147   4.007  -0.580  1.00  0.00     0.265 C 
BRANCH  15  16
ATOM     16  O   UNL     1       1.484   2.611  -0.542  1.00  0.00    -0.488 OA
BRANCH  16  17
ATOM     17  C   UNL     1       2.493   2.101  -1.322  1.00  0.00     0.130 A 
ATOM     18  C   UNL     1       2.906   0.784  -1.044  1.00  0.00     0.064 A 
ATOM     19  C   UNL     1       4.091   0.232  -1.612  1.00  0.00    -0.004 A 
ATOM     20  C   UNL     1       3.215   2.842  -2.256  1.00  0.00     0.048 A 
ATOM     21  C   UNL     1       4.857   1.054  -2.472  1.00  0.00    -0.017 A 
ATOM     22  C   UNL     1       4.566  -1.084  -1.377  1.00  0.00     0.009 A 
ATOM     23  C   UNL     1       4.400   2.337  -2.796  1.00  0.00     0.012 A 
ATOM     24  C   UNL     1       6.068   0.584  -3.007  1.00  0.00     0.009 A 
ATOM     25  C   UNL     1       5.763  -1.545  -1.932  1.00  0.00     0.001 A 
ATOM     26  C   UNL     1       6.521  -0.705  -2.735  1.00  0.00     0.001 A 
BRANCH  18  27
ATOM     27  C   UNL     1       2.129  -0.023  -0.076  1.00  0.00     0.264 C 
ATOM     28  O   UNL     1       0.908  -0.112  -0.102  1.00  0.00    -0.298 OA
ENDBRANCH  18  27
ENDBRANCH  16  17
ENDBRANCH  15  16
ENDBRANCH  10  15
ENDBRANCH   7   9
ENDBRANCH   6   7
ENDBRANCH   5   6
ENDBRANCH   4   5
ENDBRANCH   3   4
ENDBRANCH   2   3
ENDBRANCH   1   2
BRANCH   1  29
ATOM     29  O   UNL     1       3.977   9.028   3.280  1.00  0.00    -0.377 OA
BRANCH  29  30
ATOM     30  C   UNL     1       4.583   9.970   4.164  1.00  0.00     0.188 C 
BRANCH  30  31
ATOM     31  C   UNL     1       5.342   9.536   5.442  1.00  0.00     0.188 C 
BRANCH  31  32
ATOM     32  O   UNL     1       5.134   8.188   5.836  1.00  0.00    -0.376 OA
BRANCH  32  33
ATOM     33  C   UNL     1       4.333   7.964   6.983  1.00  0.00     0.202 C 
BRANCH  33  34
ATOM     34  C   UNL     1       2.855   8.357   6.864  1.00  0.00     0.261 C 
BRANCH  34  35
ATOM     35  O   UNL     1       2.593   9.723   6.510  1.00  0.00    -0.460 OA
BRANCH  35  36
ATOM     36  C   UNL     1       2.990  10.678   7.380  1.00  0.00     0.338 C 
ATOM     37  O   UNL     1       3.546  10.505   8.452  1.00  0.00    -0.246 OA
BRANCH  36  38
ATOM     38  C   UNL     1       2.811  11.985   6.713  1.00  0.00     0.060 A 
ATOM     39  C   UNL     1       3.929  12.795   6.473  1.00  0.00     0.016 A 
ATOM     40  C   UNL     1       1.541  12.388   6.294  1.00  0.00     0.016 A 
ATOM     41  C   UNL     1       3.775  14.021   5.824  1.00  0.00     0.010 A 
ATOM     42  C   UNL     1       1.387  13.626   5.665  1.00  0.00     0.010 A 
ATOM     43  C   UNL     1       2.498  14.459   5.447  1.00  0.00    -0.014 A 
BRANCH  43  44
ATOM     44  C   UNL     1       2.293  15.852   4.979  1.00  0.00     0.031 A 
ATOM     45  C   UNL     1       1.796  16.872   5.966  1.00  0.00     0.074 A 
ATOM     46  C   UNL     1       2.541  16.206   3.706  1.00  0.00     0.049 A 
ATOM     47  N   UNL     1       1.465  18.122   5.778  1.00  0.00    -0.248 NA
ATOM     48  C   UNL     1       1.648  16.408   7.353  1.00  0.00     0.031 C 
ATOM     49  C   UNL     1       3.072  15.320   2.672  1.00  0.00     0.029 A 
ATOM     50  N   UNL     1       2.366  17.407   3.064  1.00  0.00    -0.354 N 
ATOM     51  C   UNL     1       1.062  18.596   7.022  1.00  0.00     0.074 A 
ATOM     52  C   UNL     1       1.153  17.483   7.944  1.00  0.00     0.031 C 
ATOM     53  C   UNL     1       3.173  16.008   1.521  1.00  0.00     0.029 A 
ATOM     54  C   UNL     1       2.668  17.365   1.723  1.00  0.00     0.049 A 
ATOM     55  H   UNL     1       2.054  18.221   3.521  1.00  0.00     0.167 HD
ATOM     56  C   UNL     1       0.661  19.846   7.363  1.00  0.00     0.034 A 
ATOM     57  C   UNL     1       2.521  18.304   0.766  1.00  0.00     0.034 A 
ATOM     58  C   UNL     1       0.555  20.936   6.423  1.00  0.00     0.049 A 
ATOM     59  C   UNL     1       1.958  19.655   1.143  1.00  0.00     0.074 A 
ATOM     60  C   UNL     1       0.178  22.246   6.662  1.00  0.00     0.029 A 
ATOM     61  N   UNL     1       0.803  20.839   5.059  1.00  0.00    -0.354 N 
ATOM     62  N   UNL     1       1.593  20.100   2.324  1.00  0.00    -0.248 NA
ATOM     63  C   UNL     1       1.788  20.628   0.056  1.00  0.00     0.031 C 
ATOM     64  C   UNL     1       0.111  22.914   5.434  1.00  0.00     0.029 A 
ATOM     65  C   UNL     1       0.537  22.050   4.438  1.00  0.00     0.049 A 
ATOM     66  H   UNL     1       1.121  20.028   4.601  1.00  0.00     0.167 HD
ATOM     67  C   UNL     1       1.174  21.414   2.123  1.00  0.00     0.074 A 
ATOM     68  C   UNL     1       1.350  21.693   0.713  1.00  0.00     0.031 C 
ATOM     69  C   UNL     1       0.692  22.311   3.024  1.00  0.00     0.034 A 
BRANCH  56  70
ATOM     70  C   UNL     1       0.248  20.070   8.799  1.00  0.00     0.023 A 
ATOM     71  C   UNL     1       1.148  19.896   9.866  1.00  0.00     0.031 A 
ATOM     72  C   UNL     1      -1.080  20.411   9.111  1.00  0.00     0.131 A 
ATOM     73  C   UNL     1       0.690  19.976  11.189  1.00  0.00     0.055 A 
ATOM     74  C   UNL     1      -1.508  20.580  10.429  1.00  0.00     0.041 A 
ATOM     75  F   UNL     1      -1.993  20.565   8.139  1.00  0.00    -0.206 F 
ATOM     76  C   UNL     1      -0.626  20.344  11.479  1.00  0.00     0.022 A 
BRANCH  73  77
ATOM     77  S   UNL     1       1.790  19.420  12.520  1.00  0.00     0.124 S 
ATOM     78  O   UNL     1       2.094  18.053  12.101  1.00  0.00    -0.237 OA
ATOM     79  O   UNL     1       2.890  20.373  12.439  1.00  0.00    -0.237 OA
ATOM     80  O   UNL     1       0.959  19.525  13.718  1.00  0.00    -0.744 OA
ENDBRANCH  73  77
ENDBRANCH  56  70
BRANCH  57  81
ATOM     81  C   UNL     1       2.865  17.995  -0.653  1.00  0.00     0.023 A 
ATOM     82  C   UNL     1       3.885  18.690  -1.321  1.00  0.00     0.031 A 
ATOM     83  C   UNL     1       2.144  17.027  -1.377  1.00  0.00     0.131 A 
ATOM     84  C   UNL     1       4.133  18.433  -2.679  1.00  0.00     0.055 A 
ATOM     85  C   UNL     1       2.432  16.736  -2.711  1.00  0.00     0.041 A 
ATOM     86  F   UNL     1       1.152  16.338  -0.789  1.00  0.00    -0.206 F 
ATOM     87  C   UNL     1       3.426  17.449  -3.373  1.00  0.00     0.022 A 
BRANCH  84  88
ATOM     88  S   UNL     1       5.350  19.459  -3.550  1.00  0.00     0.124 S 
ATOM     89  O   UNL     1       4.778  20.791  -3.397  1.00  0.00    -0.237 OA
ATOM     90  O   UNL     1       6.569  19.192  -2.794  1.00  0.00    -0.237 OA
ATOM     91  O   UNL     1       5.334  18.924  -4.910  1.00  0.00    -0.744 OA
ENDBRANCH  84  88
ENDBRANCH  57  81
BRANCH  69  92
ATOM     92  C   UNL     1       0.347  23.689   2.509  1.00  0.00     0.023 A 
ATOM     93  C   UNL     1      -0.698  23.897   1.591  1.00  0.00     0.031 A 
ATOM     94  C   UNL     1       1.079  24.812   2.938  1.00  0.00     0.131 A 
ATOM     95  C   UNL     1      -0.944  25.185   1.090  1.00  0.00     0.055 A 
ATOM     96  C   UNL     1       0.784  26.100   2.489  1.00  0.00     0.041 A 
ATOM     97  F   UNL     1       2.092  24.676   3.809  1.00  0.00    -0.206 F 
ATOM     98  C   UNL     1      -0.224  26.291   1.548  1.00  0.00     0.022 A 
BRANCH  95  99
ATOM     99  S   UNL     1      -2.152  25.382  -0.249  1.00  0.00     0.124 S 
ATOM    100  O   UNL     1      -1.598  24.518  -1.286  1.00  0.00    -0.237 OA
ATOM    101  O   UNL     1      -3.388  24.919   0.373  1.00  0.00    -0.237 OA
ATOM    102  O   UNL     1      -2.106  26.813  -0.545  1.00  0.00    -0.744 OA
ENDBRANCH  95  99
ENDBRANCH  69  92
ENDBRANCH  43  44
ENDBRANCH  36  38
ENDBRANCH  35  36
ENDBRANCH  34  35
ENDBRANCH  33  34
ENDBRANCH  32  33
ENDBRANCH  31  32
ENDBRANCH  30  31
ENDBRANCH  29  30
ENDBRANCH   1  29
TORSDOF 27
