REMARK SMILES C[C@@H]1[C@@H](C(=O)OCCOCCOCCOCCOC(=O)c2ccc(-c3c4nc(c(-c5cc(S(=O)(=O)[O-])ccc5F)c5ccc([nH]5)c(-c5cc(S(=O)(=O)[O-])ccc5F)c5nc(c(-c6cc(S(=O)(=O)[O-])ccc6F)c6ccc3[nH]6)C=C5)C=C4)cc2)CCN1C(=O)CCCC1CCCCC1
REMARK SMILES IDX 11 1 10 2 9 3 8 4 7 5 6 6 4 7 5 8 3 9 1 10 2 11 86 12 84 13
REMARK SMILES IDX 85 14 87 15 88 16 89 17 90 18 91 19 92 20 93 21 97 22 94 23
REMARK SMILES IDX 96 24 95 25 12 26 13 27 14 28 15 29 16 30 17 31 18 32 19 33
REMARK SMILES IDX 20 34 21 35 22 36 83 37 23 38 82 39 24 40 25 41 26 42 76 43
REMARK SMILES IDX 27 44 81 45 75 46 77 47 28 48 80 49 74 50 73 51 29 53 61 54
REMARK SMILES IDX 41 55 60 56 42 57 45 58 59 59 78 60 43 61 44 62 58 64 79 65
REMARK SMILES IDX 46 66 30 67 31 68 39 69 32 70 38 71 40 72 37 73 33 74 34 75
REMARK SMILES IDX 35 76 36 77 62 78 63 79 71 80 64 81 70 82 72 83 69 84 65 85
REMARK SMILES IDX 66 86 67 87 68 88 47 89 48 90 56 91 49 92 55 93 57 94 54 95
REMARK SMILES IDX 50 96 51 97 52 98 53 99
REMARK H PARENT 77 52 45 63
REMARK Flexibility Score: inf
ROOT
ATOM      1  C   UNL     1       0.171   3.267  -2.195  1.00  0.00     0.188 C 
ENDROOT
BRANCH   1   2
ATOM      2  C   UNL     1       0.495   2.113  -3.151  1.00  0.00     0.188 C 
BRANCH   2   3
ATOM      3  O   UNL     1      -0.159   1.978  -4.395  1.00  0.00    -0.376 OA
BRANCH   3   4
ATOM      4  C   UNL     1      -1.559   1.803  -4.554  1.00  0.00     0.202 C 
BRANCH   4   5
ATOM      5  C   UNL     1      -2.570   1.301  -3.506  1.00  0.00     0.261 C 
BRANCH   5   6
ATOM      6  O   UNL     1      -2.225   1.399  -2.130  1.00  0.00    -0.463 OA
BRANCH   6   7
ATOM      7  C   UNL     1      -1.563   0.321  -1.653  1.00  0.00     0.311 C 
ATOM      8  O   UNL     1      -1.250  -0.648  -2.331  1.00  0.00    -0.252 OA
BRANCH   7   9
ATOM      9  C   UNL     1      -1.214   0.520  -0.186  1.00  0.00     0.123 C 
ATOM     10  C   UNL     1       0.581  -0.014   1.532  1.00  0.00     0.032 C 
ATOM     11  C   UNL     1      -0.066  -0.413   0.205  1.00  0.00     0.096 C 
ATOM     12  N   UNL     1      -0.737  -1.699   0.277  1.00  0.00    -0.339 N 
ATOM     13  C   UNL     1      -2.356   0.016   0.683  1.00  0.00     0.039 C 
ATOM     14  C   UNL     1      -2.135  -1.500   0.676  1.00  0.00     0.121 C 
BRANCH  12  15
ATOM     15  C   UNL     1      -0.392  -2.832  -0.448  1.00  0.00     0.222 C 
ATOM     16  O   UNL     1      -1.221  -3.731  -0.636  1.00  0.00    -0.275 OA
BRANCH  15  17
ATOM     17  C   UNL     1       1.062  -3.074  -0.881  1.00  0.00     0.100 C 
BRANCH  17  18
ATOM     18  C   UNL     1       1.673  -2.512  -2.181  1.00  0.00     0.010 C 
BRANCH  18  19
ATOM     19  C   UNL     1       2.339  -1.122  -2.295  1.00  0.00     0.004 C 
BRANCH  19  20
ATOM     20  C   UNL     1       3.489  -0.638  -1.363  1.00  0.00    -0.011 C 
ATOM     21  C   UNL     1       3.318   0.870  -1.044  1.00  0.00     0.003 C 
ATOM     22  C   UNL     1       3.683  -1.458  -0.093  1.00  0.00     0.003 C 
ATOM     23  C   UNL     1       4.278   1.421   0.010  1.00  0.00     0.000 C 
ATOM     24  C   UNL     1       4.732  -0.895   0.853  1.00  0.00     0.000 C 
ATOM     25  C   UNL     1       4.389   0.534   1.243  1.00  0.00     0.000 C 
ENDBRANCH  19  20
ENDBRANCH  18  19
ENDBRANCH  17  18
ENDBRANCH  15  17
ENDBRANCH  12  15
ENDBRANCH   7   9
ENDBRANCH   6   7
ENDBRANCH   5   6
ENDBRANCH   4   5
ENDBRANCH   3   4
ENDBRANCH   2   3
ENDBRANCH   1   2
BRANCH   1  26
ATOM     26  O   UNL     1      -1.118   3.801  -2.385  1.00  0.00    -0.377 OA
BRANCH  26  27
ATOM     27  C   UNL     1      -1.248   4.868  -3.319  1.00  0.00     0.188 C 
BRANCH  27  28
ATOM     28  C   UNL     1      -0.257   5.010  -4.500  1.00  0.00     0.188 C 
BRANCH  28  29
ATOM     29  O   UNL     1       1.107   4.785  -4.164  1.00  0.00    -0.376 OA
BRANCH  29  30
ATOM     30  C   UNL     1       1.958   5.913  -4.051  1.00  0.00     0.202 C 
BRANCH  30  31
ATOM     31  C   UNL     1       1.713   6.828  -2.841  1.00  0.00     0.261 C 
BRANCH  31  32
ATOM     32  O   UNL     1       0.392   7.376  -2.725  1.00  0.00    -0.460 OA
BRANCH  32  33
ATOM     33  C   UNL     1      -0.035   8.178  -3.726  1.00  0.00     0.338 C 
ATOM     34  O   UNL     1       0.608   8.521  -4.706  1.00  0.00    -0.246 OA
BRANCH  33  35
ATOM     35  C   UNL     1      -1.485   8.402  -3.545  1.00  0.00     0.060 A 
ATOM     36  C   UNL     1      -2.365   8.021  -4.567  1.00  0.00     0.016 A 
ATOM     37  C   UNL     1      -1.976   8.969  -2.367  1.00  0.00     0.016 A 
ATOM     38  C   UNL     1      -3.736   8.242  -4.429  1.00  0.00     0.010 A 
ATOM     39  C   UNL     1      -3.348   9.210  -2.240  1.00  0.00     0.010 A 
ATOM     40  C   UNL     1      -4.230   8.881  -3.284  1.00  0.00    -0.014 A 
BRANCH  40  41
ATOM     41  C   UNL     1      -5.622   9.399  -3.271  1.00  0.00     0.031 A 
ATOM     42  C   UNL     1      -5.838  10.856  -3.585  1.00  0.00     0.074 A 
ATOM     43  C   UNL     1      -6.673   8.600  -3.013  1.00  0.00     0.049 A 
ATOM     44  N   UNL     1      -6.941  11.557  -3.574  1.00  0.00    -0.248 NA
ATOM     45  C   UNL     1      -4.639  11.623  -3.958  1.00  0.00     0.031 C 
ATOM     46  C   UNL     1      -6.598   7.164  -2.751  1.00  0.00     0.029 A 
ATOM     47  N   UNL     1      -8.013   8.889  -2.922  1.00  0.00    -0.354 N 
ATOM     48  C   UNL     1      -6.570  12.850  -3.930  1.00  0.00     0.074 A 
ATOM     49  C   UNL     1      -5.134  12.841  -4.110  1.00  0.00     0.031 C 
ATOM     50  C   UNL     1      -7.839   6.699  -2.519  1.00  0.00     0.029 A 
ATOM     51  C   UNL     1      -8.790   7.810  -2.571  1.00  0.00     0.049 A 
ATOM     52  H   UNL     1      -8.382   9.786  -3.092  1.00  0.00     0.167 HD
ATOM     53  C   UNL     1      -7.356  13.941  -4.101  1.00  0.00     0.034 A 
ATOM     54  C   UNL     1     -10.109   7.736  -2.295  1.00  0.00     0.034 A 
ATOM     55  C   UNL     1      -8.784  13.937  -3.903  1.00  0.00     0.049 A 
ATOM     56  C   UNL     1     -10.950   8.990  -2.387  1.00  0.00     0.074 A 
ATOM     57  C   UNL     1      -9.677  14.984  -4.056  1.00  0.00     0.029 A 
ATOM     58  N   UNL     1      -9.529  12.838  -3.494  1.00  0.00    -0.354 N 
ATOM     59  N   UNL     1     -10.590  10.207  -2.728  1.00  0.00    -0.248 NA
ATOM     60  C   UNL     1     -12.378   8.858  -2.064  1.00  0.00     0.031 C 
ATOM     61  C   UNL     1     -10.942  14.542  -3.658  1.00  0.00     0.029 A 
ATOM     62  C   UNL     1     -10.862  13.193  -3.352  1.00  0.00     0.049 A 
ATOM     63  H   UNL     1      -9.164  11.939  -3.330  1.00  0.00     0.167 HD
ATOM     64  C   UNL     1     -11.755  10.972  -2.697  1.00  0.00     0.074 A 
ATOM     65  C   UNL     1     -12.828  10.078  -2.318  1.00  0.00     0.031 C 
ATOM     66  C   UNL     1     -11.924  12.293  -2.966  1.00  0.00     0.034 A 
BRANCH  53  67
ATOM     67  C   UNL     1      -6.673  15.239  -4.463  1.00  0.00     0.023 A 
ATOM     68  C   UNL     1      -5.967  15.396  -5.668  1.00  0.00     0.031 A 
ATOM     69  C   UNL     1      -6.705  16.328  -3.573  1.00  0.00     0.131 A 
ATOM     70  C   UNL     1      -5.264  16.584  -5.918  1.00  0.00     0.055 A 
ATOM     71  C   UNL     1      -6.076  17.538  -3.868  1.00  0.00     0.041 A 
ATOM     72  F   UNL     1      -7.339  16.229  -2.394  1.00  0.00    -0.206 F 
ATOM     73  C   UNL     1      -5.337  17.667  -5.040  1.00  0.00     0.022 A 
BRANCH  70  74
ATOM     74  S   UNL     1      -4.128  16.638  -7.332  1.00  0.00     0.124 S 
ATOM     75  O   UNL     1      -3.227  15.528  -7.028  1.00  0.00    -0.237 OA
ATOM     76  O   UNL     1      -5.025  16.442  -8.464  1.00  0.00    -0.237 OA
ATOM     77  O   UNL     1      -3.523  17.965  -7.235  1.00  0.00    -0.744 OA
ENDBRANCH  70  74
ENDBRANCH  53  67
BRANCH  54  78
ATOM     78  C   UNL     1     -10.724   6.447  -1.857  1.00  0.00     0.023 A 
ATOM     79  C   UNL     1     -11.748   5.839  -2.601  1.00  0.00     0.031 A 
ATOM     80  C   UNL     1     -10.344   5.840  -0.646  1.00  0.00     0.131 A 
ATOM     81  C   UNL     1     -12.393   4.695  -2.102  1.00  0.00     0.055 A 
ATOM     82  C   UNL     1     -10.945   4.667  -0.185  1.00  0.00     0.041 A 
ATOM     83  F   UNL     1      -9.377   6.382   0.112  1.00  0.00    -0.206 F 
ATOM     84  C   UNL     1     -11.987   4.096  -0.908  1.00  0.00     0.022 A 
BRANCH  81  85
ATOM     85  S   UNL     1     -13.845   4.062  -2.986  1.00  0.00     0.124 S 
ATOM     86  O   UNL     1     -14.730   5.221  -2.969  1.00  0.00    -0.237 OA
ATOM     87  O   UNL     1     -13.278   3.705  -4.282  1.00  0.00    -0.237 OA
ATOM     88  O   UNL     1     -14.277   2.933  -2.164  1.00  0.00    -0.744 OA
ENDBRANCH  81  85
ENDBRANCH  54  78
BRANCH  66  89
ATOM     89  C   UNL     1     -13.334  12.838  -2.915  1.00  0.00     0.023 A 
ATOM     90  C   UNL     1     -14.073  12.888  -1.720  1.00  0.00     0.031 A 
ATOM     91  C   UNL     1     -13.948  13.314  -4.089  1.00  0.00     0.131 A 
ATOM     92  C   UNL     1     -15.400  13.345  -1.737  1.00  0.00     0.055 A 
ATOM     93  C   UNL     1     -15.243  13.834  -4.086  1.00  0.00     0.041 A 
ATOM     94  F   UNL     1     -13.293  13.289  -5.261  1.00  0.00    -0.206 F 
ATOM     95  C   UNL     1     -15.982  13.838  -2.908  1.00  0.00     0.022 A 
BRANCH  92  96
ATOM     96  S   UNL     1     -16.395  13.189  -0.228  1.00  0.00     0.124 S 
ATOM     97  O   UNL     1     -16.324  11.755   0.035  1.00  0.00    -0.237 OA
ATOM     98  O   UNL     1     -15.677  14.046   0.710  1.00  0.00    -0.237 OA
ATOM     99  O   UNL     1     -17.712  13.680  -0.632  1.00  0.00    -0.744 OA
ENDBRANCH  92  96
ENDBRANCH  66  89
ENDBRANCH  40  41
ENDBRANCH  33  35
ENDBRANCH  32  33
ENDBRANCH  31  32
ENDBRANCH  30  31
ENDBRANCH  29  30
ENDBRANCH  28  29
ENDBRANCH  27  28
ENDBRANCH  26  27
ENDBRANCH   1  26
TORSDOF 28
