REMARK SMILES Cc1c(NCc2ccccn2)cccc1C(=O)N1CCOC[C@@H]1CC(=O)OCCOCCOCCOCCOC(=O)c1ccc(-c2c3nc(c(-c4cc(S(=O)(=O)[O-])ccc4F)c4ccc([nH]4)c(-c4cc(S(=O)(=O)[O-])ccc4F)c4nc(c(-c5cc(S(=O)(=O)[O-])ccc5F)c5ccc2[nH]5)C=C4)C=C3)cc1
REMARK SMILES IDX 31 1 30 2 29 3 28 4 27 5 25 6 26 7 24 8 23 9 18 10 19 11
REMARK SMILES IDX 20 12 22 13 21 14 16 15 17 16 15 17 1 18 2 19 3 20 12 21
REMARK SMILES IDX 14 22 13 23 4 24 5 26 6 27 7 28 11 29 8 30 10 31 9 32 32 33
REMARK SMILES IDX 33 34 34 35 35 36 36 37 37 38 38 39 39 40 40 41 41 42 42 43
REMARK SMILES IDX 43 44 104 45 44 46 103 47 45 48 46 49 47 50 97 51 48 52
REMARK SMILES IDX 102 53 96 54 98 55 49 56 101 57 95 58 94 59 50 61 82 62
REMARK SMILES IDX 62 63 81 64 63 65 66 66 80 67 99 68 64 69 65 70 79 72 100 73
REMARK SMILES IDX 67 74 51 75 52 76 60 77 53 78 59 79 61 80 58 81 54 82 55 83
REMARK SMILES IDX 56 84 57 85 83 86 84 87 92 88 85 89 91 90 93 91 90 92 86 93
REMARK SMILES IDX 87 94 88 95 89 96 68 97 69 98 77 99 70 100 76 101 78 102
REMARK SMILES IDX 75 103 71 104 72 105 73 106 74 107
REMARK H PARENT 4 25 98 60 66 71
REMARK Flexibility Score: inf
ROOT
ATOM      1  C   UNL     1       3.775   1.782   4.827  1.00  0.00     0.188 C 
ENDROOT
BRANCH   1   2
ATOM      2  O   UNL     1       2.455   1.607   4.367  1.00  0.00    -0.376 OA
BRANCH   2   3
ATOM      3  C   UNL     1       2.269   0.816   3.240  1.00  0.00     0.202 C 
BRANCH   3   4
ATOM      4  C   UNL     1       2.194   1.395   1.875  1.00  0.00     0.261 C 
BRANCH   4   5
ATOM      5  O   UNL     1       1.738   2.701   1.816  1.00  0.00    -0.463 OA
BRANCH   5   6
ATOM      6  C   UNL     1       2.615   3.651   2.123  1.00  0.00     0.308 C 
ATOM      7  O   UNL     1       2.919   4.026   3.244  1.00  0.00    -0.252 OA
BRANCH   6   8
ATOM      8  C   UNL     1       2.980   4.372   0.891  1.00  0.00     0.150 C 
BRANCH   8   9
ATOM      9  C   UNL     1       3.584   3.510  -0.225  1.00  0.00     0.122 C 
ATOM     10  N   UNL     1       2.879   2.271  -0.838  1.00  0.00    -0.330 N 
ATOM     11  C   UNL     1       3.721   1.828  -1.968  1.00  0.00     0.148 C 
ATOM     12  C   UNL     1       5.187   1.565  -1.540  1.00  0.00     0.181 C 
ATOM     13  C   UNL     1       5.053   3.174   0.167  1.00  0.00     0.185 C 
ATOM     14  O   UNL     1       5.810   2.720  -0.957  1.00  0.00    -0.377 OA
BRANCH  10  15
ATOM     15  C   UNL     1       1.407   2.222  -0.930  1.00  0.00     0.254 C 
ATOM     16  O   UNL     1       0.942   3.366  -0.815  1.00  0.00    -0.269 OA
BRANCH  15  17
ATOM     17  C   UNL     1       0.327   0.750  -1.028  1.00  0.00     0.045 A 
ATOM     18  C   UNL     1       2.724  -0.886  -0.812  1.00  0.00     0.047 C 
ATOM     19  C   UNL     1       1.243  -0.750  -0.543  1.00  0.00    -0.015 A 
ATOM     20  C   UNL     1       0.468  -2.345  -0.718  1.00  0.00     0.038 A 
ATOM     21  C   UNL     1      -1.133  -2.590  -1.457  1.00  0.00     0.026 A 
ATOM     22  C   UNL     1      -1.505   0.405  -1.871  1.00  0.00     0.014 A 
ATOM     23  C   UNL     1      -2.127  -1.278  -2.046  1.00  0.00     0.003 A 
BRANCH  20  24
ATOM     24  N   UNL     1       1.093  -3.407  -0.056  1.00  0.00    -0.379 N 
ATOM     25  H   UNL     1       1.899  -3.224   0.478  1.00  0.00     0.160 HD
BRANCH  24  26
ATOM     26  C   UNL     1       0.599  -4.766  -0.126  1.00  0.00     0.169 C 
BRANCH  26  27
ATOM     27  C   UNL     1       0.787  -5.404  -1.482  1.00  0.00     0.059 A 
ATOM     28  C   UNL     1       1.265  -4.680  -2.578  1.00  0.00     0.026 A 
ATOM     29  N   UNL     1       0.405  -6.701  -1.591  1.00  0.00    -0.259 NA
ATOM     30  C   UNL     1       1.282  -5.261  -3.832  1.00  0.00     0.004 A 
ATOM     31  C   UNL     1       0.476  -7.255  -2.818  1.00  0.00     0.111 A 
ATOM     32  C   UNL     1       0.884  -6.580  -3.957  1.00  0.00     0.020 A 
ENDBRANCH  26  27
ENDBRANCH  24  26
ENDBRANCH  20  24
ENDBRANCH  15  17
ENDBRANCH  10  15
ENDBRANCH   8   9
ENDBRANCH   6   8
ENDBRANCH   5   6
ENDBRANCH   4   5
ENDBRANCH   3   4
ENDBRANCH   2   3
ENDBRANCH   1   2
BRANCH   1  33
ATOM     33  C   UNL     1       4.979   1.378   3.954  1.00  0.00     0.188 C 
BRANCH  33  34
ATOM     34  O   UNL     1       4.754   1.203   2.574  1.00  0.00    -0.377 OA
BRANCH  34  35
ATOM     35  C   UNL     1       4.802  -0.069   1.958  1.00  0.00     0.188 C 
BRANCH  35  36
ATOM     36  C   UNL     1       4.718  -1.270   2.817  1.00  0.00     0.188 C 
BRANCH  36  37
ATOM     37  O   UNL     1       5.949  -1.527   3.435  1.00  0.00    -0.376 OA
BRANCH  37  38
ATOM     38  C   UNL     1       6.613  -2.510   2.686  1.00  0.00     0.202 C 
BRANCH  38  39
ATOM     39  C   UNL     1       5.752  -3.815   2.607  1.00  0.00     0.261 C 
BRANCH  39  40
ATOM     40  O   UNL     1       4.584  -3.815   3.559  1.00  0.00    -0.460 OA
BRANCH  40  41
ATOM     41  C   UNL     1       3.301  -4.050   3.077  1.00  0.00     0.338 C 
ATOM     42  O   UNL     1       3.104  -4.634   2.019  1.00  0.00    -0.246 OA
BRANCH  41  43
ATOM     43  C   UNL     1       2.148  -3.284   3.793  1.00  0.00     0.060 A 
ATOM     44  C   UNL     1       0.856  -3.147   3.215  1.00  0.00     0.016 A 
ATOM     45  C   UNL     1       2.379  -2.459   4.876  1.00  0.00     0.016 A 
ATOM     46  C   UNL     1      -0.082  -2.083   3.541  1.00  0.00     0.010 A 
ATOM     47  C   UNL     1       1.482  -1.382   5.149  1.00  0.00     0.010 A 
ATOM     48  C   UNL     1       0.242  -1.103   4.478  1.00  0.00    -0.014 A 
BRANCH  48  49
ATOM     49  C   UNL     1      -0.409   0.338   4.681  1.00  0.00     0.031 A 
ATOM     50  C   UNL     1      -0.459   0.848   6.103  1.00  0.00     0.074 A 
ATOM     51  C   UNL     1      -0.569   1.373   3.741  1.00  0.00     0.049 A 
ATOM     52  N   UNL     1      -1.061   1.932   6.474  1.00  0.00    -0.248 NA
ATOM     53  C   UNL     1       0.128   0.170   7.263  1.00  0.00     0.031 C 
ATOM     54  C   UNL     1      -0.275   2.811   3.988  1.00  0.00     0.029 A 
ATOM     55  N   UNL     1      -0.664   1.436   2.352  1.00  0.00    -0.354 N 
ATOM     56  C   UNL     1      -0.465   2.322   7.655  1.00  0.00     0.074 A 
ATOM     57  C   UNL     1       0.022   1.099   8.216  1.00  0.00     0.031 C 
ATOM     58  C   UNL     1      -0.400   3.580   2.887  1.00  0.00     0.029 A 
ATOM     59  C   UNL     1      -0.806   2.736   1.764  1.00  0.00     0.049 A 
ATOM     60  H   UNL     1      -0.635   0.622   1.799  1.00  0.00     0.167 HD
ATOM     61  C   UNL     1      -0.252   3.646   7.918  1.00  0.00     0.034 A 
ATOM     62  C   UNL     1      -1.480   3.192   0.621  1.00  0.00     0.034 A 
ATOM     63  C   UNL     1      -0.756   4.528   6.833  1.00  0.00     0.049 A 
ATOM     64  C   UNL     1      -2.705   3.854   1.325  1.00  0.00     0.074 A 
ATOM     65  C   UNL     1      -0.219   5.575   6.094  1.00  0.00     0.029 A 
ATOM     66  N   UNL     1      -1.973   4.239   6.210  1.00  0.00    -0.354 N 
ATOM     67  N   UNL     1      -2.768   3.800   2.632  1.00  0.00    -0.248 NA
ATOM     68  C   UNL     1      -3.841   4.638   0.828  1.00  0.00     0.031 C 
ATOM     69  C   UNL     1      -1.147   5.924   5.063  1.00  0.00     0.029 A 
ATOM     70  C   UNL     1      -2.236   5.066   5.138  1.00  0.00     0.049 A 
ATOM     71  H   UNL     1      -2.579   3.522   6.506  1.00  0.00     0.167 HD
ATOM     72  C   UNL     1      -3.602   4.712   3.141  1.00  0.00     0.074 A 
ATOM     73  C   UNL     1      -4.398   5.087   1.985  1.00  0.00     0.031 C 
ATOM     74  C   UNL     1      -3.538   5.005   4.473  1.00  0.00     0.034 A 
BRANCH  61  75
ATOM     75  C   UNL     1       0.543   4.205   9.103  1.00  0.00     0.023 A 
ATOM     76  C   UNL     1       0.570   5.606   9.259  1.00  0.00     0.031 A 
ATOM     77  C   UNL     1       1.254   3.504  10.106  1.00  0.00     0.131 A 
ATOM     78  C   UNL     1       1.214   6.238  10.337  1.00  0.00     0.055 A 
ATOM     79  C   UNL     1       1.854   4.130  11.215  1.00  0.00     0.041 A 
ATOM     80  F   UNL     1       1.452   2.184  10.081  1.00  0.00    -0.206 F 
ATOM     81  C   UNL     1       1.830   5.506  11.341  1.00  0.00     0.022 A 
BRANCH  78  82
ATOM     82  S   UNL     1       1.192   8.045  10.411  1.00  0.00     0.124 S 
ATOM     83  O   UNL     1       2.077   8.403   9.307  1.00  0.00    -0.237 OA
ATOM     84  O   UNL     1      -0.223   8.349  10.232  1.00  0.00    -0.237 OA
ATOM     85  O   UNL     1       1.718   8.334  11.744  1.00  0.00    -0.744 OA
ENDBRANCH  78  82
ENDBRANCH  61  75
BRANCH  62  86
ATOM     86  C   UNL     1      -1.482   2.248  -0.644  1.00  0.00     0.023 A 
ATOM     87  C   UNL     1      -0.662   2.321  -2.297  1.00  0.00     0.031 A 
ATOM     88  C   UNL     1      -1.683   0.760   0.158  1.00  0.00     0.131 A 
ATOM     89  C   UNL     1       0.051   0.862  -3.133  1.00  0.00     0.055 A 
ATOM     90  C   UNL     1      -0.908  -0.654  -0.419  1.00  0.00     0.041 A 
ATOM     91  F   UNL     1      -2.616   0.614   1.114  1.00  0.00    -0.206 F 
ATOM     92  C   UNL     1      -0.039  -0.707  -2.236  1.00  0.00     0.022 A 
BRANCH  89  93
ATOM     93  S   UNL     1       1.157   0.796  -4.551  1.00  0.00     0.124 S 
ATOM     94  O   UNL     1       0.240   0.676  -5.676  1.00  0.00    -0.237 OA
ATOM     95  O   UNL     1       1.911   2.037  -4.451  1.00  0.00    -0.237 OA
ATOM     96  O   UNL     1       1.954  -0.406  -4.284  1.00  0.00    -0.744 OA
ENDBRANCH  89  93
ENDBRANCH  62  86
BRANCH  74  97
ATOM     97  C   UNL     1      -4.748   5.329   5.261  1.00  0.00     0.023 A 
ATOM     98  C   UNL     1      -6.000   5.057   4.729  1.00  0.00     0.031 A 
ATOM     99  C   UNL     1      -4.699   5.810   6.585  1.00  0.00     0.131 A 
ATOM    100  C   UNL     1      -7.139   5.505   5.380  1.00  0.00     0.055 A 
ATOM    101  C   UNL     1      -5.849   6.103   7.305  1.00  0.00     0.041 A 
ATOM    102  F   UNL     1      -3.546   6.013   7.239  1.00  0.00    -0.206 F 
ATOM    103  C   UNL     1      -7.082   6.010   6.677  1.00  0.00     0.022 A 
BRANCH 100 104
ATOM    104  S   UNL     1      -8.621   5.607   4.366  1.00  0.00     0.124 S 
ATOM    105  O   UNL     1      -8.183   6.500   3.295  1.00  0.00    -0.237 OA
ATOM    106  O   UNL     1      -8.837   4.217   3.975  1.00  0.00    -0.237 OA
ATOM    107  O   UNL     1      -9.616   6.166   5.277  1.00  0.00    -0.744 OA
ENDBRANCH 100 104
ENDBRANCH  74  97
ENDBRANCH  48  49
ENDBRANCH  41  43
ENDBRANCH  40  41
ENDBRANCH  39  40
ENDBRANCH  38  39
ENDBRANCH  37  38
ENDBRANCH  36  37
ENDBRANCH  35  36
ENDBRANCH  34  35
ENDBRANCH  33  34
ENDBRANCH   1  33
TORSDOF 29
