REMARK SMILES CC(C)[C@H](NC(=O)N1c2ccccc2N=C(OCCOCCOCCOCCOC(=O)c2ccc(-c3c4nc(c(-c5cc(S(=O)(=O)[O-])ccc5F)c5ccc([nH]5)c(-c5cc(S(=O)(=O)[O-])ccc5F)c5nc(c(-c6cc(S(=O)(=O)[O-])ccc6F)c6ccc3[nH]6)C=C5)C=C4)cc2)[C@@H]1C(C)C)C(=O)N1CCC(C(=O)[O-])CC1
REMARK SMILES IDX 23 1 22 2 21 3 20 4 19 5 18 6 17 7 16 8 8 9 9 10 95 11 10 12
REMARK SMILES IDX 14 13 11 14 13 15 15 16 12 17 6 18 5 19 7 21 4 22 2 23 1 24
REMARK SMILES IDX 3 25 99 26 100 27 101 28 102 29 109 30 103 31 108 32 104 33
REMARK SMILES IDX 105 34 106 35 107 36 96 37 97 38 98 39 24 40 25 41 26 42
REMARK SMILES IDX 27 43 28 44 29 45 30 46 31 47 32 48 33 49 94 50 34 51 93 52
REMARK SMILES IDX 35 53 36 54 37 55 87 56 38 57 92 58 86 59 88 60 39 61 91 62
REMARK SMILES IDX 85 63 84 64 40 66 72 67 52 68 71 69 53 70 56 71 70 72 89 73
REMARK SMILES IDX 54 74 55 75 69 77 90 78 57 79 41 80 42 81 50 82 43 83 49 84
REMARK SMILES IDX 51 85 48 86 44 87 45 88 46 89 47 90 73 91 74 92 82 93 75 94
REMARK SMILES IDX 81 95 83 96 80 97 76 98 77 99 78 100 79 101 58 102 59 103
REMARK SMILES IDX 67 104 60 105 66 106 68 107 65 108 61 109 62 110 63 111
REMARK SMILES IDX 64 112
REMARK H PARENT 5 20 88 65 56 76
REMARK Flexibility Score: inf
ROOT
ATOM      1  O   UNL     1      -2.260   4.482   4.767  1.00  0.00    -0.377 OA
ENDROOT
BRANCH   1   2
ATOM      2  C   UNL     1      -1.101   3.423   4.471  1.00  0.00     0.188 C 
BRANCH   2   3
ATOM      3  C   UNL     1      -0.596   1.509   5.230  1.00  0.00     0.188 C 
BRANCH   3   4
ATOM      4  O   UNL     1      -1.543   0.388   5.645  1.00  0.00    -0.376 OA
BRANCH   4   5
ATOM      5  C   UNL     1      -1.754  -0.167   6.950  1.00  0.00     0.201 C 
BRANCH   5   6
ATOM      6  C   UNL     1      -0.531  -0.566   7.764  1.00  0.00     0.259 C 
BRANCH   6   7
ATOM      7  O   UNL     1       0.570  -1.137   7.030  1.00  0.00    -0.477 OA
BRANCH   7   8
ATOM      8  C   UNL     1       0.343  -1.683   5.824  1.00  0.00     0.212 C 
ATOM      9  N   UNL     1       0.820  -1.523   3.419  1.00  0.00    -0.280 N 
ATOM     10  C   UNL     1      -0.185  -2.542   3.284  1.00  0.00     0.072 A 
ATOM     11  C   UNL     1       1.501  -1.540   4.797  1.00  0.00     0.181 C 
ATOM     12  C   UNL     1      -0.370  -3.287   2.116  1.00  0.00     0.029 A 
ATOM     13  C   UNL     1      -1.056  -2.754   4.350  1.00  0.00     0.091 A 
ATOM     14  C   UNL     1      -1.562  -3.996   1.918  1.00  0.00     0.002 A 
ATOM     15  C   UNL     1      -2.287  -3.371   4.119  1.00  0.00     0.030 A 
ATOM     16  N   UNL     1      -0.776  -2.303   5.631  1.00  0.00    -0.214 NA
ATOM     17  C   UNL     1      -2.560  -3.956   2.887  1.00  0.00     0.002 A 
BRANCH   9  18
ATOM     18  C   UNL     1       1.376  -1.004   2.288  1.00  0.00     0.323 C 
ATOM     19  N   UNL     1       0.678  -0.223   1.418  1.00  0.00    -0.326 N 
ATOM     20  H   UNL     1       1.309   0.147   0.759  1.00  0.00     0.166 HD
ATOM     21  O   UNL     1       2.561  -1.179   1.998  1.00  0.00    -0.248 OA
BRANCH  19  22
ATOM     22  C   UNL     1      -0.706   0.285   1.089  1.00  0.00     0.175 C 
BRANCH  22  23
ATOM     23  C   UNL     1      -1.687  -0.834   0.642  1.00  0.00     0.015 C 
ATOM     24  C   UNL     1      -3.172  -0.493   0.446  1.00  0.00     0.010 C 
ATOM     25  C   UNL     1      -1.192  -1.529  -0.629  1.00  0.00     0.010 C 
ENDBRANCH  22  23
BRANCH  22  26
ATOM     26  C   UNL     1      -1.490   1.357   1.888  1.00  0.00     0.245 C 
ATOM     27  O   UNL     1      -2.463   1.906   1.367  1.00  0.00    -0.272 OA
ATOM     28  N   UNL     1      -1.143   1.652   3.184  1.00  0.00    -0.341 N 
ATOM     29  C   UNL     1      -2.501   1.931   4.440  1.00  0.00     0.120 C 
ATOM     30  C   UNL     1       0.536   2.299   3.360  1.00  0.00     0.120 C 
ATOM     31  C   UNL     1      -1.945   2.716   6.219  1.00  0.00     0.031 C 
ATOM     32  C   UNL     1       1.110   2.999   4.994  1.00  0.00     0.031 C 
ATOM     33  C   UNL     1      -0.095   3.231   6.452  1.00  0.00     0.038 C 
BRANCH  33  34
ATOM     34  C   UNL     1       0.188   4.499   7.185  1.00  0.00     0.045 C 
ATOM     35  O   UNL     1       0.092   4.592   8.396  1.00  0.00    -0.550 OA
ATOM     36  O   UNL     1       0.718   5.474   6.441  1.00  0.00    -0.550 OA
ENDBRANCH  33  34
ENDBRANCH  22  26
ENDBRANCH  19  22
ENDBRANCH   9  18
BRANCH  11  37
ATOM     37  C   UNL     1       2.544  -0.367   5.090  1.00  0.00     0.015 C 
ATOM     38  C   UNL     1       2.851  -0.008   6.564  1.00  0.00     0.010 C 
ATOM     39  C   UNL     1       3.928  -0.575   4.450  1.00  0.00     0.010 C 
ENDBRANCH  11  37
ENDBRANCH   7   8
ENDBRANCH   6   7
ENDBRANCH   5   6
ENDBRANCH   4   5
ENDBRANCH   3   4
ENDBRANCH   2   3
ENDBRANCH   1   2
BRANCH   1  40
ATOM     40  C   UNL     1      -3.705   4.360   4.937  1.00  0.00     0.188 C 
BRANCH  40  41
ATOM     41  C   UNL     1      -4.710   5.009   3.959  1.00  0.00     0.188 C 
BRANCH  41  42
ATOM     42  O   UNL     1      -4.763   4.660   2.590  1.00  0.00    -0.376 OA
BRANCH  42  43
ATOM     43  C   UNL     1      -3.549   4.507   1.883  1.00  0.00     0.202 C 
BRANCH  43  44
ATOM     44  C   UNL     1      -2.667   5.715   1.565  1.00  0.00     0.261 C 
BRANCH  44  45
ATOM     45  O   UNL     1      -2.006   6.261   2.719  1.00  0.00    -0.460 OA
BRANCH  45  46
ATOM     46  C   UNL     1      -2.641   7.306   3.297  1.00  0.00     0.338 C 
ATOM     47  O   UNL     1      -3.621   7.890   2.867  1.00  0.00    -0.246 OA
BRANCH  46  48
ATOM     48  C   UNL     1      -2.093   7.557   4.645  1.00  0.00     0.060 A 
ATOM     49  C   UNL     1      -2.970   7.496   5.737  1.00  0.00     0.016 A 
ATOM     50  C   UNL     1      -0.770   7.959   4.827  1.00  0.00     0.016 A 
ATOM     51  C   UNL     1      -2.544   7.833   7.013  1.00  0.00     0.010 A 
ATOM     52  C   UNL     1      -0.363   8.391   6.095  1.00  0.00     0.010 A 
ATOM     53  C   UNL     1      -1.264   8.363   7.178  1.00  0.00    -0.014 A 
BRANCH  53  54
ATOM     54  C   UNL     1      -1.040   9.203   8.375  1.00  0.00     0.031 A 
ATOM     55  C   UNL     1      -1.364  10.662   8.248  1.00  0.00     0.074 A 
ATOM     56  C   UNL     1      -0.680   8.680   9.559  1.00  0.00     0.049 A 
ATOM     57  N   UNL     1      -1.256  11.614   9.132  1.00  0.00    -0.248 NA
ATOM     58  C   UNL     1      -1.901  11.100   6.948  1.00  0.00     0.031 C 
ATOM     59  C   UNL     1      -0.497   7.261   9.815  1.00  0.00     0.029 A 
ATOM     60  N   UNL     1      -0.414   9.270  10.764  1.00  0.00    -0.354 N 
ATOM     61  C   UNL     1      -1.714  12.762   8.498  1.00  0.00     0.074 A 
ATOM     62  C   UNL     1      -2.064  12.396   7.145  1.00  0.00     0.031 C 
ATOM     63  C   UNL     1      -0.086   7.081  11.081  1.00  0.00     0.029 A 
ATOM     64  C   UNL     1       0.016   8.384  11.727  1.00  0.00     0.049 A 
ATOM     65  H   UNL     1      -0.520  10.235  10.928  1.00  0.00     0.167 HD
ATOM     66  C   UNL     1      -1.835  14.008   9.009  1.00  0.00     0.034 A 
ATOM     67  C   UNL     1       0.453   8.612  12.981  1.00  0.00     0.034 A 
ATOM     68  C   UNL     1      -1.454  14.344  10.356  1.00  0.00     0.049 A 
ATOM     69  C   UNL     1       0.440  10.034  13.483  1.00  0.00     0.074 A 
ATOM     70  C   UNL     1      -1.500  15.575  10.981  1.00  0.00     0.029 A 
ATOM     71  N   UNL     1      -0.938  13.444  11.282  1.00  0.00    -0.354 N 
ATOM     72  N   UNL     1       0.032  11.123  12.869  1.00  0.00    -0.248 NA
ATOM     73  C   UNL     1       0.927  10.259  14.848  1.00  0.00     0.031 C 
ATOM     74  C   UNL     1      -0.929  15.439  12.249  1.00  0.00     0.029 A 
ATOM     75  C   UNL     1      -0.622  14.102  12.459  1.00  0.00     0.049 A 
ATOM     76  H   UNL     1      -0.816  12.480  11.125  1.00  0.00     0.167 HD
ATOM     77  C   UNL     1       0.180  12.157  13.789  1.00  0.00     0.074 A 
ATOM     78  C   UNL     1       0.699  11.555  15.001  1.00  0.00     0.031 C 
ATOM     79  C   UNL     1      -0.093  13.480  13.651  1.00  0.00     0.034 A 
BRANCH  66  80
ATOM     80  C   UNL     1      -2.316  15.091   8.077  1.00  0.00     0.023 A 
ATOM     81  C   UNL     1      -3.598  15.066   7.501  1.00  0.00     0.031 A 
ATOM     82  C   UNL     1      -1.451  16.139   7.717  1.00  0.00     0.131 A 
ATOM     83  C   UNL     1      -3.953  16.030   6.545  1.00  0.00     0.055 A 
ATOM     84  C   UNL     1      -1.842  17.144   6.832  1.00  0.00     0.041 A 
ATOM     85  F   UNL     1      -0.201  16.192   8.204  1.00  0.00    -0.206 F 
ATOM     86  C   UNL     1      -3.094  17.086   6.229  1.00  0.00     0.022 A 
BRANCH  83  87
ATOM     87  S   UNL     1      -5.487  15.799   5.605  1.00  0.00     0.124 S 
ATOM     88  O   UNL     1      -5.258  14.496   4.985  1.00  0.00    -0.237 OA
ATOM     89  O   UNL     1      -6.505  15.840   6.648  1.00  0.00    -0.237 OA
ATOM     90  O   UNL     1      -5.495  16.930   4.679  1.00  0.00    -0.744 OA
ENDBRANCH  83  87
ENDBRANCH  66  80
BRANCH  67  91
ATOM     91  C   UNL     1       0.971   7.497  13.826  1.00  0.00     0.023 A 
ATOM     92  C   UNL     1       0.378   7.173  15.056  1.00  0.00     0.031 A 
ATOM     93  C   UNL     1       2.119   6.778  13.442  1.00  0.00     0.131 A 
ATOM     94  C   UNL     1       0.965   6.200  15.883  1.00  0.00     0.055 A 
ATOM     95  C   UNL     1       2.662   5.768  14.239  1.00  0.00     0.041 A 
ATOM     96  F   UNL     1       2.736   7.051  12.281  1.00  0.00    -0.206 F 
ATOM     97  C   UNL     1       2.093   5.485  15.476  1.00  0.00     0.022 A 
BRANCH  94  98
ATOM     98  S   UNL     1       0.295   5.961  17.552  1.00  0.00     0.124 S 
ATOM     99  O   UNL     1       0.412   7.303  18.112  1.00  0.00    -0.237 OA
ATOM    100  O   UNL     1      -1.059   5.497  17.272  1.00  0.00    -0.237 OA
ATOM    101  O   UNL     1       1.187   4.961  18.136  1.00  0.00    -0.744 OA
ENDBRANCH  94  98
ENDBRANCH  67  91
BRANCH  79 102
ATOM    102  C   UNL     1       0.121  14.353  14.863  1.00  0.00     0.023 A 
ATOM    103  C   UNL     1       1.397  14.553  15.417  1.00  0.00     0.031 A 
ATOM    104  C   UNL     1      -0.973  14.989  15.477  1.00  0.00     0.131 A 
ATOM    105  C   UNL     1       1.537  15.309  16.589  1.00  0.00     0.055 A 
ATOM    106  C   UNL     1      -0.816  15.806  16.596  1.00  0.00     0.041 A 
ATOM    107  F   UNL     1      -2.216  14.830  14.994  1.00  0.00    -0.206 F 
ATOM    108  C   UNL     1       0.443  15.956  17.168  1.00  0.00     0.022 A 
BRANCH 105 109
ATOM    109  S   UNL     1       3.150  15.332  17.416  1.00  0.00     0.124 S 
ATOM    110  O   UNL     1       3.391  13.912  17.648  1.00  0.00    -0.237 OA
ATOM    111  O   UNL     1       4.004  15.969  16.419  1.00  0.00    -0.237 OA
ATOM    112  O   UNL     1       2.906  16.124  18.620  1.00  0.00    -0.744 OA
ENDBRANCH 105 109
ENDBRANCH  79 102
ENDBRANCH  53  54
ENDBRANCH  46  48
ENDBRANCH  45  46
ENDBRANCH  44  45
ENDBRANCH  43  44
ENDBRANCH  42  43
ENDBRANCH  41  42
ENDBRANCH  40  41
ENDBRANCH   1  40
TORSDOF 28
