REMARK SMILES Cc1sc2nc(SCc3ccc(C(=O)OCCOCCOCCOCCOC(=O)c4ccc(-c5c6nc(c(-c7cc(S(=O)(=O)[O-])ccc7F)c7ccc([nH]7)c(-c7cc(S(=O)(=O)[O-])ccc7F)c7nc(c(-c8cc(S(=O)(=O)[O-])ccc8F)c8ccc5[nH]8)C=C7)C=C6)cc4)cc3)n(Cc3ccco3)c(=O)c2c1C
REMARK SMILES IDX 20 1 19 2 18 3 17 4 16 5 15 6 13 7 14 8 12 9 9 10 10 11
REMARK SMILES IDX 94 12 11 13 93 14 8 15 7 16 6 17 1 18 2 19 3 20 105 21 4 22
REMARK SMILES IDX 104 23 106 24 5 25 102 26 95 27 103 28 96 29 97 30 98 31
REMARK SMILES IDX 101 32 99 33 100 34 21 35 22 36 23 37 24 38 25 39 26 40
REMARK SMILES IDX 27 41 28 42 29 43 30 44 31 45 92 46 32 47 91 48 33 49 34 50
REMARK SMILES IDX 35 51 85 52 36 53 90 54 84 55 86 56 37 57 89 58 83 59 82 60
REMARK SMILES IDX 38 62 70 63 50 64 69 65 51 66 54 67 68 68 87 69 52 70 53 71
REMARK SMILES IDX 67 73 88 74 55 75 39 76 40 77 48 78 41 79 47 80 49 81 46 82
REMARK SMILES IDX 42 83 43 84 44 85 45 86 71 87 72 88 80 89 73 90 79 91 81 92
REMARK SMILES IDX 78 93 74 94 75 95 76 96 77 97 56 98 57 99 65 100 58 101
REMARK SMILES IDX 64 102 66 103 63 104 59 105 60 106 61 107 62 108
REMARK H PARENT 86 61 54 72
REMARK Flexibility Score: inf
ROOT
ATOM      1  C   UNL     1      -0.053  -5.367   9.012  1.00  0.00     0.188 C 
ENDROOT
BRANCH   1   2
ATOM      2  C   UNL     1      -0.853  -4.042   8.960  1.00  0.00     0.188 C 
BRANCH   2   3
ATOM      3  O   UNL     1      -1.453  -3.522  10.148  1.00  0.00    -0.376 OA
BRANCH   3   4
ATOM      4  C   UNL     1      -2.169  -4.415  10.999  1.00  0.00     0.202 C 
BRANCH   4   5
ATOM      5  C   UNL     1      -3.253  -5.287  10.353  1.00  0.00     0.261 C 
BRANCH   5   6
ATOM      6  O   UNL     1      -2.736  -6.097   9.285  1.00  0.00    -0.460 OA
BRANCH   6   7
ATOM      7  C   UNL     1      -3.623  -6.485   8.350  1.00  0.00     0.338 C 
ATOM      8  O   UNL     1      -4.836  -6.354   8.394  1.00  0.00    -0.246 OA
BRANCH   7   9
ATOM      9  C   UNL     1      -2.932  -7.072   7.179  1.00  0.00     0.060 A 
ATOM     10  C   UNL     1      -2.193  -7.911   4.601  1.00  0.00    -0.038 A 
ATOM     11  C   UNL     1      -1.659  -6.741   5.126  1.00  0.00     0.005 A 
ATOM     12  C   UNL     1      -2.946  -8.745   5.458  1.00  0.00     0.005 A 
ATOM     13  C   UNL     1      -2.070  -6.307   6.386  1.00  0.00     0.016 A 
ATOM     14  C   UNL     1      -3.314  -8.332   6.740  1.00  0.00     0.016 A 
BRANCH  10  15
ATOM     15  C   UNL     1      -2.187  -8.256   3.136  1.00  0.00     0.113 C 
BRANCH  15  16
ATOM     16  S   UNL     1      -1.202  -7.409   1.937  1.00  0.00    -0.083 SA
BRANCH  16  17
ATOM     17  C   UNL     1      -1.278  -5.665   1.846  1.00  0.00     0.173 A 
ATOM     18  C   UNL     1       1.450  -0.446   0.073  1.00  0.00     0.057 C 
ATOM     19  C   UNL     1       0.654  -1.613   0.561  1.00  0.00     0.007 A 
ATOM     20  S   UNL     1       1.329  -3.186   0.468  1.00  0.00    -0.120 S 
ATOM     21  C   UNL     1      -0.622  -1.627   1.107  1.00  0.00    -0.022 A 
ATOM     22  C   UNL     1      -0.077  -3.901   1.097  1.00  0.00     0.132 A 
ATOM     23  C   UNL     1      -1.068  -2.982   1.297  1.00  0.00     0.080 A 
ATOM     24  C   UNL     1      -1.425  -0.413   1.446  1.00  0.00     0.046 C 
ATOM     25  N   UNL     1      -0.174  -5.228   1.311  1.00  0.00    -0.213 NA
ATOM     26  C   UNL     1      -2.360  -3.498   1.690  1.00  0.00     0.263 A 
ATOM     27  N   UNL     1      -2.359  -4.834   2.149  1.00  0.00    -0.279 N 
ATOM     28  O   UNL     1      -3.379  -2.818   1.569  1.00  0.00    -0.268 OA
BRANCH  27  29
ATOM     29  C   UNL     1      -3.589  -5.169   2.858  1.00  0.00     0.203 C 
BRANCH  29  30
ATOM     30  C   UNL     1      -3.714  -4.400   4.154  1.00  0.00     0.123 A 
ATOM     31  C   UNL     1      -4.595  -4.476   5.217  1.00  0.00     0.047 A 
ATOM     32  O   UNL     1      -2.809  -3.398   4.400  1.00  0.00    -0.467 OA
ATOM     33  C   UNL     1      -4.219  -3.461   6.136  1.00  0.00     0.042 A 
ATOM     34  C   UNL     1      -3.141  -2.819   5.580  1.00  0.00     0.195 A 
ENDBRANCH  29  30
ENDBRANCH  27  29
ENDBRANCH  16  17
ENDBRANCH  15  16
ENDBRANCH  10  15
ENDBRANCH   7   9
ENDBRANCH   6   7
ENDBRANCH   5   6
ENDBRANCH   4   5
ENDBRANCH   3   4
ENDBRANCH   2   3
ENDBRANCH   1   2
BRANCH   1  35
ATOM     35  O   UNL     1       0.090  -5.894  10.315  1.00  0.00    -0.377 OA
BRANCH  35  36
ATOM     36  C   UNL     1       1.293  -5.555  10.989  1.00  0.00     0.188 C 
BRANCH  36  37
ATOM     37  C   UNL     1       1.783  -4.105  10.838  1.00  0.00     0.188 C 
BRANCH  37  38
ATOM     38  O   UNL     1       2.112  -3.757   9.491  1.00  0.00    -0.376 OA
BRANCH  38  39
ATOM     39  C   UNL     1       3.487  -3.856   9.123  1.00  0.00     0.202 C 
BRANCH  39  40
ATOM     40  C   UNL     1       4.024  -5.288   8.956  1.00  0.00     0.261 C 
BRANCH  40  41
ATOM     41  O   UNL     1       4.162  -6.054  10.163  1.00  0.00    -0.460 OA
BRANCH  41  42
ATOM     42  C   UNL     1       4.862  -5.490  11.171  1.00  0.00     0.338 C 
ATOM     43  O   UNL     1       5.419  -4.412  11.169  1.00  0.00    -0.246 OA
BRANCH  42  44
ATOM     44  C   UNL     1       4.679  -6.322  12.363  1.00  0.00     0.060 A 
ATOM     45  C   UNL     1       3.822  -5.889  13.380  1.00  0.00     0.016 A 
ATOM     46  C   UNL     1       5.433  -7.478  12.502  1.00  0.00     0.016 A 
ATOM     47  C   UNL     1       3.744  -6.604  14.568  1.00  0.00     0.010 A 
ATOM     48  C   UNL     1       5.396  -8.156  13.715  1.00  0.00     0.010 A 
ATOM     49  C   UNL     1       4.589  -7.704  14.774  1.00  0.00    -0.014 A 
BRANCH  49  50
ATOM     50  C   UNL     1       4.689  -8.290  16.136  1.00  0.00     0.031 A 
ATOM     51  C   UNL     1       5.077  -9.727  16.213  1.00  0.00     0.074 A 
ATOM     52  C   UNL     1       5.054  -7.505  17.178  1.00  0.00     0.049 A 
ATOM     53  N   UNL     1       6.300 -10.101  15.976  1.00  0.00    -0.248 NA
ATOM     54  C   UNL     1       4.125 -10.832  16.285  1.00  0.00     0.031 C 
ATOM     55  C   UNL     1       5.726  -6.203  17.015  1.00  0.00     0.029 A 
ATOM     56  N   UNL     1       5.149  -7.762  18.527  1.00  0.00    -0.354 N 
ATOM     57  C   UNL     1       6.273 -11.456  15.731  1.00  0.00     0.074 A 
ATOM     58  C   UNL     1       4.915 -11.880  15.996  1.00  0.00     0.031 C 
ATOM     59  C   UNL     1       6.321  -5.869  18.173  1.00  0.00     0.029 A 
ATOM     60  C   UNL     1       5.964  -6.844  19.193  1.00  0.00     0.049 A 
ATOM     61  H   UNL     1       4.692  -8.511  18.974  1.00  0.00     0.167 HD
ATOM     62  C   UNL     1       7.356 -12.128  15.262  1.00  0.00     0.034 A 
ATOM     63  C   UNL     1       6.748  -7.125  20.269  1.00  0.00     0.034 A 
ATOM     64  C   UNL     1       8.529 -11.334  15.030  1.00  0.00     0.049 A 
ATOM     65  C   UNL     1       7.782  -8.045  19.661  1.00  0.00     0.074 A 
ATOM     66  C   UNL     1       9.104 -10.684  13.959  1.00  0.00     0.029 A 
ATOM     67  N   UNL     1       9.309 -10.986  16.108  1.00  0.00    -0.354 N 
ATOM     68  N   UNL     1       8.817  -7.687  18.944  1.00  0.00    -0.248 NA
ATOM     69  C   UNL     1       7.460  -9.470  19.588  1.00  0.00     0.031 C 
ATOM     70  C   UNL     1       9.915  -9.649  14.524  1.00  0.00     0.029 A 
ATOM     71  C   UNL     1       9.736  -9.694  15.907  1.00  0.00     0.049 A 
ATOM     72  H   UNL     1       9.523 -11.557  16.881  1.00  0.00     0.167 HD
ATOM     73  C   UNL     1       9.094  -8.781  18.116  1.00  0.00     0.074 A 
ATOM     74  C   UNL     1       8.249  -9.854  18.596  1.00  0.00     0.031 C 
ATOM     75  C   UNL     1       9.846  -8.715  16.975  1.00  0.00     0.034 A 
BRANCH  62  76
ATOM     76  C   UNL     1       7.394 -13.590  15.092  1.00  0.00     0.023 A 
ATOM     77  C   UNL     1       6.977 -14.230  13.917  1.00  0.00     0.031 A 
ATOM     78  C   UNL     1       8.006 -14.348  16.104  1.00  0.00     0.131 A 
ATOM     79  C   UNL     1       7.198 -15.608  13.781  1.00  0.00     0.055 A 
ATOM     80  C   UNL     1       8.226 -15.714  15.963  1.00  0.00     0.041 A 
ATOM     81  F   UNL     1       8.431 -13.749  17.230  1.00  0.00    -0.206 F 
ATOM     82  C   UNL     1       7.826 -16.349  14.792  1.00  0.00     0.022 A 
BRANCH  79  83
ATOM     83  S   UNL     1       6.720 -16.496  12.273  1.00  0.00     0.124 S 
ATOM     84  O   UNL     1       7.987 -17.080  11.843  1.00  0.00    -0.237 OA
ATOM     85  O   UNL     1       5.734 -17.446  12.783  1.00  0.00    -0.237 OA
ATOM     86  O   UNL     1       6.186 -15.450  11.407  1.00  0.00    -0.744 OA
ENDBRANCH  79  83
ENDBRANCH  62  76
BRANCH  63  87
ATOM     87  C   UNL     1       5.970  -7.434  21.512  1.00  0.00     0.023 A 
ATOM     88  C   UNL     1       6.105  -8.600  22.276  1.00  0.00     0.031 A 
ATOM     89  C   UNL     1       4.991  -6.506  21.940  1.00  0.00     0.131 A 
ATOM     90  C   UNL     1       5.177  -8.894  23.288  1.00  0.00     0.055 A 
ATOM     91  C   UNL     1       4.108  -6.771  22.990  1.00  0.00     0.041 A 
ATOM     92  F   UNL     1       4.864  -5.317  21.325  1.00  0.00    -0.206 F 
ATOM     93  C   UNL     1       4.178  -7.988  23.651  1.00  0.00     0.022 A 
BRANCH  90  94
ATOM     94  S   UNL     1       5.211 -10.509  24.113  1.00  0.00     0.124 S 
ATOM     95  O   UNL     1       4.945 -10.159  25.506  1.00  0.00    -0.237 OA
ATOM     96  O   UNL     1       4.132 -11.206  23.419  1.00  0.00    -0.237 OA
ATOM     97  O   UNL     1       6.558 -10.997  23.838  1.00  0.00    -0.744 OA
ENDBRANCH  90  94
ENDBRANCH  63  87
BRANCH  75  98
ATOM     98  C   UNL     1      10.631  -7.457  16.752  1.00  0.00     0.023 A 
ATOM     99  C   UNL     1      10.383  -6.617  15.649  1.00  0.00     0.031 A 
ATOM    100  C   UNL     1      11.717  -7.150  17.586  1.00  0.00     0.131 A 
ATOM    101  C   UNL     1      11.253  -5.554  15.370  1.00  0.00     0.055 A 
ATOM    102  C   UNL     1      12.547  -6.055  17.337  1.00  0.00     0.041 A 
ATOM    103  F   UNL     1      12.025  -7.941  18.628  1.00  0.00    -0.206 F 
ATOM    104  C   UNL     1      12.325  -5.259  16.216  1.00  0.00     0.022 A 
BRANCH 101 105
ATOM    105  S   UNL     1      11.060  -4.558  13.866  1.00  0.00     0.124 S 
ATOM    106  O   UNL     1      11.196  -3.192  14.370  1.00  0.00    -0.237 OA
ATOM    107  O   UNL     1      12.176  -5.030  13.049  1.00  0.00    -0.237 OA
ATOM    108  O   UNL     1       9.732  -4.911  13.377  1.00  0.00    -0.744 OA
ENDBRANCH 101 105
ENDBRANCH  75  98
ENDBRANCH  49  50
ENDBRANCH  42  44
ENDBRANCH  41  42
ENDBRANCH  40  41
ENDBRANCH  39  40
ENDBRANCH  38  39
ENDBRANCH  37  38
ENDBRANCH  36  37
ENDBRANCH  35  36
ENDBRANCH   1  35
TORSDOF 28
