REMARK SMILES C[C@@H](C(=O)OCCOCCOCCOCCOC(=O)c1ccc(-c2c3nc(c(-c4cc(S(=O)(=O)[O-])ccc4F)c4ccc([nH]4)c(-c4cc(S(=O)(=O)[O-])ccc4F)c4nc(c(-c5cc(S(=O)(=O)[O-])ccc5F)c5ccc2[nH]5)C=C4)C=C3)cc1)c1ccc(O[C@H]2CCCC2=O)cc1F
REMARK SMILES IDX 11 1 10 2 9 3 8 4 7 5 6 6 5 7 3 8 4 9 2 10 1 11 83 12 84 13
REMARK SMILES IDX 95 14 85 15 94 16 96 17 86 18 87 19 88 20 89 21 92 22 90 23
REMARK SMILES IDX 91 24 93 25 12 26 13 27 14 28 15 29 16 30 17 31 18 32 19 33
REMARK SMILES IDX 20 34 21 35 82 36 22 37 81 38 23 39 24 40 25 41 75 42 26 43
REMARK SMILES IDX 80 44 74 45 76 46 27 47 79 48 73 49 72 50 28 52 60 53 40 54
REMARK SMILES IDX 59 55 41 56 44 57 58 58 77 59 42 60 43 61 57 63 78 64 45 65
REMARK SMILES IDX 29 66 30 67 38 68 31 69 37 70 39 71 36 72 32 73 33 74 34 75
REMARK SMILES IDX 35 76 61 77 62 78 70 79 63 80 69 81 71 82 68 83 64 84 65 85
REMARK SMILES IDX 66 86 67 87 46 88 47 89 55 90 48 91 54 92 56 93 53 94 49 95
REMARK SMILES IDX 50 96 51 97 52 98
REMARK H PARENT 76 51 44 62
REMARK Flexibility Score: inf
ROOT
ATOM      1  O   UNL     1       2.420   1.996   2.316  1.00  0.00    -0.377 OA
ENDROOT
BRANCH   1   2
ATOM      2  C   UNL     1       1.036   1.933   2.054  1.00  0.00     0.188 C 
BRANCH   2   3
ATOM      3  C   UNL     1       0.158   1.564   3.265  1.00  0.00     0.188 C 
BRANCH   3   4
ATOM      4  O   UNL     1       0.726   1.465   4.561  1.00  0.00    -0.376 OA
BRANCH   4   5
ATOM      5  C   UNL     1       1.981   0.827   4.746  1.00  0.00     0.202 C 
BRANCH   5   6
ATOM      6  C   UNL     1       2.347  -0.498   4.043  1.00  0.00     0.261 C 
BRANCH   6   7
ATOM      7  O   UNL     1       1.931  -0.660   2.673  1.00  0.00    -0.463 OA
BRANCH   7   8
ATOM      8  C   UNL     1       0.923  -1.538   2.452  1.00  0.00     0.313 C 
ATOM      9  O   UNL     1       0.393  -2.196   3.344  1.00  0.00    -0.252 OA
BRANCH   8  10
ATOM     10  C   UNL     1       0.455  -1.619   0.981  1.00  0.00     0.129 C 
ATOM     11  C   UNL     1       1.222  -0.848  -0.100  1.00  0.00     0.025 C 
BRANCH  10  12
ATOM     12  C   UNL     1      -1.059  -1.429   0.933  1.00  0.00     0.002 A 
ATOM     13  C   UNL     1      -1.700  -0.184   0.839  1.00  0.00     0.011 A 
ATOM     14  C   UNL     1      -1.859  -2.543   1.186  1.00  0.00     0.130 A 
ATOM     15  C   UNL     1      -3.080  -0.074   1.050  1.00  0.00     0.047 A 
ATOM     16  C   UNL     1      -3.229  -2.439   1.392  1.00  0.00     0.086 A 
ATOM     17  F   UNL     1      -1.300  -3.759   1.275  1.00  0.00    -0.207 F 
ATOM     18  C   UNL     1      -3.854  -1.203   1.323  1.00  0.00     0.123 A 
BRANCH  18  19
ATOM     19  O   UNL     1      -5.177  -0.955   1.535  1.00  0.00    -0.483 OA
BRANCH  19  20
ATOM     20  C   UNL     1      -6.137  -1.968   1.333  1.00  0.00     0.239 C 
ATOM     21  C   UNL     1      -6.253  -2.428  -0.127  1.00  0.00     0.054 C 
ATOM     22  C   UNL     1      -6.142  -3.269   2.128  1.00  0.00     0.173 C 
ATOM     23  C   UNL     1      -5.980  -3.929  -0.145  1.00  0.00     0.012 C 
ATOM     24  C   UNL     1      -6.321  -4.468   1.237  1.00  0.00     0.080 C 
ATOM     25  O   UNL     1      -6.047  -3.348   3.347  1.00  0.00    -0.296 OA
ENDBRANCH  19  20
ENDBRANCH  18  19
ENDBRANCH  10  12
ENDBRANCH   8  10
ENDBRANCH   7   8
ENDBRANCH   6   7
ENDBRANCH   5   6
ENDBRANCH   4   5
ENDBRANCH   3   4
ENDBRANCH   2   3
ENDBRANCH   1   2
BRANCH   1  26
ATOM     26  C   UNL     1       2.956   3.280   2.592  1.00  0.00     0.188 C 
BRANCH  26  27
ATOM     27  C   UNL     1       2.081   4.270   3.386  1.00  0.00     0.188 C 
BRANCH  27  28
ATOM     28  O   UNL     1       0.769   4.439   2.857  1.00  0.00    -0.376 OA
BRANCH  28  29
ATOM     29  C   UNL     1       0.513   5.558   2.021  1.00  0.00     0.202 C 
BRANCH  29  30
ATOM     30  C   UNL     1       1.159   5.562   0.624  1.00  0.00     0.261 C 
BRANCH  30  31
ATOM     31  O   UNL     1       2.592   5.502   0.577  1.00  0.00    -0.460 OA
BRANCH  31  32
ATOM     32  C   UNL     1       3.284   6.460   1.232  1.00  0.00     0.338 C 
ATOM     33  O   UNL     1       2.817   7.428   1.809  1.00  0.00    -0.246 OA
BRANCH  32  34
ATOM     34  C   UNL     1       4.694   6.022   1.317  1.00  0.00     0.060 A 
ATOM     35  C   UNL     1       5.278   5.868   2.581  1.00  0.00     0.016 A 
ATOM     36  C   UNL     1       5.428   5.742   0.162  1.00  0.00     0.016 A 
ATOM     37  C   UNL     1       6.610   5.468   2.693  1.00  0.00     0.010 A 
ATOM     38  C   UNL     1       6.770   5.368   0.274  1.00  0.00     0.010 A 
ATOM     39  C   UNL     1       7.377   5.263   1.539  1.00  0.00    -0.014 A 
BRANCH  39  40
ATOM     40  C   UNL     1       8.854   5.165   1.650  1.00  0.00     0.031 A 
ATOM     41  C   UNL     1       9.664   6.412   1.411  1.00  0.00     0.074 A 
ATOM     42  C   UNL     1       9.464   4.013   1.984  1.00  0.00     0.049 A 
ATOM     43  N   UNL     1      10.960   6.573   1.390  1.00  0.00    -0.248 NA
ATOM     44  C   UNL     1       8.898   7.642   1.155  1.00  0.00     0.031 C 
ATOM     45  C   UNL     1       8.785   2.758   2.300  1.00  0.00     0.029 A 
ATOM     46  N   UNL     1      10.799   3.714   2.108  1.00  0.00    -0.354 N 
ATOM     47  C   UNL     1      11.168   7.920   1.111  1.00  0.00     0.074 A 
ATOM     48  C   UNL     1       9.863   8.520   0.934  1.00  0.00     0.031 C 
ATOM     49  C   UNL     1       9.710   1.821   2.574  1.00  0.00     0.029 A 
ATOM     50  C   UNL     1      11.045   2.394   2.409  1.00  0.00     0.049 A 
ATOM     51  H   UNL     1      11.513   4.382   1.992  1.00  0.00     0.167 HD
ATOM     52  C   UNL     1      12.339   8.596   1.019  1.00  0.00     0.034 A 
ATOM     53  C   UNL     1      12.212   1.725   2.509  1.00  0.00     0.034 A 
ATOM     54  C   UNL     1      13.632   7.979   1.186  1.00  0.00     0.049 A 
ATOM     55  C   UNL     1      13.508   2.477   2.296  1.00  0.00     0.074 A 
ATOM     56  C   UNL     1      14.881   8.569   1.125  1.00  0.00     0.029 A 
ATOM     57  N   UNL     1      13.843   6.628   1.431  1.00  0.00    -0.354 N 
ATOM     58  N   UNL     1      13.694   3.752   2.035  1.00  0.00    -0.248 NA
ATOM     59  C   UNL     1      14.751   1.700   2.395  1.00  0.00     0.031 C 
ATOM     60  C   UNL     1      15.846   7.564   1.243  1.00  0.00     0.029 A 
ATOM     61  C   UNL     1      15.203   6.360   1.480  1.00  0.00     0.049 A 
ATOM     62  H   UNL     1      13.132   5.958   1.553  1.00  0.00     0.167 HD
ATOM     63  C   UNL     1      15.075   3.932   1.980  1.00  0.00     0.074 A 
ATOM     64  C   UNL     1      15.672   2.640   2.246  1.00  0.00     0.031 C 
ATOM     65  C   UNL     1      15.787   5.064   1.740  1.00  0.00     0.034 A 
BRANCH  52  66
ATOM     66  C   UNL     1      12.271  10.061   0.660  1.00  0.00     0.023 A 
ATOM     67  C   UNL     1      11.645  11.004   1.494  1.00  0.00     0.031 A 
ATOM     68  C   UNL     1      12.815  10.516  -0.554  1.00  0.00     0.131 A 
ATOM     69  C   UNL     1      11.516  12.336   1.071  1.00  0.00     0.055 A 
ATOM     70  C   UNL     1      12.761  11.860  -0.929  1.00  0.00     0.041 A 
ATOM     71  F   UNL     1      13.399   9.659  -1.406  1.00  0.00    -0.206 F 
ATOM     72  C   UNL     1      12.095  12.776  -0.121  1.00  0.00     0.022 A 
BRANCH  69  73
ATOM     73  S   UNL     1      10.450  13.450   2.027  1.00  0.00     0.124 S 
ATOM     74  O   UNL     1       9.172  12.741   1.986  1.00  0.00    -0.237 OA
ATOM     75  O   UNL     1      11.117  13.491   3.322  1.00  0.00    -0.237 OA
ATOM     76  O   UNL     1      10.486  14.696   1.264  1.00  0.00    -0.744 OA
ENDBRANCH  69  73
ENDBRANCH  52  66
BRANCH  53  77
ATOM     77  C   UNL     1      12.228   0.256   2.779  1.00  0.00     0.023 A 
ATOM     78  C   UNL     1      12.853  -0.267   3.923  1.00  0.00     0.031 A 
ATOM     79  C   UNL     1      11.681  -0.654   1.857  1.00  0.00     0.131 A 
ATOM     80  C   UNL     1      12.961  -1.657   4.089  1.00  0.00     0.055 A 
ATOM     81  C   UNL     1      11.736  -2.035   2.058  1.00  0.00     0.041 A 
ATOM     82  F   UNL     1      11.080  -0.212   0.740  1.00  0.00    -0.206 F 
ATOM     83  C   UNL     1      12.393  -2.544   3.173  1.00  0.00     0.022 A 
BRANCH  80  84
ATOM     84  S   UNL     1      13.954  -2.292   5.469  1.00  0.00     0.124 S 
ATOM     85  O   UNL     1      15.253  -1.685   5.202  1.00  0.00    -0.237 OA
ATOM     86  O   UNL     1      13.229  -1.776   6.625  1.00  0.00    -0.237 OA
ATOM     87  O   UNL     1      13.893  -3.741   5.293  1.00  0.00    -0.744 OA
ENDBRANCH  80  84
ENDBRANCH  53  77
BRANCH  65  88
ATOM     88  C   UNL     1      17.294   4.967   1.812  1.00  0.00     0.023 A 
ATOM     89  C   UNL     1      18.036   4.194   0.902  1.00  0.00     0.031 A 
ATOM     90  C   UNL     1      17.997   5.662   2.814  1.00  0.00     0.131 A 
ATOM     91  C   UNL     1      19.428   4.088   1.048  1.00  0.00     0.055 A 
ATOM     92  C   UNL     1      19.388   5.610   2.909  1.00  0.00     0.041 A 
ATOM     93  F   UNL     1      17.342   6.413   3.714  1.00  0.00    -0.206 F 
ATOM     94  C   UNL     1      20.111   4.808   2.032  1.00  0.00     0.022 A 
BRANCH  91  95
ATOM     95  S   UNL     1      20.328   2.913  -0.002  1.00  0.00     0.124 S 
ATOM     96  O   UNL     1      19.659   1.654   0.312  1.00  0.00    -0.237 OA
ATOM     97  O   UNL     1      20.091   3.445  -1.340  1.00  0.00    -0.237 OA
ATOM     98  O   UNL     1      21.707   3.017   0.471  1.00  0.00    -0.744 OA
ENDBRANCH  91  95
ENDBRANCH  65  88
ENDBRANCH  39  40
ENDBRANCH  32  34
ENDBRANCH  31  32
ENDBRANCH  30  31
ENDBRANCH  29  30
ENDBRANCH  28  29
ENDBRANCH  27  28
ENDBRANCH  26  27
ENDBRANCH   1  26
TORSDOF 26
