REMARK SMILES COc1ccc(-c2ccc(/C=C3\SC(=S)N([C@H](Cc4ccccc4)C(=O)OCCOCCOCCOCCOC(=O)c4ccc(-c5c6nc(c(-c7cc(S(=O)(=O)[O-])ccc7F)c7ccc([nH]7)c(-c7cc(S(=O)(=O)[O-])ccc7F)c7nc(c(-c8cc(S(=O)(=O)[O-])ccc8F)c8ccc5[nH]8)C=C7)C=C6)cc4)C3=O)o2)cc1
REMARK SMILES IDX 32 1 31 2 30 3 29 4 28 5 27 6 25 7 26 8 17 9 16 10 11 11
REMARK SMILES IDX 12 12 13 13 105 14 14 15 106 16 15 17 10 18 7 19 8 20 107 21
REMARK SMILES IDX 9 22 6 23 3 24 4 25 109 26 5 27 108 28 2 29 1 30 18 31 19 32
REMARK SMILES IDX 20 33 24 34 21 35 23 36 22 37 33 38 34 39 35 40 36 41 37 42
REMARK SMILES IDX 38 43 39 44 40 45 41 46 42 47 43 48 104 49 44 50 103 51
REMARK SMILES IDX 45 52 46 53 47 54 97 55 48 56 102 57 96 58 98 59 49 60
REMARK SMILES IDX 101 61 95 62 94 63 50 65 82 66 62 67 81 68 63 69 66 70 80 71
REMARK SMILES IDX 99 72 64 73 65 74 79 76 100 77 67 78 51 79 52 80 60 81 53 82
REMARK SMILES IDX 59 83 61 84 58 85 54 86 55 87 56 88 57 89 83 90 84 91 92 92
REMARK SMILES IDX 85 93 91 94 93 95 90 96 86 97 87 98 88 99 89 100 68 101
REMARK SMILES IDX 69 102 77 103 70 104 76 105 78 106 75 107 71 108 72 109
REMARK SMILES IDX 73 110 74 111
REMARK H PARENT 98 64 66 75
REMARK Flexibility Score: inf
ROOT
ATOM      1  C   UNL     1       3.244   1.706  14.380  1.00  0.00     0.188 C 
ENDROOT
BRANCH   1   2
ATOM      2  C   UNL     1       3.316   1.515  15.902  1.00  0.00     0.188 C 
BRANCH   2   3
ATOM      3  O   UNL     1       4.263   0.633  16.481  1.00  0.00    -0.376 OA
BRANCH   3   4
ATOM      4  C   UNL     1       4.325  -0.743  16.118  1.00  0.00     0.202 C 
BRANCH   4   5
ATOM      5  C   UNL     1       3.075  -1.580  15.812  1.00  0.00     0.261 C 
BRANCH   5   6
ATOM      6  O   UNL     1       2.166  -0.987  14.868  1.00  0.00    -0.462 OA
BRANCH   6   7
ATOM      7  C   UNL     1       0.949  -0.693  15.357  1.00  0.00     0.329 C 
ATOM      8  O   UNL     1       0.582  -1.000  16.494  1.00  0.00    -0.250 OA
BRANCH   7   9
ATOM      9  C   UNL     1       0.051   0.162  14.449  1.00  0.00     0.206 C 
BRANCH   9  10
ATOM     10  N   UNL     1      -1.273  -0.405  14.717  1.00  0.00    -0.278 N 
ATOM     11  C   UNL     1      -4.490   0.346  15.971  1.00  0.00     0.068 C 
ATOM     12  C   UNL     1      -3.418  -0.351  15.590  1.00  0.00     0.084 C 
ATOM     13  S   UNL     1      -3.325  -1.929  14.919  1.00  0.00    -0.054 SA
ATOM     14  C   UNL     1      -2.107   0.304  15.555  1.00  0.00     0.267 C 
ATOM     15  C   UNL     1      -1.702  -1.656  14.312  1.00  0.00     0.149 C 
ATOM     16  O   UNL     1      -1.856   1.350  16.137  1.00  0.00    -0.268 OA
ATOM     17  S   UNL     1      -0.893  -2.808  13.418  1.00  0.00    -0.052 S 
BRANCH  11  18
ATOM     18  C   UNL     1      -5.769  -0.240  15.972  1.00  0.00     0.128 A 
ATOM     19  C   UNL     1      -7.867  -0.597  15.426  1.00  0.00     0.134 A 
ATOM     20  C   UNL     1      -7.543  -1.579  16.331  1.00  0.00     0.051 A 
ATOM     21  O   UNL     1      -6.809   0.222  15.207  1.00  0.00    -0.457 OA
ATOM     22  C   UNL     1      -6.205  -1.347  16.687  1.00  0.00     0.051 A 
BRANCH  19  23
ATOM     23  C   UNL     1      -9.100  -0.252  14.761  1.00  0.00     0.017 A 
ATOM     24  C   UNL     1     -11.582   0.246  13.573  1.00  0.00     0.118 A 
ATOM     25  C   UNL     1     -10.473  -0.070  12.783  1.00  0.00     0.047 A 
ATOM     26  C   UNL     1     -11.446   0.316  14.959  1.00  0.00     0.047 A 
ATOM     27  C   UNL     1      -9.227  -0.303  13.372  1.00  0.00     0.016 A 
ATOM     28  C   UNL     1     -10.209   0.068  15.549  1.00  0.00     0.016 A 
BRANCH  24  29
ATOM     29  O   UNL     1     -12.759   0.420  12.899  1.00  0.00    -0.497 OA
ATOM     30  C   UNL     1     -13.693   1.289  13.531  1.00  0.00     0.278 C 
ENDBRANCH  24  29
ENDBRANCH  19  23
ENDBRANCH  11  18
ENDBRANCH   9  10
BRANCH   9  31
ATOM     31  C   UNL     1       0.251   0.494  12.949  1.00  0.00     0.073 C 
BRANCH  31  32
ATOM     32  C   UNL     1      -0.267   1.898  12.574  1.00  0.00    -0.045 A 
ATOM     33  C   UNL     1      -1.532   2.363  12.973  1.00  0.00     0.004 A 
ATOM     34  C   UNL     1       0.514   2.766  11.796  1.00  0.00     0.004 A 
ATOM     35  C   UNL     1      -1.960   3.668  12.709  1.00  0.00     0.000 A 
ATOM     36  C   UNL     1       0.071   4.064  11.496  1.00  0.00     0.000 A 
ATOM     37  C   UNL     1      -1.155   4.523  11.972  1.00  0.00     0.000 A 
ENDBRANCH  31  32
ENDBRANCH   9  31
ENDBRANCH   7   9
ENDBRANCH   6   7
ENDBRANCH   5   6
ENDBRANCH   4   5
ENDBRANCH   3   4
ENDBRANCH   2   3
ENDBRANCH   1   2
BRANCH   1  38
ATOM     38  O   UNL     1       3.668   0.605  13.607  1.00  0.00    -0.377 OA
BRANCH  38  39
ATOM     39  C   UNL     1       5.019   0.539  13.170  1.00  0.00     0.188 C 
BRANCH  39  40
ATOM     40  C   UNL     1       6.088   1.399  13.869  1.00  0.00     0.188 C 
BRANCH  40  41
ATOM     41  O   UNL     1       5.728   2.765  14.025  1.00  0.00    -0.376 OA
BRANCH  41  42
ATOM     42  C   UNL     1       6.123   3.682  13.014  1.00  0.00     0.202 C 
BRANCH  42  43
ATOM     43  C   UNL     1       5.506   3.499  11.617  1.00  0.00     0.261 C 
BRANCH  43  44
ATOM     44  O   UNL     1       5.864   2.308  10.892  1.00  0.00    -0.460 OA
BRANCH  44  45
ATOM     45  C   UNL     1       7.168   1.976  10.781  1.00  0.00     0.338 C 
ATOM     46  O   UNL     1       8.125   2.634  11.149  1.00  0.00    -0.246 OA
BRANCH  45  47
ATOM     47  C   UNL     1       7.238   0.573  10.318  1.00  0.00     0.060 A 
ATOM     48  C   UNL     1       7.907  -0.373  11.108  1.00  0.00     0.016 A 
ATOM     49  C   UNL     1       6.644   0.191   9.114  1.00  0.00     0.016 A 
ATOM     50  C   UNL     1       8.012  -1.697  10.676  1.00  0.00     0.010 A 
ATOM     51  C   UNL     1       6.769  -1.129   8.673  1.00  0.00     0.010 A 
ATOM     52  C   UNL     1       7.480  -2.073   9.436  1.00  0.00    -0.014 A 
BRANCH  52  53
ATOM     53  C   UNL     1       7.835  -3.386   8.837  1.00  0.00     0.031 A 
ATOM     54  C   UNL     1       8.960  -3.429   7.838  1.00  0.00     0.074 A 
ATOM     55  C   UNL     1       7.180  -4.514   9.165  1.00  0.00     0.049 A 
ATOM     56  N   UNL     1       9.392  -4.425   7.110  1.00  0.00    -0.248 NA
ATOM     57  C   UNL     1       9.692  -2.169   7.633  1.00  0.00     0.031 C 
ATOM     58  C   UNL     1       6.113  -4.613  10.159  1.00  0.00     0.029 A 
ATOM     59  N   UNL     1       7.312  -5.794   8.684  1.00  0.00    -0.354 N 
ATOM     60  C   UNL     1      10.442  -3.913   6.355  1.00  0.00     0.074 A 
ATOM     61  C   UNL     1      10.555  -2.509   6.689  1.00  0.00     0.031 C 
ATOM     62  C   UNL     1       5.676  -5.885  10.202  1.00  0.00     0.029 A 
ATOM     63  C   UNL     1       6.399  -6.679   9.209  1.00  0.00     0.049 A 
ATOM     64  H   UNL     1       7.996  -6.053   8.025  1.00  0.00     0.167 HD
ATOM     65  C   UNL     1      11.242  -4.555   5.469  1.00  0.00     0.034 A 
ATOM     66  C   UNL     1       6.154  -7.969   8.897  1.00  0.00     0.034 A 
ATOM     67  C   UNL     1      11.105  -5.950   5.131  1.00  0.00     0.049 A 
ATOM     68  C   UNL     1       6.983  -8.637   7.822  1.00  0.00     0.074 A 
ATOM     69  C   UNL     1      11.866  -6.703   4.253  1.00  0.00     0.029 A 
ATOM     70  N   UNL     1      10.133  -6.801   5.642  1.00  0.00    -0.354 N 
ATOM     71  N   UNL     1       7.975  -8.145   7.114  1.00  0.00    -0.248 NA
ATOM     72  C   UNL     1       6.660 -10.036   7.505  1.00  0.00     0.031 C 
ATOM     73  C   UNL     1      11.306  -7.982   4.173  1.00  0.00     0.029 A 
ATOM     74  C   UNL     1      10.251  -8.058   5.068  1.00  0.00     0.049 A 
ATOM     75  H   UNL     1       9.459  -6.549   6.314  1.00  0.00     0.167 HD
ATOM     76  C   UNL     1       8.414  -9.185   6.297  1.00  0.00     0.074 A 
ATOM     77  C   UNL     1       7.587 -10.332   6.606  1.00  0.00     0.031 C 
ATOM     78  C   UNL     1       9.415  -9.194   5.379  1.00  0.00     0.034 A 
BRANCH  65  79
ATOM     79  C   UNL     1      12.294  -3.734   4.765  1.00  0.00     0.023 A 
ATOM     80  C   UNL     1      13.348  -3.121   5.466  1.00  0.00     0.031 A 
ATOM     81  C   UNL     1      12.224  -3.532   3.375  1.00  0.00     0.131 A 
ATOM     82  C   UNL     1      14.243  -2.279   4.788  1.00  0.00     0.055 A 
ATOM     83  C   UNL     1      13.167  -2.761   2.694  1.00  0.00     0.041 A 
ATOM     84  F   UNL     1      11.226  -4.070   2.656  1.00  0.00    -0.206 F 
ATOM     85  C   UNL     1      14.176  -2.116   3.403  1.00  0.00     0.022 A 
BRANCH  82  86
ATOM     86  S   UNL     1      15.401  -1.281   5.765  1.00  0.00     0.124 S 
ATOM     87  O   UNL     1      14.489  -0.524   6.620  1.00  0.00    -0.237 OA
ATOM     88  O   UNL     1      16.208  -2.296   6.431  1.00  0.00    -0.237 OA
ATOM     89  O   UNL     1      16.102  -0.487   4.758  1.00  0.00    -0.744 OA
ENDBRANCH  82  86
ENDBRANCH  65  79
BRANCH  66  90
ATOM     90  C   UNL     1       5.045  -8.715   9.563  1.00  0.00     0.023 A 
ATOM     91  C   UNL     1       5.300  -9.861  10.335  1.00  0.00     0.031 A 
ATOM     92  C   UNL     1       3.704  -8.332   9.379  1.00  0.00     0.131 A 
ATOM     93  C   UNL     1       4.231 -10.610  10.852  1.00  0.00     0.055 A 
ATOM     94  C   UNL     1       2.647  -9.047   9.945  1.00  0.00     0.041 A 
ATOM     95  F   UNL     1       3.401  -7.251   8.643  1.00  0.00    -0.206 F 
ATOM     96  C   UNL     1       2.907 -10.202  10.675  1.00  0.00     0.022 A 
BRANCH  93  97
ATOM     97  S   UNL     1       4.592 -12.183  11.679  1.00  0.00     0.124 S 
ATOM     98  O   UNL     1       5.284 -12.919  10.627  1.00  0.00    -0.237 OA
ATOM     99  O   UNL     1       5.412 -11.751  12.806  1.00  0.00    -0.237 OA
ATOM    100  O   UNL     1       3.269 -12.694  12.033  1.00  0.00    -0.744 OA
ENDBRANCH  93  97
ENDBRANCH  66  90
BRANCH  78 101
ATOM    101  C   UNL     1       9.708 -10.502   4.681  1.00  0.00     0.023 A 
ATOM    102  C   UNL     1       8.796 -11.092   3.789  1.00  0.00     0.031 A 
ATOM    103  C   UNL     1      10.929 -11.163   4.908  1.00  0.00     0.131 A 
ATOM    104  C   UNL     1       9.098 -12.328   3.194  1.00  0.00     0.055 A 
ATOM    105  C   UNL     1      11.250 -12.360   4.267  1.00  0.00     0.041 A 
ATOM    106  F   UNL     1      11.838 -10.649   5.752  1.00  0.00    -0.206 F 
ATOM    107  C   UNL     1      10.327 -12.955   3.413  1.00  0.00     0.022 A 
BRANCH 104 108
ATOM    108  S   UNL     1       7.828 -13.150   2.193  1.00  0.00     0.124 S 
ATOM    109  O   UNL     1       6.737 -13.301   3.151  1.00  0.00    -0.237 OA
ATOM    110  O   UNL     1       7.605 -12.188   1.119  1.00  0.00    -0.237 OA
ATOM    111  O   UNL     1       8.469 -14.398   1.783  1.00  0.00    -0.744 OA
ENDBRANCH 104 108
ENDBRANCH  78 101
ENDBRANCH  52  53
ENDBRANCH  45  47
ENDBRANCH  44  45
ENDBRANCH  43  44
ENDBRANCH  42  43
ENDBRANCH  41  42
ENDBRANCH  40  41
ENDBRANCH  39  40
ENDBRANCH  38  39
ENDBRANCH   1  38
TORSDOF 29
