REMARK SMILES CCCc1nc(C)cc(N2CCC(C(=O)OCCOCCOCCOCCOC(=O)c3ccc(-c4c5nc(c(-c6cc(S(=O)(=O)[O-])ccc6F)c6ccc([nH]6)c(-c6cc(S(=O)(=O)[O-])ccc6F)c6nc(c(-c7cc(S(=O)(=O)[O-])ccc7F)c7ccc4[nH]7)C=C6)C=C5)cc3)(n3ccc(C(C)C)n3)CC2)n1
REMARK SMILES IDX 22 1 21 2 20 3 19 4 18 5 17 6 16 7 14 8 15 9 13 10 10 11
REMARK SMILES IDX 11 12 103 13 12 14 102 15 9 16 4 17 5 18 104 19 6 20 7 21
REMARK SMILES IDX 8 22 3 23 2 24 1 25 94 26 95 27 101 28 96 29 97 30 98 31
REMARK SMILES IDX 99 32 100 33 23 34 24 35 25 36 26 37 27 38 28 39 29 40 30 41
REMARK SMILES IDX 31 42 32 43 93 44 33 45 92 46 34 47 35 48 36 49 86 50 37 51
REMARK SMILES IDX 91 52 85 53 87 54 38 55 90 56 84 57 83 58 39 60 71 61 51 62
REMARK SMILES IDX 70 63 52 64 55 65 69 66 88 67 53 68 54 69 68 71 89 72 56 73
REMARK SMILES IDX 40 74 41 75 49 76 42 77 48 78 50 79 47 80 43 81 44 82 45 83
REMARK SMILES IDX 46 84 72 85 73 86 81 87 74 88 80 89 82 90 79 91 75 92 76 93
REMARK SMILES IDX 77 94 78 95 57 96 58 97 66 98 59 99 65 100 67 101 64 102
REMARK SMILES IDX 60 103 61 104 62 105 63 106
REMARK H PARENT 87 59 55 70
REMARK Flexibility Score: inf
ROOT
ATOM      1  O   UNL     1       1.841  -9.874   0.144  1.00  0.00    -0.377 OA
ENDROOT
BRANCH   1   2
ATOM      2  C   UNL     1       1.954 -10.585   1.361  1.00  0.00     0.188 C 
BRANCH   2   3
ATOM      3  C   UNL     1       1.011 -11.778   1.547  1.00  0.00     0.188 C 
BRANCH   3   4
ATOM      4  O   UNL     1       0.446 -12.399   0.411  1.00  0.00    -0.376 OA
BRANCH   4   5
ATOM      5  C   UNL     1      -0.406 -11.675  -0.464  1.00  0.00     0.202 C 
BRANCH   5   6
ATOM      6  C   UNL     1      -1.215 -10.416  -0.081  1.00  0.00     0.261 C 
BRANCH   6   7
ATOM      7  O   UNL     1      -0.615  -9.487   0.835  1.00  0.00    -0.461 OA
BRANCH   7   8
ATOM      8  C   UNL     1      -1.239  -9.306   2.027  1.00  0.00     0.334 C 
ATOM      9  O   UNL     1      -2.285  -9.884   2.324  1.00  0.00    -0.249 OA
BRANCH   8  10
ATOM     10  C   UNL     1      -0.583  -8.224   2.933  1.00  0.00     0.163 C 
ATOM     11  N   UNL     1      -0.192  -5.362   3.119  1.00  0.00    -0.356 N 
ATOM     12  C   UNL     1       0.991  -6.177   2.962  1.00  0.00     0.121 C 
ATOM     13  C   UNL     1      -1.408  -5.888   3.691  1.00  0.00     0.121 C 
ATOM     14  C   UNL     1       0.650  -7.510   2.321  1.00  0.00     0.064 C 
ATOM     15  C   UNL     1      -1.752  -7.212   3.043  1.00  0.00     0.064 C 
BRANCH  11  16
ATOM     16  C   UNL     1      -0.129  -4.056   2.686  1.00  0.00     0.132 A 
ATOM     17  C   UNL     1       0.442  -2.554   1.044  1.00  0.00     0.130 A 
ATOM     18  N   UNL     1       0.009  -1.505   1.761  1.00  0.00    -0.238 NA
ATOM     19  N   UNL     1       0.423  -3.821   1.487  1.00  0.00    -0.216 NA
ATOM     20  C   UNL     1      -0.502  -1.756   2.977  1.00  0.00     0.043 A 
ATOM     21  C   UNL     1      -0.939  -0.574   3.782  1.00  0.00     0.067 C 
ATOM     22  C   UNL     1      -0.612  -3.032   3.473  1.00  0.00     0.070 A 
BRANCH  17  23
ATOM     23  C   UNL     1       1.032  -2.325  -0.323  1.00  0.00     0.077 C 
BRANCH  23  24
ATOM     24  C   UNL     1       0.632  -1.015  -1.007  1.00  0.00     0.005 C 
ATOM     25  C   UNL     1       1.307   0.216  -0.413  1.00  0.00     0.004 C 
ENDBRANCH  23  24
ENDBRANCH  17  23
ENDBRANCH  11  16
BRANCH  10  26
ATOM     26  N   UNL     1      -0.232  -8.843   4.232  1.00  0.00    -0.255 N 
ATOM     27  C   UNL     1       0.132  -8.234   5.408  1.00  0.00     0.110 A 
ATOM     28  N   UNL     1      -0.160 -10.190   4.349  1.00  0.00    -0.177 NA
ATOM     29  C   UNL     1       0.298  -9.225   6.343  1.00  0.00     0.045 A 
ATOM     30  C   UNL     1       0.064 -10.425   5.646  1.00  0.00     0.065 A 
BRANCH  30  31
ATOM     31  C   UNL     1       0.019 -11.826   6.187  1.00  0.00     0.034 C 
ATOM     32  C   UNL     1       1.314 -12.210   6.906  1.00  0.00     0.014 C 
ATOM     33  C   UNL     1      -1.181 -12.006   7.124  1.00  0.00     0.014 C 
ENDBRANCH  30  31
ENDBRANCH  10  26
ENDBRANCH   8  10
ENDBRANCH   7   8
ENDBRANCH   6   7
ENDBRANCH   5   6
ENDBRANCH   4   5
ENDBRANCH   3   4
ENDBRANCH   2   3
ENDBRANCH   1   2
BRANCH   1  34
ATOM     34  C   UNL     1       2.582 -10.331  -0.982  1.00  0.00     0.188 C 
BRANCH  34  35
ATOM     35  C   UNL     1       3.196 -11.745  -0.970  1.00  0.00     0.188 C 
BRANCH  35  36
ATOM     36  O   UNL     1       3.824 -12.108   0.250  1.00  0.00    -0.376 OA
BRANCH  36  37
ATOM     37  C   UNL     1       5.210 -11.858   0.421  1.00  0.00     0.202 C 
BRANCH  37  38
ATOM     38  C   UNL     1       5.730 -10.417   0.285  1.00  0.00     0.261 C 
BRANCH  38  39
ATOM     39  O   UNL     1       5.534  -9.767  -0.980  1.00  0.00    -0.460 OA
BRANCH  39  40
ATOM     40  C   UNL     1       5.971 -10.388  -2.100  1.00  0.00     0.338 C 
ATOM     41  O   UNL     1       6.596 -11.422  -2.165  1.00  0.00    -0.246 OA
BRANCH  40  42
ATOM     42  C   UNL     1       5.364  -9.679  -3.251  1.00  0.00     0.060 A 
ATOM     43  C   UNL     1       4.491 -10.375  -4.099  1.00  0.00     0.016 A 
ATOM     44  C   UNL     1       5.641  -8.330  -3.476  1.00  0.00     0.016 A 
ATOM     45  C   UNL     1       3.905  -9.725  -5.187  1.00  0.00     0.010 A 
ATOM     46  C   UNL     1       5.078  -7.690  -4.583  1.00  0.00     0.010 A 
ATOM     47  C   UNL     1       4.226  -8.390  -5.457  1.00  0.00    -0.014 A 
BRANCH  47  48
ATOM     48  C   UNL     1       3.837  -7.774  -6.749  1.00  0.00     0.031 A 
ATOM     49  C   UNL     1       4.857  -7.743  -7.854  1.00  0.00     0.074 A 
ATOM     50  C   UNL     1       2.614  -7.249  -6.939  1.00  0.00     0.049 A 
ATOM     51  N   UNL     1       4.809  -7.148  -9.016  1.00  0.00    -0.248 NA
ATOM     52  C   UNL     1       6.104  -8.483  -7.604  1.00  0.00     0.031 C 
ATOM     53  C   UNL     1       1.520  -7.284  -5.970  1.00  0.00     0.029 A 
ATOM     54  N   UNL     1       2.093  -6.566  -8.011  1.00  0.00    -0.354 N 
ATOM     55  C   UNL     1       6.023  -7.429  -9.633  1.00  0.00     0.074 A 
ATOM     56  C   UNL     1       6.796  -8.224  -8.703  1.00  0.00     0.031 C 
ATOM     57  C   UNL     1       0.463  -6.631  -6.486  1.00  0.00     0.029 A 
ATOM     58  C   UNL     1       0.822  -6.085  -7.794  1.00  0.00     0.049 A 
ATOM     59  H   UNL     1       2.583  -6.434  -8.855  1.00  0.00     0.167 HD
ATOM     60  C   UNL     1       6.450  -7.059 -10.865  1.00  0.00     0.034 A 
ATOM     61  C   UNL     1       0.060  -5.263  -8.545  1.00  0.00     0.034 A 
ATOM     62  C   UNL     1       5.671  -6.253 -11.771  1.00  0.00     0.049 A 
ATOM     63  C   UNL     1       0.609  -4.755  -9.861  1.00  0.00     0.074 A 
ATOM     64  C   UNL     1       6.000  -5.829 -13.046  1.00  0.00     0.029 A 
ATOM     65  N   UNL     1       4.414  -5.732 -11.492  1.00  0.00    -0.354 N 
ATOM     66  N   UNL     1       1.758  -5.025 -10.438  1.00  0.00    -0.248 NA
ATOM     67  C   UNL     1      -0.239  -3.827 -10.623  1.00  0.00     0.031 C 
ATOM     68  C   UNL     1       4.985  -4.982 -13.501  1.00  0.00     0.029 A 
ATOM     69  C   UNL     1       3.977  -4.951 -12.550  1.00  0.00     0.049 A 
ATOM     70  H   UNL     1       3.907  -5.894 -10.663  1.00  0.00     0.167 HD
ATOM     71  C   UNL     1       1.754  -4.323 -11.643  1.00  0.00     0.074 A 
ATOM     72  C   UNL     1       0.484  -3.631 -11.716  1.00  0.00     0.031 C 
ATOM     73  C   UNL     1       2.711  -4.258 -12.604  1.00  0.00     0.034 A 
BRANCH  60  74
ATOM     74  C   UNL     1       7.844  -7.470 -11.271  1.00  0.00     0.023 A 
ATOM     75  C   UNL     1       8.207  -8.820 -11.419  1.00  0.00     0.031 A 
ATOM     76  C   UNL     1       8.833  -6.495 -11.489  1.00  0.00     0.131 A 
ATOM     77  C   UNL     1       9.537  -9.159 -11.707  1.00  0.00     0.055 A 
ATOM     78  C   UNL     1      10.135  -6.835 -11.858  1.00  0.00     0.041 A 
ATOM     79  F   UNL     1       8.553  -5.191 -11.335  1.00  0.00    -0.206 F 
ATOM     80  C   UNL     1      10.498  -8.175 -11.955  1.00  0.00     0.022 A 
BRANCH  77  81
ATOM     81  S   UNL     1      10.028 -10.902 -11.607  1.00  0.00     0.124 S 
ATOM     82  O   UNL     1       9.671 -11.230 -10.228  1.00  0.00    -0.237 OA
ATOM     83  O   UNL     1       9.210 -11.520 -12.643  1.00  0.00    -0.237 OA
ATOM     84  O   UNL     1      11.464 -10.870 -11.879  1.00  0.00    -0.744 OA
ENDBRANCH  77  81
ENDBRANCH  60  74
BRANCH  61  85
ATOM     85  C   UNL     1      -1.275  -4.805  -8.057  1.00  0.00     0.023 A 
ATOM     86  C   UNL     1      -2.446  -5.087  -8.777  1.00  0.00     0.031 A 
ATOM     87  C   UNL     1      -1.391  -4.014  -6.899  1.00  0.00     0.131 A 
ATOM     88  C   UNL     1      -3.673  -4.543  -8.362  1.00  0.00     0.055 A 
ATOM     89  C   UNL     1      -2.622  -3.529  -6.454  1.00  0.00     0.041 A 
ATOM     90  F   UNL     1      -0.303  -3.701  -6.178  1.00  0.00    -0.206 F 
ATOM     91  C   UNL     1      -3.771  -3.781  -7.196  1.00  0.00     0.022 A 
BRANCH  88  92
ATOM     92  S   UNL     1      -5.123  -4.758  -9.430  1.00  0.00     0.124 S 
ATOM     93  O   UNL     1      -4.667  -4.149 -10.674  1.00  0.00    -0.237 OA
ATOM     94  O   UNL     1      -5.277  -6.209  -9.443  1.00  0.00    -0.237 OA
ATOM     95  O   UNL     1      -6.176  -4.029  -8.725  1.00  0.00    -0.744 OA
ENDBRANCH  88  92
ENDBRANCH  61  85
BRANCH  73  96
ATOM     96  C   UNL     1       2.406  -3.440 -13.837  1.00  0.00     0.023 A 
ATOM     97  C   UNL     1       2.271  -2.042 -13.784  1.00  0.00     0.031 A 
ATOM     98  C   UNL     1       2.270  -4.070 -15.088  1.00  0.00     0.131 A 
ATOM     99  C   UNL     1       1.966  -1.325 -14.952  1.00  0.00     0.055 A 
ATOM    100  C   UNL     1       2.031  -3.345 -16.255  1.00  0.00     0.041 A 
ATOM    101  F   UNL     1       2.385  -5.404 -15.197  1.00  0.00    -0.206 F 
ATOM    102  C   UNL     1       1.867  -1.965 -16.190  1.00  0.00     0.022 A 
BRANCH  99 103
ATOM    103  S   UNL     1       1.624   0.452 -14.820  1.00  0.00     0.124 S 
ATOM    104  O   UNL     1       0.477   0.473 -13.918  1.00  0.00    -0.237 OA
ATOM    105  O   UNL     1       2.874   0.973 -14.276  1.00  0.00    -0.237 OA
ATOM    106  O   UNL     1       1.336   0.849 -16.198  1.00  0.00    -0.744 OA
ENDBRANCH  99 103
ENDBRANCH  73  96
ENDBRANCH  47  48
ENDBRANCH  40  42
ENDBRANCH  39  40
ENDBRANCH  38  39
ENDBRANCH  37  38
ENDBRANCH  36  37
ENDBRANCH  35  36
ENDBRANCH  34  35
ENDBRANCH   1  34
TORSDOF 28
