REMARK SMILES CCc1c(C)nc(Nc2cc(Cl)ccc2C)nc1OCC(=O)OCCOCCOCCOCCOC(=O)c1ccc(-c2c3nc(c(-c4cc(S(=O)(=O)[O-])ccc4F)c4ccc([nH]4)c(-c4cc(S(=O)(=O)[O-])ccc4F)c4nc(c(-c5cc(S(=O)(=O)[O-])ccc5F)c5ccc2[nH]5)C=C4)C=C3)cc1
REMARK SMILES IDX 28 1 27 2 26 3 25 4 24 5 23 6 21 7 22 8 20 9 19 10 18 11
REMARK SMILES IDX 3 12 4 13 5 14 6 15 17 16 7 17 2 18 1 19 8 20 9 22 10 23
REMARK SMILES IDX 15 24 11 25 14 26 16 27 12 28 13 29 29 30 30 31 31 32 32 33
REMARK SMILES IDX 33 34 34 35 35 36 36 37 37 38 38 39 39 40 100 41 40 42 99 43
REMARK SMILES IDX 41 44 42 45 43 46 93 47 44 48 98 49 92 50 94 51 45 52 97 53
REMARK SMILES IDX 91 54 90 55 46 57 78 58 58 59 77 60 59 61 62 62 76 63 95 64
REMARK SMILES IDX 60 65 61 66 75 68 96 69 63 70 47 71 48 72 56 73 49 74 55 75
REMARK SMILES IDX 57 76 54 77 50 78 51 79 52 80 53 81 79 82 80 83 88 84 81 85
REMARK SMILES IDX 87 86 89 87 86 88 82 89 83 90 84 91 85 92 64 93 65 94 73 95
REMARK SMILES IDX 66 96 72 97 74 98 71 99 67 100 68 101 69 102 70 103
REMARK H PARENT 8 21 94 56 62 67
REMARK Flexibility Score: inf
ROOT
ATOM      1  C   UNL     1       3.147   2.183  -0.327  1.00  0.00     0.188 C 
ENDROOT
BRANCH   1   2
ATOM      2  C   UNL     1       2.589   1.757   1.054  1.00  0.00     0.188 C 
BRANCH   2   3
ATOM      3  O   UNL     1       3.478   1.520   2.116  1.00  0.00    -0.376 OA
BRANCH   3   4
ATOM      4  C   UNL     1       4.251   0.342   2.196  1.00  0.00     0.202 C 
BRANCH   4   5
ATOM      5  C   UNL     1       4.219  -0.810   1.172  1.00  0.00     0.261 C 
BRANCH   5   6
ATOM      6  O   UNL     1       3.519  -0.599  -0.067  1.00  0.00    -0.461 OA
BRANCH   6   7
ATOM      7  C   UNL     1       2.328  -1.233  -0.231  1.00  0.00     0.344 C 
ATOM      8  O   UNL     1       1.853  -2.009   0.594  1.00  0.00    -0.248 OA
BRANCH   7   9
ATOM      9  C   UNL     1       1.626  -0.930  -1.593  1.00  0.00     0.353 C 
BRANCH   9  10
ATOM     10  O   UNL     1       1.581   0.267  -2.325  1.00  0.00    -0.465 OA
BRANCH  10  11
ATOM     11  C   UNL     1       0.814   1.376  -2.371  1.00  0.00     0.222 A 
ATOM     12  C   UNL     1      -0.106   1.919  -1.479  1.00  0.00     0.035 A 
ATOM     13  C   UNL     1      -0.403   3.281  -1.739  1.00  0.00     0.050 A 
ATOM     14  C   UNL     1      -1.175   4.174  -0.799  1.00  0.00     0.067 C 
ATOM     15  N   UNL     1       0.004   3.957  -2.829  1.00  0.00    -0.218 NA
ATOM     16  N   UNL     1       1.230   2.087  -3.467  1.00  0.00    -0.177 NA
ATOM     17  C   UNL     1       0.808   3.341  -3.682  1.00  0.00     0.230 A 
BRANCH  12  18
ATOM     18  C   UNL     1      -0.784   1.365  -0.252  1.00  0.00     0.040 C 
ATOM     19  C   UNL     1      -0.877  -0.101   0.083  1.00  0.00     0.009 C 
ENDBRANCH  12  18
BRANCH  17  20
ATOM     20  N   UNL     1       1.297   4.050  -4.790  1.00  0.00    -0.324 N 
ATOM     21  H   UNL     1       1.829   3.538  -5.441  1.00  0.00     0.170 HD
BRANCH  20  22
ATOM     22  C   UNL     1       1.105   5.418  -5.068  1.00  0.00     0.045 A 
ATOM     23  C   UNL     1      -0.051   5.839  -5.739  1.00  0.00     0.047 A 
ATOM     24  C   UNL     1       2.047   6.398  -4.700  1.00  0.00    -0.027 A 
ATOM     25  C   UNL     1      -0.285   7.197  -5.984  1.00  0.00     0.043 A 
ATOM     26  C   UNL     1       1.769   7.766  -4.889  1.00  0.00     0.007 A 
ATOM     27  C   UNL     1       3.409   6.032  -4.204  1.00  0.00     0.046 C 
ATOM     28  Cl  UNL     1      -1.671   7.682  -6.884  1.00  0.00    -0.084 Cl
ATOM     29  C   UNL     1       0.600   8.166  -5.526  1.00  0.00     0.021 A 
ENDBRANCH  20  22
ENDBRANCH  17  20
ENDBRANCH  10  11
ENDBRANCH   9  10
ENDBRANCH   7   9
ENDBRANCH   6   7
ENDBRANCH   5   6
ENDBRANCH   4   5
ENDBRANCH   3   4
ENDBRANCH   2   3
ENDBRANCH   1   2
BRANCH   1  30
ATOM     30  O   UNL     1       4.406   2.769  -0.580  1.00  0.00    -0.377 OA
BRANCH  30  31
ATOM     31  C   UNL     1       5.210   3.175   0.496  1.00  0.00     0.188 C 
BRANCH  31  32
ATOM     32  C   UNL     1       4.670   4.330   1.350  1.00  0.00     0.188 C 
BRANCH  32  33
ATOM     33  O   UNL     1       3.254   4.391   1.386  1.00  0.00    -0.376 OA
BRANCH  33  34
ATOM     34  C   UNL     1       2.588   5.390   0.628  1.00  0.00     0.202 C 
BRANCH  34  35
ATOM     35  C   UNL     1       2.904   5.631  -0.857  1.00  0.00     0.261 C 
BRANCH  35  36
ATOM     36  O   UNL     1       4.251   5.386  -1.266  1.00  0.00    -0.460 OA
BRANCH  36  37
ATOM     37  C   UNL     1       5.126   6.405  -1.238  1.00  0.00     0.338 C 
ATOM     38  O   UNL     1       4.915   7.550  -0.870  1.00  0.00    -0.246 OA
BRANCH  37  39
ATOM     39  C   UNL     1       6.438   5.840  -1.599  1.00  0.00     0.060 A 
ATOM     40  C   UNL     1       7.399   5.715  -0.592  1.00  0.00     0.016 A 
ATOM     41  C   UNL     1       6.705   5.393  -2.898  1.00  0.00     0.016 A 
ATOM     42  C   UNL     1       8.633   5.146  -0.883  1.00  0.00     0.010 A 
ATOM     43  C   UNL     1       7.956   4.854  -3.200  1.00  0.00     0.010 A 
ATOM     44  C   UNL     1       8.930   4.758  -2.196  1.00  0.00    -0.014 A 
BRANCH  44  45
ATOM     45  C   UNL     1      10.339   4.478  -2.541  1.00  0.00     0.031 A 
ATOM     46  C   UNL     1      11.170   5.626  -3.038  1.00  0.00     0.074 A 
ATOM     47  C   UNL     1      10.869   3.260  -2.337  1.00  0.00     0.049 A 
ATOM     48  N   UNL     1      12.438   5.662  -3.343  1.00  0.00    -0.248 NA
ATOM     49  C   UNL     1      10.470   6.911  -3.209  1.00  0.00     0.031 C 
ATOM     50  C   UNL     1      10.145   2.103  -1.813  1.00  0.00     0.029 A 
ATOM     51  N   UNL     1      12.144   2.800  -2.535  1.00  0.00    -0.354 N 
ATOM     52  C   UNL     1      12.691   6.973  -3.735  1.00  0.00     0.074 A 
ATOM     53  C   UNL     1      11.438   7.689  -3.667  1.00  0.00     0.031 C 
ATOM     54  C   UNL     1      10.993   1.063  -1.724  1.00  0.00     0.029 A 
ATOM     55  C   UNL     1      12.307   1.472  -2.217  1.00  0.00     0.049 A 
ATOM     56  H   UNL     1      12.874   3.366  -2.874  1.00  0.00     0.167 HD
ATOM     57  C   UNL     1      13.870   7.524  -4.110  1.00  0.00     0.034 A 
ATOM     58  C   UNL     1      13.395   0.684  -2.331  1.00  0.00     0.034 A 
ATOM     59  C   UNL     1      15.098   6.774  -4.190  1.00  0.00     0.049 A 
ATOM     60  C   UNL     1      14.676   1.303  -2.846  1.00  0.00     0.074 A 
ATOM     61  C   UNL     1      16.356   7.219  -4.548  1.00  0.00     0.029 A 
ATOM     62  N   UNL     1      15.214   5.414  -3.929  1.00  0.00    -0.354 N 
ATOM     63  N   UNL     1      14.914   2.550  -3.188  1.00  0.00    -0.248 NA
ATOM     64  C   UNL     1      15.835   0.412  -2.979  1.00  0.00     0.031 C 
ATOM     65  C   UNL     1      17.212   6.114  -4.591  1.00  0.00     0.029 A 
ATOM     66  C   UNL     1      16.513   4.995  -4.162  1.00  0.00     0.049 A 
ATOM     67  H   UNL     1      14.480   4.833  -3.624  1.00  0.00     0.167 HD
ATOM     68  C   UNL     1      16.261   2.598  -3.540  1.00  0.00     0.074 A 
ATOM     69  C   UNL     1      16.782   1.259  -3.353  1.00  0.00     0.031 C 
ATOM     70  C   UNL     1      17.004   3.649  -3.974  1.00  0.00     0.034 A 
BRANCH  57  71
ATOM     71  C   UNL     1      13.860   8.974  -4.525  1.00  0.00     0.023 A 
ATOM     72  C   UNL     1      13.525  10.006  -3.630  1.00  0.00     0.031 A 
ATOM     73  C   UNL     1      14.157   9.327  -5.853  1.00  0.00     0.131 A 
ATOM     74  C   UNL     1      13.434  11.329  -4.089  1.00  0.00     0.055 A 
ATOM     75  C   UNL     1      14.143  10.655  -6.284  1.00  0.00     0.041 A 
ATOM     76  F   UNL     1      14.450   8.384  -6.762  1.00  0.00    -0.206 F 
ATOM     77  C   UNL     1      13.768  11.664  -5.403  1.00  0.00     0.022 A 
BRANCH  74  78
ATOM     78  S   UNL     1      12.734  12.587  -2.984  1.00  0.00     0.124 S 
ATOM     79  O   UNL     1      11.411  12.034  -2.707  1.00  0.00    -0.237 OA
ATOM     80  O   UNL     1      13.674  12.585  -1.869  1.00  0.00    -0.237 OA
ATOM     81  O   UNL     1      12.736  13.800  -3.800  1.00  0.00    -0.744 OA
ENDBRANCH  74  78
ENDBRANCH  57  71
BRANCH  58  82
ATOM     82  C   UNL     1      13.329  -0.767  -1.989  1.00  0.00     0.023 A 
ATOM     83  C   UNL     1      14.147  -1.318  -0.990  1.00  0.00     0.031 A 
ATOM     84  C   UNL     1      12.495  -1.642  -2.710  1.00  0.00     0.131 A 
ATOM     85  C   UNL     1      14.156  -2.707  -0.778  1.00  0.00     0.055 A 
ATOM     86  C   UNL     1      12.461  -3.014  -2.452  1.00  0.00     0.041 A 
ATOM     87  F   UNL     1      11.695  -1.174  -3.681  1.00  0.00    -0.206 F 
ATOM     88  C   UNL     1      13.309  -3.556  -1.491  1.00  0.00     0.022 A 
BRANCH  85  89
ATOM     89  S   UNL     1      15.379  -3.401   0.369  1.00  0.00     0.124 S 
ATOM     90  O   UNL     1      16.629  -2.915  -0.201  1.00  0.00    -0.237 OA
ATOM     91  O   UNL     1      14.975  -2.804   1.638  1.00  0.00    -0.237 OA
ATOM     92  O   UNL     1      15.162  -4.843   0.265  1.00  0.00    -0.744 OA
ENDBRANCH  85  89
ENDBRANCH  58  82
BRANCH  70  93
ATOM     93  C   UNL     1      18.472   3.396  -4.222  1.00  0.00     0.023 A 
ATOM     94  C   UNL     1      18.915   2.534  -5.240  1.00  0.00     0.031 A 
ATOM     95  C   UNL     1      19.441   4.029  -3.423  1.00  0.00     0.131 A 
ATOM     96  C   UNL     1      20.286   2.280  -5.391  1.00  0.00     0.055 A 
ATOM     97  C   UNL     1      20.806   3.830  -3.626  1.00  0.00     0.041 A 
ATOM     98  F   UNL     1      19.075   4.859  -2.433  1.00  0.00    -0.206 F 
ATOM     99  C   UNL     1      21.235   2.939  -4.606  1.00  0.00     0.022 A 
BRANCH  96 100
ATOM    100  S   UNL     1      20.807   0.992  -6.556  1.00  0.00     0.124 S 
ATOM    101  O   UNL     1      20.100  -0.179  -6.048  1.00  0.00    -0.237 OA
ATOM    102  O   UNL     1      20.336   1.516  -7.833  1.00  0.00    -0.237 OA
ATOM    103  O   UNL     1      22.260   0.956  -6.399  1.00  0.00    -0.744 OA
ENDBRANCH  96 100
ENDBRANCH  70  93
ENDBRANCH  44  45
ENDBRANCH  37  39
ENDBRANCH  36  37
ENDBRANCH  35  36
ENDBRANCH  34  35
ENDBRANCH  33  34
ENDBRANCH  32  33
ENDBRANCH  31  32
ENDBRANCH  30  31
ENDBRANCH   1  30
TORSDOF 28
