REMARK SMILES O=C(CNC(=O)OCC1=Cc2ccccc2S1(=O)=O)OCCOCCOCCOCCOC(=O)c1ccc(-c2c3nc(c(-c4cc(S(=O)(=O)[O-])ccc4F)c4ccc([nH]4)c(-c4cc(S(=O)(=O)[O-])ccc4F)c4nc(c(-c5cc(S(=O)(=O)[O-])ccc5F)c5ccc2[nH]5)C=C4)C=C3)cc1
REMARK SMILES IDX 25 1 24 2 23 3 22 4 21 5 20 6 2 7 1 8 3 9 4 10 5 11 6 13
REMARK SMILES IDX 7 14 8 15 9 16 10 17 17 18 11 19 16 20 18 21 19 22 12 23
REMARK SMILES IDX 15 24 13 25 14 26 26 27 27 28 28 29 29 30 30 31 31 32 32 33
REMARK SMILES IDX 33 34 34 35 35 36 36 37 97 38 37 39 96 40 38 41 39 42 40 43
REMARK SMILES IDX 90 44 41 45 95 46 89 47 91 48 42 49 94 50 88 51 87 52 43 54
REMARK SMILES IDX 75 55 55 56 74 57 56 58 59 59 73 60 92 61 57 62 58 63 72 65
REMARK SMILES IDX 93 66 60 67 44 68 45 69 53 70 46 71 52 72 54 73 51 74 47 75
REMARK SMILES IDX 48 76 49 77 50 78 76 79 77 80 85 81 78 82 84 83 86 84 83 85
REMARK SMILES IDX 79 86 80 87 81 88 82 89 61 90 62 91 70 92 63 93 69 94 71 95
REMARK SMILES IDX 68 96 64 97 65 98 66 99 67 100
REMARK H PARENT 4 12 91 53 59 64
REMARK Flexibility Score: inf
ROOT
ATOM      1  C   UNL     1       2.090  -1.313  -1.818  1.00  0.00     0.188 C 
ENDROOT
BRANCH   1   2
ATOM      2  C   UNL     1       2.697   0.052  -1.508  1.00  0.00     0.188 C 
BRANCH   2   3
ATOM      3  O   UNL     1       4.036   0.156  -1.026  1.00  0.00    -0.376 OA
BRANCH   3   4
ATOM      4  C   UNL     1       4.562  -0.745  -0.067  1.00  0.00     0.202 C 
BRANCH   4   5
ATOM      5  C   UNL     1       4.081  -0.681   1.377  1.00  0.00     0.261 C 
BRANCH   5   6
ATOM      6  O   UNL     1       2.725  -0.267   1.554  1.00  0.00    -0.462 OA
BRANCH   6   7
ATOM      7  C   UNL     1       2.299   1.015   1.561  1.00  0.00     0.325 C 
ATOM      8  O   UNL     1       1.089   1.234   1.650  1.00  0.00    -0.250 OA
BRANCH   7   9
ATOM      9  C   UNL     1       3.261   2.168   1.267  1.00  0.00     0.242 C 
BRANCH   9  10
ATOM     10  N   UNL     1       4.482   2.229   2.040  1.00  0.00    -0.311 N 
ATOM     11  C   UNL     1       5.761   2.229   1.577  1.00  0.00     0.407 C 
ATOM     12  H   UNL     1       4.374   2.275   3.018  1.00  0.00     0.167 HD
ATOM     13  O   UNL     1       6.701   2.277   2.353  1.00  0.00    -0.225 OA
BRANCH  11  14
ATOM     14  O   UNL     1       5.861   2.144   0.229  1.00  0.00    -0.444 OA
BRANCH  14  15
ATOM     15  C   UNL     1       7.209   2.070  -0.283  1.00  0.00     0.283 C 
BRANCH  15  16
ATOM     16  C   UNL     1       7.769   3.434  -0.394  1.00  0.00     0.087 C 
ATOM     17  C   UNL     1       7.140   4.551  -0.804  1.00  0.00     0.029 C 
ATOM     18  S   UNL     1       9.362   3.764   0.222  1.00  0.00     0.206 S 
ATOM     19  C   UNL     1       7.899   5.757  -0.505  1.00  0.00    -0.005 A 
ATOM     20  C   UNL     1       9.120   5.492   0.109  1.00  0.00     0.079 A 
ATOM     21  O   UNL     1       9.486   3.434   1.623  1.00  0.00    -0.219 OA
ATOM     22  O   UNL     1      10.365   3.402  -0.760  1.00  0.00    -0.219 OA
ATOM     23  C   UNL     1       7.482   7.069  -0.654  1.00  0.00     0.009 A 
ATOM     24  C   UNL     1       9.936   6.472   0.641  1.00  0.00     0.021 A 
ATOM     25  C   UNL     1       8.295   8.088  -0.143  1.00  0.00     0.001 A 
ATOM     26  C   UNL     1       9.506   7.792   0.510  1.00  0.00     0.001 A 
ENDBRANCH  15  16
ENDBRANCH  14  15
ENDBRANCH  11  14
ENDBRANCH   9  10
ENDBRANCH   7   9
ENDBRANCH   6   7
ENDBRANCH   5   6
ENDBRANCH   4   5
ENDBRANCH   3   4
ENDBRANCH   2   3
ENDBRANCH   1   2
BRANCH   1  27
ATOM     27  O   UNL     1       2.564  -1.894  -3.022  1.00  0.00    -0.377 OA
BRANCH  27  28
ATOM     28  C   UNL     1       3.877  -2.417  -2.942  1.00  0.00     0.188 C 
BRANCH  28  29
ATOM     29  C   UNL     1       4.968  -1.496  -3.510  1.00  0.00     0.188 C 
BRANCH  29  30
ATOM     30  O   UNL     1       4.622  -0.350  -4.263  1.00  0.00    -0.376 OA
BRANCH  30  31
ATOM     31  C   UNL     1       3.596  -0.360  -5.237  1.00  0.00     0.202 C 
BRANCH  31  32
ATOM     32  C   UNL     1       3.208  -1.570  -6.114  1.00  0.00     0.261 C 
BRANCH  32  33
ATOM     33  O   UNL     1       3.647  -2.868  -5.719  1.00  0.00    -0.460 OA
BRANCH  33  34
ATOM     34  C   UNL     1       4.848  -3.273  -6.193  1.00  0.00     0.338 C 
ATOM     35  O   UNL     1       5.573  -2.661  -6.955  1.00  0.00    -0.246 OA
BRANCH  34  36
ATOM     36  C   UNL     1       5.242  -4.489  -5.435  1.00  0.00     0.060 A 
ATOM     37  C   UNL     1       6.500  -4.500  -4.818  1.00  0.00     0.016 A 
ATOM     38  C   UNL     1       4.361  -5.562  -5.250  1.00  0.00     0.016 A 
ATOM     39  C   UNL     1       6.891  -5.589  -4.039  1.00  0.00     0.010 A 
ATOM     40  C   UNL     1       4.765  -6.667  -4.491  1.00  0.00     0.010 A 
ATOM     41  C   UNL     1       6.044  -6.697  -3.908  1.00  0.00    -0.014 A 
BRANCH  41  42
ATOM     42  C   UNL     1       6.604  -7.969  -3.385  1.00  0.00     0.031 A 
ATOM     43  C   UNL     1       7.159  -8.947  -4.387  1.00  0.00     0.074 A 
ATOM     44  C   UNL     1       6.677  -8.230  -2.067  1.00  0.00     0.049 A 
ATOM     45  N   UNL     1       7.702 -10.120  -4.195  1.00  0.00    -0.248 NA
ATOM     46  C   UNL     1       7.091  -8.538  -5.800  1.00  0.00     0.031 C 
ATOM     47  C   UNL     1       6.223  -7.339  -1.000  1.00  0.00     0.029 A 
ATOM     48  N   UNL     1       7.166  -9.328  -1.401  1.00  0.00    -0.354 N 
ATOM     49  C   UNL     1       8.050 -10.584  -5.459  1.00  0.00     0.074 A 
ATOM     50  C   UNL     1       7.616  -9.587  -6.412  1.00  0.00     0.031 C 
ATOM     51  C   UNL     1       6.447  -7.932   0.188  1.00  0.00     0.029 A 
ATOM     52  C   UNL     1       7.030  -9.256  -0.033  1.00  0.00     0.049 A 
ATOM     53  H   UNL     1       7.576 -10.096  -1.860  1.00  0.00     0.167 HD
ATOM     54  C   UNL     1       8.685 -11.733  -5.796  1.00  0.00     0.034 A 
ATOM     55  C   UNL     1       7.323 -10.164   0.922  1.00  0.00     0.034 A 
ATOM     56  C   UNL     1       9.090 -12.732  -4.841  1.00  0.00     0.049 A 
ATOM     57  C   UNL     1       7.935 -11.486   0.510  1.00  0.00     0.074 A 
ATOM     58  C   UNL     1       9.730 -13.937  -5.074  1.00  0.00     0.029 A 
ATOM     59  N   UNL     1       8.883 -12.650  -3.470  1.00  0.00    -0.354 N 
ATOM     60  N   UNL     1       8.266 -11.909  -0.689  1.00  0.00    -0.248 NA
ATOM     61  C   UNL     1       8.221 -12.448   1.584  1.00  0.00     0.031 C 
ATOM     62  C   UNL     1       9.844 -14.614  -3.855  1.00  0.00     0.029 A 
ATOM     63  C   UNL     1       9.352 -13.797  -2.849  1.00  0.00     0.049 A 
ATOM     64  H   UNL     1       8.464 -11.889  -3.007  1.00  0.00     0.167 HD
ATOM     65  C   UNL     1       8.830 -13.171  -0.505  1.00  0.00     0.074 A 
ATOM     66  C   UNL     1       8.814 -13.428   0.919  1.00  0.00     0.031 C 
ATOM     67  C   UNL     1       9.320 -14.041  -1.427  1.00  0.00     0.034 A 
BRANCH  54  68
ATOM     68  C   UNL     1       8.925 -11.983  -7.263  1.00  0.00     0.023 A 
ATOM     69  C   UNL     1       9.785 -11.169  -8.021  1.00  0.00     0.031 A 
ATOM     70  C   UNL     1       8.265 -13.036  -7.919  1.00  0.00     0.131 A 
ATOM     71  C   UNL     1       9.916 -11.385  -9.402  1.00  0.00     0.055 A 
ATOM     72  C   UNL     1       8.458 -13.293  -9.277  1.00  0.00     0.041 A 
ATOM     73  F   UNL     1       7.410 -13.828  -7.252  1.00  0.00    -0.206 F 
ATOM     74  C   UNL     1       9.278 -12.458 -10.030  1.00  0.00     0.022 A 
BRANCH  71  75
ATOM     75  S   UNL     1      10.831 -10.170 -10.389  1.00  0.00     0.124 S 
ATOM     76  O   UNL     1      10.060  -8.953 -10.148  1.00  0.00    -0.237 OA
ATOM     77  O   UNL     1      12.160 -10.213  -9.790  1.00  0.00    -0.237 OA
ATOM     78  O   UNL     1      10.742 -10.697 -11.749  1.00  0.00    -0.744 OA
ENDBRANCH  71  75
ENDBRANCH  54  68
BRANCH  55  79
ATOM     79  C   UNL     1       7.003  -9.901   2.358  1.00  0.00     0.023 A 
ATOM     80  C   UNL     1       8.008  -9.886   3.340  1.00  0.00     0.031 A 
ATOM     81  C   UNL     1       5.670  -9.758   2.783  1.00  0.00     0.131 A 
ATOM     82  C   UNL     1       7.660  -9.797   4.698  1.00  0.00     0.055 A 
ATOM     83  C   UNL     1       5.334  -9.608   4.130  1.00  0.00     0.041 A 
ATOM     84  F   UNL     1       4.667  -9.772   1.891  1.00  0.00    -0.206 F 
ATOM     85  C   UNL     1       6.331  -9.644   5.099  1.00  0.00     0.022 A 
BRANCH  82  86
ATOM     86  S   UNL     1       8.963 -10.001   5.946  1.00  0.00     0.124 S 
ATOM     87  O   UNL     1       9.507 -11.308   5.594  1.00  0.00    -0.237 OA
ATOM     88  O   UNL     1       9.822  -8.854   5.674  1.00  0.00    -0.237 OA
ATOM     89  O   UNL     1       8.234  -9.947   7.211  1.00  0.00    -0.744 OA
ENDBRANCH  82  86
ENDBRANCH  55  79
BRANCH  67  90
ATOM     90  C   UNL     1       9.918 -15.329  -0.909  1.00  0.00     0.023 A 
ATOM     91  C   UNL     1       9.137 -16.300  -0.259  1.00  0.00     0.031 A 
ATOM     92  C   UNL     1      11.295 -15.579  -1.055  1.00  0.00     0.131 A 
ATOM     93  C   UNL     1       9.747 -17.443   0.281  1.00  0.00     0.055 A 
ATOM     94  C   UNL     1      11.885 -16.749  -0.576  1.00  0.00     0.041 A 
ATOM     95  F   UNL     1      12.091 -14.688  -1.667  1.00  0.00    -0.206 F 
ATOM     96  C   UNL     1      11.113 -17.682   0.111  1.00  0.00     0.022 A 
BRANCH  93  97
ATOM     97  S   UNL     1       8.750 -18.560   1.304  1.00  0.00     0.124 S 
ATOM     98  O   UNL     1       8.257 -17.662   2.343  1.00  0.00    -0.237 OA
ATOM     99  O   UNL     1       7.753 -19.046   0.355  1.00  0.00    -0.237 OA
ATOM    100  O   UNL     1       9.714 -19.562   1.756  1.00  0.00    -0.744 OA
ENDBRANCH  93  97
ENDBRANCH  67  90
ENDBRANCH  41  42
ENDBRANCH  34  36
ENDBRANCH  33  34
ENDBRANCH  32  33
ENDBRANCH  31  32
ENDBRANCH  30  31
ENDBRANCH  29  30
ENDBRANCH  28  29
ENDBRANCH  27  28
ENDBRANCH   1  27
TORSDOF 27
