REMARK SMILES O=C(OCCOCCOCCOCCOC(=O)c1nnn(Cc2ccccc2Cl)c1-c1ccc(Cl)cc1)c1ccc(-c2c3nc(c(-c4cc(S(=O)(=O)[O-])ccc4F)c4ccc([nH]4)c(-c4cc(S(=O)(=O)[O-])ccc4F)c4nc(c(-c5cc(S(=O)(=O)[O-])ccc5F)c5ccc2[nH]5)C=C4)C=C3)cc1
REMARK SMILES IDX 8 1 7 2 6 3 5 4 4 5 3 6 2 7 1 8 38 9 39 10 100 11 40 12
REMARK SMILES IDX 99 13 41 14 42 15 43 16 93 17 44 18 98 19 92 20 94 21 45 22
REMARK SMILES IDX 97 23 91 24 90 25 46 27 78 28 58 29 77 30 59 31 62 32 76 33
REMARK SMILES IDX 95 34 60 35 61 36 75 38 96 39 63 40 47 41 48 42 56 43 49 44
REMARK SMILES IDX 55 45 57 46 54 47 50 48 51 49 52 50 53 51 79 52 80 53 88 54
REMARK SMILES IDX 81 55 87 56 89 57 86 58 82 59 83 60 84 61 85 62 64 63 65 64
REMARK SMILES IDX 73 65 66 66 72 67 74 68 71 69 67 70 68 71 69 72 70 73 9 74
REMARK SMILES IDX 10 75 11 76 12 77 13 78 14 79 15 80 16 81 17 82 18 83 19 84
REMARK SMILES IDX 30 85 20 86 21 87 31 88 32 89 37 90 33 91 36 92 34 93 35 94
REMARK SMILES IDX 22 95 23 96 24 97 28 98 25 99 27 100 29 101 26 102
REMARK H PARENT 94 26 62 37
REMARK Flexibility Score: inf
ROOT
ATOM      1  C   UNL     1       2.327  -1.049   1.667  1.00  0.00     0.188 C 
ENDROOT
BRANCH   1   2
ATOM      2  C   UNL     1       2.980  -1.391   0.320  1.00  0.00     0.188 C 
BRANCH   2   3
ATOM      3  O   UNL     1       4.320  -1.065  -0.007  1.00  0.00    -0.376 OA
BRANCH   3   4
ATOM      4  C   UNL     1       5.041   0.108   0.312  1.00  0.00     0.202 C 
BRANCH   4   5
ATOM      5  C   UNL     1       4.470   1.529   0.349  1.00  0.00     0.261 C 
BRANCH   5   6
ATOM      6  O   UNL     1       3.084   1.652   0.635  1.00  0.00    -0.460 OA
BRANCH   6   7
ATOM      7  C   UNL     1       2.026   1.581  -0.196  1.00  0.00     0.338 C 
ATOM      8  O   UNL     1       0.906   1.703   0.303  1.00  0.00    -0.246 OA
BRANCH   7   9
ATOM      9  C   UNL     1       2.120   1.264  -1.650  1.00  0.00     0.060 A 
ATOM     10  C   UNL     1       3.292   1.131  -2.398  1.00  0.00     0.016 A 
ATOM     11  C   UNL     1       0.886   1.069  -2.300  1.00  0.00     0.016 A 
ATOM     12  C   UNL     1       3.240   0.973  -3.770  1.00  0.00     0.010 A 
ATOM     13  C   UNL     1       0.826   0.873  -3.670  1.00  0.00     0.010 A 
ATOM     14  C   UNL     1       2.007   0.905  -4.403  1.00  0.00    -0.014 A 
BRANCH  14  15
ATOM     15  C   UNL     1       2.020   0.918  -5.854  1.00  0.00     0.031 A 
ATOM     16  C   UNL     1       2.635  -0.256  -6.522  1.00  0.00     0.074 A 
ATOM     17  C   UNL     1       1.472   1.940  -6.535  1.00  0.00     0.049 A 
ATOM     18  N   UNL     1       3.621  -0.276  -7.357  1.00  0.00    -0.248 NA
ATOM     19  C   UNL     1       2.143  -1.589  -6.144  1.00  0.00     0.031 C 
ATOM     20  C   UNL     1       0.651   3.031  -6.001  1.00  0.00     0.029 A 
ATOM     21  N   UNL     1       1.439   2.149  -7.878  1.00  0.00    -0.354 N 
ATOM     22  C   UNL     1       3.745  -1.598  -7.774  1.00  0.00     0.074 A 
ATOM     23  C   UNL     1       2.908  -2.377  -6.899  1.00  0.00     0.031 C 
ATOM     24  C   UNL     1       0.004   3.633  -7.021  1.00  0.00     0.029 A 
ATOM     25  C   UNL     1       0.468   3.059  -8.272  1.00  0.00     0.049 A 
ATOM     26  H   UNL     1       2.044   1.699  -8.510  1.00  0.00     0.167 HD
ATOM     27  C   UNL     1       4.372  -1.930  -8.935  1.00  0.00     0.034 A 
ATOM     28  C   UNL     1       0.004   3.259  -9.529  1.00  0.00     0.034 A 
ATOM     29  C   UNL     1       5.293  -0.903  -9.355  1.00  0.00     0.049 A 
ATOM     30  C   UNL     1       1.046   2.779 -10.467  1.00  0.00     0.074 A 
ATOM     31  C   UNL     1       6.400  -0.310  -8.777  1.00  0.00     0.029 A 
ATOM     32  N   UNL     1       4.939  -0.074 -10.395  1.00  0.00    -0.354 N 
ATOM     33  N   UNL     1       2.221   3.335 -10.583  1.00  0.00    -0.248 NA
ATOM     34  C   UNL     1       0.964   1.410 -10.956  1.00  0.00     0.031 C 
ATOM     35  C   UNL     1       6.326   1.061  -9.158  1.00  0.00     0.029 A 
ATOM     36  C   UNL     1       5.216   1.211  -9.992  1.00  0.00     0.049 A 
ATOM     37  H   UNL     1       4.560  -0.349 -11.261  1.00  0.00     0.167 HD
ATOM     38  C   UNL     1       3.106   2.281 -10.745  1.00  0.00     0.074 A 
ATOM     39  C   UNL     1       2.266   1.135 -11.082  1.00  0.00     0.031 C 
ATOM     40  C   UNL     1       4.403   2.366 -10.323  1.00  0.00     0.034 A 
BRANCH  27  41
ATOM     41  C   UNL     1       3.928  -3.055  -9.841  1.00  0.00     0.023 A 
ATOM     42  C   UNL     1       4.708  -3.348 -10.976  1.00  0.00     0.031 A 
ATOM     43  C   UNL     1       2.650  -3.661  -9.799  1.00  0.00     0.131 A 
ATOM     44  C   UNL     1       4.195  -4.144 -12.018  1.00  0.00     0.055 A 
ATOM     45  C   UNL     1       2.174  -4.508 -10.803  1.00  0.00     0.041 A 
ATOM     46  F   UNL     1       1.756  -3.391  -8.840  1.00  0.00    -0.206 F 
ATOM     47  C   UNL     1       2.936  -4.733 -11.934  1.00  0.00     0.022 A 
BRANCH  44  48
ATOM     48  S   UNL     1       5.127  -4.248 -13.569  1.00  0.00     0.124 S 
ATOM     49  O   UNL     1       5.346  -2.839 -13.880  1.00  0.00    -0.237 OA
ATOM     50  O   UNL     1       6.303  -5.009 -13.163  1.00  0.00    -0.237 OA
ATOM     51  O   UNL     1       4.211  -4.948 -14.468  1.00  0.00    -0.744 OA
ENDBRANCH  44  48
ENDBRANCH  27  41
BRANCH  28  52
ATOM     52  C   UNL     1      -1.413   3.511  -9.893  1.00  0.00     0.023 A 
ATOM     53  C   UNL     1      -1.786   4.082 -11.123  1.00  0.00     0.031 A 
ATOM     54  C   UNL     1      -2.456   2.989  -9.091  1.00  0.00     0.131 A 
ATOM     55  C   UNL     1      -3.148   4.128 -11.497  1.00  0.00     0.055 A 
ATOM     56  C   UNL     1      -3.800   3.055  -9.455  1.00  0.00     0.041 A 
ATOM     57  F   UNL     1      -2.196   2.321  -7.955  1.00  0.00    -0.206 F 
ATOM     58  C   UNL     1      -4.152   3.620 -10.668  1.00  0.00     0.022 A 
BRANCH  55  59
ATOM     59  S   UNL     1      -3.621   4.761 -13.136  1.00  0.00     0.124 S 
ATOM     60  O   UNL     1      -3.362   6.189 -13.002  1.00  0.00    -0.237 OA
ATOM     61  O   UNL     1      -2.734   4.021 -14.025  1.00  0.00    -0.237 OA
ATOM     62  O   UNL     1      -5.035   4.399 -13.245  1.00  0.00    -0.744 OA
ENDBRANCH  55  59
ENDBRANCH  28  52
BRANCH  40  63
ATOM     63  C   UNL     1       4.953   3.726  -9.934  1.00  0.00     0.023 A 
ATOM     64  C   UNL     1       4.397   4.558  -8.934  1.00  0.00     0.031 A 
ATOM     65  C   UNL     1       6.170   4.131 -10.512  1.00  0.00     0.131 A 
ATOM     66  C   UNL     1       5.052   5.748  -8.559  1.00  0.00     0.055 A 
ATOM     67  C   UNL     1       6.824   5.301 -10.126  1.00  0.00     0.041 A 
ATOM     68  F   UNL     1       6.769   3.369 -11.442  1.00  0.00    -0.206 F 
ATOM     69  C   UNL     1       6.263   6.119  -9.152  1.00  0.00     0.022 A 
BRANCH  66  70
ATOM     70  S   UNL     1       4.333   6.844  -7.294  1.00  0.00     0.124 S 
ATOM     71  O   UNL     1       2.934   6.957  -7.691  1.00  0.00    -0.237 OA
ATOM     72  O   UNL     1       4.591   6.110  -6.058  1.00  0.00    -0.237 OA
ATOM     73  O   UNL     1       5.106   8.080  -7.437  1.00  0.00    -0.744 OA
ENDBRANCH  66  70
ENDBRANCH  40  63
ENDBRANCH  14  15
ENDBRANCH   7   9
ENDBRANCH   6   7
ENDBRANCH   5   6
ENDBRANCH   4   5
ENDBRANCH   3   4
ENDBRANCH   2   3
ENDBRANCH   1   2
BRANCH   1  74
ATOM     74  O   UNL     1       2.819  -1.773   2.783  1.00  0.00    -0.377 OA
BRANCH  74  75
ATOM     75  C   UNL     1       4.133  -1.423   3.165  1.00  0.00     0.188 C 
BRANCH  75  76
ATOM     76  C   UNL     1       5.229  -2.428   2.746  1.00  0.00     0.188 C 
BRANCH  76  77
ATOM     77  O   UNL     1       4.977  -3.794   2.426  1.00  0.00    -0.376 OA
BRANCH  77  78
ATOM     78  C   UNL     1       3.697  -4.373   2.585  1.00  0.00     0.202 C 
BRANCH  78  79
ATOM     79  C   UNL     1       3.319  -4.745   4.020  1.00  0.00     0.261 C 
BRANCH  79  80
ATOM     80  O   UNL     1       3.607  -3.726   4.981  1.00  0.00    -0.458 OA
BRANCH  80  81
ATOM     81  C   UNL     1       4.846  -3.772   5.555  1.00  0.00     0.361 C 
ATOM     82  O   UNL     1       5.657  -4.682   5.425  1.00  0.00    -0.244 OA
BRANCH  81  83
ATOM     83  C   UNL     1       5.096  -2.584   6.350  1.00  0.00     0.198 A 
ATOM     84  N   UNL     1       6.062  -1.667   6.040  1.00  0.00    -0.122 NA
ATOM     85  C   UNL     1       4.370  -2.153   7.453  1.00  0.00     0.104 A 
ATOM     86  N   UNL     1       5.937  -0.648   6.872  1.00  0.00    -0.066 NA
ATOM     87  N   UNL     1       4.969  -0.953   7.763  1.00  0.00    -0.239 N 
BRANCH  85  88
ATOM     88  C   UNL     1       3.284  -2.844   8.132  1.00  0.00     0.002 A 
ATOM     89  C   UNL     1       3.459  -4.198   8.465  1.00  0.00     0.012 A 
ATOM     90  C   UNL     1       2.026  -2.258   8.303  1.00  0.00     0.012 A 
ATOM     91  C   UNL     1       2.391  -4.965   8.927  1.00  0.00     0.021 A 
ATOM     92  C   UNL     1       0.957  -3.023   8.784  1.00  0.00     0.021 A 
ATOM     93  C   UNL     1       1.141  -4.374   9.080  1.00  0.00     0.041 A 
ATOM     94  Cl  UNL     1      -0.187  -5.327   9.614  1.00  0.00    -0.084 Cl
ENDBRANCH  85  88
BRANCH  87  95
ATOM     95  C   UNL     1       4.778  -0.081   8.911  1.00  0.00     0.183 C 
BRANCH  95  96
ATOM     96  C   UNL     1       5.997  -0.112   9.806  1.00  0.00    -0.008 A 
ATOM     97  C   UNL     1       6.125  -1.161  10.736  1.00  0.00     0.007 A 
ATOM     98  C   UNL     1       7.057   0.803   9.680  1.00  0.00     0.046 A 
ATOM     99  C   UNL     1       7.281  -1.298  11.506  1.00  0.00     0.000 A 
ATOM    100  C   UNL     1       8.217   0.655  10.448  1.00  0.00     0.021 A 
ATOM    101  Cl  UNL     1       6.995   2.146   8.596  1.00  0.00    -0.084 Cl
ATOM    102  C   UNL     1       8.330  -0.396  11.357  1.00  0.00     0.002 A 
ENDBRANCH  95  96
ENDBRANCH  87  95
ENDBRANCH  81  83
ENDBRANCH  80  81
ENDBRANCH  79  80
ENDBRANCH  78  79
ENDBRANCH  77  78
ENDBRANCH  76  77
ENDBRANCH  75  76
ENDBRANCH  74  75
ENDBRANCH   1  74
TORSDOF 26
