REMARK SMILES C[C@@H]1CSCCN1c1ccc(C(F)(F)F)cc1C(=O)OCCOCCOCCOCCOC(=O)c1ccc(-c2c3nc(c(-c4cc(S(=O)(=O)[O-])ccc4F)c4ccc([nH]4)c(-c4cc(S(=O)(=O)[O-])ccc4F)c4nc(c(-c5cc(S(=O)(=O)[O-])ccc5F)c5ccc2[nH]5)C=C4)C=C3)cc1
REMARK SMILES IDX 27 1 26 2 25 3 24 4 23 5 22 6 21 7 20 8 18 9 19 10 17 11
REMARK SMILES IDX 8 12 9 13 10 14 16 15 11 16 7 17 1 18 2 19 3 20 4 21 6 22
REMARK SMILES IDX 5 23 12 24 13 25 14 26 15 27 28 28 29 29 30 30 31 31 32 32
REMARK SMILES IDX 33 33 34 34 35 35 36 36 97 37 37 38 96 39 38 40 39 41 40 42
REMARK SMILES IDX 90 43 41 44 95 45 89 46 91 47 42 48 94 49 88 50 87 51 43 53
REMARK SMILES IDX 75 54 55 55 74 56 56 57 59 58 73 59 92 60 57 61 58 62 72 64
REMARK SMILES IDX 93 65 60 66 44 67 45 68 53 69 46 70 52 71 54 72 51 73 47 74
REMARK SMILES IDX 48 75 49 76 50 77 76 78 77 79 85 80 78 81 84 82 86 83 83 84
REMARK SMILES IDX 79 85 80 86 81 87 82 88 61 89 62 90 70 91 63 92 69 93 71 94
REMARK SMILES IDX 68 95 64 96 65 97 66 98 67 99
REMARK H PARENT 91 52 59 63
REMARK Flexibility Score: inf
ROOT
ATOM      1  C   UNL     1      -0.636  -0.806   3.255  1.00  0.00     0.188 C 
ENDROOT
BRANCH   1   2
ATOM      2  O   UNL     1      -1.728   0.061   2.937  1.00  0.00    -0.377 OA
BRANCH   2   3
ATOM      3  C   UNL     1      -2.369  -0.224   1.698  1.00  0.00     0.188 C 
BRANCH   3   4
ATOM      4  C   UNL     1      -2.901  -1.655   1.456  1.00  0.00     0.188 C 
BRANCH   4   5
ATOM      5  O   UNL     1      -1.920  -2.649   1.700  1.00  0.00    -0.376 OA
BRANCH   5   6
ATOM      6  C   UNL     1      -1.251  -3.339   0.666  1.00  0.00     0.202 C 
BRANCH   6   7
ATOM      7  C   UNL     1      -0.706  -2.618  -0.573  1.00  0.00     0.261 C 
BRANCH   7   8
ATOM      8  O   UNL     1      -1.141  -1.267  -0.697  1.00  0.00    -0.460 OA
BRANCH   8   9
ATOM      9  C   UNL     1      -1.709  -0.885  -1.855  1.00  0.00     0.340 C 
ATOM     10  O   UNL     1      -1.894  -1.583  -2.839  1.00  0.00    -0.246 OA
BRANCH   9  11
ATOM     11  C   UNL     1      -2.300   0.468  -1.704  1.00  0.00     0.084 A 
ATOM     12  C   UNL     1      -1.626   1.643  -1.289  1.00  0.00     0.052 A 
ATOM     13  C   UNL     1      -2.427   2.810  -1.259  1.00  0.00     0.027 A 
ATOM     14  C   UNL     1      -3.809   2.809  -1.490  1.00  0.00     0.015 A 
ATOM     15  C   UNL     1      -3.701   0.465  -1.925  1.00  0.00     0.031 A 
ATOM     16  C   UNL     1      -4.473   1.620  -1.772  1.00  0.00     0.057 A 
BRANCH  12  17
ATOM     17  N   UNL     1      -0.303   1.735  -0.862  1.00  0.00    -0.366 N 
ATOM     18  C   UNL     1       1.606   0.192  -0.446  1.00  0.00     0.032 C 
ATOM     19  C   UNL     1       0.826   1.010  -1.489  1.00  0.00     0.089 C 
ATOM     20  C   UNL     1       1.739   2.002  -2.242  1.00  0.00     0.094 C 
ATOM     21  S   UNL     1       2.421   3.361  -1.220  1.00  0.00    -0.158 SA
ATOM     22  C   UNL     1       0.081   2.709   0.190  1.00  0.00     0.128 C 
ATOM     23  C   UNL     1       0.882   3.881  -0.387  1.00  0.00     0.091 C 
ENDBRANCH  12  17
BRANCH  16  24
ATOM     24  C   UNL     1      -5.972   1.583  -1.914  1.00  0.00     0.416 C 
ATOM     25  F   UNL     1      -6.602   2.507  -1.134  1.00  0.00    -0.166 F 
ATOM     26  F   UNL     1      -6.386   1.824  -3.187  1.00  0.00    -0.166 F 
ATOM     27  F   UNL     1      -6.510   0.381  -1.564  1.00  0.00    -0.166 F 
ENDBRANCH  16  24
ENDBRANCH   9  11
ENDBRANCH   8   9
ENDBRANCH   7   8
ENDBRANCH   6   7
ENDBRANCH   5   6
ENDBRANCH   4   5
ENDBRANCH   3   4
ENDBRANCH   2   3
ENDBRANCH   1   2
BRANCH   1  28
ATOM     28  C   UNL     1      -1.069  -1.888   4.259  1.00  0.00     0.188 C 
BRANCH  28  29
ATOM     29  O   UNL     1      -2.470  -1.851   4.513  1.00  0.00    -0.376 OA
BRANCH  29  30
ATOM     30  C   UNL     1      -2.924  -1.022   5.577  1.00  0.00     0.202 C 
BRANCH  30  31
ATOM     31  C   UNL     1      -2.424   0.429   5.746  1.00  0.00     0.261 C 
BRANCH  31  32
ATOM     32  O   UNL     1      -1.005   0.656   5.763  1.00  0.00    -0.460 OA
BRANCH  32  33
ATOM     33  C   UNL     1      -0.276   0.079   6.740  1.00  0.00     0.338 C 
ATOM     34  O   UNL     1      -0.690  -0.615   7.651  1.00  0.00    -0.246 OA
BRANCH  33  35
ATOM     35  C   UNL     1       1.151   0.287   6.398  1.00  0.00     0.060 A 
ATOM     36  C   UNL     1       1.983  -0.827   6.231  1.00  0.00     0.016 A 
ATOM     37  C   UNL     1       1.659   1.579   6.230  1.00  0.00     0.016 A 
ATOM     38  C   UNL     1       3.335  -0.649   5.929  1.00  0.00     0.010 A 
ATOM     39  C   UNL     1       3.017   1.756   5.948  1.00  0.00     0.010 A 
ATOM     40  C   UNL     1       3.868   0.643   5.829  1.00  0.00    -0.014 A 
BRANCH  40  41
ATOM     41  C   UNL     1       5.340   0.835   5.828  1.00  0.00     0.031 A 
ATOM     42  C   UNL     1       6.021   1.072   7.150  1.00  0.00     0.074 A 
ATOM     43  C   UNL     1       6.059   0.788   4.693  1.00  0.00     0.049 A 
ATOM     44  N   UNL     1       7.280   1.305   7.411  1.00  0.00    -0.248 NA
ATOM     45  C   UNL     1       5.152   1.045   8.338  1.00  0.00     0.031 C 
ATOM     46  C   UNL     1       5.519   0.528   3.360  1.00  0.00     0.029 A 
ATOM     47  N   UNL     1       7.404   0.966   4.482  1.00  0.00    -0.354 N 
ATOM     48  C   UNL     1       7.358   1.450   8.793  1.00  0.00     0.074 A 
ATOM     49  C   UNL     1       6.011   1.319   9.307  1.00  0.00     0.031 C 
ATOM     50  C   UNL     1       6.524   0.576   2.467  1.00  0.00     0.029 A 
ATOM     51  C   UNL     1       7.771   0.901   3.159  1.00  0.00     0.049 A 
ATOM     52  H   UNL     1       8.047   1.125   5.212  1.00  0.00     0.167 HD
ATOM     53  C   UNL     1       8.452   1.663   9.564  1.00  0.00     0.034 A 
ATOM     54  C   UNL     1       8.970   1.106   2.575  1.00  0.00     0.034 A 
ATOM     55  C   UNL     1       9.784   1.820   9.036  1.00  0.00     0.049 A 
ATOM     56  C   UNL     1      10.162   1.439   3.444  1.00  0.00     0.074 A 
ATOM     57  C   UNL     1      10.965   2.038   9.722  1.00  0.00     0.029 A 
ATOM     58  N   UNL     1      10.109   1.795   7.685  1.00  0.00    -0.354 N 
ATOM     59  N   UNL     1      10.226   1.562   4.750  1.00  0.00    -0.248 NA
ATOM     60  C   UNL     1      11.443   1.657   2.757  1.00  0.00     0.031 C 
ATOM     61  C   UNL     1      11.990   2.214   8.786  1.00  0.00     0.029 A 
ATOM     62  C   UNL     1      11.465   2.028   7.516  1.00  0.00     0.049 A 
ATOM     63  H   UNL     1       9.469   1.635   6.954  1.00  0.00     0.167 HD
ATOM     64  C   UNL     1      11.560   1.840   5.042  1.00  0.00     0.074 A 
ATOM     65  C   UNL     1      12.265   1.857   3.777  1.00  0.00     0.031 C 
ATOM     66  C   UNL     1      12.151   2.054   6.246  1.00  0.00     0.034 A 
BRANCH  53  67
ATOM     67  C   UNL     1       8.228   1.797  11.051  1.00  0.00     0.023 A 
ATOM     68  C   UNL     1       7.735   0.730  11.823  1.00  0.00     0.031 A 
ATOM     69  C   UNL     1       8.458   3.025  11.695  1.00  0.00     0.131 A 
ATOM     70  C   UNL     1       7.416   0.933  13.174  1.00  0.00     0.055 A 
ATOM     71  C   UNL     1       8.214   3.198  13.059  1.00  0.00     0.041 A 
ATOM     72  F   UNL     1       8.903   4.087  11.004  1.00  0.00    -0.206 F 
ATOM     73  C   UNL     1       7.674   2.154  13.803  1.00  0.00     0.022 A 
BRANCH  70  74
ATOM     74  S   UNL     1       6.516  -0.370  14.059  1.00  0.00     0.124 S 
ATOM     75  O   UNL     1       5.315  -0.508  13.239  1.00  0.00    -0.237 OA
ATOM     76  O   UNL     1       7.453  -1.487  14.013  1.00  0.00    -0.237 OA
ATOM     77  O   UNL     1       6.294   0.204  15.384  1.00  0.00    -0.744 OA
ENDBRANCH  70  74
ENDBRANCH  53  67
BRANCH  54  78
ATOM     78  C   UNL     1       9.110   1.049   1.091  1.00  0.00     0.023 A 
ATOM     79  C   UNL     1       9.912   0.078   0.470  1.00  0.00     0.031 A 
ATOM     80  C   UNL     1       8.484   2.008   0.274  1.00  0.00     0.131 A 
ATOM     81  C   UNL     1      10.099   0.111  -0.922  1.00  0.00     0.055 A 
ATOM     82  C   UNL     1       8.634   2.007  -1.114  1.00  0.00     0.041 A 
ATOM     83  F   UNL     1       7.710   2.961   0.817  1.00  0.00    -0.206 F 
ATOM     84  C   UNL     1       9.456   1.061  -1.719  1.00  0.00     0.022 A 
BRANCH  81  85
ATOM     85  S   UNL     1      11.258  -1.065  -1.673  1.00  0.00     0.124 S 
ATOM     86  O   UNL     1      12.504  -0.733  -0.990  1.00  0.00    -0.237 OA
ATOM     87  O   UNL     1      10.657  -2.348  -1.323  1.00  0.00    -0.237 OA
ATOM     88  O   UNL     1      11.215  -0.727  -3.094  1.00  0.00    -0.744 OA
ENDBRANCH  81  85
ENDBRANCH  54  78
BRANCH  66  89
ATOM     89  C   UNL     1      13.645   2.278   6.250  1.00  0.00     0.023 A 
ATOM     90  C   UNL     1      14.225   3.432   5.694  1.00  0.00     0.031 A 
ATOM     91  C   UNL     1      14.499   1.318   6.820  1.00  0.00     0.131 A 
ATOM     92  C   UNL     1      15.621   3.571   5.674  1.00  0.00     0.055 A 
ATOM     93  C   UNL     1      15.884   1.489   6.850  1.00  0.00     0.041 A 
ATOM     94  F   UNL     1      14.000   0.197   7.365  1.00  0.00    -0.206 F 
ATOM     95  C   UNL     1      16.453   2.615   6.263  1.00  0.00     0.022 A 
BRANCH  92  96
ATOM     96  S   UNL     1      16.345   4.981   4.791  1.00  0.00     0.124 S 
ATOM     97  O   UNL     1      15.825   4.793   3.440  1.00  0.00    -0.237 OA
ATOM     98  O   UNL     1      15.808   6.121   5.527  1.00  0.00    -0.237 OA
ATOM     99  O   UNL     1      17.785   4.774   4.935  1.00  0.00    -0.744 OA
ENDBRANCH  92  96
ENDBRANCH  66  89
ENDBRANCH  40  41
ENDBRANCH  33  35
ENDBRANCH  32  33
ENDBRANCH  31  32
ENDBRANCH  30  31
ENDBRANCH  29  30
ENDBRANCH  28  29
ENDBRANCH   1  28
TORSDOF 25
