REMARK SMILES O=C(OCCOCCOCCOCCOC(=O)[C@H](CCc1ccccn1)c1ccccc1Br)c1ccc(-c2c3nc(c(-c4cc(S(=O)(=O)[O-])ccc4F)c4ccc([nH]4)c(-c4cc(S(=O)(=O)[O-])ccc4F)c4nc(c(-c5cc(S(=O)(=O)[O-])ccc5F)c5ccc2[nH]5)C=C4)C=C3)cc1
REMARK SMILES IDX 9 1 8 2 7 3 6 4 5 5 4 6 3 7 2 8 1 9 34 10 35 11 96 12 36 13
REMARK SMILES IDX 95 14 37 15 38 16 39 17 89 18 40 19 94 20 88 21 90 22 41 23
REMARK SMILES IDX 93 24 87 25 86 26 42 28 74 29 54 30 73 31 55 32 58 33 72 34
REMARK SMILES IDX 91 35 56 36 57 37 71 39 92 40 59 41 43 42 44 43 52 44 45 45
REMARK SMILES IDX 51 46 53 47 50 48 46 49 47 50 48 51 49 52 75 53 76 54 84 55
REMARK SMILES IDX 77 56 83 57 85 58 82 59 78 60 79 61 80 62 81 63 60 64 61 65
REMARK SMILES IDX 69 66 62 67 68 68 70 69 67 70 63 71 64 72 65 73 66 74 10 75
REMARK SMILES IDX 11 76 12 77 13 78 14 79 15 80 16 81 17 82 18 83 27 84 28 85
REMARK SMILES IDX 32 86 29 87 31 88 33 89 30 90 19 91 20 92 21 93 22 94 26 95
REMARK SMILES IDX 23 96 25 97 24 98
REMARK H PARENT 90 27 58 38
REMARK Flexibility Score: inf
ROOT
ATOM      1  O   UNL     1       4.625  -0.134  -2.252  1.00  0.00    -0.377 OA
ENDROOT
BRANCH   1   2
ATOM      2  C   UNL     1       3.637  -0.558  -1.329  1.00  0.00     0.188 C 
BRANCH   2   3
ATOM      3  C   UNL     1       3.190   0.534  -0.366  1.00  0.00     0.188 C 
BRANCH   3   4
ATOM      4  O   UNL     1       2.525   1.606  -1.031  1.00  0.00    -0.376 OA
BRANCH   4   5
ATOM      5  C   UNL     1       2.902   2.936  -0.676  1.00  0.00     0.202 C 
BRANCH   5   6
ATOM      6  C   UNL     1       2.410   3.396   0.694  1.00  0.00     0.261 C 
BRANCH   6   7
ATOM      7  O   UNL     1       2.175   2.321   1.617  1.00  0.00    -0.460 OA
BRANCH   7   8
ATOM      8  C   UNL     1       1.126   1.466   1.701  1.00  0.00     0.338 C 
ATOM      9  O   UNL     1       1.187   0.576   2.552  1.00  0.00    -0.246 OA
BRANCH   8  10
ATOM     10  C   UNL     1      -0.078   1.484   0.806  1.00  0.00     0.060 A 
ATOM     11  C   UNL     1      -0.182   2.156  -0.411  1.00  0.00     0.016 A 
ATOM     12  C   UNL     1      -1.187   0.723   1.221  1.00  0.00     0.016 A 
ATOM     13  C   UNL     1      -1.337   2.138  -1.167  1.00  0.00     0.010 A 
ATOM     14  C   UNL     1      -2.376   0.717   0.483  1.00  0.00     0.010 A 
ATOM     15  C   UNL     1      -2.458   1.478  -0.687  1.00  0.00    -0.014 A 
BRANCH  15  16
ATOM     16  C   UNL     1      -3.740   1.923  -1.257  1.00  0.00     0.031 A 
ATOM     17  C   UNL     1      -4.500   2.951  -0.468  1.00  0.00     0.074 A 
ATOM     18  C   UNL     1      -4.052   1.616  -2.527  1.00  0.00     0.049 A 
ATOM     19  N   UNL     1      -5.651   3.509  -0.715  1.00  0.00    -0.248 NA
ATOM     20  C   UNL     1      -3.853   3.434   0.766  1.00  0.00     0.031 C 
ATOM     21  C   UNL     1      -3.224   0.803  -3.424  1.00  0.00     0.029 A 
ATOM     22  N   UNL     1      -5.109   1.998  -3.302  1.00  0.00    -0.354 N 
ATOM     23  C   UNL     1      -5.889   4.362   0.360  1.00  0.00     0.074 A 
ATOM     24  C   UNL     1      -4.766   4.252   1.257  1.00  0.00     0.031 C 
ATOM     25  C   UNL     1      -3.799   0.771  -4.637  1.00  0.00     0.029 A 
ATOM     26  C   UNL     1      -5.071   1.478  -4.574  1.00  0.00     0.049 A 
ATOM     27  H   UNL     1      -5.828   2.588  -2.981  1.00  0.00     0.167 HD
ATOM     28  C   UNL     1      -6.969   5.150   0.570  1.00  0.00     0.034 A 
ATOM     29  C   UNL     1      -5.999   1.539  -5.548  1.00  0.00     0.034 A 
ATOM     30  C   UNL     1      -8.056   5.214  -0.371  1.00  0.00     0.049 A 
ATOM     31  C   UNL     1      -7.262   2.304  -5.234  1.00  0.00     0.074 A 
ATOM     32  C   UNL     1      -9.260   5.881  -0.268  1.00  0.00     0.029 A 
ATOM     33  N   UNL     1      -8.058   4.567  -1.605  1.00  0.00    -0.354 N 
ATOM     34  N   UNL     1      -7.556   3.007  -4.160  1.00  0.00    -0.248 NA
ATOM     35  C   UNL     1      -8.318   2.277  -6.247  1.00  0.00     0.031 C 
ATOM     36  C   UNL     1     -10.019   5.572  -1.403  1.00  0.00     0.029 A 
ATOM     37  C   UNL     1      -9.254   4.792  -2.260  1.00  0.00     0.049 A 
ATOM     38  H   UNL     1      -7.314   4.028  -1.960  1.00  0.00     0.167 HD
ATOM     39  C   UNL     1      -8.825   3.530  -4.382  1.00  0.00     0.074 A 
ATOM     40  C   UNL     1      -9.224   3.076  -5.702  1.00  0.00     0.031 C 
ATOM     41  C   UNL     1      -9.597   4.311  -3.580  1.00  0.00     0.034 A 
BRANCH  28  42
ATOM     42  C   UNL     1      -7.054   5.848   1.906  1.00  0.00     0.023 A 
ATOM     43  C   UNL     1      -6.114   6.812   2.318  1.00  0.00     0.031 A 
ATOM     44  C   UNL     1      -8.020   5.436   2.841  1.00  0.00     0.131 A 
ATOM     45  C   UNL     1      -6.101   7.251   3.653  1.00  0.00     0.055 A 
ATOM     46  C   UNL     1      -8.059   5.946   4.140  1.00  0.00     0.041 A 
ATOM     47  F   UNL     1      -8.919   4.491   2.522  1.00  0.00    -0.206 F 
ATOM     48  C   UNL     1      -7.083   6.844   4.559  1.00  0.00     0.022 A 
BRANCH  45  49
ATOM     49  S   UNL     1      -4.673   8.207   4.243  1.00  0.00     0.124 S 
ATOM     50  O   UNL     1      -3.573   7.277   3.994  1.00  0.00    -0.237 OA
ATOM     51  O   UNL     1      -4.710   9.390   3.386  1.00  0.00    -0.237 OA
ATOM     52  O   UNL     1      -4.974   8.446   5.649  1.00  0.00    -0.744 OA
ENDBRANCH  45  49
ENDBRANCH  28  42
BRANCH  29  53
ATOM     53  C   UNL     1      -5.818   0.809  -6.837  1.00  0.00     0.023 A 
ATOM     54  C   UNL     1      -5.862   1.480  -8.069  1.00  0.00     0.031 A 
ATOM     55  C   UNL     1      -5.655  -0.590  -6.862  1.00  0.00     0.131 A 
ATOM     56  C   UNL     1      -5.792   0.751  -9.269  1.00  0.00     0.055 A 
ATOM     57  C   UNL     1      -5.524  -1.303  -8.056  1.00  0.00     0.041 A 
ATOM     58  F   UNL     1      -5.616  -1.292  -5.719  1.00  0.00    -0.206 F 
ATOM     59  C   UNL     1      -5.608  -0.633  -9.271  1.00  0.00     0.022 A 
BRANCH  56  60
ATOM     60  S   UNL     1      -6.045   1.626 -10.838  1.00  0.00     0.124 S 
ATOM     61  O   UNL     1      -7.357   2.238 -10.625  1.00  0.00    -0.237 OA
ATOM     62  O   UNL     1      -4.910   2.545 -10.857  1.00  0.00    -0.237 OA
ATOM     63  O   UNL     1      -6.006   0.566 -11.833  1.00  0.00    -0.744 OA
ENDBRANCH  56  60
ENDBRANCH  29  53
BRANCH  41  64
ATOM     64  C   UNL     1     -10.914   4.761  -4.154  1.00  0.00     0.023 A 
ATOM     65  C   UNL     1     -11.945   3.851  -4.435  1.00  0.00     0.031 A 
ATOM     66  C   UNL     1     -11.127   6.122  -4.431  1.00  0.00     0.131 A 
ATOM     67  C   UNL     1     -13.120   4.306  -5.047  1.00  0.00     0.055 A 
ATOM     68  C   UNL     1     -12.330   6.579  -4.965  1.00  0.00     0.041 A 
ATOM     69  F   UNL     1     -10.170   7.030  -4.182  1.00  0.00    -0.206 F 
ATOM     70  C   UNL     1     -13.329   5.666  -5.292  1.00  0.00     0.022 A 
BRANCH  67  71
ATOM     71  S   UNL     1     -14.317   3.078  -5.633  1.00  0.00     0.124 S 
ATOM     72  O   UNL     1     -13.502   2.269  -6.534  1.00  0.00    -0.237 OA
ATOM     73  O   UNL     1     -14.731   2.430  -4.393  1.00  0.00    -0.237 OA
ATOM     74  O   UNL     1     -15.345   3.888  -6.284  1.00  0.00    -0.744 OA
ENDBRANCH  67  71
ENDBRANCH  41  64
ENDBRANCH  15  16
ENDBRANCH   8  10
ENDBRANCH   7   8
ENDBRANCH   6   7
ENDBRANCH   5   6
ENDBRANCH   4   5
ENDBRANCH   3   4
ENDBRANCH   2   3
ENDBRANCH   1   2
BRANCH   1  75
ATOM     75  C   UNL     1       4.286   1.025  -3.006  1.00  0.00     0.188 C 
BRANCH  75  76
ATOM     76  C   UNL     1       2.907   1.046  -3.747  1.00  0.00     0.188 C 
BRANCH  76  77
ATOM     77  O   UNL     1       2.351  -0.249  -3.931  1.00  0.00    -0.376 OA
BRANCH  77  78
ATOM     78  C   UNL     1       2.652  -0.853  -5.188  1.00  0.00     0.202 C 
BRANCH  78  79
ATOM     79  C   UNL     1       4.142  -0.875  -5.574  1.00  0.00     0.261 C 
BRANCH  79  80
ATOM     80  O   UNL     1       4.642   0.491  -5.586  1.00  0.00    -0.463 OA
BRANCH  80  81
ATOM     81  C   UNL     1       5.405   1.022  -6.550  1.00  0.00     0.313 C 
ATOM     82  O   UNL     1       5.797   0.371  -7.507  1.00  0.00    -0.252 OA
BRANCH  81  83
ATOM     83  C   UNL     1       5.716   2.568  -6.319  1.00  0.00     0.131 C 
BRANCH  83  84
ATOM     84  C   UNL     1       5.482   3.284  -7.628  1.00  0.00    -0.020 A 
ATOM     85  C   UNL     1       4.345   2.939  -8.394  1.00  0.00     0.006 A 
ATOM     86  C   UNL     1       6.328   4.296  -8.101  1.00  0.00     0.022 A 
ATOM     87  C   UNL     1       4.076   3.569  -9.603  1.00  0.00     0.000 A 
ATOM     88  C   UNL     1       6.023   4.962  -9.288  1.00  0.00     0.016 A 
ATOM     89  Br  UNL     1       7.920   4.827  -7.202  1.00  0.00    -0.051 Br
ATOM     90  C   UNL     1       4.908   4.592 -10.041  1.00  0.00     0.001 A 
ENDBRANCH  83  84
BRANCH  83  91
ATOM     91  C   UNL     1       5.086   3.327  -5.091  1.00  0.00     0.026 C 
BRANCH  91  92
ATOM     92  C   UNL     1       4.964   4.870  -4.924  1.00  0.00     0.057 C 
BRANCH  92  93
ATOM     93  C   UNL     1       3.730   5.531  -5.508  1.00  0.00     0.040 A 
ATOM     94  C   UNL     1       2.934   6.410  -4.772  1.00  0.00     0.024 A 
ATOM     95  N   UNL     1       3.479   5.301  -6.807  1.00  0.00    -0.261 NA
ATOM     96  C   UNL     1       1.856   7.046  -5.399  1.00  0.00     0.003 A 
ATOM     97  C   UNL     1       2.434   5.922  -7.395  1.00  0.00     0.111 A 
ATOM     98  C   UNL     1       1.600   6.800  -6.740  1.00  0.00     0.020 A 
ENDBRANCH  92  93
ENDBRANCH  91  92
ENDBRANCH  83  91
ENDBRANCH  81  83
ENDBRANCH  80  81
ENDBRANCH  79  80
ENDBRANCH  78  79
ENDBRANCH  77  78
ENDBRANCH  76  77
ENDBRANCH  75  76
ENDBRANCH   1  75
TORSDOF 27
