REMARK SMILES CC(=O)NS(=O)(=O)c1cc(-c2ccn(C(F)F)c(=O)c2)ccc1C(=O)OCCOCCOCCOCCOC(=O)c1ccc(-c2c3nc(c(-c4cc(S(=O)(=O)[O-])ccc4F)c4ccc([nH]4)c(-c4cc(S(=O)(=O)[O-])ccc4F)c4nc(c(-c5cc(S(=O)(=O)[O-])ccc5F)c5ccc2[nH]5)C=C4)C=C3)cc1
REMARK SMILES IDX 33 1 32 2 31 3 30 4 29 5 28 6 27 7 26 8 24 9 25 10 23 11
REMARK SMILES IDX 8 12 9 13 10 14 22 15 21 16 5 17 6 18 7 19 4 20 1 21 2 22
REMARK SMILES IDX 3 23 11 25 12 26 20 27 13 28 18 29 14 30 19 31 15 32 16 33
REMARK SMILES IDX 17 34 34 35 35 36 36 37 37 38 38 39 39 40 40 41 41 42 42 43
REMARK SMILES IDX 103 44 43 45 102 46 44 47 45 48 46 49 96 50 47 51 101 52
REMARK SMILES IDX 95 53 97 54 48 55 100 56 94 57 93 58 49 60 81 61 61 62 80 63
REMARK SMILES IDX 62 64 65 65 79 66 98 67 63 68 64 69 78 71 99 72 66 73 50 74
REMARK SMILES IDX 51 75 59 76 52 77 58 78 60 79 57 80 53 81 54 82 55 83 56 84
REMARK SMILES IDX 82 85 83 86 91 87 84 88 90 89 92 90 89 91 85 92 86 93 87 94
REMARK SMILES IDX 88 95 67 96 68 97 76 98 69 99 75 100 77 101 74 102 70 103
REMARK SMILES IDX 71 104 72 105 73 106
REMARK H PARENT 4 24 97 59 65 70
REMARK Flexibility Score: inf
ROOT
ATOM      1  C   UNL     1      -0.698   6.010   0.030  1.00  0.00     0.188 C 
ENDROOT
BRANCH   1   2
ATOM      2  O   UNL     1      -0.669   4.994   1.025  1.00  0.00    -0.377 OA
BRANCH   2   3
ATOM      3  C   UNL     1       0.612   4.682   1.544  1.00  0.00     0.188 C 
BRANCH   3   4
ATOM      4  C   UNL     1       1.374   5.832   2.208  1.00  0.00     0.188 C 
BRANCH   4   5
ATOM      5  O   UNL     1       1.743   6.856   1.287  1.00  0.00    -0.376 OA
BRANCH   5   6
ATOM      6  C   UNL     1       3.117   6.926   0.916  1.00  0.00     0.202 C 
BRANCH   6   7
ATOM      7  C   UNL     1       3.456   6.070  -0.310  1.00  0.00     0.261 C 
BRANCH   7   8
ATOM      8  O   UNL     1       3.232   4.664  -0.106  1.00  0.00    -0.460 OA
BRANCH   8   9
ATOM      9  C   UNL     1       4.041   4.033   0.756  1.00  0.00     0.339 C 
ATOM     10  O   UNL     1       4.985   4.532   1.348  1.00  0.00    -0.246 OA
BRANCH   9  11
ATOM     11  C   UNL     1       3.515   2.686   1.102  1.00  0.00     0.080 A 
ATOM     12  C   UNL     1       2.997   1.729   0.219  1.00  0.00     0.103 A 
ATOM     13  C   UNL     1       2.741   0.430   0.685  1.00  0.00     0.032 A 
ATOM     14  C   UNL     1       2.797   0.126   2.048  1.00  0.00    -0.017 A 
ATOM     15  C   UNL     1       3.596   2.363   2.473  1.00  0.00     0.018 A 
ATOM     16  C   UNL     1       3.198   1.111   2.948  1.00  0.00     0.010 A 
BRANCH  12  17
ATOM     17  S   UNL     1       2.492   2.142  -1.433  1.00  0.00     0.264 S 
ATOM     18  O   UNL     1       3.698   2.358  -2.190  1.00  0.00    -0.201 OA
ATOM     19  O   UNL     1       1.415   3.104  -1.352  1.00  0.00    -0.201 OA
BRANCH  17  20
ATOM     20  N   UNL     1       1.796   0.740  -2.051  1.00  0.00    -0.249 N 
ATOM     21  C   UNL     1      -0.213   0.328  -0.619  1.00  0.00     0.115 C 
ATOM     22  C   UNL     1       0.407   0.477  -1.985  1.00  0.00     0.230 C 
ATOM     23  O   UNL     1      -0.192   0.152  -3.000  1.00  0.00    -0.274 OA
ATOM     24  H   UNL     1       2.381   0.073  -2.478  1.00  0.00     0.183 HD
ENDBRANCH  17  20
ENDBRANCH  12  17
BRANCH  14  25
ATOM     25  C   UNL     1       2.343  -1.193   2.514  1.00  0.00    -0.011 A 
ATOM     26  C   UNL     1       1.081  -1.379   3.204  1.00  0.00     0.027 A 
ATOM     27  C   UNL     1       3.104  -2.265   2.236  1.00  0.00     0.080 A 
ATOM     28  C   UNL     1       0.679  -2.603   3.564  1.00  0.00     0.095 A 
ATOM     29  C   UNL     1       2.675  -3.632   2.640  1.00  0.00     0.255 A 
ATOM     30  N   UNL     1       1.455  -3.715   3.293  1.00  0.00    -0.258 N 
ATOM     31  O   UNL     1       3.409  -4.578   2.374  1.00  0.00    -0.269 OA
BRANCH  30  32
ATOM     32  C   UNL     1       1.023  -5.026   3.702  1.00  0.00     0.451 C 
ATOM     33  F   UNL     1       0.924  -5.865   2.643  1.00  0.00    -0.185 F 
ATOM     34  F   UNL     1       1.895  -5.568   4.587  1.00  0.00    -0.185 F 
ENDBRANCH  30  32
ENDBRANCH  14  25
ENDBRANCH   9  11
ENDBRANCH   8   9
ENDBRANCH   7   8
ENDBRANCH   6   7
ENDBRANCH   5   6
ENDBRANCH   4   5
ENDBRANCH   3   4
ENDBRANCH   2   3
ENDBRANCH   1   2
BRANCH   1  35
ATOM     35  C   UNL     1      -1.104   7.399   0.567  1.00  0.00     0.188 C 
BRANCH  35  36
ATOM     36  O   UNL     1      -1.984   7.563   1.680  1.00  0.00    -0.376 OA
BRANCH  36  37
ATOM     37  C   UNL     1      -2.686   6.459   2.219  1.00  0.00     0.202 C 
BRANCH  37  38
ATOM     38  C   UNL     1      -3.859   5.896   1.405  1.00  0.00     0.261 C 
BRANCH  38  39
ATOM     39  O   UNL     1      -3.689   5.918  -0.016  1.00  0.00    -0.460 OA
BRANCH  39  40
ATOM     40  C   UNL     1      -4.109   7.057  -0.621  1.00  0.00     0.338 C 
ATOM     41  O   UNL     1      -4.654   8.009  -0.091  1.00  0.00    -0.246 OA
BRANCH  40  42
ATOM     42  C   UNL     1      -3.686   7.039  -2.039  1.00  0.00     0.060 A 
ATOM     43  C   UNL     1      -3.058   8.180  -2.555  1.00  0.00     0.016 A 
ATOM     44  C   UNL     1      -3.933   5.936  -2.861  1.00  0.00     0.016 A 
ATOM     45  C   UNL     1      -2.697   8.232  -3.900  1.00  0.00     0.010 A 
ATOM     46  C   UNL     1      -3.596   6.000  -4.218  1.00  0.00     0.010 A 
ATOM     47  C   UNL     1      -3.005   7.161  -4.748  1.00  0.00    -0.014 A 
BRANCH  47  48
ATOM     48  C   UNL     1      -2.914   7.346  -6.217  1.00  0.00     0.031 A 
ATOM     49  C   UNL     1      -4.133   7.850  -6.941  1.00  0.00     0.074 A 
ATOM     50  C   UNL     1      -1.776   7.097  -6.888  1.00  0.00     0.049 A 
ATOM     51  N   UNL     1      -4.315   8.063  -8.218  1.00  0.00    -0.248 NA
ATOM     52  C   UNL     1      -5.305   8.153  -6.104  1.00  0.00     0.031 C 
ATOM     53  C   UNL     1      -0.520   6.652  -6.287  1.00  0.00     0.029 A 
ATOM     54  N   UNL     1      -1.498   7.179  -8.229  1.00  0.00    -0.354 N 
ATOM     55  C   UNL     1      -5.619   8.531  -8.339  1.00  0.00     0.074 A 
ATOM     56  C   UNL     1      -6.191   8.536  -7.010  1.00  0.00     0.031 C 
ATOM     57  C   UNL     1       0.392   6.483  -7.261  1.00  0.00     0.029 A 
ATOM     58  C   UNL     1      -0.224   6.776  -8.555  1.00  0.00     0.049 A 
ATOM     59  H   UNL     1      -2.149   7.496  -8.896  1.00  0.00     0.167 HD
ATOM     60  C   UNL     1      -6.277   8.926  -9.456  1.00  0.00     0.034 A 
ATOM     61  C   UNL     1       0.363   6.635  -9.761  1.00  0.00     0.034 A 
ATOM     62  C   UNL     1      -5.707   8.884 -10.778  1.00  0.00     0.049 A 
ATOM     63  C   UNL     1      -0.425   6.981 -11.004  1.00  0.00     0.074 A 
ATOM     64  C   UNL     1      -6.282   9.258 -11.979  1.00  0.00     0.029 A 
ATOM     65  N   UNL     1      -4.431   8.419 -11.075  1.00  0.00    -0.354 N 
ATOM     66  N   UNL     1      -1.654   7.433 -11.106  1.00  0.00    -0.248 NA
ATOM     67  C   UNL     1       0.255   6.798 -12.294  1.00  0.00     0.031 C 
ATOM     68  C   UNL     1      -5.381   8.957 -13.008  1.00  0.00     0.029 A 
ATOM     69  C   UNL     1      -4.215   8.464 -12.444  1.00  0.00     0.049 A 
ATOM     70  H   UNL     1      -3.777   8.104 -10.411  1.00  0.00     0.167 HD
ATOM     71  C   UNL     1      -1.881   7.616 -12.469  1.00  0.00     0.074 A 
ATOM     72  C   UNL     1      -0.660   7.234 -13.147  1.00  0.00     0.031 C 
ATOM     73  C   UNL     1      -2.994   8.066 -13.104  1.00  0.00     0.034 A 
BRANCH  60  74
ATOM     74  C   UNL     1      -7.707   9.375  -9.285  1.00  0.00     0.023 A 
ATOM     75  C   UNL     1      -8.036  10.531  -8.553  1.00  0.00     0.031 A 
ATOM     76  C   UNL     1      -8.758   8.610  -9.817  1.00  0.00     0.131 A 
ATOM     77  C   UNL     1      -9.382  10.847  -8.315  1.00  0.00     0.055 A 
ATOM     78  C   UNL     1     -10.095   8.971  -9.639  1.00  0.00     0.041 A 
ATOM     79  F   UNL     1      -8.504   7.483 -10.502  1.00  0.00    -0.206 F 
ATOM     80  C   UNL     1     -10.414  10.088  -8.872  1.00  0.00     0.022 A 
BRANCH  77  81
ATOM     81  S   UNL     1      -9.768  12.184  -7.151  1.00  0.00     0.124 S 
ATOM     82  O   UNL     1      -9.122  11.708  -5.930  1.00  0.00    -0.237 OA
ATOM     83  O   UNL     1      -9.155  13.344  -7.788  1.00  0.00    -0.237 OA
ATOM     84  O   UNL     1     -11.229  12.193  -7.111  1.00  0.00    -0.744 OA
ENDBRANCH  77  81
ENDBRANCH  60  74
BRANCH  61  85
ATOM     85  C   UNL     1       1.749   6.095  -9.873  1.00  0.00     0.023 A 
ATOM     86  C   UNL     1       2.796   6.872 -10.395  1.00  0.00     0.031 A 
ATOM     87  C   UNL     1       2.030   4.764  -9.517  1.00  0.00     0.131 A 
ATOM     88  C   UNL     1       4.063   6.299 -10.587  1.00  0.00     0.055 A 
ATOM     89  C   UNL     1       3.304   4.213  -9.664  1.00  0.00     0.041 A 
ATOM     90  F   UNL     1       1.065   3.976  -9.017  1.00  0.00    -0.206 F 
ATOM     91  C   UNL     1       4.327   4.979 -10.214  1.00  0.00     0.022 A 
BRANCH  88  92
ATOM     92  S   UNL     1       5.348   7.281 -11.411  1.00  0.00     0.124 S 
ATOM     93  O   UNL     1       4.718   7.581 -12.691  1.00  0.00    -0.237 OA
ATOM     94  O   UNL     1       5.505   8.405 -10.493  1.00  0.00    -0.237 OA
ATOM     95  O   UNL     1       6.487   6.367 -11.474  1.00  0.00    -0.744 OA
ENDBRANCH  88  92
ENDBRANCH  61  85
BRANCH  73  96
ATOM     96  C   UNL     1      -2.920   8.211 -14.604  1.00  0.00     0.023 A 
ATOM     97  C   UNL     1      -2.839   7.094 -15.453  1.00  0.00     0.031 A 
ATOM     98  C   UNL     1      -2.933   9.489 -15.189  1.00  0.00     0.131 A 
ATOM     99  C   UNL     1      -2.728   7.278 -16.840  1.00  0.00     0.055 A 
ATOM    100  C   UNL     1      -2.878   9.665 -16.572  1.00  0.00     0.041 A 
ATOM    101  F   UNL     1      -3.010  10.590 -14.424  1.00  0.00    -0.206 F 
ATOM    102  C   UNL     1      -2.763   8.556 -17.405  1.00  0.00     0.022 A 
BRANCH  99 103
ATOM    103  S   UNL     1      -2.465   5.827 -17.896  1.00  0.00     0.124 S 
ATOM    104  O   UNL     1      -1.216   5.289 -17.367  1.00  0.00    -0.237 OA
ATOM    105  O   UNL     1      -3.661   5.032 -17.641  1.00  0.00    -0.237 OA
ATOM    106  O   UNL     1      -2.375   6.393 -19.241  1.00  0.00    -0.744 OA
ENDBRANCH  99 103
ENDBRANCH  73  96
ENDBRANCH  47  48
ENDBRANCH  40  42
ENDBRANCH  39  40
ENDBRANCH  38  39
ENDBRANCH  37  38
ENDBRANCH  36  37
ENDBRANCH  35  36
ENDBRANCH   1  35
TORSDOF 27
