REMARK SMILES Cc1cc(Nc2ccc(C(=O)OCCOCCOCCOCCOC(=O)c3ccc(-c4c5nc(c(-c6cc(S(=O)(=O)[O-])ccc6F)c6ccc([nH]6)c(-c6cc(S(=O)(=O)[O-])ccc6F)c6nc(c(-c7cc(S(=O)(=O)[O-])ccc7F)c7ccc4[nH]7)C=C6)C=C5)cc3)cc2)nc(-n2nc(C)cc2C)n1
REMARK SMILES IDX 18 1 17 2 16 3 15 4 14 5 13 6 12 7 10 8 11 9 9 10 6 11 7 12
REMARK SMILES IDX 91 13 8 14 90 15 5 16 4 18 1 19 2 20 3 21 101 22 93 23 92 24
REMARK SMILES IDX 94 25 95 26 99 27 96 28 98 29 100 30 97 31 19 32 20 33 21 34
REMARK SMILES IDX 22 35 23 36 24 37 25 38 26 39 27 40 28 41 89 42 29 43 88 44
REMARK SMILES IDX 30 45 31 46 32 47 82 48 33 49 87 50 81 51 83 52 34 53 86 54
REMARK SMILES IDX 80 55 79 56 35 58 67 59 47 60 66 61 48 62 51 63 65 64 84 65
REMARK SMILES IDX 49 66 50 67 64 69 85 70 52 71 36 72 37 73 45 74 38 75 44 76
REMARK SMILES IDX 46 77 43 78 39 79 40 80 41 81 42 82 68 83 69 84 77 85 70 86
REMARK SMILES IDX 76 87 78 88 75 89 71 90 72 91 73 92 74 93 53 94 54 95 62 96
REMARK SMILES IDX 55 97 61 98 63 99 60 100 56 101 57 102 58 103 59 104
REMARK H PARENT 5 17 83 57 51 68
REMARK Flexibility Score: inf
ROOT
ATOM      1  O   UNL     1       8.460  -3.072   2.401  1.00  0.00    -0.377 OA
ENDROOT
BRANCH   1   2
ATOM      2  C   UNL     1       7.896  -3.744   1.288  1.00  0.00     0.188 C 
BRANCH   2   3
ATOM      3  C   UNL     1       8.658  -3.607  -0.044  1.00  0.00     0.188 C 
BRANCH   3   4
ATOM      4  O   UNL     1       9.993  -3.161   0.102  1.00  0.00    -0.376 OA
BRANCH   4   5
ATOM      5  C   UNL     1      10.331  -1.795  -0.052  1.00  0.00     0.202 C 
BRANCH   5   6
ATOM      6  C   UNL     1       9.487  -0.643   0.520  1.00  0.00     0.261 C 
BRANCH   6   7
ATOM      7  O   UNL     1       8.075  -0.836   0.585  1.00  0.00    -0.460 OA
BRANCH   7   8
ATOM      8  C   UNL     1       7.386  -0.736  -0.569  1.00  0.00     0.338 C 
ATOM      9  O   UNL     1       7.838  -0.480  -1.672  1.00  0.00    -0.246 OA
BRANCH   8  10
ATOM     10  C   UNL     1       6.012  -1.226  -0.316  1.00  0.00     0.060 A 
ATOM     11  C   UNL     1       3.380  -2.108   0.022  1.00  0.00     0.040 A 
ATOM     12  C   UNL     1       4.123  -2.533  -1.083  1.00  0.00     0.027 A 
ATOM     13  C   UNL     1       4.004  -1.325   1.008  1.00  0.00     0.027 A 
ATOM     14  C   UNL     1       5.429  -2.079  -1.261  1.00  0.00     0.018 A 
ATOM     15  C   UNL     1       5.319  -0.890   0.850  1.00  0.00     0.018 A 
BRANCH  11  16
ATOM     16  N   UNL     1       1.973  -2.234  -0.005  1.00  0.00    -0.340 N 
ATOM     17  H   UNL     1       1.572  -3.133   0.009  1.00  0.00     0.168 HD
BRANCH  16  18
ATOM     18  C   UNL     1       1.127  -1.106  -0.051  1.00  0.00     0.136 A 
ATOM     19  C   UNL     1      -2.482  -0.148   0.179  1.00  0.00     0.067 C 
ATOM     20  C   UNL     1      -0.985  -0.099   0.163  1.00  0.00     0.045 A 
ATOM     21  C   UNL     1      -0.235  -1.257   0.086  1.00  0.00     0.070 A 
ATOM     22  N   UNL     1      -0.427   1.129   0.187  1.00  0.00    -0.216 NA
ATOM     23  C   UNL     1       0.907   1.188  -0.014  1.00  0.00     0.252 A 
ATOM     24  N   UNL     1       1.684   0.109  -0.173  1.00  0.00    -0.194 NA
BRANCH  23  25
ATOM     25  N   UNL     1       1.549   2.471  -0.019  1.00  0.00    -0.203 N 
ATOM     26  N   UNL     1       2.537   2.775  -0.913  1.00  0.00    -0.170 NA
ATOM     27  C   UNL     1       1.290   3.539   0.829  1.00  0.00     0.045 A 
ATOM     28  C   UNL     1       2.783   4.074  -0.721  1.00  0.00     0.060 A 
ATOM     29  C   UNL     1       2.056   4.589   0.370  1.00  0.00     0.049 A 
ATOM     30  C   UNL     1       0.434   3.426   2.034  1.00  0.00     0.067 C 
ATOM     31  C   UNL     1       3.737   4.792  -1.600  1.00  0.00     0.069 C 
ENDBRANCH  23  25
ENDBRANCH  16  18
ENDBRANCH  11  16
ENDBRANCH   8  10
ENDBRANCH   7   8
ENDBRANCH   6   7
ENDBRANCH   5   6
ENDBRANCH   4   5
ENDBRANCH   3   4
ENDBRANCH   2   3
ENDBRANCH   1   2
BRANCH   1  32
ATOM     32  C   UNL     1       9.722  -3.496   2.917  1.00  0.00     0.188 C 
BRANCH  32  33
ATOM     33  C   UNL     1      10.520  -4.689   2.331  1.00  0.00     0.188 C 
BRANCH  33  34
ATOM     34  O   UNL     1       9.748  -5.635   1.607  1.00  0.00    -0.376 OA
BRANCH  34  35
ATOM     35  C   UNL     1       9.507  -6.896   2.203  1.00  0.00     0.202 C 
BRANCH  35  36
ATOM     36  C   UNL     1       8.605  -6.897   3.445  1.00  0.00     0.261 C 
BRANCH  36  37
ATOM     37  O   UNL     1       9.026  -6.047   4.521  1.00  0.00    -0.460 OA
BRANCH  37  38
ATOM     38  C   UNL     1      10.203  -6.356   5.104  1.00  0.00     0.338 C 
ATOM     39  O   UNL     1      10.933  -7.296   4.817  1.00  0.00    -0.246 OA
BRANCH  38  40
ATOM     40  C   UNL     1      10.572  -5.259   6.017  1.00  0.00     0.060 A 
ATOM     41  C   UNL     1      11.803  -4.617   5.834  1.00  0.00     0.016 A 
ATOM     42  C   UNL     1       9.722  -4.881   7.060  1.00  0.00     0.016 A 
ATOM     43  C   UNL     1      12.220  -3.643   6.738  1.00  0.00     0.010 A 
ATOM     44  C   UNL     1      10.147  -3.915   7.975  1.00  0.00     0.010 A 
ATOM     45  C   UNL     1      11.422  -3.334   7.848  1.00  0.00    -0.014 A 
BRANCH  45  46
ATOM     46  C   UNL     1      12.040  -2.615   8.991  1.00  0.00     0.031 A 
ATOM     47  C   UNL     1      12.545  -3.435  10.150  1.00  0.00     0.074 A 
ATOM     48  C   UNL     1      12.222  -1.283   8.971  1.00  0.00     0.049 A 
ATOM     49  N   UNL     1      13.153  -3.053  11.243  1.00  0.00    -0.248 NA
ATOM     50  C   UNL     1      12.328  -4.888  10.061  1.00  0.00     0.031 C 
ATOM     51  C   UNL     1      11.828  -0.394   7.880  1.00  0.00     0.029 A 
ATOM     52  N   UNL     1      12.800  -0.450   9.895  1.00  0.00    -0.354 N 
ATOM     53  C   UNL     1      13.383  -4.215  11.974  1.00  0.00     0.074 A 
ATOM     54  C   UNL     1      12.804  -5.306  11.221  1.00  0.00     0.031 C 
ATOM     55  C   UNL     1      12.192   0.863   8.192  1.00  0.00     0.029 A 
ATOM     56  C   UNL     1      12.809   0.873   9.518  1.00  0.00     0.049 A 
ATOM     57  H   UNL     1      13.173  -0.768  10.748  1.00  0.00     0.167 HD
ATOM     58  C   UNL     1      14.029  -4.361  13.157  1.00  0.00     0.034 A 
ATOM     59  C   UNL     1      13.257   1.962  10.174  1.00  0.00     0.034 A 
ATOM     60  C   UNL     1      14.591  -3.259  13.899  1.00  0.00     0.049 A 
ATOM     61  C   UNL     1      13.889   1.787  11.537  1.00  0.00     0.074 A 
ATOM     62  C   UNL     1      15.280  -3.289  15.098  1.00  0.00     0.029 A 
ATOM     63  N   UNL     1      14.514  -1.923  13.521  1.00  0.00    -0.354 N 
ATOM     64  N   UNL     1      14.114   0.683  12.213  1.00  0.00    -0.248 NA
ATOM     65  C   UNL     1      14.338   3.009  12.216  1.00  0.00     0.031 C 
ATOM     66  C   UNL     1      15.536  -1.971  15.490  1.00  0.00     0.029 A 
ATOM     67  C   UNL     1      15.104  -1.119  14.486  1.00  0.00     0.049 A 
ATOM     68  H   UNL     1      14.101  -1.595  12.690  1.00  0.00     0.167 HD
ATOM     69  C   UNL     1      14.775   1.077  13.376  1.00  0.00     0.074 A 
ATOM     70  C   UNL     1      14.918   2.517  13.300  1.00  0.00     0.031 C 
ATOM     71  C   UNL     1      15.233   0.319  14.406  1.00  0.00     0.034 A 
BRANCH  58  72
ATOM     72  C   UNL     1      14.089  -5.753  13.745  1.00  0.00     0.023 A 
ATOM     73  C   UNL     1      14.726  -6.819  13.083  1.00  0.00     0.031 A 
ATOM     74  C   UNL     1      13.445  -6.031  14.964  1.00  0.00     0.131 A 
ATOM     75  C   UNL     1      14.625  -8.122  13.595  1.00  0.00     0.055 A 
ATOM     76  C   UNL     1      13.432  -7.313  15.517  1.00  0.00     0.041 A 
ATOM     77  F   UNL     1      12.795  -5.065  15.631  1.00  0.00    -0.206 F 
ATOM     78  C   UNL     1      14.008  -8.372  14.822  1.00  0.00     0.022 A 
BRANCH  75  79
ATOM     79  S   UNL     1      15.149  -9.508  12.547  1.00  0.00     0.124 S 
ATOM     80  O   UNL     1      14.334  -9.299  11.352  1.00  0.00    -0.237 OA
ATOM     81  O   UNL     1      16.579  -9.266  12.396  1.00  0.00    -0.237 OA
ATOM     82  O   UNL     1      14.793 -10.687  13.334  1.00  0.00    -0.744 OA
ENDBRANCH  75  79
ENDBRANCH  58  72
BRANCH  59  83
ATOM     83  C   UNL     1      13.124   3.321   9.572  1.00  0.00     0.023 A 
ATOM     84  C   UNL     1      14.257   4.097   9.278  1.00  0.00     0.031 A 
ATOM     85  C   UNL     1      11.859   3.890   9.341  1.00  0.00     0.131 A 
ATOM     86  C   UNL     1      14.103   5.415   8.817  1.00  0.00     0.055 A 
ATOM     87  C   UNL     1      11.711   5.179   8.826  1.00  0.00     0.041 A 
ATOM     88  F   UNL     1      10.742   3.196   9.611  1.00  0.00    -0.206 F 
ATOM     89  C   UNL     1      12.838   5.955   8.574  1.00  0.00     0.022 A 
BRANCH  86  90
ATOM     90  S   UNL     1      15.582   6.447   8.628  1.00  0.00     0.124 S 
ATOM     91  O   UNL     1      16.124   6.439   9.982  1.00  0.00    -0.237 OA
ATOM     92  O   UNL     1      16.343   5.707   7.627  1.00  0.00    -0.237 OA
ATOM     93  O   UNL     1      15.046   7.730   8.177  1.00  0.00    -0.744 OA
ENDBRANCH  86  90
ENDBRANCH  59  83
BRANCH  71  94
ATOM     94  C   UNL     1      15.992   1.031  15.505  1.00  0.00     0.023 A 
ATOM     95  C   UNL     1      15.391   2.007  16.319  1.00  0.00     0.031 A 
ATOM     96  C   UNL     1      17.353   0.745  15.720  1.00  0.00     0.131 A 
ATOM     97  C   UNL     1      16.166   2.717  17.250  1.00  0.00     0.055 A 
ATOM     98  C   UNL     1      18.099   1.397  16.703  1.00  0.00     0.041 A 
ATOM     99  F   UNL     1      17.986  -0.175  14.973  1.00  0.00    -0.206 F 
ATOM    100  C   UNL     1      17.511   2.403  17.461  1.00  0.00     0.022 A 
BRANCH  97 101
ATOM    101  S   UNL     1      15.429   4.150  18.084  1.00  0.00     0.124 S 
ATOM    102  O   UNL     1      14.991   4.965  16.955  1.00  0.00    -0.237 OA
ATOM    103  O   UNL     1      14.369   3.537  18.877  1.00  0.00    -0.237 OA
ATOM    104  O   UNL     1      16.539   4.706  18.856  1.00  0.00    -0.744 OA
ENDBRANCH  97 101
ENDBRANCH  71  94
ENDBRANCH  45  46
ENDBRANCH  38  40
ENDBRANCH  37  38
ENDBRANCH  36  37
ENDBRANCH  35  36
ENDBRANCH  34  35
ENDBRANCH  33  34
ENDBRANCH  32  33
ENDBRANCH   1  32
TORSDOF 26
