REMARK SMILES O=C(OCCOCCOCCOCCOC(=O)[C@@H]1CC[C@H](CNc2c(F)c(F)c(F)c(F)c2F)O1)c1ccc(-c2c3nc(c(-c4cc(S(=O)(=O)[O-])ccc4F)c4ccc([nH]4)c(-c4cc(S(=O)(=O)[O-])ccc4F)c4nc(c(-c5cc(S(=O)(=O)[O-])ccc5F)c5ccc2[nH]5)C=C4)C=C3)cc1
REMARK SMILES IDX 9 1 8 2 7 3 6 4 5 5 4 6 3 7 2 8 1 9 36 10 37 11 98 12 38 13
REMARK SMILES IDX 97 14 39 15 40 16 41 17 91 18 42 19 96 20 90 21 92 22 43 23
REMARK SMILES IDX 95 24 89 25 88 26 44 28 76 29 56 30 75 31 57 32 60 33 74 34
REMARK SMILES IDX 93 35 58 36 59 37 73 39 94 40 61 41 45 42 46 43 54 44 47 45
REMARK SMILES IDX 53 46 55 47 52 48 48 49 49 50 50 51 51 52 77 53 78 54 86 55
REMARK SMILES IDX 79 56 85 57 87 58 84 59 80 60 81 61 82 62 83 63 62 64 63 65
REMARK SMILES IDX 71 66 64 67 70 68 72 69 69 70 65 71 66 72 67 73 68 74 10 75
REMARK SMILES IDX 11 76 12 77 13 78 14 79 15 80 16 81 17 82 18 83 19 84 35 85
REMARK SMILES IDX 20 86 21 87 22 88 23 89 24 91 25 92 33 93 26 94 27 95 31 96
REMARK SMILES IDX 34 97 28 98 29 99 32 100 30 101
REMARK H PARENT 92 27 60 38 23 90
REMARK Flexibility Score: inf
ROOT
ATOM      1  O   UNL     1       2.977   2.656  -2.744  1.00  0.00    -0.377 OA
ENDROOT
BRANCH   1   2
ATOM      2  C   UNL     1       2.077   2.061  -1.804  1.00  0.00     0.188 C 
BRANCH   2   3
ATOM      3  C   UNL     1       2.338   0.594  -1.480  1.00  0.00     0.188 C 
BRANCH   3   4
ATOM      4  O   UNL     1       3.535   0.517  -0.710  1.00  0.00    -0.376 OA
BRANCH   4   5
ATOM      5  C   UNL     1       4.372  -0.602  -0.993  1.00  0.00     0.202 C 
BRANCH   5   6
ATOM      6  C   UNL     1       4.030  -1.829  -0.153  1.00  0.00     0.261 C 
BRANCH   6   7
ATOM      7  O   UNL     1       2.630  -1.881   0.173  1.00  0.00    -0.460 OA
BRANCH   7   8
ATOM      8  C   UNL     1       2.031  -1.372   1.281  1.00  0.00     0.338 C 
ATOM      9  O   UNL     1       0.818  -1.530   1.420  1.00  0.00    -0.246 OA
BRANCH   8  10
ATOM     10  C   UNL     1       2.772  -0.668   2.372  1.00  0.00     0.060 A 
ATOM     11  C   UNL     1       3.890   0.144   2.182  1.00  0.00     0.016 A 
ATOM     12  C   UNL     1       2.263  -0.782   3.676  1.00  0.00     0.016 A 
ATOM     13  C   UNL     1       4.551   0.740   3.239  1.00  0.00     0.010 A 
ATOM     14  C   UNL     1       2.901  -0.154   4.753  1.00  0.00     0.010 A 
ATOM     15  C   UNL     1       4.074   0.577   4.532  1.00  0.00    -0.014 A 
BRANCH  15  16
ATOM     16  C   UNL     1       4.970   0.999   5.623  1.00  0.00     0.031 A 
ATOM     17  C   UNL     1       5.748  -0.074   6.322  1.00  0.00     0.074 A 
ATOM     18  C   UNL     1       5.231   2.305   5.811  1.00  0.00     0.049 A 
ATOM     19  N   UNL     1       6.562   0.013   7.336  1.00  0.00    -0.248 NA
ATOM     20  C   UNL     1       5.596  -1.438   5.786  1.00  0.00     0.031 C 
ATOM     21  C   UNL     1       4.660   3.400   5.021  1.00  0.00     0.029 A 
ATOM     22  N   UNL     1       6.080   2.933   6.681  1.00  0.00    -0.354 N 
ATOM     23  C   UNL     1       6.987  -1.288   7.585  1.00  0.00     0.074 A 
ATOM     24  C   UNL     1       6.340  -2.144   6.619  1.00  0.00     0.031 C 
ATOM     25  C   UNL     1       5.202   4.560   5.423  1.00  0.00     0.029 A 
ATOM     26  C   UNL     1       6.082   4.303   6.556  1.00  0.00     0.049 A 
ATOM     27  H   UNL     1       6.636   2.450   7.335  1.00  0.00     0.167 HD
ATOM     28  C   UNL     1       7.835  -1.716   8.551  1.00  0.00     0.034 A 
ATOM     29  C   UNL     1       6.697   5.233   7.312  1.00  0.00     0.034 A 
ATOM     30  C   UNL     1       8.441  -0.813   9.494  1.00  0.00     0.049 A 
ATOM     31  C   UNL     1       7.526   4.732   8.470  1.00  0.00     0.074 A 
ATOM     32  C   UNL     1       9.209  -1.095  10.607  1.00  0.00     0.029 A 
ATOM     33  N   UNL     1       8.337   0.575   9.421  1.00  0.00    -0.354 N 
ATOM     34  N   UNL     1       7.810   3.491   8.805  1.00  0.00    -0.248 NA
ATOM     35  C   UNL     1       8.096   5.745   9.362  1.00  0.00     0.031 C 
ATOM     36  C   UNL     1       9.519   0.118  11.236  1.00  0.00     0.029 A 
ATOM     37  C   UNL     1       9.007   1.163  10.477  1.00  0.00     0.049 A 
ATOM     38  H   UNL     1       7.855   1.067   8.717  1.00  0.00     0.167 HD
ATOM     39  C   UNL     1       8.603   3.575   9.943  1.00  0.00     0.074 A 
ATOM     40  C   UNL     1       8.773   4.991  10.216  1.00  0.00     0.031 C 
ATOM     41  C   UNL     1       9.138   2.584  10.704  1.00  0.00     0.034 A 
BRANCH  28  42
ATOM     42  C   UNL     1       8.009  -3.210   8.678  1.00  0.00     0.023 A 
ATOM     43  C   UNL     1       8.590  -3.986   7.657  1.00  0.00     0.031 A 
ATOM     44  C   UNL     1       7.446  -3.886   9.776  1.00  0.00     0.131 A 
ATOM     45  C   UNL     1       8.500  -5.388   7.707  1.00  0.00     0.055 A 
ATOM     46  C   UNL     1       7.439  -5.280   9.860  1.00  0.00     0.041 A 
ATOM     47  F   UNL     1       6.846  -3.203  10.764  1.00  0.00    -0.206 F 
ATOM     48  C   UNL     1       7.948  -6.039   8.811  1.00  0.00     0.022 A 
BRANCH  45  49
ATOM     49  S   UNL     1       8.944  -6.338   6.223  1.00  0.00     0.124 S 
ATOM     50  O   UNL     1       7.998  -5.807   5.240  1.00  0.00    -0.237 OA
ATOM     51  O   UNL     1      10.336  -5.989   6.024  1.00  0.00    -0.237 OA
ATOM     52  O   UNL     1       8.694  -7.728   6.621  1.00  0.00    -0.744 OA
ENDBRANCH  45  49
ENDBRANCH  28  42
BRANCH  29  53
ATOM     53  C   UNL     1       6.478   6.692   7.072  1.00  0.00     0.023 A 
ATOM     54  C   UNL     1       7.548   7.567   6.817  1.00  0.00     0.031 A 
ATOM     55  C   UNL     1       5.186   7.250   7.147  1.00  0.00     0.131 A 
ATOM     56  C   UNL     1       7.311   8.947   6.683  1.00  0.00     0.055 A 
ATOM     57  C   UNL     1       4.950   8.612   6.955  1.00  0.00     0.041 A 
ATOM     58  F   UNL     1       4.122   6.472   7.404  1.00  0.00    -0.206 F 
ATOM     59  C   UNL     1       6.018   9.472   6.734  1.00  0.00     0.022 A 
BRANCH  56  60
ATOM     60  S   UNL     1       8.731  10.068   6.533  1.00  0.00     0.124 S 
ATOM     61  O   UNL     1       9.499   9.738   7.728  1.00  0.00    -0.237 OA
ATOM     62  O   UNL     1       9.312   9.653   5.261  1.00  0.00    -0.237 OA
ATOM     63  O   UNL     1       8.119  11.395   6.532  1.00  0.00    -0.744 OA
ENDBRANCH  56  60
ENDBRANCH  29  53
BRANCH  41  64
ATOM     64  C   UNL     1       9.981   3.025  11.870  1.00  0.00     0.023 A 
ATOM     65  C   UNL     1       9.413   3.658  12.987  1.00  0.00     0.031 A 
ATOM     66  C   UNL     1      11.370   2.815  11.852  1.00  0.00     0.131 A 
ATOM     67  C   UNL     1      10.241   4.115  14.019  1.00  0.00     0.055 A 
ATOM     68  C   UNL     1      12.182   3.217  12.911  1.00  0.00     0.041 A 
ATOM     69  F   UNL     1      11.957   2.213  10.805  1.00  0.00    -0.206 F 
ATOM     70  C   UNL     1      11.620   3.883  13.997  1.00  0.00     0.022 A 
BRANCH  67  71
ATOM     71  S   UNL     1       9.503   5.099  15.350  1.00  0.00     0.124 S 
ATOM     72  O   UNL     1       8.934   6.224  14.615  1.00  0.00    -0.237 OA
ATOM     73  O   UNL     1       8.544   4.167  15.933  1.00  0.00    -0.237 OA
ATOM     74  O   UNL     1      10.643   5.429  16.204  1.00  0.00    -0.744 OA
ENDBRANCH  67  71
ENDBRANCH  41  64
ENDBRANCH  15  16
ENDBRANCH   8  10
ENDBRANCH   7   8
ENDBRANCH   6   7
ENDBRANCH   5   6
ENDBRANCH   4   5
ENDBRANCH   3   4
ENDBRANCH   2   3
ENDBRANCH   1   2
BRANCH   1  75
ATOM     75  C   UNL     1       4.370   2.545  -2.467  1.00  0.00     0.188 C 
BRANCH  75  76
ATOM     76  C   UNL     1       5.040   3.550  -1.524  1.00  0.00     0.188 C 
BRANCH  76  77
ATOM     77  O   UNL     1       4.313   3.997  -0.397  1.00  0.00    -0.376 OA
BRANCH  77  78
ATOM     78  C   UNL     1       3.327   5.011  -0.568  1.00  0.00     0.202 C 
BRANCH  78  79
ATOM     79  C   UNL     1       3.399   6.007  -1.736  1.00  0.00     0.261 C 
BRANCH  79  80
ATOM     80  O   UNL     1       3.465   5.381  -3.032  1.00  0.00    -0.461 OA
BRANCH  80  81
ATOM     81  C   UNL     1       4.260   6.005  -3.943  1.00  0.00     0.335 C 
ATOM     82  O   UNL     1       4.788   7.100  -3.774  1.00  0.00    -0.249 OA
BRANCH  81  83
ATOM     83  C   UNL     1       4.411   5.220  -5.254  1.00  0.00     0.228 C 
ATOM     84  C   UNL     1       3.217   5.421  -6.162  1.00  0.00     0.047 C 
ATOM     85  O   UNL     1       4.611   3.809  -5.200  1.00  0.00    -0.361 OA
ATOM     86  C   UNL     1       3.404   4.308  -7.163  1.00  0.00     0.037 C 
ATOM     87  C   UNL     1       3.951   3.173  -6.308  1.00  0.00     0.138 C 
BRANCH  87  88
ATOM     88  C   UNL     1       2.874   2.156  -5.839  1.00  0.00     0.145 C 
BRANCH  88  89
ATOM     89  N   UNL     1       2.350   1.438  -6.998  1.00  0.00    -0.378 N 
ATOM     90  H   UNL     1       2.349   1.924  -7.854  1.00  0.00     0.160 HD
BRANCH  89  91
ATOM     91  C   UNL     1       1.855   0.145  -7.021  1.00  0.00     0.113 A 
ATOM     92  C   UNL     1       1.439  -0.597  -5.907  1.00  0.00     0.188 A 
ATOM     93  C   UNL     1       1.805  -0.509  -8.268  1.00  0.00     0.188 A 
ATOM     94  F   UNL     1       1.433  -0.041  -4.686  1.00  0.00    -0.201 F 
ATOM     95  C   UNL     1       0.992  -1.916  -6.040  1.00  0.00     0.199 A 
ATOM     96  C   UNL     1       1.376  -1.824  -8.403  1.00  0.00     0.199 A 
ATOM     97  F   UNL     1       2.203   0.161  -9.364  1.00  0.00    -0.201 F 
ATOM     98  F   UNL     1       0.581  -2.597  -4.961  1.00  0.00    -0.200 F 
ATOM     99  C   UNL     1       0.967  -2.528  -7.286  1.00  0.00     0.200 A 
ATOM    100  F   UNL     1       1.364  -2.404  -9.612  1.00  0.00    -0.200 F 
ATOM    101  F   UNL     1       0.545  -3.794  -7.411  1.00  0.00    -0.200 F 
ENDBRANCH  89  91
ENDBRANCH  88  89
ENDBRANCH  87  88
ENDBRANCH  81  83
ENDBRANCH  80  81
ENDBRANCH  79  80
ENDBRANCH  78  79
ENDBRANCH  77  78
ENDBRANCH  76  77
ENDBRANCH  75  76
ENDBRANCH   1  75
TORSDOF 26
