REMARK SMILES COc1cccc(CC(=O)N[C@@](C)(C(=O)OCCOCCOCCOCCOC(=O)c2ccc(-c3c4nc(c(-c5cc(S(=O)(=O)[O-])ccc5F)c5ccc([nH]5)c(-c5cc(S(=O)(=O)[O-])ccc5F)c5nc(c(-c6cc(S(=O)(=O)[O-])ccc6F)c6ccc3[nH]6)C=C5)C=C4)cc2)C(F)(F)F)c1
REMARK SMILES IDX 21 1 20 2 19 3 18 4 17 5 16 6 14 7 15 8 12 9 13 10 11 11
REMARK SMILES IDX 9 12 10 13 8 15 7 16 3 17 4 18 98 19 5 20 6 21 2 22 1 23
REMARK SMILES IDX 94 24 95 25 96 26 97 27 22 28 23 29 24 30 25 31 26 32 27 33
REMARK SMILES IDX 28 34 29 35 30 36 31 37 32 38 93 39 33 40 92 41 34 42 35 43
REMARK SMILES IDX 36 44 86 45 37 46 91 47 85 48 87 49 38 50 90 51 84 52 83 53
REMARK SMILES IDX 39 55 71 56 51 57 70 58 52 59 55 60 69 61 88 62 53 63 54 64
REMARK SMILES IDX 68 66 89 67 56 68 40 69 41 70 49 71 42 72 48 73 50 74 47 75
REMARK SMILES IDX 43 76 44 77 45 78 46 79 72 80 73 81 81 82 74 83 80 84 82 85
REMARK SMILES IDX 79 86 75 87 76 88 77 89 78 90 57 91 58 92 66 93 59 94 65 95
REMARK SMILES IDX 67 96 64 97 60 98 61 99 62 100 63 101
REMARK H PARENT 11 14 87 54 55 65
REMARK Flexibility Score: inf
ROOT
ATOM      1  C   UNL     1       6.892  -4.268   1.275  1.00  0.00     0.188 C 
ENDROOT
BRANCH   1   2
ATOM      2  C   UNL     1       6.766  -2.791   1.672  1.00  0.00     0.188 C 
BRANCH   2   3
ATOM      3  O   UNL     1       7.494  -2.281   2.775  1.00  0.00    -0.376 OA
BRANCH   3   4
ATOM      4  C   UNL     1       7.436  -2.900   4.054  1.00  0.00     0.202 C 
BRANCH   4   5
ATOM      5  C   UNL     1       6.211  -3.675   4.580  1.00  0.00     0.261 C 
BRANCH   5   6
ATOM      6  O   UNL     1       5.310  -4.177   3.580  1.00  0.00    -0.461 OA
BRANCH   6   7
ATOM      7  C   UNL     1       4.027  -3.774   3.664  1.00  0.00     0.341 C 
ATOM      8  O   UNL     1       3.592  -3.117   4.605  1.00  0.00    -0.249 OA
BRANCH   7   9
ATOM      9  C   UNL     1       3.167  -4.190   2.453  1.00  0.00     0.231 C 
ATOM     10  C   UNL     1       1.958  -4.893   3.090  1.00  0.00     0.058 C 
BRANCH   9  11
ATOM     11  N   UNL     1       3.780  -5.217   1.508  1.00  0.00    -0.333 N 
ATOM     12  C   UNL     1       3.744  -5.534   0.180  1.00  0.00     0.225 C 
ATOM     13  O   UNL     1       4.071  -6.695  -0.103  1.00  0.00    -0.275 OA
ATOM     14  H   UNL     1       4.377  -5.829   1.997  1.00  0.00     0.164 HD
BRANCH  12  15
ATOM     15  C   UNL     1       3.486  -4.559  -0.970  1.00  0.00     0.135 C 
BRANCH  15  16
ATOM     16  C   UNL     1       2.051  -4.144  -1.147  1.00  0.00    -0.035 A 
ATOM     17  C   UNL     1       0.405  -2.367  -1.047  1.00  0.00     0.119 A 
ATOM     18  C   UNL     1      -0.600  -3.331  -0.933  1.00  0.00     0.046 A 
ATOM     19  C   UNL     1       1.722  -2.780  -1.249  1.00  0.00     0.050 A 
ATOM     20  C   UNL     1      -0.295  -4.691  -1.016  1.00  0.00     0.004 A 
ATOM     21  C   UNL     1       1.030  -5.098  -1.123  1.00  0.00     0.004 A 
BRANCH  17  22
ATOM     22  O   UNL     1       0.001  -1.075  -0.849  1.00  0.00    -0.497 OA
ATOM     23  C   UNL     1       1.001  -0.131  -0.469  1.00  0.00     0.278 C 
ENDBRANCH  17  22
ENDBRANCH  15  16
ENDBRANCH  12  15
ENDBRANCH   9  11
BRANCH   9  24
ATOM     24  C   UNL     1       2.764  -2.832   1.871  1.00  0.00     0.422 C 
ATOM     25  F   UNL     1       3.610  -2.436   0.892  1.00  0.00    -0.168 F 
ATOM     26  F   UNL     1       1.520  -2.913   1.359  1.00  0.00    -0.168 F 
ATOM     27  F   UNL     1       2.712  -1.804   2.742  1.00  0.00    -0.168 F 
ENDBRANCH   9  24
ENDBRANCH   7   9
ENDBRANCH   6   7
ENDBRANCH   5   6
ENDBRANCH   4   5
ENDBRANCH   3   4
ENDBRANCH   2   3
ENDBRANCH   1   2
BRANCH   1  28
ATOM     28  O   UNL     1       7.341  -5.125   2.302  1.00  0.00    -0.377 OA
BRANCH  28  29
ATOM     29  C   UNL     1       8.726  -5.438   2.324  1.00  0.00     0.188 C 
BRANCH  29  30
ATOM     30  C   UNL     1       9.729  -4.407   1.765  1.00  0.00     0.188 C 
BRANCH  30  31
ATOM     31  O   UNL     1       9.379  -3.854   0.502  1.00  0.00    -0.376 OA
BRANCH  31  32
ATOM     32  C   UNL     1       9.902  -4.452  -0.677  1.00  0.00     0.202 C 
BRANCH  32  33
ATOM     33  C   UNL     1       9.491  -5.900  -1.006  1.00  0.00     0.261 C 
BRANCH  33  34
ATOM     34  O   UNL     1       9.839  -6.904  -0.041  1.00  0.00    -0.460 OA
BRANCH  34  35
ATOM     35  C   UNL     1      11.141  -7.001   0.312  1.00  0.00     0.338 C 
ATOM     36  O   UNL     1      12.068  -6.383  -0.167  1.00  0.00    -0.246 OA
BRANCH  35  37
ATOM     37  C   UNL     1      11.224  -7.818   1.545  1.00  0.00     0.060 A 
ATOM     38  C   UNL     1      11.838  -7.255   2.669  1.00  0.00     0.016 A 
ATOM     39  C   UNL     1      10.714  -9.118   1.595  1.00  0.00     0.016 A 
ATOM     40  C   UNL     1      11.999  -8.009   3.828  1.00  0.00     0.010 A 
ATOM     41  C   UNL     1      10.897  -9.884   2.754  1.00  0.00     0.010 A 
ATOM     42  C   UNL     1      11.581  -9.346   3.858  1.00  0.00    -0.014 A 
BRANCH  42  43
ATOM     43  C   UNL     1      12.063 -10.209   4.966  1.00  0.00     0.031 A 
ATOM     44  C   UNL     1      13.275 -11.072   4.725  1.00  0.00     0.074 A 
ATOM     45  C   UNL     1      11.505 -10.147   6.189  1.00  0.00     0.049 A 
ATOM     46  N   UNL     1      13.923 -11.848   5.555  1.00  0.00    -0.248 NA
ATOM     47  C   UNL     1      13.832 -11.050   3.364  1.00  0.00     0.031 C 
ATOM     48  C   UNL     1      10.362  -9.311   6.553  1.00  0.00     0.029 A 
ATOM     49  N   UNL     1      11.838 -10.787   7.356  1.00  0.00    -0.354 N 
ATOM     50  C   UNL     1      14.968 -12.399   4.820  1.00  0.00     0.074 A 
ATOM     51  C   UNL     1      14.835 -11.907   3.466  1.00  0.00     0.031 C 
ATOM     52  C   UNL     1      10.095  -9.482   7.859  1.00  0.00     0.029 A 
ATOM     53  C   UNL     1      11.025 -10.463   8.418  1.00  0.00     0.049 A 
ATOM     54  H   UNL     1      12.588 -11.420   7.428  1.00  0.00     0.167 HD
ATOM     55  C   UNL     1      15.959 -13.225   5.239  1.00  0.00     0.034 A 
ATOM     56  C   UNL     1      11.027 -10.915   9.688  1.00  0.00     0.034 A 
ATOM     57  C   UNL     1      16.069 -13.721   6.590  1.00  0.00     0.049 A 
ATOM     58  C   UNL     1      12.088 -11.908  10.106  1.00  0.00     0.074 A 
ATOM     59  C   UNL     1      17.027 -14.567   7.121  1.00  0.00     0.029 A 
ATOM     60  N   UNL     1      15.185 -13.428   7.621  1.00  0.00    -0.354 N 
ATOM     61  N   UNL     1      13.077 -12.412   9.403  1.00  0.00    -0.248 NA
ATOM     62  C   UNL     1      12.040 -12.376  11.497  1.00  0.00     0.031 C 
ATOM     63  C   UNL     1      16.678 -14.848   8.447  1.00  0.00     0.029 A 
ATOM     64  C   UNL     1      15.557 -14.103   8.775  1.00  0.00     0.049 A 
ATOM     65  H   UNL     1      14.409 -12.828   7.544  1.00  0.00     0.167 HD
ATOM     66  C   UNL     1      13.788 -13.231  10.281  1.00  0.00     0.074 A 
ATOM     67  C   UNL     1      13.130 -13.123  11.567  1.00  0.00     0.031 C 
ATOM     68  C   UNL     1      14.882 -14.002  10.048  1.00  0.00     0.034 A 
BRANCH  55  69
ATOM     69  C   UNL     1      16.966 -13.681   4.210  1.00  0.00     0.023 A 
ATOM     70  C   UNL     1      17.829 -12.777   3.563  1.00  0.00     0.031 A 
ATOM     71  C   UNL     1      17.052 -15.039   3.856  1.00  0.00     0.131 A 
ATOM     72  C   UNL     1      18.693 -13.232   2.555  1.00  0.00     0.055 A 
ATOM     73  C   UNL     1      17.972 -15.497   2.910  1.00  0.00     0.041 A 
ATOM     74  F   UNL     1      16.236 -15.944   4.417  1.00  0.00    -0.206 F 
ATOM     75  C   UNL     1      18.790 -14.590   2.244  1.00  0.00     0.022 A 
BRANCH  72  76
ATOM     76  S   UNL     1      19.587 -12.008   1.558  1.00  0.00     0.124 S 
ATOM     77  O   UNL     1      18.488 -11.226   0.997  1.00  0.00    -0.237 OA
ATOM     78  O   UNL     1      20.410 -11.331   2.553  1.00  0.00    -0.237 OA
ATOM     79  O   UNL     1      20.319 -12.823   0.591  1.00  0.00    -0.744 OA
ENDBRANCH  72  76
ENDBRANCH  55  69
BRANCH  56  80
ATOM     80  C   UNL     1       9.984 -10.470  10.661  1.00  0.00     0.023 A 
ATOM     81  C   UNL     1      10.328  -9.809  11.851  1.00  0.00     0.031 A 
ATOM     82  C   UNL     1       8.627 -10.780  10.451  1.00  0.00     0.131 A 
ATOM     83  C   UNL     1       9.341  -9.537  12.812  1.00  0.00     0.055 A 
ATOM     84  C   UNL     1       7.640 -10.448  11.381  1.00  0.00     0.041 A 
ATOM     85  F   UNL     1       8.240 -11.417   9.335  1.00  0.00    -0.206 F 
ATOM     86  C   UNL     1       7.998  -9.837  12.578  1.00  0.00     0.022 A 
BRANCH  83  87
ATOM     87  S   UNL     1       9.856  -8.887  14.426  1.00  0.00     0.124 S 
ATOM     88  O   UNL     1      10.792  -9.912  14.873  1.00  0.00    -0.237 OA
ATOM     89  O   UNL     1      10.439  -7.600  14.061  1.00  0.00    -0.237 OA
ATOM     90  O   UNL     1       8.604  -8.812  15.177  1.00  0.00    -0.744 OA
ENDBRANCH  83  87
ENDBRANCH  56  80
BRANCH  68  91
ATOM     91  C   UNL     1      15.454 -14.753  11.231  1.00  0.00     0.023 A 
ATOM     92  C   UNL     1      14.709 -15.729  11.918  1.00  0.00     0.031 A 
ATOM     93  C   UNL     1      16.739 -14.449  11.714  1.00  0.00     0.131 A 
ATOM     94  C   UNL     1      15.213 -16.290  13.101  1.00  0.00     0.055 A 
ATOM     95  C   UNL     1      17.270 -15.075  12.843  1.00  0.00     0.041 A 
ATOM     96  F   UNL     1      17.500 -13.526  11.104  1.00  0.00    -0.206 F 
ATOM     97  C   UNL     1      16.496 -15.985  13.557  1.00  0.00     0.022 A 
BRANCH  94  98
ATOM     98  S   UNL     1      14.103 -17.302  14.119  1.00  0.00     0.124 S 
ATOM     99  O   UNL     1      12.975 -16.398  14.326  1.00  0.00    -0.237 OA
ATOM    100  O   UNL     1      13.849 -18.450  13.256  1.00  0.00    -0.237 OA
ATOM    101  O   UNL     1      14.897 -17.586  15.313  1.00  0.00    -0.744 OA
ENDBRANCH  94  98
ENDBRANCH  68  91
ENDBRANCH  42  43
ENDBRANCH  35  37
ENDBRANCH  34  35
ENDBRANCH  33  34
ENDBRANCH  32  33
ENDBRANCH  31  32
ENDBRANCH  30  31
ENDBRANCH  29  30
ENDBRANCH  28  29
ENDBRANCH   1  28
TORSDOF 28
