REMARK SMILES CCOc1cc2c(cc1C(=O)OCCOCCOCCOCCOC(=O)c1ccc(-c3c4nc(c(-c5cc(S(=O)(=O)[O-])ccc5F)c5ccc([nH]5)c(-c5cc(S(=O)(=O)[O-])ccc5F)c5nc(c(-c6cc(S(=O)(=O)[O-])ccc6F)c6ccc3[nH]6)C=C5)C=C4)cc1)CCC2
REMARK SMILES IDX 19 1 18 2 17 3 16 4 15 5 14 6 13 7 12 8 10 9 11 10 9 11 4 12
REMARK SMILES IDX 5 13 6 14 8 15 7 16 92 17 90 18 91 19 3 20 2 21 1 22 20 23
REMARK SMILES IDX 21 24 22 25 23 26 24 27 25 28 26 29 27 30 28 31 89 32 29 33
REMARK SMILES IDX 88 34 30 35 31 36 32 37 82 38 33 39 87 40 81 41 83 42 34 43
REMARK SMILES IDX 86 44 80 45 79 46 35 48 67 49 47 50 66 51 48 52 51 53 65 54
REMARK SMILES IDX 84 55 49 56 50 57 64 59 85 60 52 61 36 62 37 63 45 64 38 65
REMARK SMILES IDX 44 66 46 67 43 68 39 69 40 70 41 71 42 72 68 73 69 74 77 75
REMARK SMILES IDX 70 76 76 77 78 78 75 79 71 80 72 81 73 82 74 83 53 84 54 85
REMARK SMILES IDX 62 86 55 87 61 88 63 89 60 90 56 91 57 92 58 93 59 94
REMARK H PARENT 83 47 51 58
REMARK Flexibility Score: inf
ROOT
ATOM      1  C   UNL     1       0.229   1.728  -5.849  1.00  0.00     0.188 C 
ENDROOT
BRANCH   1   2
ATOM      2  O   UNL     1       1.119   1.338  -4.808  1.00  0.00    -0.377 OA
BRANCH   2   3
ATOM      3  C   UNL     1       2.380   0.762  -5.122  1.00  0.00     0.188 C 
BRANCH   3   4
ATOM      4  C   UNL     1       2.509  -0.280  -6.257  1.00  0.00     0.188 C 
BRANCH   4   5
ATOM      5  O   UNL     1       1.356  -0.416  -7.064  1.00  0.00    -0.376 OA
BRANCH   5   6
ATOM      6  C   UNL     1       0.539  -1.563  -6.927  1.00  0.00     0.202 C 
BRANCH   6   7
ATOM      7  C   UNL     1      -0.000  -1.971  -5.546  1.00  0.00     0.261 C 
BRANCH   7   8
ATOM      8  O   UNL     1       0.871  -1.736  -4.434  1.00  0.00    -0.460 OA
BRANCH   8   9
ATOM      9  C   UNL     1       1.798  -2.684  -4.182  1.00  0.00     0.342 C 
ATOM     10  O   UNL     1       1.988  -3.697  -4.838  1.00  0.00    -0.246 OA
BRANCH   9  11
ATOM     11  C   UNL     1       2.744  -2.202  -3.147  1.00  0.00     0.102 A 
ATOM     12  C   UNL     1       2.344  -1.651  -1.912  1.00  0.00     0.134 A 
ATOM     13  C   UNL     1       3.310  -1.343  -0.946  1.00  0.00     0.051 A 
ATOM     14  C   UNL     1       4.649  -1.498  -1.260  1.00  0.00    -0.041 A 
ATOM     15  C   UNL     1       4.112  -2.308  -3.468  1.00  0.00     0.023 A 
ATOM     16  C   UNL     1       5.048  -1.932  -2.523  1.00  0.00    -0.044 A 
ATOM     17  C   UNL     1       5.832  -1.257  -0.376  1.00  0.00     0.036 C 
ATOM     18  C   UNL     1       6.539  -1.919  -2.634  1.00  0.00     0.036 C 
ATOM     19  C   UNL     1       6.925  -2.009  -1.152  1.00  0.00     0.010 C 
BRANCH  12  20
ATOM     20  O   UNL     1       1.018  -1.518  -1.598  1.00  0.00    -0.493 OA
BRANCH  20  21
ATOM     21  C   UNL     1       0.622  -0.153  -1.357  1.00  0.00     0.226 C 
ATOM     22  C   UNL     1       0.602   0.169   0.133  1.00  0.00     0.049 C 
ENDBRANCH  20  21
ENDBRANCH  12  20
ENDBRANCH   9  11
ENDBRANCH   8   9
ENDBRANCH   7   8
ENDBRANCH   6   7
ENDBRANCH   5   6
ENDBRANCH   4   5
ENDBRANCH   3   4
ENDBRANCH   2   3
ENDBRANCH   1   2
BRANCH   1  23
ATOM     23  C   UNL     1       0.769   2.251  -7.201  1.00  0.00     0.188 C 
BRANCH  23  24
ATOM     24  O   UNL     1       2.181   2.368  -7.265  1.00  0.00    -0.376 OA
BRANCH  24  25
ATOM     25  C   UNL     1       2.728   3.673  -7.211  1.00  0.00     0.202 C 
BRANCH  25  26
ATOM     26  C   UNL     1       2.473   4.495  -5.939  1.00  0.00     0.261 C 
BRANCH  26  27
ATOM     27  O   UNL     1       1.104   4.641  -5.535  1.00  0.00    -0.460 OA
BRANCH  27  28
ATOM     28  C   UNL     1       0.287   5.339  -6.361  1.00  0.00     0.338 C 
ATOM     29  O   UNL     1       0.587   5.857  -7.414  1.00  0.00    -0.246 OA
BRANCH  28  30
ATOM     30  C   UNL     1      -1.091   5.192  -5.838  1.00  0.00     0.060 A 
ATOM     31  C   UNL     1      -2.063   4.570  -6.634  1.00  0.00     0.016 A 
ATOM     32  C   UNL     1      -1.412   5.653  -4.560  1.00  0.00     0.016 A 
ATOM     33  C   UNL     1      -3.370   4.434  -6.160  1.00  0.00     0.010 A 
ATOM     34  C   UNL     1      -2.725   5.537  -4.097  1.00  0.00     0.010 A 
ATOM     35  C   UNL     1      -3.718   4.955  -4.907  1.00  0.00    -0.014 A 
BRANCH  35  36
ATOM     36  C   UNL     1      -5.148   5.077  -4.527  1.00  0.00     0.031 A 
ATOM     37  C   UNL     1      -5.821   6.410  -4.719  1.00  0.00     0.074 A 
ATOM     38  C   UNL     1      -5.839   4.031  -4.038  1.00  0.00     0.049 A 
ATOM     39  N   UNL     1      -7.033   6.784  -4.407  1.00  0.00    -0.248 NA
ATOM     40  C   UNL     1      -5.007   7.464  -5.346  1.00  0.00     0.031 C 
ATOM     41  C   UNL     1      -5.313   2.679  -3.861  1.00  0.00     0.029 A 
ATOM     42  N   UNL     1      -7.137   3.947  -3.597  1.00  0.00    -0.354 N 
ATOM     43  C   UNL     1      -7.125   8.120  -4.786  1.00  0.00     0.074 A 
ATOM     44  C   UNL     1      -5.835   8.496  -5.320  1.00  0.00     0.031 C 
ATOM     45  C   UNL     1      -6.280   1.901  -3.343  1.00  0.00     0.029 A 
ATOM     46  C   UNL     1      -7.477   2.707  -3.108  1.00  0.00     0.049 A 
ATOM     47  H   UNL     1      -7.766   4.704  -3.628  1.00  0.00     0.167 HD
ATOM     48  C   UNL     1      -8.191   8.953  -4.699  1.00  0.00     0.034 A 
ATOM     49  C   UNL     1      -8.613   2.284  -2.515  1.00  0.00     0.034 A 
ATOM     50  C   UNL     1      -9.469   8.562  -4.156  1.00  0.00     0.049 A 
ATOM     51  C   UNL     1      -9.755   3.262  -2.338  1.00  0.00     0.074 A 
ATOM     52  C   UNL     1     -10.622   9.318  -4.043  1.00  0.00     0.029 A 
ATOM     53  N   UNL     1      -9.758   7.315  -3.617  1.00  0.00    -0.354 N 
ATOM     54  N   UNL     1      -9.836   4.519  -2.713  1.00  0.00    -0.248 NA
ATOM     55  C   UNL     1     -10.959   2.761  -1.662  1.00  0.00     0.031 C 
ATOM     56  C   UNL     1     -11.576   8.562  -3.356  1.00  0.00     0.029 A 
ATOM     57  C   UNL     1     -11.056   7.297  -3.130  1.00  0.00     0.049 A 
ATOM     58  H   UNL     1      -9.133   6.555  -3.586  1.00  0.00     0.167 HD
ATOM     59  C   UNL     1     -11.116   4.941  -2.355  1.00  0.00     0.074 A 
ATOM     60  C   UNL     1     -11.772   3.803  -1.746  1.00  0.00     0.031 C 
ATOM     61  C   UNL     1     -11.699   6.156  -2.520  1.00  0.00     0.034 A 
BRANCH  48  62
ATOM     62  C   UNL     1      -7.997  10.383  -5.143  1.00  0.00     0.023 A 
ATOM     63  C   UNL     1      -7.695  10.719  -6.474  1.00  0.00     0.031 A 
ATOM     64  C   UNL     1      -8.098  11.429  -4.207  1.00  0.00     0.131 A 
ATOM     65  C   UNL     1      -7.440  12.055  -6.818  1.00  0.00     0.055 A 
ATOM     66  C   UNL     1      -7.926  12.765  -4.573  1.00  0.00     0.041 A 
ATOM     67  F   UNL     1      -8.355  11.168  -2.916  1.00  0.00    -0.206 F 
ATOM     68  C   UNL     1      -7.582  13.083  -5.883  1.00  0.00     0.022 A 
BRANCH  65  69
ATOM     69  S   UNL     1      -6.779  12.416  -8.468  1.00  0.00     0.124 S 
ATOM     70  O   UNL     1      -5.558  11.614  -8.479  1.00  0.00    -0.237 OA
ATOM     71  O   UNL     1      -7.852  11.960  -9.344  1.00  0.00    -0.237 OA
ATOM     72  O   UNL     1      -6.565  13.862  -8.443  1.00  0.00    -0.744 OA
ENDBRANCH  65  69
ENDBRANCH  48  62
BRANCH  49  73
ATOM     73  C   UNL     1      -8.734   0.886  -2.002  1.00  0.00     0.023 A 
ATOM     74  C   UNL     1      -9.725   0.019  -2.489  1.00  0.00     0.031 A 
ATOM     75  C   UNL     1      -7.914   0.424  -0.957  1.00  0.00     0.131 A 
ATOM     76  C   UNL     1      -9.910  -1.240  -1.894  1.00  0.00     0.055 A 
ATOM     77  C   UNL     1      -8.059  -0.854  -0.413  1.00  0.00     0.041 A 
ATOM     78  F   UNL     1      -6.956   1.213  -0.444  1.00  0.00    -0.206 F 
ATOM     79  C   UNL     1      -9.073  -1.688  -0.870  1.00  0.00     0.022 A 
BRANCH  76  80
ATOM     80  S   UNL     1     -11.339  -2.237  -2.400  1.00  0.00     0.124 S 
ATOM     81  O   UNL     1     -12.447  -1.334  -2.110  1.00  0.00    -0.237 OA
ATOM     82  O   UNL     1     -11.057  -2.475  -3.811  1.00  0.00    -0.237 OA
ATOM     83  O   UNL     1     -11.252  -3.416  -1.541  1.00  0.00    -0.744 OA
ENDBRANCH  76  80
ENDBRANCH  49  73
BRANCH  61  84
ATOM     84  C   UNL     1     -13.142   6.299  -2.090  1.00  0.00     0.023 A 
ATOM     85  C   UNL     1     -13.536   6.184  -0.746  1.00  0.00     0.031 A 
ATOM     86  C   UNL     1     -14.140   6.551  -3.049  1.00  0.00     0.131 A 
ATOM     87  C   UNL     1     -14.895   6.261  -0.406  1.00  0.00     0.055 A 
ATOM     88  C   UNL     1     -15.482   6.698  -2.696  1.00  0.00     0.041 A 
ATOM     89  F   UNL     1     -13.826   6.666  -4.350  1.00  0.00    -0.206 F 
ATOM     90  C   UNL     1     -15.868   6.538  -1.369  1.00  0.00     0.022 A 
BRANCH  87  91
ATOM     91  S   UNL     1     -15.390   5.887   1.299  1.00  0.00     0.124 S 
ATOM     92  O   UNL     1     -14.868   4.536   1.477  1.00  0.00    -0.237 OA
ATOM     93  O   UNL     1     -14.716   6.935   2.057  1.00  0.00    -0.237 OA
ATOM     94  O   UNL     1     -16.848   5.989   1.264  1.00  0.00    -0.744 OA
ENDBRANCH  87  91
ENDBRANCH  61  84
ENDBRANCH  35  36
ENDBRANCH  28  30
ENDBRANCH  27  28
ENDBRANCH  26  27
ENDBRANCH  25  26
ENDBRANCH  24  25
ENDBRANCH  23  24
ENDBRANCH   1  23
TORSDOF 25
