REMARK SMILES NS(=O)(=O)c1ccc(NS(=O)(=O)c2cccc(C(=O)OCCOCCOCCOCCOC(=O)c3ccc(-c4c5nc(c(-c6cc(S(=O)(=O)[O-])ccc6F)c6ccc([nH]6)c(-c6cc(S(=O)(=O)[O-])ccc6F)c6nc(c(-c7cc(S(=O)(=O)[O-])ccc7F)c7ccc4[nH]7)C=C6)C=C5)cc3)c2)cc1
REMARK SMILES IDX 25 1 24 2 23 3 22 4 21 5 20 6 18 7 19 8 17 9 13 10 14 11
REMARK SMILES IDX 98 12 15 13 16 14 10 15 11 16 12 17 9 18 8 20 5 21 6 22
REMARK SMILES IDX 100 23 7 24 99 25 2 26 3 27 4 28 1 29 26 32 27 33 28 34
REMARK SMILES IDX 29 35 30 36 31 37 32 38 33 39 34 40 35 41 36 42 97 43 37 44
REMARK SMILES IDX 96 45 38 46 39 47 40 48 90 49 41 50 95 51 89 52 91 53 42 54
REMARK SMILES IDX 94 55 88 56 87 57 43 59 75 60 55 61 74 62 56 63 59 64 73 65
REMARK SMILES IDX 92 66 57 67 58 68 72 70 93 71 60 72 44 73 45 74 53 75 46 76
REMARK SMILES IDX 52 77 54 78 51 79 47 80 48 81 49 82 50 83 76 84 77 85 85 86
REMARK SMILES IDX 78 87 84 88 86 89 83 90 79 91 80 92 81 93 82 94 61 95 62 96
REMARK SMILES IDX 70 97 63 98 69 99 71 100 68 101 64 102 65 103 66 104 67 105
REMARK H PARENT 9 19 1 30 1 31 91 58 59 69
REMARK Flexibility Score: inf
ROOT
ATOM      1  C   UNL     1       0.890 -10.019   1.788  1.00  0.00     0.188 C 
ENDROOT
BRANCH   1   2
ATOM      2  C   UNL     1      -0.412 -10.465   2.472  1.00  0.00     0.188 C 
BRANCH   2   3
ATOM      3  O   UNL     1      -0.616 -11.872   2.502  1.00  0.00    -0.376 OA
BRANCH   3   4
ATOM      4  C   UNL     1      -1.647 -12.380   1.664  1.00  0.00     0.202 C 
BRANCH   4   5
ATOM      5  C   UNL     1      -1.315 -12.406   0.165  1.00  0.00     0.261 C 
BRANCH   5   6
ATOM      6  O   UNL     1      -0.997 -11.122  -0.399  1.00  0.00    -0.460 OA
BRANCH   6   7
ATOM      7  C   UNL     1      -2.003 -10.226  -0.435  1.00  0.00     0.338 C 
ATOM      8  O   UNL     1      -3.152 -10.415  -0.065  1.00  0.00    -0.246 OA
BRANCH   7   9
ATOM      9  C   UNL     1      -1.492  -8.891  -0.839  1.00  0.00     0.061 A 
ATOM     10  C   UNL     1      -0.073  -7.407  -2.119  1.00  0.00     0.088 A 
ATOM     11  C   UNL     1      -0.835  -6.316  -1.679  1.00  0.00     0.022 A 
ATOM     12  C   UNL     1      -0.406  -8.708  -1.710  1.00  0.00     0.038 A 
ATOM     13  C   UNL     1      -1.843  -6.494  -0.737  1.00  0.00     0.002 A 
ATOM     14  C   UNL     1      -2.174  -7.779  -0.321  1.00  0.00     0.016 A 
BRANCH  10  15
ATOM     15  S   UNL     1       1.181  -7.129  -3.355  1.00  0.00     0.261 S 
ATOM     16  O   UNL     1       0.578  -6.327  -4.399  1.00  0.00    -0.201 OA
ATOM     17  O   UNL     1       1.791  -8.403  -3.667  1.00  0.00    -0.201 OA
BRANCH  15  18
ATOM     18  N   UNL     1       2.430  -6.184  -2.669  1.00  0.00    -0.280 N 
ATOM     19  H   UNL     1       3.371  -6.452  -2.782  1.00  0.00     0.180 HD
BRANCH  18  20
ATOM     20  C   UNL     1       2.104  -5.005  -1.930  1.00  0.00     0.049 A 
ATOM     21  C   UNL     1       1.296  -2.800  -0.422  1.00  0.00     0.082 A 
ATOM     22  C   UNL     1       1.454  -4.044   0.195  1.00  0.00     0.024 A 
ATOM     23  C   UNL     1       1.576  -2.642  -1.784  1.00  0.00     0.024 A 
ATOM     24  C   UNL     1       1.868  -5.140  -0.561  1.00  0.00     0.028 A 
ATOM     25  C   UNL     1       1.970  -3.755  -2.544  1.00  0.00     0.028 A 
BRANCH  21  26
ATOM     26  S   UNL     1       0.713  -1.447   0.559  1.00  0.00     0.238 S 
ATOM     27  O   UNL     1       1.218  -1.591   1.903  1.00  0.00    -0.207 OA
ATOM     28  O   UNL     1      -0.689  -1.251   0.270  1.00  0.00    -0.207 OA
BRANCH  26  29
ATOM     29  N   UNL     1       1.508  -0.103  -0.060  1.00  0.00    -0.225 NA
ATOM     30  H   UNL     1       1.223   0.729   0.457  1.00  0.00     0.137 HD
ATOM     31  H   UNL     1       1.267   0.010  -1.045  1.00  0.00     0.137 HD
ENDBRANCH  26  29
ENDBRANCH  21  26
ENDBRANCH  18  20
ENDBRANCH  15  18
ENDBRANCH  10  15
ENDBRANCH   7   9
ENDBRANCH   6   7
ENDBRANCH   5   6
ENDBRANCH   4   5
ENDBRANCH   3   4
ENDBRANCH   2   3
ENDBRANCH   1   2
BRANCH   1  32
ATOM     32  O   UNL     1       1.649 -10.992   1.095  1.00  0.00    -0.377 OA
BRANCH  32  33
ATOM     33  C   UNL     1       2.060 -12.181   1.765  1.00  0.00     0.188 C 
BRANCH  33  34
ATOM     34  C   UNL     1       2.100 -12.273   3.306  1.00  0.00     0.188 C 
BRANCH  34  35
ATOM     35  O   UNL     1       2.214 -11.023   3.976  1.00  0.00    -0.376 OA
BRANCH  35  36
ATOM     36  C   UNL     1       3.470 -10.765   4.589  1.00  0.00     0.202 C 
BRANCH  36  37
ATOM     37  C   UNL     1       4.580 -10.407   3.596  1.00  0.00     0.261 C 
BRANCH  37  38
ATOM     38  O   UNL     1       4.953 -11.459   2.692  1.00  0.00    -0.460 OA
BRANCH  38  39
ATOM     39  C   UNL     1       5.426 -12.608   3.227  1.00  0.00     0.338 C 
ATOM     40  O   UNL     1       5.609 -12.852   4.404  1.00  0.00    -0.246 OA
BRANCH  39  41
ATOM     41  C   UNL     1       5.511 -13.591   2.128  1.00  0.00     0.060 A 
ATOM     42  C   UNL     1       4.754 -14.767   2.195  1.00  0.00     0.016 A 
ATOM     43  C   UNL     1       6.304 -13.316   1.012  1.00  0.00     0.016 A 
ATOM     44  C   UNL     1       4.788 -15.676   1.134  1.00  0.00     0.010 A 
ATOM     45  C   UNL     1       6.354 -14.236  -0.035  1.00  0.00     0.010 A 
ATOM     46  C   UNL     1       5.607 -15.425   0.024  1.00  0.00    -0.014 A 
BRANCH  46  47
ATOM     47  C   UNL     1       5.816 -16.456  -1.021  1.00  0.00     0.031 A 
ATOM     48  C   UNL     1       7.014 -17.353  -0.906  1.00  0.00     0.074 A 
ATOM     49  C   UNL     1       4.986 -16.558  -2.074  1.00  0.00     0.049 A 
ATOM     50  N   UNL     1       7.487 -18.223  -1.759  1.00  0.00    -0.248 NA
ATOM     51  C   UNL     1       7.786 -17.245   0.341  1.00  0.00     0.031 C 
ATOM     52  C   UNL     1       3.767 -15.777  -2.269  1.00  0.00     0.029 A 
ATOM     53  N   UNL     1       5.061 -17.351  -3.193  1.00  0.00    -0.354 N 
ATOM     54  C   UNL     1       8.614 -18.767  -1.155  1.00  0.00     0.074 A 
ATOM     55  C   UNL     1       8.770 -18.104   0.122  1.00  0.00     0.031 C 
ATOM     56  C   UNL     1       3.219 -16.113  -3.450  1.00  0.00     0.029 A 
ATOM     57  C   UNL     1       4.074 -17.094  -4.117  1.00  0.00     0.049 A 
ATOM     58  H   UNL     1       5.755 -18.037  -3.322  1.00  0.00     0.167 HD
ATOM     59  C   UNL     1       9.441 -19.733  -1.624  1.00  0.00     0.034 A 
ATOM     60  C   UNL     1       3.910 -17.564  -5.371  1.00  0.00     0.034 A 
ATOM     61  C   UNL     1       9.290 -20.360  -2.914  1.00  0.00     0.049 A 
ATOM     62  C   UNL     1       4.925 -18.535  -5.930  1.00  0.00     0.074 A 
ATOM     63  C   UNL     1      10.057 -21.362  -3.481  1.00  0.00     0.029 A 
ATOM     64  N   UNL     1       8.320 -20.024  -3.850  1.00  0.00    -0.354 N 
ATOM     65  N   UNL     1       5.981 -19.055  -5.348  1.00  0.00    -0.248 NA
ATOM     66  C   UNL     1       4.731 -18.973  -7.320  1.00  0.00     0.031 C 
ATOM     67  C   UNL     1       9.601 -21.576  -4.787  1.00  0.00     0.029 A 
ATOM     68  C   UNL     1       8.501 -20.764  -5.009  1.00  0.00     0.049 A 
ATOM     69  H   UNL     1       7.609 -19.359  -3.711  1.00  0.00     0.167 HD
ATOM     70  C   UNL     1       6.563 -19.896  -6.295  1.00  0.00     0.074 A 
ATOM     71  C   UNL     1       5.735 -19.823  -7.480  1.00  0.00     0.031 C 
ATOM     72  C   UNL     1       7.679 -20.663  -6.192  1.00  0.00     0.034 A 
BRANCH  59  73
ATOM     73  C   UNL     1      10.612 -20.117  -0.755  1.00  0.00     0.023 A 
ATOM     74  C   UNL     1      10.432 -20.711   0.506  1.00  0.00     0.031 A 
ATOM     75  C   UNL     1      11.926 -19.844  -1.174  1.00  0.00     0.131 A 
ATOM     76  C   UNL     1      11.540 -20.944   1.335  1.00  0.00     0.055 A 
ATOM     77  C   UNL     1      13.030 -20.151  -0.377  1.00  0.00     0.041 A 
ATOM     78  F   UNL     1      12.158 -19.255  -2.357  1.00  0.00    -0.206 F 
ATOM     79  C   UNL     1      12.840 -20.690   0.892  1.00  0.00     0.022 A 
BRANCH  76  80
ATOM     80  S   UNL     1      11.246 -21.443   3.054  1.00  0.00     0.124 S 
ATOM     81  O   UNL     1      10.418 -20.344   3.544  1.00  0.00    -0.237 OA
ATOM     82  O   UNL     1      10.576 -22.728   2.899  1.00  0.00    -0.237 OA
ATOM     83  O   UNL     1      12.590 -21.503   3.627  1.00  0.00    -0.744 OA
ENDBRANCH  76  80
ENDBRANCH  59  73
BRANCH  60  84
ATOM     84  C   UNL     1       2.786 -17.077  -6.222  1.00  0.00     0.023 A 
ATOM     85  C   UNL     1       1.789 -17.953  -6.679  1.00  0.00     0.031 A 
ATOM     86  C   UNL     1       2.727 -15.735  -6.642  1.00  0.00     0.131 A 
ATOM     87  C   UNL     1       0.797 -17.488  -7.558  1.00  0.00     0.055 A 
ATOM     88  C   UNL     1       1.709 -15.266  -7.474  1.00  0.00     0.041 A 
ATOM     89  F   UNL     1       3.661 -14.857  -6.244  1.00  0.00    -0.206 F 
ATOM     90  C   UNL     1       0.743 -16.148  -7.947  1.00  0.00     0.022 A 
BRANCH  87  91
ATOM     91  S   UNL     1      -0.378 -18.683  -8.253  1.00  0.00     0.124 S 
ATOM     92  O   UNL     1       0.512 -19.606  -8.948  1.00  0.00    -0.237 OA
ATOM     93  O   UNL     1      -1.030 -19.200  -7.055  1.00  0.00    -0.237 OA
ATOM     94  O   UNL     1      -1.226 -17.864  -9.117  1.00  0.00    -0.744 OA
ENDBRANCH  87  91
ENDBRANCH  60  84
BRANCH  72  95
ATOM     95  C   UNL     1       8.051 -21.506  -7.388  1.00  0.00     0.023 A 
ATOM     96  C   UNL     1       8.520 -20.930  -8.581  1.00  0.00     0.031 A 
ATOM     97  C   UNL     1       7.952 -22.908  -7.323  1.00  0.00     0.131 A 
ATOM     98  C   UNL     1       8.838 -21.751  -9.675  1.00  0.00     0.055 A 
ATOM     99  C   UNL     1       8.321 -23.722  -8.395  1.00  0.00     0.041 A 
ATOM    100  F   UNL     1       7.509 -23.511  -6.207  1.00  0.00    -0.206 F 
ATOM    101  C   UNL     1       8.759 -23.143  -9.582  1.00  0.00     0.022 A 
BRANCH  98 102
ATOM    102  S   UNL     1       9.307 -20.973 -11.245  1.00  0.00     0.124 S 
ATOM    103  O   UNL     1       8.101 -20.224 -11.584  1.00  0.00    -0.237 OA
ATOM    104  O   UNL     1      10.468 -20.175 -10.867  1.00  0.00    -0.237 OA
ATOM    105  O   UNL     1       9.597 -22.110 -12.118  1.00  0.00    -0.744 OA
ENDBRANCH  98 102
ENDBRANCH  72  95
ENDBRANCH  46  47
ENDBRANCH  39  41
ENDBRANCH  38  39
ENDBRANCH  37  38
ENDBRANCH  36  37
ENDBRANCH  35  36
ENDBRANCH  34  35
ENDBRANCH  33  34
ENDBRANCH  32  33
ENDBRANCH   1  32
TORSDOF 28
