REMARK SMILES O=C(OCCOCCOCCOCCOC(=O)c1ccccc1-c1ccccc1C(=O)N1CC[NH+](Cc2ccc3c(c2)OCO3)CC1)c1ccc(-c2c3nc(c(-c4cc(S(=O)(=O)[O-])ccc4F)c4ccc([nH]4)c(-c4cc(S(=O)(=O)[O-])ccc4F)c4nc(c(-c5cc(S(=O)(=O)[O-])ccc5F)c5ccc2[nH]5)C=C4)C=C3)cc1
REMARK SMILES IDX 10 1 9 2 8 3 7 4 6 5 5 6 4 7 3 8 2 9 1 10 48 11 49 12 110 13
REMARK SMILES IDX 50 14 109 15 51 16 52 17 53 18 103 19 54 20 108 21 102 22
REMARK SMILES IDX 104 23 55 24 107 25 101 26 100 27 56 29 88 30 68 31 87 32
REMARK SMILES IDX 69 33 72 34 86 35 105 36 70 37 71 38 85 40 106 41 73 42
REMARK SMILES IDX 57 43 58 44 66 45 59 46 65 47 67 48 64 49 60 50 61 51 62 52
REMARK SMILES IDX 63 53 89 54 90 55 98 56 91 57 97 58 99 59 96 60 92 61 93 62
REMARK SMILES IDX 94 63 95 64 74 65 75 66 83 67 76 68 82 69 84 70 81 71 77 72
REMARK SMILES IDX 78 73 79 74 80 75 11 76 12 77 13 78 14 79 15 80 16 81 17 82
REMARK SMILES IDX 18 83 19 84 23 85 20 86 22 87 21 88 24 89 25 90 29 91 26 92
REMARK SMILES IDX 28 93 27 94 30 95 31 96 32 97 33 98 47 99 34 100 46 101
REMARK SMILES IDX 35 102 36 104 37 105 38 106 42 107 39 108 41 109 40 110
REMARK SMILES IDX 43 111 45 112 44 113
REMARK H PARENT 104 28 72 39 35 103
REMARK Flexibility Score: inf
ROOT
ATOM      1  C   UNL     1       4.009  -1.915  -1.922  1.00  0.00     0.188 C 
ENDROOT
BRANCH   1   2
ATOM      2  O   UNL     1       2.920  -2.543  -1.236  1.00  0.00    -0.377 OA
BRANCH   2   3
ATOM      3  C   UNL     1       1.813  -1.728  -0.874  1.00  0.00     0.188 C 
BRANCH   3   4
ATOM      4  C   UNL     1       2.075  -0.785   0.287  1.00  0.00     0.188 C 
BRANCH   4   5
ATOM      5  O   UNL     1       3.406  -0.284   0.242  1.00  0.00    -0.376 OA
BRANCH   5   6
ATOM      6  C   UNL     1       4.231  -0.739   1.312  1.00  0.00     0.202 C 
BRANCH   6   7
ATOM      7  C   UNL     1       4.303   0.295   2.433  1.00  0.00     0.261 C 
BRANCH   7   8
ATOM      8  O   UNL     1       3.036   0.929   2.672  1.00  0.00    -0.460 OA
BRANCH   8   9
ATOM      9  C   UNL     1       2.413   1.899   1.954  1.00  0.00     0.338 C 
ATOM     10  O   UNL     1       1.268   2.197   2.303  1.00  0.00    -0.246 OA
BRANCH   9  11
ATOM     11  C   UNL     1       2.987   2.634   0.764  1.00  0.00     0.060 A 
ATOM     12  C   UNL     1       4.209   2.385   0.126  1.00  0.00     0.016 A 
ATOM     13  C   UNL     1       2.199   3.684   0.249  1.00  0.00     0.016 A 
ATOM     14  C   UNL     1       4.662   3.167  -0.936  1.00  0.00     0.010 A 
ATOM     15  C   UNL     1       2.659   4.505  -0.786  1.00  0.00     0.010 A 
ATOM     16  C   UNL     1       3.924   4.278  -1.334  1.00  0.00    -0.014 A 
BRANCH  16  17
ATOM     17  C   UNL     1       4.655   5.376  -1.997  1.00  0.00     0.031 A 
ATOM     18  C   UNL     1       5.353   6.351  -1.087  1.00  0.00     0.074 A 
ATOM     19  C   UNL     1       4.776   5.441  -3.331  1.00  0.00     0.049 A 
ATOM     20  N   UNL     1       6.026   7.431  -1.372  1.00  0.00    -0.248 NA
ATOM     21  C   UNL     1       5.291   6.045   0.354  1.00  0.00     0.031 C 
ATOM     22  C   UNL     1       4.243   4.461  -4.276  1.00  0.00     0.029 A 
ATOM     23  N   UNL     1       5.394   6.374  -4.120  1.00  0.00    -0.354 N 
ATOM     24  C   UNL     1       6.465   7.930  -0.149  1.00  0.00     0.074 A 
ATOM     25  C   UNL     1       5.976   7.043   0.879  1.00  0.00     0.031 C 
ATOM     26  C   UNL     1       4.544   4.857  -5.526  1.00  0.00     0.029 A 
ATOM     27  C   UNL     1       5.242   6.141  -5.466  1.00  0.00     0.049 A 
ATOM     28  H   UNL     1       5.898   7.138  -3.758  1.00  0.00     0.167 HD
ATOM     29  C   UNL     1       7.196   9.043   0.095  1.00  0.00     0.034 A 
ATOM     30  C   UNL     1       5.592   6.912  -6.516  1.00  0.00     0.034 A 
ATOM     31  C   UNL     1       7.582   9.952  -0.951  1.00  0.00     0.049 A 
ATOM     32  C   UNL     1       6.280   8.226  -6.224  1.00  0.00     0.074 A 
ATOM     33  C   UNL     1       8.190  11.188  -0.855  1.00  0.00     0.029 A 
ATOM     34  N   UNL     1       7.360   9.717  -2.305  1.00  0.00    -0.354 N 
ATOM     35  N   UNL     1       6.623   8.738  -5.061  1.00  0.00    -0.248 NA
ATOM     36  C   UNL     1       6.619   9.069  -7.375  1.00  0.00     0.031 C 
ATOM     37  C   UNL     1       8.282  11.724  -2.146  1.00  0.00     0.029 A 
ATOM     38  C   UNL     1       7.798  10.792  -3.054  1.00  0.00     0.049 A 
ATOM     39  H   UNL     1       6.950   8.902  -2.675  1.00  0.00     0.167 HD
ATOM     40  C   UNL     1       7.233   9.956  -5.343  1.00  0.00     0.074 A 
ATOM     41  C   UNL     1       7.221  10.095  -6.787  1.00  0.00     0.031 C 
ATOM     42  C   UNL     1       7.758  10.881  -4.496  1.00  0.00     0.034 A 
BRANCH  29  43
ATOM     43  C   UNL     1       7.469   9.356   1.546  1.00  0.00     0.023 A 
ATOM     44  C   UNL     1       8.240   8.495   2.352  1.00  0.00     0.031 A 
ATOM     45  C   UNL     1       6.810  10.427   2.173  1.00  0.00     0.131 A 
ATOM     46  C   UNL     1       8.241   8.657   3.747  1.00  0.00     0.055 A 
ATOM     47  C   UNL     1       6.888  10.634   3.552  1.00  0.00     0.041 A 
ATOM     48  F   UNL     1       6.030  11.258   1.464  1.00  0.00    -0.206 F 
ATOM     49  C   UNL     1       7.587   9.733   4.350  1.00  0.00     0.022 A 
BRANCH  46  50
ATOM     50  S   UNL     1       8.933   7.328   4.776  1.00  0.00     0.124 S 
ATOM     51  O   UNL     1       8.123   6.182   4.365  1.00  0.00    -0.237 OA
ATOM     52  O   UNL     1      10.331   7.303   4.362  1.00  0.00    -0.237 OA
ATOM     53  O   UNL     1       8.694   7.790   6.141  1.00  0.00    -0.744 OA
ENDBRANCH  46  50
ENDBRANCH  29  43
BRANCH  30  54
ATOM     54  C   UNL     1       5.227   6.509  -7.906  1.00  0.00     0.023 A 
ATOM     55  C   UNL     1       6.201   6.243  -8.881  1.00  0.00     0.031 A 
ATOM     56  C   UNL     1       3.874   6.404  -8.286  1.00  0.00     0.131 A 
ATOM     57  C   UNL     1       5.810   5.904 -10.189  1.00  0.00     0.055 A 
ATOM     58  C   UNL     1       3.491   6.024  -9.573  1.00  0.00     0.041 A 
ATOM     59  F   UNL     1       2.898   6.654  -7.398  1.00  0.00    -0.206 F 
ATOM     60  C   UNL     1       4.463   5.780 -10.537  1.00  0.00     0.022 A 
BRANCH  57  61
ATOM     61  S   UNL     1       7.089   5.679 -11.457  1.00  0.00     0.124 S 
ATOM     62  O   UNL     1       7.754   6.978 -11.445  1.00  0.00    -0.237 OA
ATOM     63  O   UNL     1       7.855   4.559 -10.920  1.00  0.00    -0.237 OA
ATOM     64  O   UNL     1       6.323   5.383 -12.666  1.00  0.00    -0.744 OA
ENDBRANCH  57  61
ENDBRANCH  30  54
BRANCH  42  65
ATOM     65  C   UNL     1       8.395  12.090  -5.123  1.00  0.00     0.023 A 
ATOM     66  C   UNL     1       7.628  13.096  -5.731  1.00  0.00     0.031 A 
ATOM     67  C   UNL     1       9.791  12.247  -5.076  1.00  0.00     0.131 A 
ATOM     68  C   UNL     1       8.267  14.204  -6.305  1.00  0.00     0.055 A 
ATOM     69  C   UNL     1      10.418  13.373  -5.606  1.00  0.00     0.041 A 
ATOM     70  F   UNL     1      10.564  11.313  -4.499  1.00  0.00    -0.206 F 
ATOM     71  C   UNL     1       9.655  14.356  -6.233  1.00  0.00     0.022 A 
BRANCH  68  72
ATOM     72  S   UNL     1       7.265  15.422  -7.197  1.00  0.00     0.124 S 
ATOM     73  O   UNL     1       6.680  14.612  -8.262  1.00  0.00    -0.237 OA
ATOM     74  O   UNL     1       6.341  15.883  -6.167  1.00  0.00    -0.237 OA
ATOM     75  O   UNL     1       8.244  16.413  -7.639  1.00  0.00    -0.744 OA
ENDBRANCH  68  72
ENDBRANCH  42  65
ENDBRANCH  16  17
ENDBRANCH   9  11
ENDBRANCH   8   9
ENDBRANCH   7   8
ENDBRANCH   6   7
ENDBRANCH   5   6
ENDBRANCH   4   5
ENDBRANCH   3   4
ENDBRANCH   2   3
ENDBRANCH   1   2
BRANCH   1  76
ATOM     76  C   UNL     1       3.722  -0.948  -3.080  1.00  0.00     0.188 C 
BRANCH  76  77
ATOM     77  O   UNL     1       2.408  -0.986  -3.631  1.00  0.00    -0.376 OA
BRANCH  77  78
ATOM     78  C   UNL     1       2.181  -1.923  -4.675  1.00  0.00     0.202 C 
BRANCH  78  79
ATOM     79  C   UNL     1       1.290  -3.121  -4.244  1.00  0.00     0.261 C 
BRANCH  79  80
ATOM     80  O   UNL     1       1.768  -4.144  -3.326  1.00  0.00    -0.460 OA
BRANCH  80  81
ATOM     81  C   UNL     1       3.067  -4.454  -3.426  1.00  0.00     0.338 C 
ATOM     82  O   UNL     1       3.867  -3.846  -4.123  1.00  0.00    -0.246 OA
BRANCH  81  83
ATOM     83  C   UNL     1       3.524  -5.675  -2.746  1.00  0.00     0.067 A 
ATOM     84  C   UNL     1       4.130  -5.599  -1.488  1.00  0.00     0.016 A 
ATOM     85  C   UNL     1       3.596  -6.860  -3.506  1.00  0.00    -0.003 A 
ATOM     86  C   UNL     1       4.792  -6.711  -0.967  1.00  0.00     0.001 A 
ATOM     87  C   UNL     1       4.243  -7.977  -2.954  1.00  0.00     0.009 A 
ATOM     88  C   UNL     1       4.848  -7.898  -1.697  1.00  0.00     0.001 A 
BRANCH  85  89
ATOM     89  C   UNL     1       2.856  -6.952  -4.768  1.00  0.00    -0.005 A 
ATOM     90  C   UNL     1       1.531  -7.448  -4.619  1.00  0.00     0.009 A 
ATOM     91  C   UNL     1       3.256  -6.417  -6.012  1.00  0.00     0.047 A 
ATOM     92  C   UNL     1       0.587  -7.349  -5.633  1.00  0.00     0.001 A 
ATOM     93  C   UNL     1       2.268  -6.326  -7.023  1.00  0.00     0.014 A 
ATOM     94  C   UNL     1       0.952  -6.765  -6.833  1.00  0.00     0.001 A 
BRANCH  91  95
ATOM     95  C   UNL     1       4.604  -5.833  -6.399  1.00  0.00     0.254 C 
ATOM     96  O   UNL     1       4.785  -5.491  -7.570  1.00  0.00    -0.269 OA
ATOM     97  N   UNL     1       5.595  -5.617  -5.443  1.00  0.00    -0.327 N 
ATOM     98  C   UNL     1       6.149  -4.262  -5.410  1.00  0.00     0.181 C 
ATOM     99  C   UNL     1       6.655  -6.600  -5.271  1.00  0.00     0.181 C 
ATOM    100  C   UNL     1       6.808  -3.994  -4.041  1.00  0.00     0.284 C 
ATOM    101  C   UNL     1       7.593  -6.304  -4.061  1.00  0.00     0.284 C 
ATOM    102  N   UNL     1       7.915  -4.909  -3.715  1.00  0.00    -0.328 N 
ATOM    103  H   UNL     1       7.999  -4.928  -2.699  1.00  0.00     0.348 HD
BRANCH 102 104
ATOM    104  C   UNL     1       9.261  -4.411  -4.039  1.00  0.00     0.299 C 
BRANCH 104 105
ATOM    105  C   UNL     1       9.400  -3.829  -5.428  1.00  0.00     0.010 A 
ATOM    106  C   UNL     1       9.600  -4.683  -6.534  1.00  0.00     0.013 A 
ATOM    107  C   UNL     1       9.073  -2.475  -5.634  1.00  0.00     0.060 A 
ATOM    108  C   UNL     1       9.316  -4.241  -7.830  1.00  0.00     0.051 A 
ATOM    109  C   UNL     1       8.722  -2.097  -6.908  1.00  0.00     0.166 A 
ATOM    110  C   UNL     1       8.817  -2.963  -7.972  1.00  0.00     0.165 A 
ATOM    111  O   UNL     1       8.099  -0.934  -7.237  1.00  0.00    -0.454 OA
ATOM    112  O   UNL     1       8.263  -2.443  -9.101  1.00  0.00    -0.454 OA
ATOM    113  C   UNL     1       7.606  -1.278  -8.549  1.00  0.00     0.468 C 
ENDBRANCH 104 105
ENDBRANCH 102 104
ENDBRANCH  91  95
ENDBRANCH  85  89
ENDBRANCH  81  83
ENDBRANCH  80  81
ENDBRANCH  79  80
ENDBRANCH  78  79
ENDBRANCH  77  78
ENDBRANCH  76  77
ENDBRANCH   1  76
TORSDOF 27
