REMARK SMILES CSCC[C@@H](C(=O)OCCOCCOCCOCCOC(=O)c1ccc(-c2c3nc(c(-c4cc(S(=O)(=O)[O-])ccc4F)c4ccc([nH]4)c(-c4cc(S(=O)(=O)[O-])ccc4F)c4nc(c(-c5cc(S(=O)(=O)[O-])ccc5F)c5ccc2[nH]5)C=C4)C=C3)cc1)N1C(=O)/C(=C/c2ccc(Cl)cc2Cl)SC1=S
REMARK SMILES IDX 14 1 13 2 12 3 11 4 10 5 9 6 8 7 6 8 7 9 5 10 4 11 3 12 2 13
REMARK SMILES IDX 1 14 86 15 87 16 100 17 88 18 89 19 99 20 101 21 90 22 91 23
REMARK SMILES IDX 92 24 97 25 93 26 96 27 98 28 94 29 95 30 15 31 16 32 17 33
REMARK SMILES IDX 18 34 19 35 20 36 21 37 22 38 23 39 24 40 85 41 25 42 84 43
REMARK SMILES IDX 26 44 27 45 28 46 78 47 29 48 83 49 77 50 79 51 30 52 82 53
REMARK SMILES IDX 76 54 75 55 31 57 63 58 43 59 62 60 44 61 47 62 61 63 80 64
REMARK SMILES IDX 45 65 46 66 60 68 81 69 48 70 32 71 33 72 41 73 34 74 40 75
REMARK SMILES IDX 42 76 39 77 35 78 36 79 37 80 38 81 64 82 65 83 73 84 66 85
REMARK SMILES IDX 72 86 74 87 71 88 67 89 68 90 69 91 70 92 49 93 50 94 58 95
REMARK SMILES IDX 51 96 57 97 59 98 56 99 52 100 53 101 54 102 55 103
REMARK H PARENT 79 56 47 67
REMARK Flexibility Score: inf
ROOT
ATOM      1  O   UNL     1       3.111   0.266  -4.274  1.00  0.00    -0.377 OA
ENDROOT
BRANCH   1   2
ATOM      2  C   UNL     1       2.760   1.626  -4.464  1.00  0.00     0.188 C 
BRANCH   2   3
ATOM      3  C   UNL     1       3.631   2.681  -3.766  1.00  0.00     0.188 C 
BRANCH   3   4
ATOM      4  O   UNL     1       4.921   2.212  -3.432  1.00  0.00    -0.376 OA
BRANCH   4   5
ATOM      5  C   UNL     1       5.173   1.768  -2.110  1.00  0.00     0.202 C 
BRANCH   5   6
ATOM      6  C   UNL     1       4.226   0.785  -1.394  1.00  0.00     0.261 C 
BRANCH   6   7
ATOM      7  O   UNL     1       2.820   0.887  -1.687  1.00  0.00    -0.462 OA
BRANCH   7   8
ATOM      8  C   UNL     1       2.100   1.805  -1.017  1.00  0.00     0.329 C 
ATOM      9  O   UNL     1       2.631   2.596  -0.248  1.00  0.00    -0.250 OA
BRANCH   8  10
ATOM     10  C   UNL     1       0.573   1.794  -1.354  1.00  0.00     0.202 C 
BRANCH  10  11
ATOM     11  C   UNL     1       0.063   0.581  -2.188  1.00  0.00     0.048 C 
BRANCH  11  12
ATOM     12  C   UNL     1       0.504  -0.852  -1.879  1.00  0.00     0.072 C 
BRANCH  12  13
ATOM     13  S   UNL     1      -0.225  -1.548  -0.370  1.00  0.00    -0.165 SA
ATOM     14  C   UNL     1       0.871  -0.832   0.869  1.00  0.00     0.085 C 
ENDBRANCH  12  13
ENDBRANCH  11  12
ENDBRANCH  10  11
BRANCH  10  15
ATOM     15  N   UNL     1       0.171   3.159  -1.899  1.00  0.00    -0.278 N 
ATOM     16  C   UNL     1      -0.507   3.332  -3.104  1.00  0.00     0.266 C 
ATOM     17  C   UNL     1       0.253   4.330  -1.155  1.00  0.00     0.149 C 
ATOM     18  O   UNL     1      -0.948   2.472  -3.853  1.00  0.00    -0.268 OA
ATOM     19  C   UNL     1      -0.775   4.774  -3.374  1.00  0.00     0.081 C 
ATOM     20  S   UNL     1       0.017   5.729  -2.201  1.00  0.00    -0.054 SA
ATOM     21  S   UNL     1       0.414   4.550   0.492  1.00  0.00    -0.052 S 
ATOM     22  C   UNL     1      -1.597   5.200  -4.347  1.00  0.00     0.031 C 
BRANCH  22  23
ATOM     23  C   UNL     1      -1.896   6.616  -4.628  1.00  0.00    -0.006 A 
ATOM     24  C   UNL     1      -3.105   7.154  -4.158  1.00  0.00     0.011 A 
ATOM     25  C   UNL     1      -1.004   7.456  -5.319  1.00  0.00     0.049 A 
ATOM     26  C   UNL     1      -3.400   8.508  -4.351  1.00  0.00     0.021 A 
ATOM     27  C   UNL     1      -1.296   8.810  -5.503  1.00  0.00     0.041 A 
ATOM     28  Cl  UNL     1       0.479   6.858  -5.980  1.00  0.00    -0.084 Cl
ATOM     29  C   UNL     1      -2.490   9.329  -5.013  1.00  0.00     0.042 A 
ATOM     30  Cl  UNL     1      -2.845  11.000  -5.226  1.00  0.00    -0.084 Cl
ENDBRANCH  22  23
ENDBRANCH  10  15
ENDBRANCH   8  10
ENDBRANCH   7   8
ENDBRANCH   6   7
ENDBRANCH   5   6
ENDBRANCH   4   5
ENDBRANCH   3   4
ENDBRANCH   2   3
ENDBRANCH   1   2
BRANCH   1  31
ATOM     31  C   UNL     1       4.350  -0.220  -4.798  1.00  0.00     0.188 C 
BRANCH  31  32
ATOM     32  C   UNL     1       5.234   0.640  -5.730  1.00  0.00     0.188 C 
BRANCH  32  33
ATOM     33  O   UNL     1       4.550   1.664  -6.433  1.00  0.00    -0.376 OA
BRANCH  33  34
ATOM     34  C   UNL     1       4.153   1.395  -7.769  1.00  0.00     0.202 C 
BRANCH  34  35
ATOM     35  C   UNL     1       3.170   0.235  -7.993  1.00  0.00     0.261 C 
BRANCH  35  36
ATOM     36  O   UNL     1       3.618  -1.068  -7.584  1.00  0.00    -0.460 OA
BRANCH  36  37
ATOM     37  C   UNL     1       4.761  -1.535  -8.140  1.00  0.00     0.338 C 
ATOM     38  O   UNL     1       5.431  -0.995  -8.992  1.00  0.00    -0.246 OA
BRANCH  37  39
ATOM     39  C   UNL     1       5.173  -2.736  -7.378  1.00  0.00     0.060 A 
ATOM     40  C   UNL     1       6.403  -2.723  -6.708  1.00  0.00     0.016 A 
ATOM     41  C   UNL     1       4.354  -3.866  -7.330  1.00  0.00     0.016 A 
ATOM     42  C   UNL     1       6.835  -3.856  -6.019  1.00  0.00     0.010 A 
ATOM     43  C   UNL     1       4.799  -5.009  -6.658  1.00  0.00     0.010 A 
ATOM     44  C   UNL     1       6.057  -5.021  -6.028  1.00  0.00    -0.014 A 
BRANCH  44  45
ATOM     45  C   UNL     1       6.648  -6.297  -5.550  1.00  0.00     0.031 A 
ATOM     46  C   UNL     1       7.211  -7.250  -6.571  1.00  0.00     0.074 A 
ATOM     47  C   UNL     1       6.731  -6.582  -4.238  1.00  0.00     0.049 A 
ATOM     48  N   UNL     1       7.747  -8.431  -6.401  1.00  0.00    -0.248 NA
ATOM     49  C   UNL     1       7.162  -6.808  -7.974  1.00  0.00     0.031 C 
ATOM     50  C   UNL     1       6.273  -5.714  -3.154  1.00  0.00     0.029 A 
ATOM     51  N   UNL     1       7.229  -7.688  -3.593  1.00  0.00    -0.354 N 
ATOM     52  C   UNL     1       8.100  -8.873  -7.672  1.00  0.00     0.074 A 
ATOM     53  C   UNL     1       7.679  -7.850  -8.606  1.00  0.00     0.031 C 
ATOM     54  C   UNL     1       6.506  -6.324  -1.979  1.00  0.00     0.029 A 
ATOM     55  C   UNL     1       7.088  -7.642  -2.225  1.00  0.00     0.049 A 
ATOM     56  H   UNL     1       7.648  -8.443  -4.066  1.00  0.00     0.167 HD
ATOM     57  C   UNL     1       8.726 -10.021  -8.027  1.00  0.00     0.034 A 
ATOM     58  C   UNL     1       7.371  -8.570  -1.286  1.00  0.00     0.034 A 
ATOM     59  C   UNL     1       9.127 -11.039  -7.087  1.00  0.00     0.049 A 
ATOM     60  C   UNL     1       7.973  -9.889  -1.720  1.00  0.00     0.074 A 
ATOM     61  C   UNL     1       9.769 -12.239  -7.340  1.00  0.00     0.029 A 
ATOM     62  N   UNL     1       8.915 -10.985  -5.715  1.00  0.00    -0.354 N 
ATOM     63  N   UNL     1       8.306 -10.293  -2.925  1.00  0.00    -0.248 NA
ATOM     64  C   UNL     1       8.245 -10.873  -0.663  1.00  0.00     0.031 C 
ATOM     65  C   UNL     1       9.870 -12.944  -6.136  1.00  0.00     0.029 A 
ATOM     66  C   UNL     1       9.379 -12.146  -5.116  1.00  0.00     0.049 A 
ATOM     67  H   UNL     1       8.497 -10.232  -5.239  1.00  0.00     0.167 HD
ATOM     68  C   UNL     1       8.859 -11.562  -2.762  1.00  0.00     0.074 A 
ATOM     69  C   UNL     1       8.836 -11.843  -1.342  1.00  0.00     0.031 C 
ATOM     70  C   UNL     1       9.344 -12.419  -3.698  1.00  0.00     0.034 A 
BRANCH  57  71
ATOM     71  C   UNL     1       8.969 -10.258  -9.498  1.00  0.00     0.023 A 
ATOM     72  C   UNL     1       9.825  -9.436 -10.251  1.00  0.00     0.031 A 
ATOM     73  C   UNL     1       8.329 -11.322 -10.159  1.00  0.00     0.131 A 
ATOM     74  C   UNL     1       9.973  -9.656 -11.629  1.00  0.00     0.055 A 
ATOM     75  C   UNL     1       8.543 -11.584 -11.513  1.00  0.00     0.041 A 
ATOM     76  F   UNL     1       7.479 -12.124  -9.498  1.00  0.00    -0.206 F 
ATOM     77  C   UNL     1       9.360 -10.742 -12.259  1.00  0.00     0.022 A 
BRANCH  74  78
ATOM     78  S   UNL     1      10.876  -8.428 -12.613  1.00  0.00     0.124 S 
ATOM     79  O   UNL     1      10.096  -7.219 -12.363  1.00  0.00    -0.237 OA
ATOM     80  O   UNL     1      12.207  -8.465 -12.019  1.00  0.00    -0.237 OA
ATOM     81  O   UNL     1      10.786  -8.948 -13.976  1.00  0.00    -0.744 OA
ENDBRANCH  74  78
ENDBRANCH  57  71
BRANCH  58  82
ATOM     82  C   UNL     1       7.048  -8.328   0.153  1.00  0.00     0.023 A 
ATOM     83  C   UNL     1       8.047  -8.353   1.139  1.00  0.00     0.031 A 
ATOM     84  C   UNL     1       5.716  -8.161   0.575  1.00  0.00     0.131 A 
ATOM     85  C   UNL     1       7.695  -8.282   2.497  1.00  0.00     0.055 A 
ATOM     86  C   UNL     1       5.378  -8.020   1.922  1.00  0.00     0.041 A 
ATOM     87  F   UNL     1       4.716  -8.137  -0.322  1.00  0.00    -0.206 F 
ATOM     88  C   UNL     1       6.369  -8.099   2.894  1.00  0.00     0.022 A 
BRANCH  85  89
ATOM     89  S   UNL     1       8.984  -8.559   3.744  1.00  0.00     0.124 S 
ATOM     90  O   UNL     1       9.484  -9.875   3.364  1.00  0.00    -0.237 OA
ATOM     91  O   UNL     1       9.883  -7.435   3.503  1.00  0.00    -0.237 OA
ATOM     92  O   UNL     1       8.251  -8.509   5.007  1.00  0.00    -0.744 OA
ENDBRANCH  85  89
ENDBRANCH  58  82
BRANCH  70  93
ATOM     93  C   UNL     1       9.934 -13.720  -3.204  1.00  0.00     0.023 A 
ATOM     94  C   UNL     1       9.154 -14.687  -2.546  1.00  0.00     0.031 A 
ATOM     95  C   UNL     1      11.305 -13.986  -3.373  1.00  0.00     0.131 A 
ATOM     96  C   UNL     1       9.761 -15.836  -2.017  1.00  0.00     0.055 A 
ATOM     97  C   UNL     1      11.890 -15.167  -2.913  1.00  0.00     0.041 A 
ATOM     98  F   UNL     1      12.103 -13.100  -3.991  1.00  0.00    -0.206 F 
ATOM     99  C   UNL     1      11.121 -16.092  -2.214  1.00  0.00     0.022 A 
BRANCH  96 100
ATOM    100  S   UNL     1       8.776 -16.933  -0.961  1.00  0.00     0.124 S 
ATOM    101  O   UNL     1       8.322 -16.019   0.083  1.00  0.00    -0.237 OA
ATOM    102  O   UNL     1       7.749 -17.411  -1.880  1.00  0.00    -0.237 OA
ATOM    103  O   UNL     1       9.737 -17.944  -0.525  1.00  0.00    -0.744 OA
ENDBRANCH  96 100
ENDBRANCH  70  93
ENDBRANCH  44  45
ENDBRANCH  37  39
ENDBRANCH  36  37
ENDBRANCH  35  36
ENDBRANCH  34  35
ENDBRANCH  33  34
ENDBRANCH  32  33
ENDBRANCH  31  32
ENDBRANCH   1  31
TORSDOF 28
