REMARK SMILES CN(Cc1ccc(Cl)cc1Cl)S(=O)(=O)CCCC(=O)OCCOCCOCCOCCOC(=O)c1ccc(-c2c3nc(c(-c4cc(S(=O)(=O)[O-])ccc4F)c4ccc([nH]4)c(-c4cc(S(=O)(=O)[O-])ccc4F)c4nc(c(-c5cc(S(=O)(=O)[O-])ccc5F)c5ccc2[nH]5)C=C4)C=C3)cc1
REMARK SMILES IDX 24 1 23 2 22 3 21 4 20 5 18 6 19 7 17 8 16 9 15 10 12 11
REMARK SMILES IDX 13 12 14 13 2 14 1 15 3 16 4 17 5 18 10 19 6 20 9 21 11 22
REMARK SMILES IDX 7 23 8 24 25 25 26 26 27 27 28 28 29 29 30 30 31 31 32 32
REMARK SMILES IDX 33 33 34 34 35 35 36 36 97 37 37 38 96 39 38 40 39 41 40 42
REMARK SMILES IDX 90 43 41 44 95 45 89 46 91 47 42 48 94 49 88 50 87 51 43 53
REMARK SMILES IDX 75 54 55 55 74 56 56 57 59 58 73 59 92 60 57 61 58 62 72 64
REMARK SMILES IDX 93 65 60 66 44 67 45 68 53 69 46 70 52 71 54 72 51 73 47 74
REMARK SMILES IDX 48 75 49 76 50 77 76 78 77 79 85 80 78 81 84 82 86 83 83 84
REMARK SMILES IDX 79 85 80 86 81 87 82 88 61 89 62 90 70 91 63 92 69 93 71 94
REMARK SMILES IDX 68 95 64 96 65 97 66 98 67 99
REMARK H PARENT 91 52 59 63
REMARK Flexibility Score: inf
ROOT
ATOM      1  C   UNL     1      -2.139  -2.715  -5.578  1.00  0.00     0.188 C 
ENDROOT
BRANCH   1   2
ATOM      2  O   UNL     1      -3.462  -2.632  -5.089  1.00  0.00    -0.376 OA
BRANCH   2   3
ATOM      3  C   UNL     1      -3.746  -1.926  -3.894  1.00  0.00     0.202 C 
BRANCH   3   4
ATOM      4  C   UNL     1      -2.702  -1.645  -2.800  1.00  0.00     0.261 C 
BRANCH   4   5
ATOM      5  O   UNL     1      -1.324  -1.501  -3.207  1.00  0.00    -0.463 OA
BRANCH   5   6
ATOM      6  C   UNL     1      -0.410  -2.288  -2.604  1.00  0.00     0.305 C 
ATOM      7  O   UNL     1      -0.698  -3.153  -1.782  1.00  0.00    -0.252 OA
BRANCH   6   8
ATOM      8  C   UNL     1       1.033  -2.078  -3.044  1.00  0.00     0.124 C 
BRANCH   8   9
ATOM      9  C   UNL     1       1.577  -0.917  -3.890  1.00  0.00     0.029 C 
BRANCH   9  10
ATOM     10  C   UNL     1       1.251   0.528  -3.542  1.00  0.00     0.155 C 
BRANCH  10  11
ATOM     11  S   UNL     1       1.799   1.026  -1.912  1.00  0.00     0.214 S 
ATOM     12  O   UNL     1       1.683   2.458  -1.766  1.00  0.00    -0.212 OA
ATOM     13  O   UNL     1       3.079   0.387  -1.671  1.00  0.00    -0.212 OA
BRANCH  11  14
ATOM     14  N   UNL     1       0.671   0.298  -0.891  1.00  0.00    -0.201 NA
ATOM     15  C   UNL     1       1.082   0.213   0.523  1.00  0.00     0.124 C 
BRANCH  14  16
ATOM     16  C   UNL     1      -0.778   0.552  -1.102  1.00  0.00     0.138 C 
BRANCH  16  17
ATOM     17  C   UNL     1      -1.400   1.770  -0.489  1.00  0.00    -0.014 A 
ATOM     18  C   UNL     1      -1.979   1.641   0.783  1.00  0.00     0.008 A 
ATOM     19  C   UNL     1      -1.424   3.024  -1.124  1.00  0.00     0.047 A 
ATOM     20  C   UNL     1      -2.402   2.767   1.472  1.00  0.00     0.021 A 
ATOM     21  C   UNL     1      -1.786   4.160  -0.409  1.00  0.00     0.041 A 
ATOM     22  Cl  UNL     1      -1.103   3.221  -2.812  1.00  0.00    -0.084 Cl
ATOM     23  C   UNL     1      -2.217   4.021   0.905  1.00  0.00     0.042 A 
ATOM     24  Cl  UNL     1      -2.453   5.398   1.884  1.00  0.00    -0.084 Cl
ENDBRANCH  16  17
ENDBRANCH  14  16
ENDBRANCH  11  14
ENDBRANCH  10  11
ENDBRANCH   9  10
ENDBRANCH   8   9
ENDBRANCH   6   8
ENDBRANCH   5   6
ENDBRANCH   4   5
ENDBRANCH   3   4
ENDBRANCH   2   3
ENDBRANCH   1   2
BRANCH   1  25
ATOM     25  C   UNL     1      -1.388  -1.429  -5.962  1.00  0.00     0.188 C 
BRANCH  25  26
ATOM     26  O   UNL     1      -1.856  -0.219  -5.399  1.00  0.00    -0.377 OA
BRANCH  26  27
ATOM     27  C   UNL     1      -2.932   0.466  -6.032  1.00  0.00     0.188 C 
BRANCH  27  28
ATOM     28  C   UNL     1      -3.811  -0.258  -7.071  1.00  0.00     0.188 C 
BRANCH  28  29
ATOM     29  O   UNL     1      -3.112  -1.150  -7.927  1.00  0.00    -0.376 OA
BRANCH  29  30
ATOM     30  C   UNL     1      -2.668  -0.681  -9.191  1.00  0.00     0.202 C 
BRANCH  30  31
ATOM     31  C   UNL     1      -1.684   0.502  -9.220  1.00  0.00     0.261 C 
BRANCH  31  32
ATOM     32  O   UNL     1      -2.151   1.733  -8.648  1.00  0.00    -0.460 OA
BRANCH  32  33
ATOM     33  C   UNL     1      -3.281   2.265  -9.167  1.00  0.00     0.338 C 
ATOM     34  O   UNL     1      -3.921   1.841 -10.106  1.00  0.00    -0.246 OA
BRANCH  33  35
ATOM     35  C   UNL     1      -3.721   3.354  -8.270  1.00  0.00     0.060 A 
ATOM     36  C   UNL     1      -4.966   3.244  -7.640  1.00  0.00     0.016 A 
ATOM     37  C   UNL     1      -2.924   4.484  -8.073  1.00  0.00     0.016 A 
ATOM     38  C   UNL     1      -5.437   4.286  -6.843  1.00  0.00     0.010 A 
ATOM     39  C   UNL     1      -3.408   5.537  -7.290  1.00  0.00     0.010 A 
ATOM     40  C   UNL     1      -4.682   5.458  -6.701  1.00  0.00    -0.014 A 
BRANCH  40  41
ATOM     41  C   UNL     1      -5.320   6.656  -6.099  1.00  0.00     0.031 A 
ATOM     42  C   UNL     1      -5.878   7.712  -7.021  1.00  0.00     0.074 A 
ATOM     43  C   UNL     1      -5.467   6.771  -4.766  1.00  0.00     0.049 A 
ATOM     44  N   UNL     1      -6.468   8.843  -6.731  1.00  0.00    -0.248 NA
ATOM     45  C   UNL     1      -5.751   7.455  -8.465  1.00  0.00     0.031 C 
ATOM     46  C   UNL     1      -5.006   5.801  -3.771  1.00  0.00     0.029 A 
ATOM     47  N   UNL     1      -6.053   7.761  -4.019  1.00  0.00    -0.354 N 
ATOM     48  C   UNL     1      -6.786   9.430  -7.953  1.00  0.00     0.074 A 
ATOM     49  C   UNL     1      -6.285   8.549  -8.986  1.00  0.00     0.031 C 
ATOM     50  C   UNL     1      -5.324   6.249  -2.543  1.00  0.00     0.029 A 
ATOM     51  C   UNL     1      -5.983   7.548  -2.662  1.00  0.00     0.049 A 
ATOM     52  H   UNL     1      -6.484   8.552  -4.417  1.00  0.00     0.167 HD
ATOM     53  C   UNL     1      -7.445  10.591  -8.192  1.00  0.00     0.034 A 
ATOM     54  C   UNL     1      -6.381   8.330  -1.639  1.00  0.00     0.034 A 
ATOM     55  C   UNL     1      -7.927  11.469  -7.154  1.00  0.00     0.049 A 
ATOM     56  C   UNL     1      -7.018   9.666  -1.936  1.00  0.00     0.074 A 
ATOM     57  C   UNL     1      -8.603  12.670  -7.287  1.00  0.00     0.029 A 
ATOM     58  N   UNL     1      -7.778  11.249  -5.792  1.00  0.00    -0.354 N 
ATOM     59  N   UNL     1      -7.301  10.213  -3.095  1.00  0.00    -0.248 NA
ATOM     60  C   UNL     1      -7.389  10.487  -0.776  1.00  0.00     0.031 C 
ATOM     61  C   UNL     1      -8.793  13.212  -6.013  1.00  0.00     0.029 A 
ATOM     62  C   UNL     1      -8.319  12.307  -5.077  1.00  0.00     0.049 A 
ATOM     63  H   UNL     1      -7.351  10.457  -5.391  1.00  0.00     0.167 HD
ATOM     64  C   UNL     1      -7.907  11.433  -2.797  1.00  0.00     0.074 A 
ATOM     65  C   UNL     1      -7.974  11.523  -1.354  1.00  0.00     0.031 C 
ATOM     66  C   UNL     1      -8.365  12.395  -3.638  1.00  0.00     0.034 A 
BRANCH  53  67
ATOM     67  C   UNL     1      -7.643  11.001  -9.631  1.00  0.00     0.023 A 
ATOM     68  C   UNL     1      -8.449  10.256 -10.510  1.00  0.00     0.031 A 
ATOM     69  C   UNL     1      -7.024  12.162 -10.129  1.00  0.00     0.131 A 
ATOM     70  C   UNL     1      -8.574  10.652 -11.850  1.00  0.00     0.055 A 
ATOM     71  C   UNL     1      -7.215  12.592 -11.443  1.00  0.00     0.041 A 
ATOM     72  F   UNL     1      -6.223  12.899  -9.344  1.00  0.00    -0.206 F 
ATOM     73  C   UNL     1      -7.986  11.831 -12.315  1.00  0.00     0.022 A 
BRANCH  70  74
ATOM     74  S   UNL     1      -9.422   9.544 -13.009  1.00  0.00     0.124 S 
ATOM     75  O   UNL     1      -8.605   8.336 -12.912  1.00  0.00    -0.237 OA
ATOM     76  O   UNL     1     -10.762   9.456 -12.440  1.00  0.00    -0.237 OA
ATOM     77  O   UNL     1      -9.330  10.248 -14.286  1.00  0.00    -0.744 OA
ENDBRANCH  70  74
ENDBRANCH  53  67
BRANCH  54  78
ATOM     78  C   UNL     1      -6.108   7.960  -0.222  1.00  0.00     0.023 A 
ATOM     79  C   UNL     1      -7.150   7.750   0.698  1.00  0.00     0.031 A 
ATOM     80  C   UNL     1      -4.793   8.006   0.264  1.00  0.00     0.131 A 
ATOM     81  C   UNL     1      -6.860   7.657   2.069  1.00  0.00     0.055 A 
ATOM     82  C   UNL     1      -4.514   7.893   1.624  1.00  0.00     0.041 A 
ATOM     83  F   UNL     1      -3.762   8.197  -0.575  1.00  0.00    -0.206 F 
ATOM     84  C   UNL     1      -5.546   7.708   2.536  1.00  0.00     0.022 A 
BRANCH  81  85
ATOM     85  S   UNL     1      -8.231   7.623   3.255  1.00  0.00     0.124 S 
ATOM     86  O   UNL     1      -8.834   8.933   3.041  1.00  0.00    -0.237 OA
ATOM     87  O   UNL     1      -9.008   6.476   2.795  1.00  0.00    -0.237 OA
ATOM     88  O   UNL     1      -7.565   7.441   4.543  1.00  0.00    -0.744 OA
ENDBRANCH  81  85
ENDBRANCH  54  78
BRANCH  66  89
ATOM     89  C   UNL     1      -9.022  13.599  -3.005  1.00  0.00     0.023 A 
ATOM     90  C   UNL     1      -8.308  14.479  -2.172  1.00  0.00     0.031 A 
ATOM     91  C   UNL     1     -10.393  13.841  -3.198  1.00  0.00     0.131 A 
ATOM     92  C   UNL     1      -8.984  15.506  -1.498  1.00  0.00     0.055 A 
ATOM     93  C   UNL     1     -11.044  14.914  -2.588  1.00  0.00     0.041 A 
ATOM     94  F   UNL     1     -11.129  13.032  -3.978  1.00  0.00    -0.206 F 
ATOM     95  C   UNL     1     -10.343  15.742  -1.716  1.00  0.00     0.022 A 
BRANCH  92  96
ATOM     96  S   UNL     1      -8.092  16.442  -0.226  1.00  0.00     0.124 S 
ATOM     97  O   UNL     1      -7.649  15.383   0.674  1.00  0.00    -0.237 OA
ATOM     98  O   UNL     1      -7.045  17.101  -1.000  1.00  0.00    -0.237 OA
ATOM     99  O   UNL     1      -9.112  17.335   0.321  1.00  0.00    -0.744 OA
ENDBRANCH  92  96
ENDBRANCH  66  89
ENDBRANCH  40  41
ENDBRANCH  33  35
ENDBRANCH  32  33
ENDBRANCH  31  32
ENDBRANCH  30  31
ENDBRANCH  29  30
ENDBRANCH  28  29
ENDBRANCH  27  28
ENDBRANCH  26  27
ENDBRANCH  25  26
ENDBRANCH   1  25
TORSDOF 29
