REMARK SMILES C[C@@H](C(=O)OCCOCCOCCOCCOC(=O)c1ccc(-c2c3nc(c(-c4cc(S(=O)(=O)[O-])ccc4F)c4ccc([nH]4)c(-c4cc(S(=O)(=O)[O-])ccc4F)c4nc(c(-c5cc(S(=O)(=O)[O-])ccc5F)c5ccc2[nH]5)C=C4)C=C3)cc1)N1C(=O)/C(=C/c2nc3ccccc3[nH]2)SC1=S
REMARK SMILES IDX 12 1 11 2 10 3 9 4 8 5 7 6 6 7 5 8 3 9 4 10 2 11 1 12 83 13
REMARK SMILES IDX 84 14 98 15 85 16 86 17 97 18 99 19 87 20 88 21 89 22 96 23
REMARK SMILES IDX 90 24 95 25 91 27 94 28 92 29 93 30 13 31 14 32 15 33 16 34
REMARK SMILES IDX 17 35 18 36 19 37 20 38 21 39 82 40 22 41 81 42 23 43 24 44
REMARK SMILES IDX 25 45 75 46 26 47 80 48 74 49 76 50 27 51 79 52 73 53 72 54
REMARK SMILES IDX 28 56 60 57 40 58 59 59 41 60 44 61 58 62 77 63 42 64 43 65
REMARK SMILES IDX 57 67 78 68 45 69 29 70 30 71 38 72 31 73 37 74 39 75 36 76
REMARK SMILES IDX 32 77 33 78 34 79 35 80 61 81 62 82 70 83 63 84 69 85 71 86
REMARK SMILES IDX 68 87 64 88 65 89 66 90 67 91 46 92 47 93 55 94 48 95 54 96
REMARK SMILES IDX 56 97 53 98 49 99 50 100 51 101 52 102
REMARK H PARENT 96 26 76 55 44 66
REMARK Flexibility Score: inf
ROOT
ATOM      1  C   UNL     1       3.233   4.184   0.429  1.00  0.00     0.188 C 
ENDROOT
BRANCH   1   2
ATOM      2  O   UNL     1       2.723   2.969   0.956  1.00  0.00    -0.377 OA
BRANCH   2   3
ATOM      3  C   UNL     1       1.343   2.758   0.764  1.00  0.00     0.188 C 
BRANCH   3   4
ATOM      4  C   UNL     1       0.453   3.189   1.951  1.00  0.00     0.188 C 
BRANCH   4   5
ATOM      5  O   UNL     1       1.038   3.677   3.147  1.00  0.00    -0.376 OA
BRANCH   5   6
ATOM      6  C   UNL     1       2.244   3.105   3.625  1.00  0.00     0.202 C 
BRANCH   6   7
ATOM      7  C   UNL     1       2.432   1.574   3.713  1.00  0.00     0.261 C 
BRANCH   7   8
ATOM      8  O   UNL     1       1.930   0.751   2.637  1.00  0.00    -0.462 OA
BRANCH   8   9
ATOM      9  C   UNL     1       0.760   0.093   2.844  1.00  0.00     0.329 C 
ATOM     10  O   UNL     1       0.100   0.179   3.876  1.00  0.00    -0.250 OA
BRANCH   9  11
ATOM     11  C   UNL     1       0.321  -0.808   1.660  1.00  0.00     0.199 C 
ATOM     12  C   UNL     1       1.107  -0.807   0.354  1.00  0.00     0.044 C 
BRANCH  11  13
ATOM     13  N   UNL     1      -1.149  -0.685   1.510  1.00  0.00    -0.279 N 
ATOM     14  C   UNL     1      -1.966  -1.724   1.936  1.00  0.00     0.267 C 
ATOM     15  C   UNL     1      -1.862   0.405   1.054  1.00  0.00     0.149 C 
ATOM     16  O   UNL     1      -1.629  -2.867   2.204  1.00  0.00    -0.268 OA
ATOM     17  C   UNL     1      -3.383  -1.270   1.888  1.00  0.00     0.084 C 
ATOM     18  S   UNL     1      -3.379   0.451   1.921  1.00  0.00    -0.054 SA
ATOM     19  S   UNL     1      -1.607   1.413  -0.243  1.00  0.00    -0.052 S 
ATOM     20  C   UNL     1      -4.419  -2.075   1.614  1.00  0.00     0.068 C 
BRANCH  20  21
ATOM     21  C   UNL     1      -5.665  -1.504   1.259  1.00  0.00     0.132 A 
ATOM     22  N   UNL     1      -5.917  -0.481   0.467  1.00  0.00    -0.229 NA
ATOM     23  N   UNL     1      -6.818  -1.950   1.852  1.00  0.00    -0.338 N 
ATOM     24  C   UNL     1      -7.212  -0.127   0.714  1.00  0.00     0.089 A 
ATOM     25  C   UNL     1      -7.812  -1.042   1.571  1.00  0.00     0.066 A 
ATOM     26  H   UNL     1      -6.917  -2.773   2.383  1.00  0.00     0.168 HD
ATOM     27  C   UNL     1      -7.931   0.988   0.267  1.00  0.00     0.030 A 
ATOM     28  C   UNL     1      -9.132  -0.920   2.004  1.00  0.00     0.028 A 
ATOM     29  C   UNL     1      -9.249   1.147   0.706  1.00  0.00     0.002 A 
ATOM     30  C   UNL     1      -9.838   0.204   1.553  1.00  0.00     0.002 A 
ENDBRANCH  20  21
ENDBRANCH  11  13
ENDBRANCH   9  11
ENDBRANCH   8   9
ENDBRANCH   7   8
ENDBRANCH   6   7
ENDBRANCH   5   6
ENDBRANCH   4   5
ENDBRANCH   3   4
ENDBRANCH   2   3
ENDBRANCH   1   2
BRANCH   1  31
ATOM     31  C   UNL     1       2.347   5.442   0.541  1.00  0.00     0.188 C 
BRANCH  31  32
ATOM     32  O   UNL     1       1.029   5.285   0.020  1.00  0.00    -0.376 OA
BRANCH  32  33
ATOM     33  C   UNL     1       0.741   5.759  -1.288  1.00  0.00     0.202 C 
BRANCH  33  34
ATOM     34  C   UNL     1       1.339   4.966  -2.461  1.00  0.00     0.261 C 
BRANCH  34  35
ATOM     35  O   UNL     1       2.771   4.891  -2.502  1.00  0.00    -0.460 OA
BRANCH  35  36
ATOM     36  C   UNL     1       3.452   6.062  -2.529  1.00  0.00     0.338 C 
ATOM     37  O   UNL     1       2.988   7.174  -2.606  1.00  0.00    -0.246 OA
BRANCH  36  38
ATOM     38  C   UNL     1       4.866   5.748  -2.218  1.00  0.00     0.060 A 
ATOM     39  C   UNL     1       5.453   6.345  -1.095  1.00  0.00     0.016 A 
ATOM     40  C   UNL     1       5.589   4.849  -3.005  1.00  0.00     0.016 A 
ATOM     41  C   UNL     1       6.778   6.061  -0.768  1.00  0.00     0.010 A 
ATOM     42  C   UNL     1       6.926   4.591  -2.695  1.00  0.00     0.010 A 
ATOM     43  C   UNL     1       7.534   5.221  -1.594  1.00  0.00    -0.014 A 
BRANCH  43  44
ATOM     44  C   UNL     1       9.008   5.193  -1.445  1.00  0.00     0.031 A 
ATOM     45  C   UNL     1       9.816   6.108  -2.325  1.00  0.00     0.074 A 
ATOM     46  C   UNL     1       9.613   4.408  -0.536  1.00  0.00     0.049 A 
ATOM     47  N   UNL     1      11.112   6.237  -2.426  1.00  0.00    -0.248 NA
ATOM     48  C   UNL     1       9.050   6.996  -3.215  1.00  0.00     0.031 C 
ATOM     49  C   UNL     1       8.928   3.531   0.413  1.00  0.00     0.029 A 
ATOM     50  N   UNL     1      10.945   4.222  -0.266  1.00  0.00    -0.354 N 
ATOM     51  C   UNL     1      11.318   7.214  -3.395  1.00  0.00     0.074 A 
ATOM     52  C   UNL     1      10.014   7.616  -3.874  1.00  0.00     0.031 C 
ATOM     53  C   UNL     1       9.850   2.894   1.157  1.00  0.00     0.029 A 
ATOM     54  C   UNL     1      11.186   3.282   0.709  1.00  0.00     0.049 A 
ATOM     55  H   UNL     1      11.662   4.715  -0.727  1.00  0.00     0.167 HD
ATOM     56  C   UNL     1      12.489   7.730  -3.839  1.00  0.00     0.034 A 
ATOM     57  C   UNL     1      12.353   2.777   1.162  1.00  0.00     0.034 A 
ATOM     58  C   UNL     1      13.780   7.304  -3.360  1.00  0.00     0.049 A 
ATOM     59  C   UNL     1      13.648   3.292   0.573  1.00  0.00     0.074 A 
ATOM     60  C   UNL     1      15.031   7.763  -3.731  1.00  0.00     0.029 A 
ATOM     61  N   UNL     1      13.988   6.305  -2.416  1.00  0.00    -0.354 N 
ATOM     62  N   UNL     1      13.834   4.219  -0.340  1.00  0.00    -0.248 NA
ATOM     63  C   UNL     1      14.891   2.695   1.080  1.00  0.00     0.031 C 
ATOM     64  C   UNL     1      15.993   6.986  -3.080  1.00  0.00     0.029 A 
ATOM     65  C   UNL     1      15.346   6.106  -2.226  1.00  0.00     0.049 A 
ATOM     66  H   UNL     1      13.275   5.811  -1.951  1.00  0.00     0.167 HD
ATOM     67  C   UNL     1      15.215   4.341  -0.484  1.00  0.00     0.074 A 
ATOM     68  C   UNL     1      15.812   3.402   0.443  1.00  0.00     0.031 C 
ATOM     69  C   UNL     1      15.928   5.160  -1.302  1.00  0.00     0.034 A 
BRANCH  56  70
ATOM     70  C   UNL     1      12.421   8.758  -4.941  1.00  0.00     0.023 A 
ATOM     71  C   UNL     1      11.799  10.006  -4.759  1.00  0.00     0.031 A 
ATOM     72  C   UNL     1      12.960   8.470  -6.208  1.00  0.00     0.131 A 
ATOM     73  C   UNL     1      11.671  10.888  -5.843  1.00  0.00     0.055 A 
ATOM     74  C   UNL     1      12.904   9.387  -7.259  1.00  0.00     0.041 A 
ATOM     75  F   UNL     1      13.538   7.284  -6.451  1.00  0.00    -0.206 F 
ATOM     76  C   UNL     1      12.244  10.599  -7.084  1.00  0.00     0.022 A 
BRANCH  73  77
ATOM     77  S   UNL     1      10.617  12.352  -5.650  1.00  0.00     0.124 S 
ATOM     78  O   UNL     1       9.335  11.747  -5.295  1.00  0.00    -0.237 OA
ATOM     79  O   UNL     1      11.291  13.089  -4.588  1.00  0.00    -0.237 OA
ATOM     80  O   UNL     1      10.657  12.979  -6.970  1.00  0.00    -0.744 OA
ENDBRANCH  73  77
ENDBRANCH  56  70
BRANCH  57  81
ATOM     81  C   UNL     1      12.369   1.698   2.193  1.00  0.00     0.023 A 
ATOM     82  C   UNL     1      12.992   1.889   3.437  1.00  0.00     0.031 A 
ATOM     83  C   UNL     1      11.825   0.429   1.921  1.00  0.00     0.131 A 
ATOM     84  C   UNL     1      13.105   0.817   4.337  1.00  0.00     0.055 A 
ATOM     85  C   UNL     1      11.884  -0.616   2.845  1.00  0.00     0.041 A 
ATOM     86  F   UNL     1      11.224   0.185   0.745  1.00  0.00    -0.206 F 
ATOM     87  C   UNL     1      12.541  -0.429   4.056  1.00  0.00     0.022 A 
BRANCH  84  88
ATOM     88  S   UNL     1      14.094   1.046   5.841  1.00  0.00     0.124 S 
ATOM     89  O   UNL     1      15.392   1.414   5.288  1.00  0.00    -0.237 OA
ATOM     90  O   UNL     1      13.362   2.107   6.525  1.00  0.00    -0.237 OA
ATOM     91  O   UNL     1      14.038  -0.264   6.487  1.00  0.00    -0.744 OA
ENDBRANCH  84  88
ENDBRANCH  57  81
BRANCH  69  92
ATOM     92  C   UNL     1      17.434   5.116  -1.186  1.00  0.00     0.023 A 
ATOM     93  C   UNL     1      18.176   3.974  -1.532  1.00  0.00     0.031 A 
ATOM     94  C   UNL     1      18.137   6.243  -0.720  1.00  0.00     0.131 A 
ATOM     95  C   UNL     1      19.568   3.963  -1.352  1.00  0.00     0.055 A 
ATOM     96  C   UNL     1      19.528   6.250  -0.610  1.00  0.00     0.041 A 
ATOM     97  F   UNL     1      17.481   7.362  -0.371  1.00  0.00    -0.206 F 
ATOM     98  C   UNL     1      20.250   5.101  -0.913  1.00  0.00     0.022 A 
BRANCH  95  99
ATOM     99  S   UNL     1      20.467   2.408  -1.601  1.00  0.00     0.124 S 
ATOM    100  O   UNL     1      19.800   1.518  -0.656  1.00  0.00    -0.237 OA
ATOM    101  O   UNL     1      20.229   2.131  -3.013  1.00  0.00    -0.237 OA
ATOM    102  O   UNL     1      21.847   2.751  -1.260  1.00  0.00    -0.744 OA
ENDBRANCH  95  99
ENDBRANCH  69  92
ENDBRANCH  43  44
ENDBRANCH  36  38
ENDBRANCH  35  36
ENDBRANCH  34  35
ENDBRANCH  33  34
ENDBRANCH  32  33
ENDBRANCH  31  32
ENDBRANCH   1  31
TORSDOF 25
