REMARK SMILES Cc1ccc(C2=NN(C(=O)CCC(=O)OCCOCCOCCOCCOC(=O)c3ccc(-c4c5nc(c(-c6cc(S(=O)(=O)[O-])ccc6F)c6ccc([nH]6)c(-c6cc(S(=O)(=O)[O-])ccc6F)c6nc(c(-c7cc(S(=O)(=O)[O-])ccc7F)c7ccc4[nH]7)C=C6)C=C5)cc3)[C@H](C[C@H]3C=c4cccc(C)c4=NC3=O)C2)cc1
REMARK SMILES IDX 20 1 19 2 18 3 17 4 16 5 15 6 13 7 14 8 12 9 11 10 9 11
REMARK SMILES IDX 10 12 8 13 6 14 7 15 107 16 93 17 5 18 1 19 2 20 3 21 109 22
REMARK SMILES IDX 4 23 108 24 94 25 95 26 96 27 105 28 97 29 104 30 106 31
REMARK SMILES IDX 98 32 103 33 99 34 101 35 100 36 102 37 21 38 22 39 23 40
REMARK SMILES IDX 24 41 25 42 26 43 27 44 28 45 29 46 30 47 31 48 92 49 32 50
REMARK SMILES IDX 91 51 33 52 34 53 35 54 85 55 36 56 90 57 84 58 86 59 37 60
REMARK SMILES IDX 89 61 83 62 82 63 38 65 70 66 50 67 69 68 51 69 54 70 68 71
REMARK SMILES IDX 87 72 52 73 53 74 67 76 88 77 55 78 39 79 40 80 48 81 41 82
REMARK SMILES IDX 47 83 49 84 46 85 42 86 43 87 44 88 45 89 71 90 72 91 80 92
REMARK SMILES IDX 73 93 79 94 81 95 78 96 74 97 75 98 76 99 77 100 56 101
REMARK SMILES IDX 57 102 65 103 58 104 64 105 66 106 63 107 59 108 60 109
REMARK SMILES IDX 61 110 62 111
REMARK H PARENT 86 64 54 75
REMARK Flexibility Score: inf
ROOT
ATOM      1  C   UNL     1      -7.848  -0.512  -0.432  1.00  0.00     0.188 C 
ENDROOT
BRANCH   1   2
ATOM      2  C   UNL     1      -9.129   0.113  -1.378  1.00  0.00     0.188 C 
BRANCH   2   3
ATOM      3  O   UNL     1      -8.964   0.865  -2.596  1.00  0.00    -0.376 OA
BRANCH   3   4
ATOM      4  C   UNL     1      -8.286   2.111  -2.504  1.00  0.00     0.202 C 
BRANCH   4   5
ATOM      5  C   UNL     1      -8.598   2.950  -1.297  1.00  0.00     0.261 C 
BRANCH   5   6
ATOM      6  O   UNL     1      -8.198   2.169  -0.149  1.00  0.00    -0.463 OA
BRANCH   6   7
ATOM      7  C   UNL     1      -8.891   2.096   0.983  1.00  0.00     0.306 C 
ATOM      8  O   UNL     1      -9.928   2.725   1.168  1.00  0.00    -0.252 OA
BRANCH   7   9
ATOM      9  C   UNL     1      -8.378   1.015   1.980  1.00  0.00     0.132 C 
BRANCH   9  10
ATOM     10  C   UNL     1      -7.172  -0.075   2.146  1.00  0.00     0.114 C 
BRANCH  10  11
ATOM     11  C   UNL     1      -5.921  -1.196   1.643  1.00  0.00     0.243 C 
ATOM     12  O   UNL     1      -6.046  -2.198   2.380  1.00  0.00    -0.273 OA
BRANCH  11  13
ATOM     13  N   UNL     1      -4.760  -1.141   0.541  1.00  0.00    -0.230 N 
ATOM     14  C   UNL     1      -1.839  -0.767  -0.350  1.00  0.00     0.070 C 
ATOM     15  N   UNL     1      -2.715  -1.312   0.874  1.00  0.00    -0.174 NA
ATOM     16  C   UNL     1      -3.028  -0.184  -1.858  1.00  0.00     0.086 C 
ATOM     17  C   UNL     1      -4.967  -0.585  -1.359  1.00  0.00     0.118 C 
BRANCH  14  18
ATOM     18  C   UNL     1      -0.435  -0.471  -0.256  1.00  0.00    -0.002 A 
ATOM     19  C   UNL     1       3.734   0.186   0.042  1.00  0.00     0.044 C 
ATOM     20  C   UNL     1       2.254  -0.012   0.029  1.00  0.00    -0.051 A 
ATOM     21  C   UNL     1       1.751  -1.322   0.089  1.00  0.00     0.004 A 
ATOM     22  C   UNL     1       1.380   1.078  -0.089  1.00  0.00     0.004 A 
ATOM     23  C   UNL     1       0.395  -1.553  -0.030  1.00  0.00     0.010 A 
ATOM     24  C   UNL     1       0.018   0.850  -0.241  1.00  0.00     0.010 A 
ENDBRANCH  14  18
BRANCH  17  25
ATOM     25  C   UNL     1      -6.688  -0.885  -2.338  1.00  0.00     0.045 C 
BRANCH  25  26
ATOM     26  C   UNL     1      -8.149  -2.229  -2.005  1.00  0.00     0.106 C 
ATOM     27  C   UNL     1      -8.494  -2.827  -0.428  1.00  0.00    -0.003 C 
ATOM     28  C   UNL     1      -9.582  -2.565  -2.611  1.00  0.00     0.253 C 
ATOM     29  C   UNL     1      -9.516  -3.465   0.117  1.00  0.00    -0.003 A 
ATOM     30  N   UNL     1     -10.073  -3.855  -2.251  1.00  0.00    -0.212 NA
ATOM     31  O   UNL     1     -10.141  -1.883  -3.461  1.00  0.00    -0.272 OA
ATOM     32  C   UNL     1      -9.308  -3.938   1.486  1.00  0.00     0.010 A 
ATOM     33  C   UNL     1      -9.944  -4.277  -1.017  1.00  0.00     0.077 A 
ATOM     34  C   UNL     1      -9.255  -5.254   1.707  1.00  0.00     0.001 A 
ATOM     35  C   UNL     1      -9.930  -5.746  -0.617  1.00  0.00    -0.025 A 
ATOM     36  C   UNL     1      -9.578  -6.155   0.627  1.00  0.00     0.005 A 
ATOM     37  C   UNL     1     -10.048  -6.694  -1.746  1.00  0.00     0.047 C 
ENDBRANCH  25  26
ENDBRANCH  17  25
ENDBRANCH  11  13
ENDBRANCH  10  11
ENDBRANCH   9  10
ENDBRANCH   7   9
ENDBRANCH   6   7
ENDBRANCH   5   6
ENDBRANCH   4   5
ENDBRANCH   3   4
ENDBRANCH   2   3
ENDBRANCH   1   2
BRANCH   1  38
ATOM     38  O   UNL     1      -6.597  -1.725  -0.526  1.00  0.00    -0.377 OA
BRANCH  38  39
ATOM     39  C   UNL     1      -6.018  -2.984  -1.531  1.00  0.00     0.188 C 
BRANCH  39  40
ATOM     40  C   UNL     1      -5.530  -2.822  -3.081  1.00  0.00     0.188 C 
BRANCH  40  41
ATOM     41  O   UNL     1      -6.515  -2.470  -4.075  1.00  0.00    -0.376 OA
BRANCH  41  42
ATOM     42  C   UNL     1      -7.193  -3.375  -4.898  1.00  0.00     0.202 C 
BRANCH  42  43
ATOM     43  C   UNL     1      -6.105  -4.202  -5.494  1.00  0.00     0.261 C 
BRANCH  43  44
ATOM     44  O   UNL     1      -5.306  -3.205  -6.291  1.00  0.00    -0.460 OA
BRANCH  44  45
ATOM     45  C   UNL     1      -4.204  -2.496  -5.838  1.00  0.00     0.338 C 
ATOM     46  O   UNL     1      -3.105  -3.041  -5.769  1.00  0.00    -0.246 OA
BRANCH  45  47
ATOM     47  C   UNL     1      -4.324  -0.961  -5.464  1.00  0.00     0.060 A 
ATOM     48  C   UNL     1      -3.246  -0.227  -4.938  1.00  0.00     0.016 A 
ATOM     49  C   UNL     1      -5.486  -0.212  -5.429  1.00  0.00     0.016 A 
ATOM     50  C   UNL     1      -3.413   1.008  -4.134  1.00  0.00     0.010 A 
ATOM     51  C   UNL     1      -5.644   0.909  -4.491  1.00  0.00     0.010 A 
ATOM     52  C   UNL     1      -4.659   1.389  -3.585  1.00  0.00    -0.014 A 
BRANCH  52  53
ATOM     53  C   UNL     1      -5.049   2.495  -2.286  1.00  0.00     0.031 A 
ATOM     54  C   UNL     1      -5.403   3.756  -3.042  1.00  0.00     0.074 A 
ATOM     55  C   UNL     1      -5.371   2.461  -0.810  1.00  0.00     0.049 A 
ATOM     56  N   UNL     1      -5.898   4.795  -2.502  1.00  0.00    -0.248 NA
ATOM     57  C   UNL     1      -5.467   3.871  -4.509  1.00  0.00     0.031 C 
ATOM     58  C   UNL     1      -6.052   3.370   0.179  1.00  0.00     0.029 A 
ATOM     59  N   UNL     1      -5.296   1.526   0.250  1.00  0.00    -0.354 N 
ATOM     60  C   UNL     1      -6.782   5.358  -3.405  1.00  0.00     0.074 A 
ATOM     61  C   UNL     1      -6.400   4.815  -4.676  1.00  0.00     0.031 C 
ATOM     62  C   UNL     1      -5.989   3.062   1.518  1.00  0.00     0.029 A 
ATOM     63  C   UNL     1      -5.176   1.910   1.594  1.00  0.00     0.049 A 
ATOM     64  H   UNL     1      -5.330   0.566   0.036  1.00  0.00     0.167 HD
ATOM     65  C   UNL     1      -7.822   6.073  -2.883  1.00  0.00     0.034 A 
ATOM     66  C   UNL     1      -4.001   1.705   2.271  1.00  0.00     0.034 A 
ATOM     67  C   UNL     1      -7.655   6.233  -1.403  1.00  0.00     0.049 A 
ATOM     68  C   UNL     1      -3.354   3.171   1.902  1.00  0.00     0.074 A 
ATOM     69  C   UNL     1      -8.437   6.053  -0.273  1.00  0.00     0.029 A 
ATOM     70  N   UNL     1      -6.359   6.410  -0.901  1.00  0.00    -0.354 N 
ATOM     71  N   UNL     1      -3.768   3.946   0.896  1.00  0.00    -0.248 NA
ATOM     72  C   UNL     1      -2.538   3.997   2.794  1.00  0.00     0.031 C 
ATOM     73  C   UNL     1      -7.552   6.008   0.875  1.00  0.00     0.029 A 
ATOM     74  C   UNL     1      -6.219   6.112   0.443  1.00  0.00     0.049 A 
ATOM     75  H   UNL     1      -5.609   6.721  -1.459  1.00  0.00     0.167 HD
ATOM     76  C   UNL     1      -3.867   5.266   1.317  1.00  0.00     0.074 A 
ATOM     77  C   UNL     1      -2.760   5.237   2.289  1.00  0.00     0.031 C 
ATOM     78  C   UNL     1      -4.875   6.241   1.070  1.00  0.00     0.034 A 
BRANCH  65  79
ATOM     79  C   UNL     1      -9.076   6.527  -3.624  1.00  0.00     0.023 A 
ATOM     80  C   UNL     1      -9.966   7.346  -2.905  1.00  0.00     0.031 A 
ATOM     81  C   UNL     1      -9.500   6.223  -4.939  1.00  0.00     0.131 A 
ATOM     82  C   UNL     1     -11.160   7.844  -3.452  1.00  0.00     0.055 A 
ATOM     83  C   UNL     1     -10.681   6.755  -5.509  1.00  0.00     0.041 A 
ATOM     84  F   UNL     1      -8.823   5.386  -5.735  1.00  0.00    -0.206 F 
ATOM     85  C   UNL     1     -11.516   7.578  -4.766  1.00  0.00     0.022 A 
BRANCH  82  86
ATOM     86  S   UNL     1     -12.208   8.867  -2.388  1.00  0.00     0.124 S 
ATOM     87  O   UNL     1     -12.682   7.894  -1.409  1.00  0.00    -0.237 OA
ATOM     88  O   UNL     1     -11.264   9.866  -1.899  1.00  0.00    -0.237 OA
ATOM     89  O   UNL     1     -13.227   9.377  -3.304  1.00  0.00    -0.744 OA
ENDBRANCH  82  86
ENDBRANCH  65  79
BRANCH  66  90
ATOM     90  C   UNL     1      -3.581   0.212   1.901  1.00  0.00     0.023 A 
ATOM     91  C   UNL     1      -3.686  -1.405   2.681  1.00  0.00     0.031 A 
ATOM     92  C   UNL     1      -3.493   0.119   0.160  1.00  0.00     0.131 A 
ATOM     93  C   UNL     1      -3.679  -2.970   1.788  1.00  0.00     0.055 A 
ATOM     94  C   UNL     1      -3.489  -1.750  -0.696  1.00  0.00     0.041 A 
ATOM     95  F   UNL     1      -2.971   1.287  -0.292  1.00  0.00    -0.206 F 
ATOM     96  C   UNL     1      -3.519  -3.108   0.194  1.00  0.00     0.022 A 
BRANCH  93  97
ATOM     97  S   UNL     1      -4.129  -4.740   2.321  1.00  0.00     0.124 S 
ATOM     98  O   UNL     1      -2.975  -5.135   3.120  1.00  0.00    -0.237 OA
ATOM     99  O   UNL     1      -5.410  -4.681   3.011  1.00  0.00    -0.237 OA
ATOM    100  O   UNL     1      -4.224  -5.487   1.050  1.00  0.00    -0.744 OA
ENDBRANCH  93  97
ENDBRANCH  66  90
BRANCH  78 101
ATOM    101  C   UNL     1      -4.652   7.689   1.382  1.00  0.00     0.023 A 
ATOM    102  C   UNL     1      -3.869   8.035   2.448  1.00  0.00     0.031 A 
ATOM    103  C   UNL     1      -5.134   8.753   0.567  1.00  0.00     0.131 A 
ATOM    104  C   UNL     1      -3.220   9.255   2.403  1.00  0.00     0.055 A 
ATOM    105  C   UNL     1      -4.638  10.037   0.654  1.00  0.00     0.041 A 
ATOM    106  F   UNL     1      -6.069   8.621  -0.382  1.00  0.00    -0.206 F 
ATOM    107  C   UNL     1      -3.595  10.269   1.521  1.00  0.00     0.022 A 
BRANCH 104 108
ATOM    108  S   UNL     1      -1.713   9.353   3.366  1.00  0.00     0.124 S 
ATOM    109  O   UNL     1      -2.137   8.838   4.664  1.00  0.00    -0.237 OA
ATOM    110  O   UNL     1      -0.828   8.474   2.604  1.00  0.00    -0.237 OA
ATOM    111  O   UNL     1      -1.385  10.773   3.322  1.00  0.00    -0.744 OA
ENDBRANCH 104 108
ENDBRANCH  78 101
ENDBRANCH  52  53
ENDBRANCH  45  47
ENDBRANCH  44  45
ENDBRANCH  43  44
ENDBRANCH  42  43
ENDBRANCH  41  42
ENDBRANCH  40  41
ENDBRANCH  39  40
ENDBRANCH  38  39
ENDBRANCH   1  38
TORSDOF 29
