REMARK SMILES O=C(Cc1ccccc1Nc1c(Cl)cccc1C(F)(F)F)OCCOCCOCCOCCOC(=O)c1ccc(-c2c3nc(c(-c4cc(S(=O)(=O)[O-])ccc4F)c4ccc([nH]4)c(-c4cc(S(=O)(=O)[O-])ccc4F)c4nc(c(-c5cc(S(=O)(=O)[O-])ccc5F)c5ccc2[nH]5)C=C4)C=C3)cc1
REMARK SMILES IDX 27 1 26 2 25 3 24 4 23 5 22 6 2 7 1 8 3 9 4 10 5 11 9 12
REMARK SMILES IDX 6 13 8 14 7 15 10 16 11 18 12 19 17 20 13 21 14 22 16 23
REMARK SMILES IDX 15 24 18 25 19 26 20 27 21 28 28 29 29 30 30 31 31 32 32 33
REMARK SMILES IDX 33 34 34 35 35 36 36 37 37 38 38 39 99 40 39 41 98 42 40 43
REMARK SMILES IDX 41 44 42 45 92 46 43 47 97 48 91 49 93 50 44 51 96 52 90 53
REMARK SMILES IDX 89 54 45 56 77 57 57 58 76 59 58 60 61 61 75 62 94 63 59 64
REMARK SMILES IDX 60 65 74 67 95 68 62 69 46 70 47 71 55 72 48 73 54 74 56 75
REMARK SMILES IDX 53 76 49 77 50 78 51 79 52 80 78 81 79 82 87 83 80 84 86 85
REMARK SMILES IDX 88 86 85 87 81 88 82 89 83 90 84 91 63 92 64 93 72 94 65 95
REMARK SMILES IDX 71 96 73 97 70 98 66 99 67 100 68 101 69 102
REMARK H PARENT 10 17 93 55 61 66
REMARK Flexibility Score: inf
ROOT
ATOM      1  C   UNL     1       1.986   1.140  -1.997  1.00  0.00     0.188 C 
ENDROOT
BRANCH   1   2
ATOM      2  C   UNL     1       2.537   1.725  -0.696  1.00  0.00     0.188 C 
BRANCH   2   3
ATOM      3  O   UNL     1       3.924   1.551  -0.470  1.00  0.00    -0.376 OA
BRANCH   3   4
ATOM      4  C   UNL     1       4.549   0.373   0.003  1.00  0.00     0.202 C 
BRANCH   4   5
ATOM      5  C   UNL     1       3.925  -1.013  -0.119  1.00  0.00     0.261 C 
BRANCH   5   6
ATOM      6  O   UNL     1       2.511  -1.137   0.110  1.00  0.00    -0.463 OA
BRANCH   6   7
ATOM      7  C   UNL     1       1.820  -0.820   1.220  1.00  0.00     0.310 C 
ATOM      8  O   UNL     1       0.622  -1.096   1.281  1.00  0.00    -0.252 OA
BRANCH   7   9
ATOM      9  C   UNL     1       2.474  -0.011   2.310  1.00  0.00     0.160 C 
BRANCH   9  10
ATOM     10  C   UNL     1       3.579  -0.649   3.113  1.00  0.00    -0.013 A 
ATOM     11  C   UNL     1       3.572  -2.047   3.281  1.00  0.00     0.006 A 
ATOM     12  C   UNL     1       4.547   0.141   3.788  1.00  0.00     0.042 A 
ATOM     13  C   UNL     1       4.506  -2.670   4.097  1.00  0.00     0.000 A 
ATOM     14  C   UNL     1       5.426  -0.513   4.660  1.00  0.00     0.026 A 
ATOM     15  C   UNL     1       5.418  -1.901   4.804  1.00  0.00     0.002 A 
BRANCH  12  16
ATOM     16  N   UNL     1       4.672   1.528   3.535  1.00  0.00    -0.354 N 
ATOM     17  H   UNL     1       3.970   1.895   2.950  1.00  0.00     0.167 HD
BRANCH  16  18
ATOM     18  C   UNL     1       5.623   2.487   3.969  1.00  0.00     0.070 A 
ATOM     19  C   UNL     1       5.130   3.668   4.582  1.00  0.00     0.065 A 
ATOM     20  C   UNL     1       7.020   2.309   3.920  1.00  0.00     0.080 A 
ATOM     21  Cl  UNL     1       3.430   4.019   4.577  1.00  0.00    -0.082 Cl
ATOM     22  C   UNL     1       5.973   4.582   5.217  1.00  0.00     0.023 A 
ATOM     23  C   UNL     1       7.856   3.229   4.600  1.00  0.00     0.015 A 
ATOM     24  C   UNL     1       7.339   4.344   5.254  1.00  0.00     0.002 A 
BRANCH  20  25
ATOM     25  C   UNL     1       7.720   1.221   3.134  1.00  0.00     0.418 C 
ATOM     26  F   UNL     1       8.857   1.690   2.532  1.00  0.00    -0.166 F 
ATOM     27  F   UNL     1       8.149   0.201   3.930  1.00  0.00    -0.166 F 
ATOM     28  F   UNL     1       7.001   0.660   2.128  1.00  0.00    -0.166 F 
ENDBRANCH  20  25
ENDBRANCH  16  18
ENDBRANCH  12  16
ENDBRANCH   9  10
ENDBRANCH   7   9
ENDBRANCH   6   7
ENDBRANCH   5   6
ENDBRANCH   4   5
ENDBRANCH   3   4
ENDBRANCH   2   3
ENDBRANCH   1   2
BRANCH   1  29
ATOM     29  O   UNL     1       2.646   1.604  -3.168  1.00  0.00    -0.377 OA
BRANCH  29  30
ATOM     30  C   UNL     1       4.012   1.226  -3.245  1.00  0.00     0.188 C 
BRANCH  30  31
ATOM     31  C   UNL     1       5.021   2.365  -2.982  1.00  0.00     0.188 C 
BRANCH  31  32
ATOM     32  O   UNL     1       4.609   3.640  -2.515  1.00  0.00    -0.376 OA
BRANCH  32  33
ATOM     33  C   UNL     1       3.460   4.276  -3.046  1.00  0.00     0.202 C 
BRANCH  33  34
ATOM     34  C   UNL     1       3.147   4.333  -4.552  1.00  0.00     0.261 C 
BRANCH  34  35
ATOM     35  O   UNL     1       3.534   3.210  -5.345  1.00  0.00    -0.460 OA
BRANCH  35  36
ATOM     36  C   UNL     1       4.704   3.330  -6.015  1.00  0.00     0.338 C 
ATOM     37  O   UNL     1       5.450   4.294  -6.028  1.00  0.00    -0.246 OA
BRANCH  36  38
ATOM     38  C   UNL     1       5.041   2.001  -6.569  1.00  0.00     0.060 A 
ATOM     39  C   UNL     1       6.237   1.387  -6.166  1.00  0.00     0.016 A 
ATOM     40  C   UNL     1       4.158   1.337  -7.421  1.00  0.00     0.016 A 
ATOM     41  C   UNL     1       6.542   0.097  -6.597  1.00  0.00     0.010 A 
ATOM     42  C   UNL     1       4.489   0.064  -7.893  1.00  0.00     0.010 A 
ATOM     43  C   UNL     1       5.686  -0.556  -7.491  1.00  0.00    -0.014 A 
BRANCH  43  44
ATOM     44  C   UNL     1       6.122  -1.805  -8.157  1.00  0.00     0.031 A 
ATOM     45  C   UNL     1       6.807  -1.686  -9.489  1.00  0.00     0.074 A 
ATOM     46  C   UNL     1       5.896  -3.010  -7.603  1.00  0.00     0.049 A 
ATOM     47  N   UNL     1       7.156  -2.623 -10.328  1.00  0.00    -0.248 NA
ATOM     48  C   UNL     1       7.137  -0.321  -9.935  1.00  0.00     0.031 C 
ATOM     49  C   UNL     1       5.299  -3.239  -6.288  1.00  0.00     0.029 A 
ATOM     50  N   UNL     1       6.122  -4.274  -8.093  1.00  0.00    -0.354 N 
ATOM     51  C   UNL     1       7.728  -1.964 -11.410  1.00  0.00     0.074 A 
ATOM     52  C   UNL     1       7.675  -0.548 -11.124  1.00  0.00     0.031 C 
ATOM     53  C   UNL     1       5.172  -4.564  -6.092  1.00  0.00     0.029 A 
ATOM     54  C   UNL     1       5.629  -5.274  -7.286  1.00  0.00     0.049 A 
ATOM     55  H   UNL     1       6.591  -4.447  -8.941  1.00  0.00     0.167 HD
ATOM     56  C   UNL     1       8.239  -2.499 -12.543  1.00  0.00     0.034 A 
ATOM     57  C   UNL     1       5.513  -6.600  -7.513  1.00  0.00     0.034 A 
ATOM     58  C   UNL     1       8.274  -3.913 -12.813  1.00  0.00     0.049 A 
ATOM     59  C   UNL     1       5.998  -7.157  -8.836  1.00  0.00     0.074 A 
ATOM     60  C   UNL     1       8.810  -4.563 -13.910  1.00  0.00     0.029 A 
ATOM     61  N   UNL     1       7.729  -4.892 -11.995  1.00  0.00    -0.354 N 
ATOM     62  N   UNL     1       6.572  -6.530  -9.838  1.00  0.00    -0.248 NA
ATOM     63  C   UNL     1       5.817  -8.599  -9.061  1.00  0.00     0.031 C 
ATOM     64  C   UNL     1       8.511  -5.923 -13.799  1.00  0.00     0.029 A 
ATOM     65  C   UNL     1       7.867  -6.135 -12.590  1.00  0.00     0.049 A 
ATOM     66  H   UNL     1       7.308  -4.728 -11.121  1.00  0.00     0.167 HD
ATOM     67  C   UNL     1       6.840  -7.507 -10.796  1.00  0.00     0.074 A 
ATOM     68  C   UNL     1       6.390  -8.765 -10.243  1.00  0.00     0.031 C 
ATOM     69  C   UNL     1       7.404  -7.379 -12.024  1.00  0.00     0.034 A 
BRANCH  56  70
ATOM     70  C   UNL     1       8.737  -1.555 -13.606  1.00  0.00     0.023 A 
ATOM     71  C   UNL     1       9.879  -0.759 -13.424  1.00  0.00     0.031 A 
ATOM     72  C   UNL     1       8.061  -1.474 -14.837  1.00  0.00     0.131 A 
ATOM     73  C   UNL     1      10.294   0.108 -14.447  1.00  0.00     0.055 A 
ATOM     74  C   UNL     1       8.515  -0.660 -15.874  1.00  0.00     0.041 A 
ATOM     75  F   UNL     1       6.947  -2.193 -15.052  1.00  0.00    -0.206 F 
ATOM     76  C   UNL     1       9.635   0.142 -15.680  1.00  0.00     0.022 A 
BRANCH  73  77
ATOM     77  S   UNL     1      11.655   1.259 -14.116  1.00  0.00     0.124 S 
ATOM     78  O   UNL     1      11.117   2.042 -13.006  1.00  0.00    -0.237 OA
ATOM     79  O   UNL     1      12.756   0.361 -13.788  1.00  0.00    -0.237 OA
ATOM     80  O   UNL     1      11.800   1.990 -15.373  1.00  0.00    -0.744 OA
ENDBRANCH  73  77
ENDBRANCH  56  70
BRANCH  57  81
ATOM     81  C   UNL     1       4.834  -7.496  -6.528  1.00  0.00     0.023 A 
ATOM     82  C   UNL     1       5.496  -8.604  -5.975  1.00  0.00     0.031 A 
ATOM     83  C   UNL     1       3.474  -7.322  -6.210  1.00  0.00     0.131 A 
ATOM     84  C   UNL     1       4.783  -9.531  -5.197  1.00  0.00     0.055 A 
ATOM     85  C   UNL     1       2.787  -8.207  -5.377  1.00  0.00     0.041 A 
ATOM     86  F   UNL     1       2.783  -6.288  -6.718  1.00  0.00    -0.206 F 
ATOM     87  C   UNL     1       3.437  -9.332  -4.882  1.00  0.00     0.022 A 
BRANCH  84  88
ATOM     88  S   UNL     1       5.605 -11.078  -4.721  1.00  0.00     0.124 S 
ATOM     89  O   UNL     1       6.024 -11.600  -6.016  1.00  0.00    -0.237 OA
ATOM     90  O   UNL     1       6.670 -10.596  -3.847  1.00  0.00    -0.237 OA
ATOM     91  O   UNL     1       4.547 -11.834  -4.054  1.00  0.00    -0.744 OA
ENDBRANCH  84  88
ENDBRANCH  57  81
BRANCH  69  92
ATOM     92  C   UNL     1       7.599  -8.639 -12.833  1.00  0.00     0.023 A 
ATOM     93  C   UNL     1       6.508  -9.370 -13.335  1.00  0.00     0.031 A 
ATOM     94  C   UNL     1       8.895  -9.106 -13.117  1.00  0.00     0.131 A 
ATOM     95  C   UNL     1       6.732 -10.553 -14.055  1.00  0.00     0.055 A 
ATOM     96  C   UNL     1       9.113 -10.248 -13.889  1.00  0.00     0.041 A 
ATOM     97  F   UNL     1       9.974  -8.448 -12.661  1.00  0.00    -0.206 F 
ATOM     98  C   UNL     1       8.028 -10.985 -14.353  1.00  0.00     0.022 A 
BRANCH  95  99
ATOM     99  S   UNL     1       5.306 -11.566 -14.534  1.00  0.00     0.124 S 
ATOM    100  O   UNL     1       4.716 -11.889 -13.239  1.00  0.00    -0.237 OA
ATOM    101  O   UNL     1       4.539 -10.650 -15.373  1.00  0.00    -0.237 OA
ATOM    102  O   UNL     1       5.909 -12.694 -15.241  1.00  0.00    -0.744 OA
ENDBRANCH  95  99
ENDBRANCH  69  92
ENDBRANCH  43  44
ENDBRANCH  36  38
ENDBRANCH  35  36
ENDBRANCH  34  35
ENDBRANCH  33  34
ENDBRANCH  32  33
ENDBRANCH  31  32
ENDBRANCH  30  31
ENDBRANCH  29  30
ENDBRANCH   1  29
TORSDOF 27
