REMARK SMILES O=C(Cn1cc(S(=O)(=O)NC2COC2)cn1)OCCOCCOCCOCCOC(=O)c1ccc(-c2c3nc(c(-c4cc(S(=O)(=O)[O-])ccc4F)c4ccc([nH]4)c(-c4cc(S(=O)(=O)[O-])ccc4F)c4nc(c(-c5cc(S(=O)(=O)[O-])ccc5F)c5ccc2[nH]5)C=C4)C=C3)cc1
REMARK SMILES IDX 22 1 21 2 20 3 19 4 18 5 17 6 2 7 1 8 3 9 4 10 5 11 16 12
REMARK SMILES IDX 6 13 15 14 7 15 8 16 9 17 10 18 11 20 12 21 14 22 13 23
REMARK SMILES IDX 23 24 24 25 25 26 26 27 27 28 28 29 29 30 30 31 31 32 32 33
REMARK SMILES IDX 33 34 94 35 34 36 93 37 35 38 36 39 37 40 87 41 38 42 92 43
REMARK SMILES IDX 86 44 88 45 39 46 91 47 85 48 84 49 40 51 72 52 52 53 71 54
REMARK SMILES IDX 53 55 56 56 70 57 89 58 54 59 55 60 69 62 90 63 57 64 41 65
REMARK SMILES IDX 42 66 50 67 43 68 49 69 51 70 48 71 44 72 45 73 46 74 47 75
REMARK SMILES IDX 73 76 74 77 82 78 75 79 81 80 83 81 80 82 76 83 77 84 78 85
REMARK SMILES IDX 79 86 58 87 59 88 67 89 60 90 66 91 68 92 65 93 61 94 62 95
REMARK SMILES IDX 63 96 64 97
REMARK H PARENT 10 19 88 50 56 61
REMARK Flexibility Score: inf
ROOT
ATOM      1  C   UNL     1       2.111  -1.483   2.192  1.00  0.00     0.188 C 
ENDROOT
BRANCH   1   2
ATOM      2  C   UNL     1       2.566  -1.748   0.749  1.00  0.00     0.188 C 
BRANCH   2   3
ATOM      3  O   UNL     1       3.958  -1.735   0.532  1.00  0.00    -0.376 OA
BRANCH   3   4
ATOM      4  C   UNL     1       4.671  -0.697  -0.101  1.00  0.00     0.202 C 
BRANCH   4   5
ATOM      5  C   UNL     1       4.178   0.741  -0.013  1.00  0.00     0.261 C 
BRANCH   5   6
ATOM      6  O   UNL     1       2.773   0.998  -0.231  1.00  0.00    -0.462 OA
BRANCH   6   7
ATOM      7  C   UNL     1       2.004   0.670  -1.294  1.00  0.00     0.327 C 
ATOM      8  O   UNL     1       0.826   1.026  -1.317  1.00  0.00    -0.250 OA
BRANCH   7   9
ATOM      9  C   UNL     1       2.584  -0.131  -2.424  1.00  0.00     0.266 C 
BRANCH   9  10
ATOM     10  N   UNL     1       3.530   0.665  -3.164  1.00  0.00    -0.260 N 
ATOM     11  C   UNL     1       3.399   1.996  -3.425  1.00  0.00     0.131 A 
ATOM     12  N   UNL     1       4.757   0.183  -3.448  1.00  0.00    -0.180 NA
ATOM     13  C   UNL     1       4.674   2.431  -3.690  1.00  0.00     0.120 A 
ATOM     14  C   UNL     1       5.462   1.278  -3.763  1.00  0.00     0.156 A 
BRANCH  13  15
ATOM     15  S   UNL     1       5.176   4.050  -3.809  1.00  0.00     0.244 S 
ATOM     16  O   UNL     1       6.494   4.069  -3.193  1.00  0.00    -0.207 OA
ATOM     17  O   UNL     1       4.942   4.415  -5.173  1.00  0.00    -0.207 OA
BRANCH  15  18
ATOM     18  N   UNL     1       4.135   4.976  -2.852  1.00  0.00    -0.203 NA
ATOM     19  H   UNL     1       3.209   4.571  -2.984  1.00  0.00     0.141 HD
BRANCH  18  20
ATOM     20  C   UNL     1       4.282   5.170  -1.366  1.00  0.00     0.121 C 
ATOM     21  C   UNL     1       3.342   6.176  -0.679  1.00  0.00     0.182 C 
ATOM     22  C   UNL     1       3.619   4.169  -0.405  1.00  0.00     0.182 C 
ATOM     23  O   UNL     1       3.084   5.248   0.402  1.00  0.00    -0.378 OA
ENDBRANCH  18  20
ENDBRANCH  15  18
ENDBRANCH  13  15
ENDBRANCH   9  10
ENDBRANCH   7   9
ENDBRANCH   6   7
ENDBRANCH   5   6
ENDBRANCH   4   5
ENDBRANCH   3   4
ENDBRANCH   2   3
ENDBRANCH   1   2
BRANCH   1  24
ATOM     24  O   UNL     1       2.985  -1.784   3.266  1.00  0.00    -0.377 OA
BRANCH  24  25
ATOM     25  C   UNL     1       4.332  -1.383   3.166  1.00  0.00     0.188 C 
BRANCH  25  26
ATOM     26  C   UNL     1       5.338  -2.534   2.928  1.00  0.00     0.188 C 
BRANCH  26  27
ATOM     27  O   UNL     1       5.082  -3.718   2.178  1.00  0.00    -0.376 OA
BRANCH  27  28
ATOM     28  C   UNL     1       3.881  -4.477   2.163  1.00  0.00     0.202 C 
BRANCH  28  29
ATOM     29  C   UNL     1       3.141  -4.997   3.393  1.00  0.00     0.261 C 
BRANCH  29  30
ATOM     30  O   UNL     1       3.104  -4.075   4.446  1.00  0.00    -0.460 OA
BRANCH  30  31
ATOM     31  C   UNL     1       4.245  -4.079   5.157  1.00  0.00     0.338 C 
ATOM     32  O   UNL     1       5.210  -4.809   4.997  1.00  0.00    -0.246 OA
BRANCH  31  33
ATOM     33  C   UNL     1       4.123  -3.089   6.234  1.00  0.00     0.060 A 
ATOM     34  C   UNL     1       5.089  -3.262   7.215  1.00  0.00     0.016 A 
ATOM     35  C   UNL     1       2.854  -2.542   6.489  1.00  0.00     0.016 A 
ATOM     36  C   UNL     1       4.624  -3.352   8.493  1.00  0.00     0.010 A 
ATOM     37  C   UNL     1       2.390  -2.628   7.771  1.00  0.00     0.010 A 
ATOM     38  C   UNL     1       3.254  -3.160   8.719  1.00  0.00    -0.014 A 
BRANCH  38  39
ATOM     39  C   UNL     1       2.785  -3.451  10.044  1.00  0.00     0.031 A 
ATOM     40  C   UNL     1       3.244  -2.434  10.995  1.00  0.00     0.074 A 
ATOM     41  C   UNL     1       2.025  -4.513  10.348  1.00  0.00     0.049 A 
ATOM     42  N   UNL     1       4.214  -2.543  11.836  1.00  0.00    -0.248 NA
ATOM     43  C   UNL     1       2.766  -1.061  10.782  1.00  0.00     0.031 C 
ATOM     44  C   UNL     1       1.313  -5.423   9.452  1.00  0.00     0.029 A 
ATOM     45  N   UNL     1       1.652  -4.930  11.582  1.00  0.00    -0.354 N 
ATOM     46  C   UNL     1       4.295  -1.303  12.445  1.00  0.00     0.074 A 
ATOM     47  C   UNL     1       3.590  -0.394  11.586  1.00  0.00     0.031 C 
ATOM     48  C   UNL     1       0.408  -6.123  10.176  1.00  0.00     0.029 A 
ATOM     49  C   UNL     1       0.573  -5.798  11.586  1.00  0.00     0.049 A 
ATOM     50  H   UNL     1       2.108  -4.640  12.405  1.00  0.00     0.167 HD
ATOM     51  C   UNL     1       4.672  -1.203  13.745  1.00  0.00     0.034 A 
ATOM     52  C   UNL     1      -0.181  -6.115  12.670  1.00  0.00     0.034 A 
ATOM     53  C   UNL     1       5.368  -2.404  14.171  1.00  0.00     0.049 A 
ATOM     54  C   UNL     1       0.648  -5.829  13.875  1.00  0.00     0.074 A 
ATOM     55  C   UNL     1       6.501  -3.064  13.728  1.00  0.00     0.029 A 
ATOM     56  N   UNL     1       4.682  -3.325  14.937  1.00  0.00    -0.354 N 
ATOM     57  N   UNL     1       1.739  -6.486  14.167  1.00  0.00    -0.248 NA
ATOM     58  C   UNL     1       0.553  -4.507  14.483  1.00  0.00     0.031 C 
ATOM     59  C   UNL     1       6.198  -4.452  13.848  1.00  0.00     0.029 A 
ATOM     60  C   UNL     1       4.930  -4.574  14.420  1.00  0.00     0.049 A 
ATOM     61  H   UNL     1       4.116  -3.123  15.717  1.00  0.00     0.167 HD
ATOM     62  C   UNL     1       2.636  -5.526  14.618  1.00  0.00     0.074 A 
ATOM     63  C   UNL     1       1.817  -4.347  14.890  1.00  0.00     0.031 C 
ATOM     64  C   UNL     1       3.985  -5.679  14.455  1.00  0.00     0.034 A 
BRANCH  51  65
ATOM     65  C   UNL     1       4.029  -0.234  14.715  1.00  0.00     0.023 A 
ATOM     66  C   UNL     1       4.421  -0.361  16.057  1.00  0.00     0.031 A 
ATOM     67  C   UNL     1       2.882   0.564  14.488  1.00  0.00     0.131 A 
ATOM     68  C   UNL     1       3.610   0.126  17.092  1.00  0.00     0.055 A 
ATOM     69  C   UNL     1       2.114   1.104  15.521  1.00  0.00     0.041 A 
ATOM     70  F   UNL     1       2.382   0.817  13.275  1.00  0.00    -0.206 F 
ATOM     71  C   UNL     1       2.450   0.848  16.835  1.00  0.00     0.022 A 
BRANCH  68  72
ATOM     72  S   UNL     1       4.004  -0.392  18.776  1.00  0.00     0.124 S 
ATOM     73  O   UNL     1       4.064  -1.842  18.624  1.00  0.00    -0.237 OA
ATOM     74  O   UNL     1       5.275   0.287  19.004  1.00  0.00    -0.237 OA
ATOM     75  O   UNL     1       2.876   0.113  19.555  1.00  0.00    -0.744 OA
ENDBRANCH  68  72
ENDBRANCH  51  65
BRANCH  52  76
ATOM     76  C   UNL     1      -1.661  -6.277  12.688  1.00  0.00     0.023 A 
ATOM     77  C   UNL     1      -2.341  -6.921  13.742  1.00  0.00     0.031 A 
ATOM     78  C   UNL     1      -2.462  -5.588  11.747  1.00  0.00     0.131 A 
ATOM     79  C   UNL     1      -3.753  -6.867  13.814  1.00  0.00     0.055 A 
ATOM     80  C   UNL     1      -3.855  -5.550  11.816  1.00  0.00     0.041 A 
ATOM     81  F   UNL     1      -1.914  -4.853  10.767  1.00  0.00    -0.206 F 
ATOM     82  C   UNL     1      -4.508  -6.184  12.858  1.00  0.00     0.022 A 
BRANCH  79  83
ATOM     83  S   UNL     1      -4.632  -7.615  15.223  1.00  0.00     0.124 S 
ATOM     84  O   UNL     1      -4.429  -9.041  14.994  1.00  0.00    -0.237 OA
ATOM     85  O   UNL     1      -3.938  -7.036  16.368  1.00  0.00    -0.237 OA
ATOM     86  O   UNL     1      -6.010  -7.155  15.049  1.00  0.00    -0.744 OA
ENDBRANCH  79  83
ENDBRANCH  52  76
BRANCH  64  87
ATOM     87  C   UNL     1       4.518  -7.047  14.072  1.00  0.00     0.023 A 
ATOM     88  C   UNL     1       4.145  -7.766  12.914  1.00  0.00     0.031 A 
ATOM     89  C   UNL     1       5.546  -7.584  14.868  1.00  0.00     0.131 A 
ATOM     90  C   UNL     1       4.790  -8.980  12.600  1.00  0.00     0.055 A 
ATOM     91  C   UNL     1       6.195  -8.773  14.543  1.00  0.00     0.041 A 
ATOM     92  F   UNL     1       5.966  -6.935  15.967  1.00  0.00    -0.206 F 
ATOM     93  C   UNL     1       5.815  -9.480  13.409  1.00  0.00     0.022 A 
BRANCH  90  94
ATOM     94  S   UNL     1       4.298  -9.946  11.134  1.00  0.00     0.124 S 
ATOM     95  O   UNL     1       2.842  -9.975  11.216  1.00  0.00    -0.237 OA
ATOM     96  O   UNL     1       4.862  -9.163  10.038  1.00  0.00    -0.237 OA
ATOM     97  O   UNL     1       4.945 -11.242  11.349  1.00  0.00    -0.744 OA
ENDBRANCH  90  94
ENDBRANCH  64  87
ENDBRANCH  38  39
ENDBRANCH  31  33
ENDBRANCH  30  31
ENDBRANCH  29  30
ENDBRANCH  28  29
ENDBRANCH  27  28
ENDBRANCH  26  27
ENDBRANCH  25  26
ENDBRANCH  24  25
ENDBRANCH   1  24
TORSDOF 27
