REMARK SMILES CCCN1C(=O)C[C@H](C(=O)OCCOCCOCCOCCOC(=O)c2ccc(-c3c4nc(c(-c5cc(S(=O)(=O)[O-])ccc5F)c5ccc([nH]5)c(-c5cc(S(=O)(=O)[O-])ccc5F)c5nc(c(-c6cc(S(=O)(=O)[O-])ccc6F)c6ccc3[nH]6)C=C5)C=C4)cc2)[C@@H]1c1cncn1C1CC1
REMARK SMILES IDX 18 1 17 2 16 3 15 4 14 5 13 6 12 7 11 8 9 9 10 10 8 11 4 12
REMARK SMILES IDX 5 13 89 14 6 15 7 16 3 17 2 18 1 19 90 20 91 21 94 22 92 23
REMARK SMILES IDX 93 24 95 25 96 26 97 27 19 28 20 29 21 30 22 31 23 32 24 33
REMARK SMILES IDX 25 34 26 35 27 36 88 37 28 38 87 39 29 40 30 41 31 42 81 43
REMARK SMILES IDX 32 44 86 45 80 46 82 47 33 48 85 49 79 50 78 51 34 53 66 54
REMARK SMILES IDX 46 55 65 56 47 57 50 58 64 59 83 60 48 61 49 62 63 64 84 65
REMARK SMILES IDX 51 66 35 67 36 68 44 69 37 70 43 71 45 72 42 73 38 74 39 75
REMARK SMILES IDX 40 76 41 77 67 78 68 79 76 80 69 81 75 82 77 83 74 84 70 85
REMARK SMILES IDX 71 86 72 87 73 88 52 89 53 90 61 91 54 92 60 93 62 94 59 95
REMARK SMILES IDX 55 96 56 97 57 98 58 99
REMARK H PARENT 82 52 50 63
REMARK Flexibility Score: inf
ROOT
ATOM      1  C   UNL     1      -2.604   7.655   3.146  1.00  0.00     0.188 C 
ENDROOT
BRANCH   1   2
ATOM      2  O   UNL     1      -2.227   6.434   2.528  1.00  0.00    -0.377 OA
BRANCH   2   3
ATOM      3  C   UNL     1      -1.330   6.523   1.443  1.00  0.00     0.188 C 
BRANCH   3   4
ATOM      4  C   UNL     1      -1.967   6.493   0.043  1.00  0.00     0.188 C 
BRANCH   4   5
ATOM      5  O   UNL     1      -3.374   6.518  -0.153  1.00  0.00    -0.376 OA
BRANCH   5   6
ATOM      6  C   UNL     1      -4.273   5.926   0.773  1.00  0.00     0.202 C 
BRANCH   6   7
ATOM      7  C   UNL     1      -4.102   4.471   1.233  1.00  0.00     0.261 C 
BRANCH   7   8
ATOM      8  O   UNL     1      -2.760   4.053   1.524  1.00  0.00    -0.463 OA
BRANCH   8   9
ATOM      9  C   UNL     1      -2.146   3.367   0.542  1.00  0.00     0.312 C 
ATOM     10  O   UNL     1      -2.635   3.122  -0.557  1.00  0.00    -0.252 OA
BRANCH   9  11
ATOM     11  C   UNL     1      -0.803   2.817   0.921  1.00  0.00     0.137 C 
ATOM     12  N   UNL     1       0.426   1.121   1.842  1.00  0.00    -0.333 N 
ATOM     13  C   UNL     1       1.116   2.300   2.116  1.00  0.00     0.224 C 
ATOM     14  C   UNL     1      -0.922   1.393   1.444  1.00  0.00     0.148 C 
ATOM     15  O   UNL     1       2.283   2.406   2.454  1.00  0.00    -0.275 OA
ATOM     16  C   UNL     1       0.165   3.452   1.902  1.00  0.00     0.118 C 
BRANCH  12  17
ATOM     17  C   UNL     1       1.023  -0.204   1.803  1.00  0.00     0.120 C 
BRANCH  17  18
ATOM     18  C   UNL     1       0.681  -1.024   0.557  1.00  0.00     0.018 C 
ATOM     19  C   UNL     1       1.153  -0.386  -0.742  1.00  0.00     0.006 C 
ENDBRANCH  17  18
ENDBRANCH  12  17
BRANCH  14  20
ATOM     20  C   UNL     1      -1.984   1.142   2.471  1.00  0.00     0.061 A 
ATOM     21  C   UNL     1      -3.320   0.970   2.092  1.00  0.00     0.136 A 
ATOM     22  N   UNL     1      -2.034   0.964   3.847  1.00  0.00    -0.330 N 
ATOM     23  N   UNL     1      -4.154   0.782   3.140  1.00  0.00    -0.245 NA
ATOM     24  C   UNL     1      -3.363   0.797   4.179  1.00  0.00     0.199 A 
BRANCH  22  25
ATOM     25  C   UNL     1      -1.087   0.871   4.946  1.00  0.00     0.088 C 
ATOM     26  C   UNL     1       0.410   0.858   5.018  1.00  0.00     0.027 C 
ATOM     27  C   UNL     1      -0.331   2.075   5.466  1.00  0.00     0.027 C 
ENDBRANCH  22  25
ENDBRANCH  14  20
ENDBRANCH   9  11
ENDBRANCH   8   9
ENDBRANCH   7   8
ENDBRANCH   6   7
ENDBRANCH   5   6
ENDBRANCH   4   5
ENDBRANCH   3   4
ENDBRANCH   2   3
ENDBRANCH   1   2
BRANCH   1  28
ATOM     28  C   UNL     1      -2.797   8.880   2.230  1.00  0.00     0.188 C 
BRANCH  28  29
ATOM     29  O   UNL     1      -1.701   9.124   1.356  1.00  0.00    -0.376 OA
BRANCH  29  30
ATOM     30  C   UNL     1      -0.709  10.064   1.741  1.00  0.00     0.202 C 
BRANCH  30  31
ATOM     31  C   UNL     1       0.152   9.755   2.979  1.00  0.00     0.261 C 
BRANCH  31  32
ATOM     32  O   UNL     1      -0.539   9.551   4.221  1.00  0.00    -0.460 OA
BRANCH  32  33
ATOM     33  C   UNL     1      -1.365  10.528   4.652  1.00  0.00     0.338 C 
ATOM     34  O   UNL     1      -1.539  11.616   4.128  1.00  0.00    -0.246 OA
BRANCH  33  35
ATOM     35  C   UNL     1      -2.195   9.971   5.742  1.00  0.00     0.060 A 
ATOM     36  C   UNL     1      -3.589   9.976   5.601  1.00  0.00     0.016 A 
ATOM     37  C   UNL     1      -1.604   9.440   6.891  1.00  0.00     0.016 A 
ATOM     38  C   UNL     1      -4.399   9.490   6.627  1.00  0.00     0.010 A 
ATOM     39  C   UNL     1      -2.418   8.979   7.931  1.00  0.00     0.010 A 
ATOM     40  C   UNL     1      -3.819   9.039   7.819  1.00  0.00    -0.014 A 
BRANCH  40  41
ATOM     41  C   UNL     1      -4.672   8.858   9.020  1.00  0.00     0.031 A 
ATOM     42  C   UNL     1      -4.732   9.984  10.017  1.00  0.00     0.074 A 
ATOM     43  C   UNL     1      -5.399   7.743   9.209  1.00  0.00     0.049 A 
ATOM     44  N   UNL     1      -5.350  10.048  11.167  1.00  0.00    -0.248 NA
ATOM     45  C   UNL     1      -3.980  11.199   9.667  1.00  0.00     0.031 C 
ATOM     46  C   UNL     1      -5.464   6.612   8.286  1.00  0.00     0.029 A 
ATOM     47  N   UNL     1      -6.215   7.378  10.250  1.00  0.00    -0.354 N 
ATOM     48  C   UNL     1      -5.054  11.306  11.684  1.00  0.00     0.074 A 
ATOM     49  C   UNL     1      -4.168  11.951  10.739  1.00  0.00     0.031 C 
ATOM     50  C   UNL     1      -6.264   5.668   8.813  1.00  0.00     0.029 A 
ATOM     51  C   UNL     1      -6.731   6.109  10.128  1.00  0.00     0.049 A 
ATOM     52  H   UNL     1      -6.413   7.969  11.012  1.00  0.00     0.167 HD
ATOM     53  C   UNL     1      -5.486  11.870  12.838  1.00  0.00     0.034 A 
ATOM     54  C   UNL     1      -7.462   5.376  10.993  1.00  0.00     0.034 A 
ATOM     55  C   UNL     1      -6.358  11.203  13.774  1.00  0.00     0.049 A 
ATOM     56  C   UNL     1      -7.859   5.988  12.317  1.00  0.00     0.074 A 
ATOM     57  C   UNL     1      -6.875  11.685  14.963  1.00  0.00     0.029 A 
ATOM     58  N   UNL     1      -6.824   9.900  13.638  1.00  0.00    -0.354 N 
ATOM     59  N   UNL     1      -7.586   7.183  12.793  1.00  0.00    -0.248 NA
ATOM     60  C   UNL     1      -8.669   5.157  13.217  1.00  0.00     0.031 C 
ATOM     61  C   UNL     1      -7.575  10.647  15.588  1.00  0.00     0.029 A 
ATOM     62  C   UNL     1      -7.584   9.548  14.743  1.00  0.00     0.049 A 
ATOM     63  H   UNL     1      -6.642   9.313  12.869  1.00  0.00     0.167 HD
ATOM     64  C   UNL     1      -8.219   7.254  14.033  1.00  0.00     0.074 A 
ATOM     65  C   UNL     1      -8.897   5.989  14.223  1.00  0.00     0.031 C 
ATOM     66  C   UNL     1      -8.244   8.275  14.929  1.00  0.00     0.034 A 
BRANCH  53  67
ATOM     67  C   UNL     1      -4.961  13.246  13.175  1.00  0.00     0.023 A 
ATOM     68  C   UNL     1      -5.212  14.362  12.358  1.00  0.00     0.031 A 
ATOM     69  C   UNL     1      -4.152  13.434  14.311  1.00  0.00     0.131 A 
ATOM     70  C   UNL     1      -4.592  15.590  12.638  1.00  0.00     0.055 A 
ATOM     71  C   UNL     1      -3.615  14.681  14.636  1.00  0.00     0.041 A 
ATOM     72  F   UNL     1      -3.852  12.402  15.115  1.00  0.00    -0.206 F 
ATOM     73  C   UNL     1      -3.818  15.764  13.787  1.00  0.00     0.022 A 
BRANCH  70  74
ATOM     74  S   UNL     1      -4.667  16.903  11.389  1.00  0.00     0.124 S 
ATOM     75  O   UNL     1      -4.099  16.233  10.221  1.00  0.00    -0.237 OA
ATOM     76  O   UNL     1      -6.094  17.196  11.325  1.00  0.00    -0.237 OA
ATOM     77  O   UNL     1      -3.836  17.963  11.955  1.00  0.00    -0.744 OA
ENDBRANCH  70  74
ENDBRANCH  53  67
BRANCH  54  78
ATOM     78  C   UNL     1      -7.819   3.964  10.667  1.00  0.00     0.023 A 
ATOM     79  C   UNL     1      -9.155   3.555  10.535  1.00  0.00     0.031 A 
ATOM     80  C   UNL     1      -6.816   2.986  10.530  1.00  0.00     0.131 A 
ATOM     81  C   UNL     1      -9.453   2.200  10.315  1.00  0.00     0.055 A 
ATOM     82  C   UNL     1      -7.115   1.652  10.253  1.00  0.00     0.041 A 
ATOM     83  F   UNL     1      -5.521   3.319  10.656  1.00  0.00    -0.206 F 
ATOM     84  C   UNL     1      -8.442   1.250  10.155  1.00  0.00     0.022 A 
BRANCH  81  85
ATOM     85  S   UNL     1     -11.191   1.677  10.329  1.00  0.00     0.124 S 
ATOM     86  O   UNL     1     -11.613   2.091  11.661  1.00  0.00    -0.237 OA
ATOM     87  O   UNL     1     -11.745   2.437   9.214  1.00  0.00    -0.237 OA
ATOM     88  O   UNL     1     -11.113   0.233  10.119  1.00  0.00    -0.744 OA
ENDBRANCH  81  85
ENDBRANCH  54  78
BRANCH  66  89
ATOM     89  C   UNL     1      -9.075   8.083  16.178  1.00  0.00     0.023 A 
ATOM     90  C   UNL     1      -8.758   7.113  17.144  1.00  0.00     0.031 A 
ATOM     91  C   UNL     1     -10.208   8.888  16.402  1.00  0.00     0.131 A 
ATOM     92  C   UNL     1      -9.595   6.933  18.257  1.00  0.00     0.055 A 
ATOM     93  C   UNL     1     -10.995   8.754  17.546  1.00  0.00     0.041 A 
ATOM     94  F   UNL     1     -10.565   9.829  15.512  1.00  0.00    -0.206 F 
ATOM     95  C   UNL     1     -10.698   7.761  18.475  1.00  0.00     0.022 A 
BRANCH  92  96
ATOM     96  S   UNL     1      -9.285   5.529  19.363  1.00  0.00     0.124 S 
ATOM     97  O   UNL     1      -9.357   4.398  18.444  1.00  0.00    -0.237 OA
ATOM     98  O   UNL     1      -7.960   5.835  19.894  1.00  0.00    -0.237 OA
ATOM     99  O   UNL     1     -10.375   5.610  20.334  1.00  0.00    -0.744 OA
ENDBRANCH  92  96
ENDBRANCH  66  89
ENDBRANCH  40  41
ENDBRANCH  33  35
ENDBRANCH  32  33
ENDBRANCH  31  32
ENDBRANCH  30  31
ENDBRANCH  29  30
ENDBRANCH  28  29
ENDBRANCH   1  28
TORSDOF 27
