REMARK SMILES Cc1ccc2[nH]cc([C@@H](C(=O)OCCOCCOCCOCCOC(=O)c3ccc(-c4c5nc(c(-c6cc(S(=O)(=O)[O-])ccc6F)c6ccc([nH]6)c(-c6cc(S(=O)(=O)[O-])ccc6F)c6nc(c(-c7cc(S(=O)(=O)[O-])ccc7F)c7ccc4[nH]7)C=C6)C=C5)cc3)[NH+]3CCN(c4cccc(Cl)c4)CC3)c2c1
REMARK SMILES IDX 19 1 18 2 17 3 16 4 15 5 14 6 13 7 12 8 10 9 11 10 9 11 8 12
REMARK SMILES IDX 1 13 2 14 3 15 104 16 4 17 103 18 5 19 6 20 7 21 90 23 91 24
REMARK SMILES IDX 102 25 92 27 101 28 93 29 94 30 95 31 100 32 96 33 98 34
REMARK SMILES IDX 97 35 99 36 20 37 21 38 22 39 23 40 24 41 25 42 26 43 27 44
REMARK SMILES IDX 28 45 89 46 29 47 88 48 30 49 31 50 32 51 82 52 33 53 87 54
REMARK SMILES IDX 81 55 83 56 34 57 86 58 80 59 79 60 35 62 67 63 47 64 66 65
REMARK SMILES IDX 48 66 51 67 65 68 84 69 49 70 50 71 64 73 85 74 52 75 36 76
REMARK SMILES IDX 37 77 45 78 38 79 44 80 46 81 43 82 39 83 40 84 41 85 42 86
REMARK SMILES IDX 68 87 69 88 77 89 70 90 76 91 78 92 75 93 71 94 72 95 73 96
REMARK SMILES IDX 74 97 53 98 54 99 62 100 55 101 61 102 63 103 60 104 56 105
REMARK SMILES IDX 57 106 58 107 59 108
REMARK H PARENT 6 22 90 26 83 61 51 72
REMARK Flexibility Score: inf
ROOT
ATOM      1  C   UNL     1      -4.399  -0.604   3.885  1.00  0.00     0.188 C 
ENDROOT
BRANCH   1   2
ATOM      2  O   UNL     1      -3.742  -1.560   3.079  1.00  0.00    -0.377 OA
BRANCH   2   3
ATOM      3  C   UNL     1      -4.399  -2.038   1.930  1.00  0.00     0.188 C 
BRANCH   3   4
ATOM      4  C   UNL     1      -5.106  -3.382   2.069  1.00  0.00     0.188 C 
BRANCH   4   5
ATOM      5  O   UNL     1      -4.975  -4.117   3.272  1.00  0.00    -0.376 OA
BRANCH   5   6
ATOM      6  C   UNL     1      -3.742  -4.096   3.987  1.00  0.00     0.202 C 
BRANCH   6   7
ATOM      7  C   UNL     1      -2.414  -4.405   3.259  1.00  0.00     0.261 C 
BRANCH   7   8
ATOM      8  O   UNL     1      -1.952  -3.449   2.264  1.00  0.00    -0.459 OA
BRANCH   8   9
ATOM      9  C   UNL     1      -1.944  -3.873   0.970  1.00  0.00     0.370 C 
ATOM     10  O   UNL     1      -2.282  -5.018   0.657  1.00  0.00    -0.245 OA
BRANCH   9  11
ATOM     11  C   UNL     1      -1.453  -2.849  -0.105  1.00  0.00     0.328 C 
BRANCH  11  12
ATOM     12  C   UNL     1      -1.227  -1.361   0.191  1.00  0.00     0.046 A 
ATOM     13  C   UNL     1       3.874  -0.771  -0.015  1.00  0.00     0.044 C 
ATOM     14  C   UNL     1       2.467  -0.255   0.039  1.00  0.00    -0.050 A 
ATOM     15  C   UNL     1       2.213   1.118   0.056  1.00  0.00     0.005 A 
ATOM     16  C   UNL     1       1.400  -1.171   0.087  1.00  0.00     0.014 A 
ATOM     17  C   UNL     1       0.912   1.607   0.162  1.00  0.00     0.027 A 
ATOM     18  C   UNL     1       0.071  -0.709   0.188  1.00  0.00     0.009 A 
ATOM     19  C   UNL     1      -0.124   0.673   0.247  1.00  0.00     0.046 A 
ATOM     20  N   UNL     1      -1.466   0.878   0.398  1.00  0.00    -0.361 N 
ATOM     21  C   UNL     1      -2.126  -0.320   0.371  1.00  0.00     0.094 A 
ATOM     22  H   UNL     1      -1.894   1.758   0.509  1.00  0.00     0.166 HD
ENDBRANCH  11  12
BRANCH  11  23
ATOM     23  N   UNL     1      -2.167  -3.092  -1.393  1.00  0.00    -0.316 N 
ATOM     24  C   UNL     1      -3.606  -2.845  -1.524  1.00  0.00     0.284 C 
ATOM     25  C   UNL     1      -1.459  -2.701  -2.610  1.00  0.00     0.284 C 
ATOM     26  H   UNL     1      -2.136  -4.106  -1.291  1.00  0.00     0.349 HD
ATOM     27  C   UNL     1      -4.058  -1.480  -2.096  1.00  0.00     0.178 C 
ATOM     28  C   UNL     1      -1.758  -1.275  -3.109  1.00  0.00     0.178 C 
ATOM     29  N   UNL     1      -3.206  -1.036  -3.202  1.00  0.00    -0.360 N 
BRANCH  29  30
ATOM     30  C   UNL     1      -3.583   0.102  -3.900  1.00  0.00     0.038 A 
ATOM     31  C   UNL     1      -3.771   1.350  -3.291  1.00  0.00     0.026 A 
ATOM     32  C   UNL     1      -3.766  -0.004  -5.281  1.00  0.00     0.046 A 
ATOM     33  C   UNL     1      -4.149   2.464  -4.048  1.00  0.00     0.004 A 
ATOM     34  C   UNL     1      -4.152   1.101  -6.033  1.00  0.00     0.043 A 
ATOM     35  C   UNL     1      -4.345   2.337  -5.423  1.00  0.00     0.020 A 
ATOM     36  Cl  UNL     1      -4.398   0.928  -7.728  1.00  0.00    -0.084 Cl
ENDBRANCH  29  30
ENDBRANCH  11  23
ENDBRANCH   9  11
ENDBRANCH   8   9
ENDBRANCH   7   8
ENDBRANCH   6   7
ENDBRANCH   5   6
ENDBRANCH   4   5
ENDBRANCH   3   4
ENDBRANCH   2   3
ENDBRANCH   1   2
BRANCH   1  37
ATOM     37  C   UNL     1      -5.931  -0.625   3.885  1.00  0.00     0.188 C 
BRANCH  37  38
ATOM     38  O   UNL     1      -6.487  -0.527   2.579  1.00  0.00    -0.376 OA
BRANCH  38  39
ATOM     39  C   UNL     1      -6.827   0.742   2.046  1.00  0.00     0.202 C 
BRANCH  39  40
ATOM     40  C   UNL     1      -5.755   1.834   1.855  1.00  0.00     0.261 C 
BRANCH  40  41
ATOM     41  O   UNL     1      -4.939   2.200   2.976  1.00  0.00    -0.460 OA
BRANCH  41  42
ATOM     42  C   UNL     1      -5.561   2.609   4.107  1.00  0.00     0.338 C 
ATOM     43  O   UNL     1      -6.752   2.764   4.256  1.00  0.00    -0.246 OA
BRANCH  42  44
ATOM     44  C   UNL     1      -4.551   2.627   5.195  1.00  0.00     0.060 A 
ATOM     45  C   UNL     1      -4.771   1.833   6.327  1.00  0.00     0.016 A 
ATOM     46  C   UNL     1      -3.402   3.418   5.104  1.00  0.00     0.016 A 
ATOM     47  C   UNL     1      -3.869   1.860   7.391  1.00  0.00     0.010 A 
ATOM     48  C   UNL     1      -2.512   3.466   6.184  1.00  0.00     0.010 A 
ATOM     49  C   UNL     1      -2.764   2.719   7.348  1.00  0.00    -0.014 A 
BRANCH  49  50
ATOM     50  C   UNL     1      -2.032   3.010   8.608  1.00  0.00     0.031 A 
ATOM     51  C   UNL     1      -2.416   4.248   9.376  1.00  0.00     0.074 A 
ATOM     52  C   UNL     1      -1.097   2.174   9.093  1.00  0.00     0.049 A 
ATOM     53  N   UNL     1      -1.921   4.730  10.486  1.00  0.00    -0.248 NA
ATOM     54  C   UNL     1      -3.510   5.051   8.807  1.00  0.00     0.031 C 
ATOM     55  C   UNL     1      -0.685   0.917   8.472  1.00  0.00     0.029 A 
ATOM     56  N   UNL     1      -0.326   2.258  10.226  1.00  0.00    -0.354 N 
ATOM     57  C   UNL     1      -2.640   5.893  10.746  1.00  0.00     0.074 A 
ATOM     58  C   UNL     1      -3.573   6.064   9.655  1.00  0.00     0.031 C 
ATOM     59  C   UNL     1       0.270   0.349   9.230  1.00  0.00     0.029 A 
ATOM     60  C   UNL     1       0.565   1.220  10.367  1.00  0.00     0.049 A 
ATOM     61  H   UNL     1      -0.404   2.993  10.876  1.00  0.00     0.167 HD
ATOM     62  C   UNL     1      -2.538   6.734  11.804  1.00  0.00     0.034 A 
ATOM     63  C   UNL     1       1.524   1.013  11.294  1.00  0.00     0.034 A 
ATOM     64  C   UNL     1      -1.591   6.555  12.877  1.00  0.00     0.049 A 
ATOM     65  C   UNL     1       1.687   2.018  12.414  1.00  0.00     0.074 A 
ATOM     66  C   UNL     1      -1.400   7.344  13.998  1.00  0.00     0.029 A 
ATOM     67  N   UNL     1      -0.664   5.523  12.957  1.00  0.00    -0.354 N 
ATOM     68  N   UNL     1       1.003   3.115  12.650  1.00  0.00    -0.248 NA
ATOM     69  C   UNL     1       2.744   1.748  13.397  1.00  0.00     0.031 C 
ATOM     70  C   UNL     1      -0.305   6.839  14.707  1.00  0.00     0.029 A 
ATOM     71  C   UNL     1       0.124   5.676  14.087  1.00  0.00     0.049 A 
ATOM     72  H   UNL     1      -0.579   4.789  12.306  1.00  0.00     0.167 HD
ATOM     73  C   UNL     1       1.523   3.641  13.832  1.00  0.00     0.074 A 
ATOM     74  C   UNL     1       2.566   2.733  14.264  1.00  0.00     0.031 C 
ATOM     75  C   UNL     1       1.167   4.767  14.504  1.00  0.00     0.034 A 
BRANCH  62  76
ATOM     76  C   UNL     1      -3.432   7.952  11.811  1.00  0.00     0.023 A 
ATOM     77  C   UNL     1      -4.834   7.846  11.857  1.00  0.00     0.031 A 
ATOM     78  C   UNL     1      -2.873   9.240  11.733  1.00  0.00     0.131 A 
ATOM     79  C   UNL     1      -5.626   8.999  11.750  1.00  0.00     0.055 A 
ATOM     80  C   UNL     1      -3.666  10.388  11.716  1.00  0.00     0.041 A 
ATOM     81  F   UNL     1      -1.543   9.404  11.656  1.00  0.00    -0.206 F 
ATOM     82  C   UNL     1      -5.052  10.272  11.709  1.00  0.00     0.022 A 
BRANCH  79  83
ATOM     83  S   UNL     1      -7.413   8.803  11.503  1.00  0.00     0.124 S 
ATOM     84  O   UNL     1      -7.455   8.001  10.283  1.00  0.00    -0.237 OA
ATOM     85  O   UNL     1      -7.828   8.128  12.727  1.00  0.00    -0.237 OA
ATOM     86  O   UNL     1      -7.891  10.176  11.353  1.00  0.00    -0.744 OA
ENDBRANCH  79  83
ENDBRANCH  62  76
BRANCH  63  87
ATOM     87  C   UNL     1       2.437  -0.164  11.195  1.00  0.00     0.023 A 
ATOM     88  C   UNL     1       2.490  -1.137  12.206  1.00  0.00     0.031 A 
ATOM     89  C   UNL     1       3.326  -0.295  10.112  1.00  0.00     0.131 A 
ATOM     90  C   UNL     1       3.444  -2.166  12.141  1.00  0.00     0.055 A 
ATOM     91  C   UNL     1       4.231  -1.355  10.021  1.00  0.00     0.041 A 
ATOM     92  F   UNL     1       3.328   0.611   9.121  1.00  0.00    -0.206 F 
ATOM     93  C   UNL     1       4.303  -2.290  11.047  1.00  0.00     0.022 A 
BRANCH  90  94
ATOM     94  S   UNL     1       3.618  -3.282  13.560  1.00  0.00     0.124 S 
ATOM     95  O   UNL     1       3.918  -2.346  14.638  1.00  0.00    -0.237 OA
ATOM     96  O   UNL     1       2.305  -3.917  13.608  1.00  0.00    -0.237 OA
ATOM     97  O   UNL     1       4.719  -4.160  13.169  1.00  0.00    -0.744 OA
ENDBRANCH  90  94
ENDBRANCH  63  87
BRANCH  75  98
ATOM     98  C   UNL     1       1.873   5.045  15.813  1.00  0.00     0.023 A 
ATOM     99  C   UNL     1       3.253   5.303  15.877  1.00  0.00     0.031 A 
ATOM    100  C   UNL     1       1.150   5.033  17.020  1.00  0.00     0.131 A 
ATOM    101  C   UNL     1       3.877   5.468  17.123  1.00  0.00     0.055 A 
ATOM    102  C   UNL     1       1.763   5.273  18.250  1.00  0.00     0.041 A 
ATOM    103  F   UNL     1      -0.171   4.788  17.024  1.00  0.00    -0.206 F 
ATOM    104  C   UNL     1       3.138   5.475  18.309  1.00  0.00     0.022 A 
BRANCH 101 105
ATOM    105  S   UNL     1       5.689   5.547  17.186  1.00  0.00     0.124 S 
ATOM    106  O   UNL     1       6.069   4.303  16.525  1.00  0.00    -0.237 OA
ATOM    107  O   UNL     1       5.973   6.774  16.448  1.00  0.00    -0.237 OA
ATOM    108  O   UNL     1       5.981   5.604  18.617  1.00  0.00    -0.744 OA
ENDBRANCH 101 105
ENDBRANCH  75  98
ENDBRANCH  49  50
ENDBRANCH  42  44
ENDBRANCH  41  42
ENDBRANCH  40  41
ENDBRANCH  39  40
ENDBRANCH  38  39
ENDBRANCH  37  38
ENDBRANCH   1  37
TORSDOF 26
