REMARK SMILES O=C(OCCOCCOCCOCCOC(=O)c1ccc(-c2c3nc(c(-c4cc(S(=O)(=O)[O-])ccc4F)c4ccc([nH]4)c(-c4cc(S(=O)(=O)[O-])ccc4F)c4nc(c(-c5cc(S(=O)(=O)[O-])ccc5F)c5ccc2[nH]5)C=C4)C=C3)cc1)C1=Cc2cc(Cl)cc(-c3ccc(CO)cc3)c2O[C@@H]1C(F)(F)F
REMARK SMILES IDX 9 1 8 2 7 3 6 4 5 5 4 6 3 7 2 8 1 9 81 10 82 11 99 12 83 13
REMARK SMILES IDX 98 14 84 15 97 16 85 17 88 18 86 19 87 20 100 21 101 22
REMARK SMILES IDX 102 23 103 24 89 25 90 26 96 27 91 28 95 29 92 30 93 31
REMARK SMILES IDX 94 32 10 34 11 35 12 36 13 37 14 38 15 39 16 40 17 41 18 42
REMARK SMILES IDX 19 43 80 44 20 45 79 46 21 47 22 48 23 49 73 50 24 51 78 52
REMARK SMILES IDX 72 53 74 54 25 55 77 56 71 57 70 58 26 60 58 61 38 62 57 63
REMARK SMILES IDX 39 64 42 65 56 66 75 67 40 68 41 69 55 71 76 72 43 73 27 74
REMARK SMILES IDX 28 75 36 76 29 77 35 78 37 79 34 80 30 81 31 82 32 83 33 84
REMARK SMILES IDX 59 85 60 86 68 87 61 88 67 89 69 90 66 91 62 92 63 93 64 94
REMARK SMILES IDX 65 95 44 96 45 97 53 98 46 99 52 100 54 101 51 102 47 103
REMARK SMILES IDX 48 104 49 105 50 106
REMARK H PARENT 94 33 74 59 42 70
REMARK Flexibility Score: inf
ROOT
ATOM      1  O   UNL     1       1.465  -3.368  -2.783  1.00  0.00    -0.377 OA
ENDROOT
BRANCH   1   2
ATOM      2  C   UNL     1       0.647  -2.616  -1.888  1.00  0.00     0.188 C 
BRANCH   2   3
ATOM      3  C   UNL     1       1.152  -1.194  -1.693  1.00  0.00     0.188 C 
BRANCH   3   4
ATOM      4  O   UNL     1       2.431  -1.161  -1.102  1.00  0.00    -0.376 OA
BRANCH   4   5
ATOM      5  C   UNL     1       2.578  -1.605   0.233  1.00  0.00     0.202 C 
BRANCH   5   6
ATOM      6  C   UNL     1       2.314  -0.579   1.346  1.00  0.00     0.261 C 
BRANCH   6   7
ATOM      7  O   UNL     1       1.960   0.751   0.891  1.00  0.00    -0.460 OA
BRANCH   7   8
ATOM      8  C   UNL     1       2.743   1.808   1.275  1.00  0.00     0.338 C 
ATOM      9  O   UNL     1       2.367   2.647   2.078  1.00  0.00    -0.246 OA
BRANCH   8  10
ATOM     10  C   UNL     1       4.037   1.875   0.546  1.00  0.00     0.087 C 
ATOM     11  C   UNL     1       5.188   2.249   1.124  1.00  0.00     0.027 C 
ATOM     12  C   UNL     1       4.160   1.062  -0.690  1.00  0.00     0.316 C 
ATOM     13  C   UNL     1       6.215   1.187   1.126  1.00  0.00     0.019 A 
ATOM     14  O   UNL     1       4.958  -0.128  -0.441  1.00  0.00    -0.475 OA
ATOM     15  C   UNL     1       7.420   1.321   1.805  1.00  0.00     0.032 A 
ATOM     16  C   UNL     1       5.863  -0.076   0.607  1.00  0.00     0.135 A 
ATOM     17  C   UNL     1       8.223   0.196   1.996  1.00  0.00     0.042 A 
ATOM     18  C   UNL     1       6.487  -1.253   1.103  1.00  0.00     0.026 A 
ATOM     19  Cl  UNL     1       9.803   0.379   2.646  1.00  0.00    -0.084 Cl
ATOM     20  C   UNL     1       7.731  -1.082   1.724  1.00  0.00     0.033 A 
BRANCH  12  21
ATOM     21  C   UNL     1       4.448   1.948  -1.919  1.00  0.00     0.430 C 
ATOM     22  F   UNL     1       4.212   1.295  -3.080  1.00  0.00    -0.167 F 
ATOM     23  F   UNL     1       3.595   3.018  -1.922  1.00  0.00    -0.167 F 
ATOM     24  F   UNL     1       5.696   2.452  -1.962  1.00  0.00    -0.167 F 
ENDBRANCH  12  21
BRANCH  18  25
ATOM     25  C   UNL     1       5.837  -2.592   1.221  1.00  0.00    -0.015 A 
ATOM     26  C   UNL     1       5.293  -3.035   2.454  1.00  0.00     0.009 A 
ATOM     27  C   UNL     1       5.747  -3.486   0.160  1.00  0.00     0.009 A 
ATOM     28  C   UNL     1       4.634  -4.278   2.593  1.00  0.00     0.007 A 
ATOM     29  C   UNL     1       5.044  -4.703   0.289  1.00  0.00     0.007 A 
ATOM     30  C   UNL     1       4.468  -5.119   1.494  1.00  0.00    -0.023 A 
BRANCH  30  31
ATOM     31  C   UNL     1       3.704  -6.421   1.583  1.00  0.00     0.191 C 
BRANCH  31  32
ATOM     32  O   UNL     1       4.276  -7.324   2.508  1.00  0.00    -0.392 OA
ATOM     33  H   UNL     1       5.177  -7.548   2.226  1.00  0.00     0.211 HD
ENDBRANCH  31  32
ENDBRANCH  30  31
ENDBRANCH  18  25
ENDBRANCH   8  10
ENDBRANCH   7   8
ENDBRANCH   6   7
ENDBRANCH   5   6
ENDBRANCH   4   5
ENDBRANCH   3   4
ENDBRANCH   2   3
ENDBRANCH   1   2
BRANCH   1  34
ATOM     34  C   UNL     1       2.659  -3.907  -2.218  1.00  0.00     0.188 C 
BRANCH  34  35
ATOM     35  C   UNL     1       3.972  -3.216  -2.647  1.00  0.00     0.188 C 
BRANCH  35  36
ATOM     36  O   UNL     1       4.256  -2.853  -3.989  1.00  0.00    -0.376 OA
BRANCH  36  37
ATOM     37  C   UNL     1       3.313  -3.153  -4.991  1.00  0.00     0.202 C 
BRANCH  37  38
ATOM     38  C   UNL     1       3.102  -4.644  -5.305  1.00  0.00     0.261 C 
BRANCH  38  39
ATOM     39  O   UNL     1       3.736  -5.577  -4.407  1.00  0.00    -0.460 OA
BRANCH  39  40
ATOM     40  C   UNL     1       5.094  -5.680  -4.484  1.00  0.00     0.338 C 
ATOM     41  O   UNL     1       5.798  -5.185  -5.323  1.00  0.00    -0.246 OA
BRANCH  40  42
ATOM     42  C   UNL     1       5.595  -6.397  -3.259  1.00  0.00     0.060 A 
ATOM     43  C   UNL     1       6.851  -6.042  -2.744  1.00  0.00     0.016 A 
ATOM     44  C   UNL     1       4.851  -7.379  -2.596  1.00  0.00     0.016 A 
ATOM     45  C   UNL     1       7.383  -6.691  -1.612  1.00  0.00     0.010 A 
ATOM     46  C   UNL     1       5.378  -8.018  -1.457  1.00  0.00     0.010 A 
ATOM     47  C   UNL     1       6.669  -7.711  -0.970  1.00  0.00    -0.014 A 
BRANCH  47  48
ATOM     48  C   UNL     1       7.318  -8.601   0.053  1.00  0.00     0.031 A 
ATOM     49  C   UNL     1       7.644 -10.018  -0.360  1.00  0.00     0.074 A 
ATOM     50  C   UNL     1       7.608  -8.225   1.319  1.00  0.00     0.049 A 
ATOM     51  N   UNL     1       8.165 -10.993   0.341  1.00  0.00    -0.248 NA
ATOM     52  C   UNL     1       7.331 -10.380  -1.752  1.00  0.00     0.031 C 
ATOM     53  C   UNL     1       7.407  -6.898   1.887  1.00  0.00     0.029 A 
ATOM     54  N   UNL     1       8.087  -8.957   2.387  1.00  0.00    -0.354 N 
ATOM     55  C   UNL     1       8.296 -12.059  -0.542  1.00  0.00     0.074 A 
ATOM     56  C   UNL     1       7.662 -11.659  -1.779  1.00  0.00     0.031 C 
ATOM     57  C   UNL     1       7.635  -6.935   3.214  1.00  0.00     0.029 A 
ATOM     58  C   UNL     1       8.070  -8.277   3.588  1.00  0.00     0.049 A 
ATOM     59  H   UNL     1       8.412  -9.882   2.299  1.00  0.00     0.167 HD
ATOM     60  C   UNL     1       8.954 -13.233  -0.379  1.00  0.00     0.034 A 
ATOM     61  C   UNL     1       8.376  -8.677   4.843  1.00  0.00     0.034 A 
ATOM     62  C   UNL     1       9.571 -13.653   0.852  1.00  0.00     0.049 A 
ATOM     63  C   UNL     1       8.970 -10.052   5.053  1.00  0.00     0.074 A 
ATOM     64  C   UNL     1      10.290 -14.808   1.105  1.00  0.00     0.029 A 
ATOM     65  N   UNL     1       9.529 -12.944   2.043  1.00  0.00    -0.354 N 
ATOM     66  N   UNL     1       9.188 -11.004   4.175  1.00  0.00    -0.248 NA
ATOM     67  C   UNL     1       9.425 -10.379   6.413  1.00  0.00     0.031 C 
ATOM     68  C   UNL     1      10.619 -14.831   2.465  1.00  0.00     0.029 A 
ATOM     69  C   UNL     1      10.180 -13.652   3.042  1.00  0.00     0.049 A 
ATOM     70  H   UNL     1       9.099 -12.066   2.163  1.00  0.00     0.167 HD
ATOM     71  C   UNL     1       9.871 -12.007   4.863  1.00  0.00     0.074 A 
ATOM     72  C   UNL     1      10.028 -11.543   6.224  1.00  0.00     0.031 C 
ATOM     73  C   UNL     1      10.342 -13.194   4.402  1.00  0.00     0.034 A 
BRANCH  60  74
ATOM     74  C   UNL     1       9.052 -14.125  -1.591  1.00  0.00     0.023 A 
ATOM     75  C   UNL     1       9.713 -13.685  -2.754  1.00  0.00     0.031 A 
ATOM     76  C   UNL     1       8.451 -15.393  -1.614  1.00  0.00     0.131 A 
ATOM     77  C   UNL     1       9.675 -14.463  -3.918  1.00  0.00     0.055 A 
ATOM     78  C   UNL     1       8.499 -16.204  -2.750  1.00  0.00     0.041 A 
ATOM     79  F   UNL     1       7.790 -15.856  -0.542  1.00  0.00    -0.206 F 
ATOM     80  C   UNL     1       9.097 -15.733  -3.916  1.00  0.00     0.022 A 
BRANCH  77  81
ATOM     81  S   UNL     1      10.245 -13.716  -5.468  1.00  0.00     0.124 S 
ATOM     82  O   UNL     1       9.336 -12.580  -5.597  1.00  0.00    -0.237 OA
ATOM     83  O   UNL     1      11.635 -13.391  -5.171  1.00  0.00    -0.237 OA
ATOM     84  O   UNL     1      10.048 -14.779  -6.452  1.00  0.00    -0.744 OA
ENDBRANCH  77  81
ENDBRANCH  60  74
BRANCH  61  85
ATOM     85  C   UNL     1       8.149  -7.786   6.025  1.00  0.00     0.023 A 
ATOM     86  C   UNL     1       9.216  -7.309   6.805  1.00  0.00     0.031 A 
ATOM     87  C   UNL     1       6.842  -7.507   6.465  1.00  0.00     0.131 A 
ATOM     88  C   UNL     1       8.961  -6.646   8.018  1.00  0.00     0.055 A 
ATOM     89  C   UNL     1       6.593  -6.800   7.646  1.00  0.00     0.041 A 
ATOM     90  F   UNL     1       5.783  -7.946   5.768  1.00  0.00    -0.206 F 
ATOM     91  C   UNL     1       7.656  -6.381   8.440  1.00  0.00     0.022 A 
BRANCH  88  92
ATOM     92  S   UNL     1      10.361  -6.238   9.101  1.00  0.00     0.124 S 
ATOM     93  O   UNL     1      10.964  -7.548   9.313  1.00  0.00    -0.237 OA
ATOM     94  O   UNL     1      11.120  -5.308   8.272  1.00  0.00    -0.237 OA
ATOM     95  O   UNL     1       9.723  -5.645  10.275  1.00  0.00    -0.744 OA
ENDBRANCH  88  92
ENDBRANCH  61  85
BRANCH  73  96
ATOM     96  C   UNL     1      11.140 -14.046   5.362  1.00  0.00     0.023 A 
ATOM     97  C   UNL     1      10.578 -14.568   6.540  1.00  0.00     0.031 A 
ATOM     98  C   UNL     1      12.500 -14.311   5.113  1.00  0.00     0.131 A 
ATOM     99  C   UNL     1      11.387 -15.251   7.461  1.00  0.00     0.055 A 
ATOM    100  C   UNL     1      13.280 -15.062   5.993  1.00  0.00     0.041 A 
ATOM    101  F   UNL     1      13.098 -13.837   4.008  1.00  0.00    -0.206 F 
ATOM    102  C   UNL     1      12.730 -15.519   7.186  1.00  0.00     0.022 A 
BRANCH  99 103
ATOM    103  S   UNL     1      10.694 -15.660   9.087  1.00  0.00     0.124 S 
ATOM    104  O   UNL     1      10.267 -14.351   9.570  1.00  0.00    -0.237 OA
ATOM    105  O   UNL     1       9.625 -16.593   8.744  1.00  0.00    -0.237 OA
ATOM    106  O   UNL     1      11.824 -16.248   9.803  1.00  0.00    -0.744 OA
ENDBRANCH  99 103
ENDBRANCH  73  96
ENDBRANCH  47  48
ENDBRANCH  40  42
ENDBRANCH  39  40
ENDBRANCH  38  39
ENDBRANCH  37  38
ENDBRANCH  36  37
ENDBRANCH  35  36
ENDBRANCH  34  35
ENDBRANCH   1  34
TORSDOF 27
