REMARK SMILES CCN1C(=O)[C@H](CC(=O)Nc2ccc(C(=O)OCCOCCOCCOCCOC(=O)c3ccc(-c4c5nc(c(-c6cc(S(=O)(=O)[O-])ccc6F)c6ccc([nH]6)c(-c6cc(S(=O)(=O)[O-])ccc6F)c6nc(c(-c7cc(S(=O)(=O)[O-])ccc7F)c7ccc4[nH]7)C=C6)C=C5)cc3)cc2)S/C1=[NH+]\c1ccc(Cl)cc1
REMARK SMILES IDX 22 1 21 2 20 3 19 4 18 5 17 6 15 7 16 8 14 9 11 10 12 11
REMARK SMILES IDX 96 12 13 13 95 14 10 15 8 16 9 17 7 19 6 20 3 21 4 22 98 23
REMARK SMILES IDX 5 24 97 25 99 26 2 28 1 29 100 30 101 31 106 32 102 33
REMARK SMILES IDX 105 34 103 35 104 36 23 37 24 38 25 39 26 40 27 41 28 42
REMARK SMILES IDX 29 43 30 44 31 45 32 46 33 47 94 48 34 49 93 50 35 51 36 52
REMARK SMILES IDX 37 53 87 54 38 55 92 56 86 57 88 58 39 59 91 60 85 61 84 62
REMARK SMILES IDX 40 64 72 65 52 66 71 67 53 68 56 69 70 70 89 71 54 72 55 73
REMARK SMILES IDX 69 75 90 76 57 77 41 78 42 79 50 80 43 81 49 82 51 83 48 84
REMARK SMILES IDX 44 85 45 86 46 87 47 88 73 89 74 90 82 91 75 92 81 93 83 94
REMARK SMILES IDX 80 95 76 96 77 97 78 98 79 99 58 100 59 101 67 102 60 103
REMARK SMILES IDX 66 104 68 105 65 106 61 107 62 108 63 109 64 110
REMARK H PARENT 10 18 99 27 88 63 56 74
REMARK Flexibility Score: inf
ROOT
ATOM      1  C   UNL     1       0.379  -3.372  -0.560  1.00  0.00     0.188 C 
ENDROOT
BRANCH   1   2
ATOM      2  C   UNL     1      -1.092  -3.850  -0.647  1.00  0.00     0.188 C 
BRANCH   2   3
ATOM      3  O   UNL     1      -1.875  -3.146  -1.591  1.00  0.00    -0.376 OA
BRANCH   3   4
ATOM      4  C   UNL     1      -3.020  -2.424  -1.186  1.00  0.00     0.202 C 
BRANCH   4   5
ATOM      5  C   UNL     1      -2.749  -1.212  -0.301  1.00  0.00     0.261 C 
BRANCH   5   6
ATOM      6  O   UNL     1      -2.063  -1.524   0.915  1.00  0.00    -0.460 OA
BRANCH   6   7
ATOM      7  C   UNL     1      -2.623  -2.314   1.862  1.00  0.00     0.338 C 
ATOM      8  O   UNL     1      -3.752  -2.765   1.869  1.00  0.00    -0.246 OA
BRANCH   7   9
ATOM      9  C   UNL     1      -1.563  -2.585   2.882  1.00  0.00     0.060 A 
ATOM     10  C   UNL     1       0.402  -2.672   4.856  1.00  0.00     0.041 A 
ATOM     11  C   UNL     1      -0.784  -3.380   5.043  1.00  0.00     0.027 A 
ATOM     12  C   UNL     1       0.709  -2.213   3.598  1.00  0.00     0.027 A 
ATOM     13  C   UNL     1      -1.778  -3.339   4.038  1.00  0.00     0.018 A 
ATOM     14  C   UNL     1      -0.287  -2.080   2.664  1.00  0.00     0.018 A 
BRANCH  10  15
ATOM     15  N   UNL     1       1.282  -2.331   5.891  1.00  0.00    -0.326 N 
ATOM     16  C   UNL     1       1.963  -1.119   5.989  1.00  0.00     0.226 C 
ATOM     17  O   UNL     1       2.955  -1.032   6.713  1.00  0.00    -0.275 OA
ATOM     18  H   UNL     1       1.430  -2.996   6.602  1.00  0.00     0.169 HD
BRANCH  16  19
ATOM     19  C   UNL     1       1.313   0.147   5.380  1.00  0.00     0.128 C 
BRANCH  19  20
ATOM     20  C   UNL     1       2.190   1.030   4.478  1.00  0.00     0.183 C 
ATOM     21  N   UNL     1       1.460   0.984   2.173  1.00  0.00    -0.190 N 
ATOM     22  C   UNL     1       2.381   0.483   3.068  1.00  0.00     0.324 C 
ATOM     23  C   UNL     1       0.816   2.130   2.549  1.00  0.00     0.319 C 
ATOM     24  O   UNL     1       3.247  -0.343   2.796  1.00  0.00    -0.245 OA
ATOM     25  S   UNL     1       1.300   2.616   4.153  1.00  0.00    -0.022 SA
ATOM     26  N   UNL     1       0.017   2.720   1.727  1.00  0.00    -0.235 N 
ATOM     27  H   UNL     1      -0.350   2.197   0.977  1.00  0.00     0.313 HD
BRANCH  21  28
ATOM     28  C   UNL     1       1.271   0.420   0.832  1.00  0.00     0.243 C 
ATOM     29  C   UNL     1       1.800   1.250  -0.328  1.00  0.00     0.054 C 
ENDBRANCH  21  28
BRANCH  26  30
ATOM     30  C   UNL     1      -0.355   4.059   1.842  1.00  0.00     0.125 A 
ATOM     31  C   UNL     1      -1.694   4.430   1.704  1.00  0.00     0.053 A 
ATOM     32  C   UNL     1       0.630   5.057   1.823  1.00  0.00     0.053 A 
ATOM     33  C   UNL     1      -2.044   5.780   1.579  1.00  0.00     0.025 A 
ATOM     34  C   UNL     1       0.288   6.403   1.708  1.00  0.00     0.025 A 
ATOM     35  C   UNL     1      -1.050   6.759   1.585  1.00  0.00     0.041 A 
ATOM     36  Cl  UNL     1      -1.475   8.415   1.410  1.00  0.00    -0.084 Cl
ENDBRANCH  26  30
ENDBRANCH  19  20
ENDBRANCH  16  19
ENDBRANCH  10  15
ENDBRANCH   7   9
ENDBRANCH   6   7
ENDBRANCH   5   6
ENDBRANCH   4   5
ENDBRANCH   3   4
ENDBRANCH   2   3
ENDBRANCH   1   2
BRANCH   1  37
ATOM     37  O   UNL     1       1.008  -2.557  -1.543  1.00  0.00    -0.377 OA
BRANCH  37  38
ATOM     38  C   UNL     1       0.337  -2.289  -2.764  1.00  0.00     0.188 C 
BRANCH  38  39
ATOM     39  C   UNL     1      -0.023  -3.514  -3.631  1.00  0.00     0.188 C 
BRANCH  39  40
ATOM     40  O   UNL     1       0.113  -4.750  -2.946  1.00  0.00    -0.376 OA
BRANCH  40  41
ATOM     41  C   UNL     1       1.275  -5.528  -3.169  1.00  0.00     0.202 C 
BRANCH  41  42
ATOM     42  C   UNL     1       2.671  -4.913  -2.975  1.00  0.00     0.261 C 
BRANCH  42  43
ATOM     43  O   UNL     1       2.916  -3.635  -3.571  1.00  0.00    -0.460 OA
BRANCH  43  44
ATOM     44  C   UNL     1       2.906  -3.555  -4.917  1.00  0.00     0.338 C 
ATOM     45  O   UNL     1       2.687  -4.460  -5.706  1.00  0.00    -0.246 OA
BRANCH  44  46
ATOM     46  C   UNL     1       3.029  -2.124  -5.260  1.00  0.00     0.060 A 
ATOM     47  C   UNL     1       1.991  -1.477  -5.947  1.00  0.00     0.016 A 
ATOM     48  C   UNL     1       4.171  -1.420  -4.875  1.00  0.00     0.016 A 
ATOM     49  C   UNL     1       2.109  -0.126  -6.279  1.00  0.00     0.010 A 
ATOM     50  C   UNL     1       4.301  -0.079  -5.233  1.00  0.00     0.010 A 
ATOM     51  C   UNL     1       3.287   0.564  -5.967  1.00  0.00    -0.014 A 
BRANCH  51  52
ATOM     52  C   UNL     1       3.598   1.861  -6.614  1.00  0.00     0.031 A 
ATOM     53  C   UNL     1       4.468   1.826  -7.841  1.00  0.00     0.074 A 
ATOM     54  C   UNL     1       3.153   3.031  -6.122  1.00  0.00     0.049 A 
ATOM     55  N   UNL     1       5.049   2.806  -8.478  1.00  0.00    -0.248 NA
ATOM     56  C   UNL     1       4.725   0.494  -8.415  1.00  0.00     0.031 C 
ATOM     57  C   UNL     1       2.240   3.184  -4.992  1.00  0.00     0.029 A 
ATOM     58  N   UNL     1       3.434   4.319  -6.507  1.00  0.00    -0.354 N 
ATOM     59  C   UNL     1       5.748   2.211  -9.523  1.00  0.00     0.074 A 
ATOM     60  C   UNL     1       5.546   0.783  -9.412  1.00  0.00     0.031 C 
ATOM     61  C   UNL     1       2.053   4.497  -4.760  1.00  0.00     0.029 A 
ATOM     62  C   UNL     1       2.879   5.274  -5.685  1.00  0.00     0.049 A 
ATOM     63  H   UNL     1       3.980   4.539  -7.295  1.00  0.00     0.167 HD
ATOM     64  C   UNL     1       6.486   2.804 -10.491  1.00  0.00     0.034 A 
ATOM     65  C   UNL     1       3.057   6.612  -5.662  1.00  0.00     0.034 A 
ATOM     66  C   UNL     1       6.692   4.227 -10.574  1.00  0.00     0.049 A 
ATOM     67  C   UNL     1       3.994   7.243  -6.675  1.00  0.00     0.074 A 
ATOM     68  C   UNL     1       7.446   4.936 -11.491  1.00  0.00     0.029 A 
ATOM     69  N   UNL     1       6.142   5.158  -9.704  1.00  0.00    -0.354 N 
ATOM     70  N   UNL     1       4.682   6.670  -7.637  1.00  0.00    -0.248 NA
ATOM     71  C   UNL     1       4.176   8.700  -6.602  1.00  0.00     0.031 C 
ATOM     72  C   UNL     1       7.409   6.287 -11.135  1.00  0.00     0.029 A 
ATOM     73  C   UNL     1       6.555   6.432 -10.053  1.00  0.00     0.049 A 
ATOM     74  H   UNL     1       5.546   4.944  -8.950  1.00  0.00     0.167 HD
ATOM     75  C   UNL     1       5.324   7.705  -8.316  1.00  0.00     0.074 A 
ATOM     76  C   UNL     1       4.947   8.934  -7.653  1.00  0.00     0.031 C 
ATOM     77  C   UNL     1       6.141   7.649  -9.398  1.00  0.00     0.034 A 
BRANCH  64  78
ATOM     78  C   UNL     1       7.158   1.910 -11.501  1.00  0.00     0.023 A 
ATOM     79  C   UNL     1       6.414   1.127 -12.400  1.00  0.00     0.031 A 
ATOM     80  C   UNL     1       8.560   1.833 -11.561  1.00  0.00     0.131 A 
ATOM     81  C   UNL     1       7.074   0.261 -13.283  1.00  0.00     0.055 A 
ATOM     82  C   UNL     1       9.212   1.028 -12.497  1.00  0.00     0.041 A 
ATOM     83  F   UNL     1       9.321   2.535 -10.707  1.00  0.00    -0.206 F 
ATOM     84  C   UNL     1       8.468   0.227 -13.358  1.00  0.00     0.022 A 
BRANCH  81  85
ATOM     85  S   UNL     1       6.083  -0.913 -14.246  1.00  0.00     0.124 S 
ATOM     86  O   UNL     1       5.431  -1.685 -13.190  1.00  0.00    -0.237 OA
ATOM     87  O   UNL     1       5.216  -0.034 -15.022  1.00  0.00    -0.237 OA
ATOM     88  O   UNL     1       7.080  -1.649 -15.021  1.00  0.00    -0.744 OA
ENDBRANCH  81  85
ENDBRANCH  64  78
BRANCH  65  89
ATOM     89  C   UNL     1       2.390   7.462  -4.630  1.00  0.00     0.023 A 
ATOM     90  C   UNL     1       1.542   8.515  -5.008  1.00  0.00     0.031 A 
ATOM     91  C   UNL     1       2.671   7.310  -3.260  1.00  0.00     0.131 A 
ATOM     92  C   UNL     1       1.074   9.422  -4.044  1.00  0.00     0.055 A 
ATOM     93  C   UNL     1       2.139   8.169  -2.295  1.00  0.00     0.041 A 
ATOM     94  F   UNL     1       3.483   6.328  -2.836  1.00  0.00    -0.206 F 
ATOM     95  C   UNL     1       1.352   9.246  -2.687  1.00  0.00     0.022 A 
BRANCH  92  96
ATOM     96  S   UNL     1       0.230  10.924  -4.613  1.00  0.00     0.124 S 
ATOM     97  O   UNL     1       1.217  11.486  -5.527  1.00  0.00    -0.237 OA
ATOM     98  O   UNL     1      -0.976  10.379  -5.226  1.00  0.00    -0.237 OA
ATOM     99  O   UNL     1       0.017  11.681  -3.381  1.00  0.00    -0.744 OA
ENDBRANCH  92  96
ENDBRANCH  65  89
BRANCH  77 100
ATOM    100  C   UNL     1       6.598   8.955 -10.005  1.00  0.00     0.023 A 
ATOM    101  C   UNL     1       7.483   9.825  -9.347  1.00  0.00     0.031 A 
ATOM    102  C   UNL     1       6.160   9.308 -11.296  1.00  0.00     0.131 A 
ATOM    103  C   UNL     1       7.870  11.024  -9.966  1.00  0.00     0.055 A 
ATOM    104  C   UNL     1       6.596  10.470 -11.930  1.00  0.00     0.041 A 
ATOM    105  F   UNL     1       5.313   8.513 -11.970  1.00  0.00    -0.206 F 
ATOM    106  C   UNL     1       7.449  11.341 -11.261  1.00  0.00     0.022 A 
BRANCH 103 107
ATOM    107  S   UNL     1       8.883  12.204  -9.032  1.00  0.00     0.124 S 
ATOM    108  O   UNL     1       8.035  12.488  -7.879  1.00  0.00    -0.237 OA
ATOM    109  O   UNL     1      10.091  11.433  -8.760  1.00  0.00    -0.237 OA
ATOM    110  O   UNL     1       9.058  13.318  -9.963  1.00  0.00    -0.744 OA
ENDBRANCH 103 107
ENDBRANCH  77 100
ENDBRANCH  51  52
ENDBRANCH  44  46
ENDBRANCH  43  44
ENDBRANCH  42  43
ENDBRANCH  41  42
ENDBRANCH  40  41
ENDBRANCH  39  40
ENDBRANCH  38  39
ENDBRANCH  37  38
ENDBRANCH   1  37
TORSDOF 28
