REMARK SMILES O=C(OCCOCCOCCOCCOC(=O)c1ccccc1/C=C1/SC(=S)N(C2CCCCC2)C1=O)c1ccc(-c2c3nc(c(-c4cc(S(=O)(=O)[O-])ccc4F)c4ccc([nH]4)c(-c4cc(S(=O)(=O)[O-])ccc4F)c4nc(c(-c5cc(S(=O)(=O)[O-])ccc5F)c5ccc2[nH]5)C=C4)C=C3)cc1
REMARK SMILES IDX 8 1 7 2 6 3 5 4 4 5 3 6 2 7 1 8 38 9 39 10 100 11 40 12
REMARK SMILES IDX 99 13 41 14 42 15 43 16 93 17 44 18 98 19 92 20 94 21 45 22
REMARK SMILES IDX 97 23 91 24 90 25 46 27 78 28 58 29 77 30 59 31 62 32 76 33
REMARK SMILES IDX 95 34 60 35 61 36 75 38 96 39 63 40 47 41 48 42 56 43 49 44
REMARK SMILES IDX 55 45 57 46 54 47 50 48 51 49 52 50 53 51 79 52 80 53 88 54
REMARK SMILES IDX 81 55 87 56 89 57 86 58 82 59 83 60 84 61 85 62 64 63 65 64
REMARK SMILES IDX 73 65 66 66 72 67 74 68 71 69 67 70 68 71 69 72 70 73 9 74
REMARK SMILES IDX 10 75 11 76 12 77 13 78 14 79 15 80 16 81 17 82 18 83 19 84
REMARK SMILES IDX 23 85 20 86 22 87 21 88 24 89 25 90 26 91 36 92 27 93 29 94
REMARK SMILES IDX 37 95 28 96 30 97 31 98 35 99 32 100 34 101 33 102
REMARK H PARENT 94 26 62 37
REMARK Flexibility Score: inf
ROOT
ATOM      1  C   UNL     1       1.861   1.884  -1.774  1.00  0.00     0.188 C 
ENDROOT
BRANCH   1   2
ATOM      2  C   UNL     1       2.286   0.500  -1.282  1.00  0.00     0.188 C 
BRANCH   2   3
ATOM      3  O   UNL     1       3.610   0.525  -0.758  1.00  0.00    -0.376 OA
BRANCH   3   4
ATOM      4  C   UNL     1       4.470  -0.566  -1.080  1.00  0.00     0.202 C 
BRANCH   4   5
ATOM      5  C   UNL     1       4.194  -1.847  -0.298  1.00  0.00     0.261 C 
BRANCH   5   6
ATOM      6  O   UNL     1       2.831  -1.952   0.136  1.00  0.00    -0.460 OA
BRANCH   6   7
ATOM      7  C   UNL     1       2.270  -1.428   1.255  1.00  0.00     0.338 C 
ATOM      8  O   UNL     1       1.066  -1.616   1.437  1.00  0.00    -0.246 OA
BRANCH   7   9
ATOM      9  C   UNL     1       3.011  -0.638   2.287  1.00  0.00     0.060 A 
ATOM     10  C   UNL     1       4.139   0.149   2.059  1.00  0.00     0.016 A 
ATOM     11  C   UNL     1       2.474  -0.642   3.585  1.00  0.00     0.016 A 
ATOM     12  C   UNL     1       4.772   0.840   3.075  1.00  0.00     0.010 A 
ATOM     13  C   UNL     1       3.091   0.068   4.621  1.00  0.00     0.010 A 
ATOM     14  C   UNL     1       4.271   0.774   4.366  1.00  0.00    -0.014 A 
BRANCH  14  15
ATOM     15  C   UNL     1       5.164   1.236   5.440  1.00  0.00     0.031 A 
ATOM     16  C   UNL     1       5.899   0.179   6.209  1.00  0.00     0.074 A 
ATOM     17  C   UNL     1       5.454   2.543   5.558  1.00  0.00     0.049 A 
ATOM     18  N   UNL     1       6.704   0.297   7.226  1.00  0.00    -0.248 NA
ATOM     19  C   UNL     1       5.706  -1.208   5.751  1.00  0.00     0.031 C 
ATOM     20  C   UNL     1       4.924   3.605   4.696  1.00  0.00     0.029 A 
ATOM     21  N   UNL     1       6.299   3.196   6.410  1.00  0.00    -0.354 N 
ATOM     22  C   UNL     1       7.077  -1.002   7.557  1.00  0.00     0.074 A 
ATOM     23  C   UNL     1       6.402  -1.891   6.642  1.00  0.00     0.031 C 
ATOM     24  C   UNL     1       5.479   4.775   5.053  1.00  0.00     0.029 A 
ATOM     25  C   UNL     1       6.325   4.558   6.219  1.00  0.00     0.049 A 
ATOM     26  H   UNL     1       6.837   2.737   7.094  1.00  0.00     0.167 HD
ATOM     27  C   UNL     1       7.906  -1.400   8.550  1.00  0.00     0.034 A 
ATOM     28  C   UNL     1       6.933   5.512   6.949  1.00  0.00     0.034 A 
ATOM     29  C   UNL     1       8.544  -0.460   9.434  1.00  0.00     0.049 A 
ATOM     30  C   UNL     1       7.728   5.050   8.146  1.00  0.00     0.074 A 
ATOM     31  C   UNL     1       9.329  -0.701  10.544  1.00  0.00     0.029 A 
ATOM     32  N   UNL     1       8.456   0.925   9.298  1.00  0.00    -0.354 N 
ATOM     33  N   UNL     1       7.986   3.821   8.542  1.00  0.00    -0.248 NA
ATOM     34  C   UNL     1       8.302   6.092   9.000  1.00  0.00     0.031 C 
ATOM     35  C   UNL     1       9.650   0.534  11.120  1.00  0.00     0.029 A 
ATOM     36  C   UNL     1       9.145   1.551  10.320  1.00  0.00     0.049 A 
ATOM     37  H   UNL     1       7.972   1.390   8.578  1.00  0.00     0.167 HD
ATOM     38  C   UNL     1       8.777   3.943   9.678  1.00  0.00     0.074 A 
ATOM     39  C   UNL     1       8.967   5.368   9.887  1.00  0.00     0.031 C 
ATOM     40  C   UNL     1       9.300   2.980  10.482  1.00  0.00     0.034 A 
BRANCH  27  41
ATOM     41  C   UNL     1       8.030  -2.888   8.777  1.00  0.00     0.023 A 
ATOM     42  C   UNL     1       8.553  -3.756   7.800  1.00  0.00     0.031 A 
ATOM     43  C   UNL     1       7.484  -3.462   9.939  1.00  0.00     0.131 A 
ATOM     44  C   UNL     1       8.422  -5.146   7.957  1.00  0.00     0.055 A 
ATOM     45  C   UNL     1       7.443  -4.845  10.131  1.00  0.00     0.041 A 
ATOM     46  F   UNL     1       6.934  -2.690  10.890  1.00  0.00    -0.206 F 
ATOM     47  C   UNL     1       7.894  -5.696   9.127  1.00  0.00     0.022 A 
BRANCH  44  48
ATOM     48  S   UNL     1       8.766  -6.218   6.532  1.00  0.00     0.124 S 
ATOM     49  O   UNL     1       7.810  -5.714   5.547  1.00  0.00    -0.237 OA
ATOM     50  O   UNL     1      10.170  -5.939   6.256  1.00  0.00    -0.237 OA
ATOM     51  O   UNL     1       8.482  -7.560   7.034  1.00  0.00    -0.744 OA
ENDBRANCH  44  48
ENDBRANCH  27  41
BRANCH  28  52
ATOM     52  C   UNL     1       6.753   6.960   6.635  1.00  0.00     0.023 A 
ATOM     53  C   UNL     1       7.853   7.794   6.375  1.00  0.00     0.031 A 
ATOM     54  C   UNL     1       5.475   7.553   6.646  1.00  0.00     0.131 A 
ATOM     55  C   UNL     1       7.660   9.173   6.185  1.00  0.00     0.055 A 
ATOM     56  C   UNL     1       5.283   8.913   6.395  1.00  0.00     0.041 A 
ATOM     57  F   UNL     1       4.383   6.813   6.898  1.00  0.00    -0.206 F 
ATOM     58  C   UNL     1       6.382   9.735   6.178  1.00  0.00     0.022 A 
BRANCH  55  59
ATOM     59  S   UNL     1       9.118  10.244   6.049  1.00  0.00     0.124 S 
ATOM     60  O   UNL     1       9.824   9.943   7.289  1.00  0.00    -0.237 OA
ATOM     61  O   UNL     1       9.738   9.757   4.821  1.00  0.00    -0.237 OA
ATOM     62  O   UNL     1       8.547  11.587   5.966  1.00  0.00    -0.744 OA
ENDBRANCH  55  59
ENDBRANCH  28  52
BRANCH  40  63
ATOM     63  C   UNL     1      10.170   3.454  11.616  1.00  0.00     0.023 A 
ATOM     64  C   UNL     1       9.647   4.197  12.685  1.00  0.00     0.031 A 
ATOM     65  C   UNL     1      11.545   3.161  11.614  1.00  0.00     0.131 A 
ATOM     66  C   UNL     1      10.508   4.683  13.678  1.00  0.00     0.055 A 
ATOM     67  C   UNL     1      12.383   3.580  12.645  1.00  0.00     0.041 A 
ATOM     68  F   UNL     1      12.093   2.455  10.612  1.00  0.00    -0.206 F 
ATOM     69  C   UNL     1      11.868   4.360  13.677  1.00  0.00     0.022 A 
BRANCH  66  70
ATOM     70  S   UNL     1       9.846   5.839  14.906  1.00  0.00     0.124 S 
ATOM     71  O   UNL     1       9.335   6.915  14.063  1.00  0.00    -0.237 OA
ATOM     72  O   UNL     1       8.839   5.030  15.586  1.00  0.00    -0.237 OA
ATOM     73  O   UNL     1      11.013   6.184  15.714  1.00  0.00    -0.744 OA
ENDBRANCH  66  70
ENDBRANCH  40  63
ENDBRANCH  14  15
ENDBRANCH   7   9
ENDBRANCH   6   7
ENDBRANCH   5   6
ENDBRANCH   4   5
ENDBRANCH   3   4
ENDBRANCH   2   3
ENDBRANCH   1   2
BRANCH   1  74
ATOM     74  O   UNL     1       2.597   2.389  -2.886  1.00  0.00    -0.377 OA
BRANCH  74  75
ATOM     75  C   UNL     1       4.014   2.256  -2.815  1.00  0.00     0.188 C 
BRANCH  75  76
ATOM     76  C   UNL     1       4.773   2.889  -1.620  1.00  0.00     0.188 C 
BRANCH  76  77
ATOM     77  O   UNL     1       3.928   3.451  -0.630  1.00  0.00    -0.376 OA
BRANCH  77  78
ATOM     78  C   UNL     1       3.815   4.867  -0.625  1.00  0.00     0.202 C 
BRANCH  78  79
ATOM     79  C   UNL     1       3.215   5.527  -1.873  1.00  0.00     0.261 C 
BRANCH  79  80
ATOM     80  O   UNL     1       3.754   5.139  -3.150  1.00  0.00    -0.460 OA
BRANCH  80  81
ATOM     81  C   UNL     1       5.053   5.369  -3.446  1.00  0.00     0.338 C 
ATOM     82  O   UNL     1       5.877   5.896  -2.720  1.00  0.00    -0.246 OA
BRANCH  81  83
ATOM     83  C   UNL     1       5.348   4.725  -4.761  1.00  0.00     0.067 A 
ATOM     84  C   UNL     1       6.439   3.841  -4.796  1.00  0.00     0.016 A 
ATOM     85  C   UNL     1       4.500   4.866  -5.886  1.00  0.00    -0.010 A 
ATOM     86  C   UNL     1       6.634   3.019  -5.905  1.00  0.00     0.001 A 
ATOM     87  C   UNL     1       4.717   4.029  -6.991  1.00  0.00     0.009 A 
ATOM     88  C   UNL     1       5.767   3.104  -6.993  1.00  0.00     0.001 A 
BRANCH  85  89
ATOM     89  C   UNL     1       3.361   5.807  -5.931  1.00  0.00     0.030 C 
ATOM     90  C   UNL     1       3.431   7.081  -5.517  1.00  0.00     0.081 C 
ATOM     91  S   UNL     1       2.084   8.066  -5.131  1.00  0.00    -0.054 SA
ATOM     92  C   UNL     1       4.662   7.763  -5.048  1.00  0.00     0.266 C 
ATOM     93  C   UNL     1       3.039   9.009  -3.962  1.00  0.00     0.148 C 
ATOM     94  N   UNL     1       4.356   8.599  -3.989  1.00  0.00    -0.290 N 
ATOM     95  O   UNL     1       5.759   7.597  -5.562  1.00  0.00    -0.268 OA
ATOM     96  S   UNL     1       2.304  10.199  -3.055  1.00  0.00    -0.052 S 
BRANCH  94  97
ATOM     97  C   UNL     1       5.499   9.055  -3.159  1.00  0.00     0.092 C 
ATOM     98  C   UNL     1       6.066  10.377  -3.682  1.00  0.00     0.025 C 
ATOM     99  C   UNL     1       5.264   9.036  -1.634  1.00  0.00     0.025 C 
ATOM    100  C   UNL     1       7.259  10.846  -2.857  1.00  0.00     0.002 C 
ATOM    101  C   UNL     1       6.458   9.578  -0.848  1.00  0.00     0.002 C 
ATOM    102  C   UNL     1       6.902  10.936  -1.380  1.00  0.00     0.000 C 
ENDBRANCH  94  97
ENDBRANCH  85  89
ENDBRANCH  81  83
ENDBRANCH  80  81
ENDBRANCH  79  80
ENDBRANCH  78  79
ENDBRANCH  77  78
ENDBRANCH  76  77
ENDBRANCH  75  76
ENDBRANCH  74  75
ENDBRANCH   1  74
TORSDOF 25
