REMARK SMILES CCC1C[NH+]([C@@H](Cc2c[nH]c3ccccc23)C(=O)OCCOCCOCCOCCOC(=O)c2ccc(-c3c4nc(c(-c5cc(S(=O)(=O)[O-])ccc5F)c5ccc([nH]5)c(-c5cc(S(=O)(=O)[O-])ccc5F)c5nc(c(-c6cc(S(=O)(=O)[O-])ccc6F)c6ccc3[nH]6)C=C5)C=C4)cc2)C1
REMARK SMILES IDX 26 1 25 2 24 3 23 4 22 5 21 6 20 7 19 8 17 9 18 10 6 11 5 12
REMARK SMILES IDX 3 13 4 14 97 15 2 17 1 18 7 19 8 20 9 21 16 22 10 23 11 24
REMARK SMILES IDX 15 25 12 27 14 28 13 29 27 30 28 31 29 32 30 33 31 34 32 35
REMARK SMILES IDX 33 36 34 37 35 38 96 39 36 40 95 41 37 42 38 43 39 44 89 45
REMARK SMILES IDX 40 46 94 47 88 48 90 49 41 50 93 51 87 52 86 53 42 55 74 56
REMARK SMILES IDX 54 57 73 58 55 59 58 60 72 61 91 62 56 63 57 64 71 66 92 67
REMARK SMILES IDX 59 68 43 69 44 70 52 71 45 72 51 73 53 74 50 75 46 76 47 77
REMARK SMILES IDX 48 78 49 79 75 80 76 81 84 82 77 83 83 84 85 85 82 86 78 87
REMARK SMILES IDX 79 88 80 89 81 90 60 91 61 92 69 93 62 94 68 95 70 96 67 97
REMARK SMILES IDX 63 98 64 99 65 100 66 101
REMARK H PARENT 5 16 10 26 90 54 58 65
REMARK Flexibility Score: inf
ROOT
ATOM      1  C   UNL     1       1.251   5.997   0.480  1.00  0.00     0.188 C 
ENDROOT
BRANCH   1   2
ATOM      2  O   UNL     1       1.463   5.137   1.590  1.00  0.00    -0.377 OA
BRANCH   2   3
ATOM      3  C   UNL     1       0.729   5.386   2.771  1.00  0.00     0.188 C 
BRANCH   3   4
ATOM      4  C   UNL     1       1.495   6.178   3.842  1.00  0.00     0.188 C 
BRANCH   4   5
ATOM      5  O   UNL     1       2.614   6.982   3.497  1.00  0.00    -0.376 OA
BRANCH   5   6
ATOM      6  C   UNL     1       3.677   6.458   2.714  1.00  0.00     0.202 C 
BRANCH   6   7
ATOM      7  C   UNL     1       4.245   5.047   2.917  1.00  0.00     0.261 C 
BRANCH   7   8
ATOM      8  O   UNL     1       3.300   3.974   3.026  1.00  0.00    -0.459 OA
BRANCH   8   9
ATOM      9  C   UNL     1       3.156   3.417   4.252  1.00  0.00     0.365 C 
ATOM     10  O   UNL     1       3.707   3.847   5.265  1.00  0.00    -0.245 OA
BRANCH   9  11
ATOM     11  C   UNL     1       2.323   2.127   4.277  1.00  0.00     0.299 C 
BRANCH  11  12
ATOM     12  N   UNL     1       1.081   2.179   3.454  1.00  0.00    -0.322 N 
ATOM     13  C   UNL     1       0.764   0.460   2.248  1.00  0.00     0.099 C 
ATOM     14  C   UNL     1       1.223   1.915   2.010  1.00  0.00     0.272 C 
ATOM     15  C   UNL     1       0.197   0.999   3.578  1.00  0.00     0.272 C 
ATOM     16  H   UNL     1       0.777   3.101   3.768  1.00  0.00     0.348 HD
BRANCH  13  17
ATOM     17  C   UNL     1      -0.098  -0.251   1.216  1.00  0.00     0.012 C 
ATOM     18  C   UNL     1       0.542  -0.150  -0.164  1.00  0.00     0.004 C 
ENDBRANCH  13  17
ENDBRANCH  11  12
BRANCH  11  19
ATOM     19  C   UNL     1       3.326   0.952   4.343  1.00  0.00     0.115 C 
BRANCH  19  20
ATOM     20  C   UNL     1       4.008   0.545   3.071  1.00  0.00    -0.016 A 
ATOM     21  C   UNL     1       4.742   1.321   2.196  1.00  0.00     0.087 A 
ATOM     22  C   UNL     1       3.961  -0.768   2.500  1.00  0.00     0.003 A 
ATOM     23  N   UNL     1       4.939   0.601   1.045  1.00  0.00    -0.361 N 
ATOM     24  C   UNL     1       4.436  -0.669   1.195  1.00  0.00     0.046 A 
ATOM     25  C   UNL     1       3.426  -1.998   2.937  1.00  0.00     0.010 A 
ATOM     26  H   UNL     1       5.375   0.943   0.232  1.00  0.00     0.166 HD
ATOM     27  C   UNL     1       4.334  -1.717   0.276  1.00  0.00     0.026 A 
ATOM     28  C   UNL     1       3.318  -3.057   2.034  1.00  0.00     0.001 A 
ATOM     29  C   UNL     1       3.749  -2.909   0.719  1.00  0.00     0.002 A 
ENDBRANCH  19  20
ENDBRANCH  11  19
ENDBRANCH   9  11
ENDBRANCH   8   9
ENDBRANCH   7   8
ENDBRANCH   6   7
ENDBRANCH   5   6
ENDBRANCH   4   5
ENDBRANCH   3   4
ENDBRANCH   2   3
ENDBRANCH   1   2
BRANCH   1  30
ATOM     30  C   UNL     1       0.913   7.479   0.743  1.00  0.00     0.188 C 
BRANCH  30  31
ATOM     31  O   UNL     1      -0.114   7.690   1.702  1.00  0.00    -0.376 OA
BRANCH  31  32
ATOM     32  C   UNL     1      -1.446   7.865   1.241  1.00  0.00     0.202 C 
BRANCH  32  33
ATOM     33  C   UNL     1      -2.120   6.689   0.514  1.00  0.00     0.261 C 
BRANCH  33  34
ATOM     34  O   UNL     1      -1.501   6.230  -0.698  1.00  0.00    -0.460 OA
BRANCH  34  35
ATOM     35  C   UNL     1      -1.283   7.123  -1.686  1.00  0.00     0.338 C 
ATOM     36  O   UNL     1      -1.614   8.297  -1.698  1.00  0.00    -0.246 OA
BRANCH  35  37
ATOM     37  C   UNL     1      -0.397   6.481  -2.680  1.00  0.00     0.060 A 
ATOM     38  C   UNL     1       0.868   7.030  -2.930  1.00  0.00     0.016 A 
ATOM     39  C   UNL     1      -0.813   5.333  -3.357  1.00  0.00     0.016 A 
ATOM     40  C   UNL     1       1.710   6.447  -3.881  1.00  0.00     0.010 A 
ATOM     41  C   UNL     1       0.020   4.766  -4.325  1.00  0.00     0.010 A 
ATOM     42  C   UNL     1       1.274   5.335  -4.612  1.00  0.00    -0.014 A 
BRANCH  42  43
ATOM     43  C   UNL     1       2.029   4.877  -5.806  1.00  0.00     0.031 A 
ATOM     44  C   UNL     1       1.560   5.335  -7.160  1.00  0.00     0.074 A 
ATOM     45  C   UNL     1       3.104   4.074  -5.697  1.00  0.00     0.049 A 
ATOM     46  N   UNL     1       1.967   4.974  -8.348  1.00  0.00    -0.248 NA
ATOM     47  C   UNL     1       0.481   6.336  -7.169  1.00  0.00     0.031 C 
ATOM     48  C   UNL     1       3.698   3.623  -4.440  1.00  0.00     0.029 A 
ATOM     49  N   UNL     1       3.879   3.485  -6.666  1.00  0.00    -0.354 N 
ATOM     50  C   UNL     1       1.194   5.701  -9.248  1.00  0.00     0.074 A 
ATOM     51  C   UNL     1       0.269   6.493  -8.466  1.00  0.00     0.031 C 
ATOM     52  C   UNL     1       4.737   2.814  -4.716  1.00  0.00     0.029 A 
ATOM     53  C   UNL     1       4.848   2.646  -6.165  1.00  0.00     0.049 A 
ATOM     54  H   UNL     1       3.753   3.648  -7.628  1.00  0.00     0.167 HD
ATOM     55  C   UNL     1       1.258   5.714 -10.602  1.00  0.00     0.034 A 
ATOM     56  C   UNL     1       5.696   1.812  -6.803  1.00  0.00     0.034 A 
ATOM     57  C   UNL     1       2.172   4.905 -11.368  1.00  0.00     0.049 A 
ATOM     58  C   UNL     1       5.649   1.736  -8.316  1.00  0.00     0.074 A 
ATOM     59  C   UNL     1       2.314   4.834 -12.743  1.00  0.00     0.029 A 
ATOM     60  N   UNL     1       3.094   4.019 -10.827  1.00  0.00    -0.354 N 
ATOM     61  N   UNL     1       4.908   2.420  -9.158  1.00  0.00    -0.248 NA
ATOM     62  C   UNL     1       6.552   0.773  -8.964  1.00  0.00     0.031 C 
ATOM     63  C   UNL     1       3.263   3.850 -13.034  1.00  0.00     0.029 A 
ATOM     64  C   UNL     1       3.778   3.369 -11.842  1.00  0.00     0.049 A 
ATOM     65  H   UNL     1       3.239   3.873  -9.865  1.00  0.00     0.167 HD
ATOM     66  C   UNL     1       5.287   1.996 -10.431  1.00  0.00     0.074 A 
ATOM     67  C   UNL     1       6.329   1.010 -10.248  1.00  0.00     0.031 C 
ATOM     68  C   UNL     1       4.818   2.388 -11.643  1.00  0.00     0.034 A 
BRANCH  55  69
ATOM     69  C   UNL     1       0.279   6.595 -11.337  1.00  0.00     0.023 A 
ATOM     70  C   UNL     1       0.313   7.995 -11.214  1.00  0.00     0.031 A 
ATOM     71  C   UNL     1      -0.707   6.029 -12.164  1.00  0.00     0.131 A 
ATOM     72  C   UNL     1      -0.656   8.777 -11.859  1.00  0.00     0.055 A 
ATOM     73  C   UNL     1      -1.618   6.818 -12.868  1.00  0.00     0.041 A 
ATOM     74  F   UNL     1      -0.803   4.697 -12.299  1.00  0.00    -0.206 F 
ATOM     75  C   UNL     1      -1.605   8.200 -12.708  1.00  0.00     0.022 A 
BRANCH  72  76
ATOM     76  S   UNL     1      -0.742  10.545 -11.469  1.00  0.00     0.124 S 
ATOM     77  O   UNL     1      -0.972  10.517 -10.026  1.00  0.00    -0.237 OA
ATOM     78  O   UNL     1       0.567  11.026 -11.897  1.00  0.00    -0.237 OA
ATOM     79  O   UNL     1      -1.873  11.018 -12.264  1.00  0.00    -0.744 OA
ENDBRANCH  72  76
ENDBRANCH  55  69
BRANCH  56  80
ATOM     80  C   UNL     1       6.629   0.929  -6.040  1.00  0.00     0.023 A 
ATOM     81  C   UNL     1       8.017   1.005  -6.238  1.00  0.00     0.031 A 
ATOM     82  C   UNL     1       6.145  -0.071  -5.176  1.00  0.00     0.131 A 
ATOM     83  C   UNL     1       8.864   0.059  -5.640  1.00  0.00     0.055 A 
ATOM     84  C   UNL     1       6.999  -0.967  -4.528  1.00  0.00     0.041 A 
ATOM     85  F   UNL     1       4.827  -0.199  -4.952  1.00  0.00    -0.206 F 
ATOM     86  C   UNL     1       8.367  -0.916  -4.774  1.00  0.00     0.022 A 
BRANCH  83  87
ATOM     87  S   UNL     1      10.614   0.040  -6.119  1.00  0.00     0.124 S 
ATOM     88  O   UNL     1      10.520  -0.125  -7.565  1.00  0.00    -0.237 OA
ATOM     89  O   UNL     1      11.068   1.345  -5.649  1.00  0.00    -0.237 OA
ATOM     90  O   UNL     1      11.152  -1.106  -5.391  1.00  0.00    -0.744 OA
ENDBRANCH  83  87
ENDBRANCH  56  80
BRANCH  68  91
ATOM     91  C   UNL     1       5.466   1.789 -12.869  1.00  0.00     0.023 A 
ATOM     92  C   UNL     1       5.332   0.427 -13.189  1.00  0.00     0.031 A 
ATOM     93  C   UNL     1       6.213   2.603 -13.742  1.00  0.00     0.131 A 
ATOM     94  C   UNL     1       5.971  -0.089 -14.327  1.00  0.00     0.055 A 
ATOM     95  C   UNL     1       6.793   2.096 -14.905  1.00  0.00     0.041 A 
ATOM     96  F   UNL     1       6.376   3.910 -13.485  1.00  0.00    -0.206 F 
ATOM     97  C   UNL     1       6.682   0.740 -15.198  1.00  0.00     0.022 A 
BRANCH  94  98
ATOM     98  S   UNL     1       5.923  -1.879 -14.617  1.00  0.00     0.124 S 
ATOM     99  O   UNL     1       6.568  -2.398 -13.415  1.00  0.00    -0.237 OA
ATOM    100  O   UNL     1       4.491  -2.139 -14.734  1.00  0.00    -0.237 OA
ATOM    101  O   UNL     1       6.685  -2.048 -15.852  1.00  0.00    -0.744 OA
ENDBRANCH  94  98
ENDBRANCH  68  91
ENDBRANCH  42  43
ENDBRANCH  35  37
ENDBRANCH  34  35
ENDBRANCH  33  34
ENDBRANCH  32  33
ENDBRANCH  31  32
ENDBRANCH  30  31
ENDBRANCH   1  30
TORSDOF 27
