REMARK SMILES O=C(OCCOCCOCCOCCOC(=O)c1nnn(-c2cccc(Br)c2)c1[C@@H]1COc2ccccc2O1)c1ccc(-c2c3nc(c(-c4cc(S(=O)(=O)[O-])ccc4F)c4ccc([nH]4)c(-c4cc(S(=O)(=O)[O-])ccc4F)c4nc(c(-c5cc(S(=O)(=O)[O-])ccc5F)c5ccc2[nH]5)C=C4)C=C3)cc1
REMARK SMILES IDX 8 1 7 2 6 3 5 4 4 5 3 6 2 7 1 8 40 9 41 10 102 11 42 12
REMARK SMILES IDX 101 13 43 14 44 15 45 16 95 17 46 18 100 19 94 20 96 21
REMARK SMILES IDX 47 22 99 23 93 24 92 25 48 27 80 28 60 29 79 30 61 31 64 32
REMARK SMILES IDX 78 33 97 34 62 35 63 36 77 38 98 39 65 40 49 41 50 42 58 43
REMARK SMILES IDX 51 44 57 45 59 46 56 47 52 48 53 49 54 50 55 51 81 52 82 53
REMARK SMILES IDX 90 54 83 55 89 56 91 57 88 58 84 59 85 60 86 61 87 62 66 63
REMARK SMILES IDX 67 64 75 65 68 66 74 67 76 68 73 69 69 70 70 71 71 72 72 73
REMARK SMILES IDX 9 74 10 75 11 76 12 77 13 78 14 79 15 80 16 81 17 82 18 83
REMARK SMILES IDX 19 84 29 85 20 86 21 87 30 88 31 89 39 90 32 91 38 92 33 93
REMARK SMILES IDX 37 94 34 95 36 96 35 97 22 98 23 99 28 100 24 101 26 102
REMARK SMILES IDX 25 103 27 104
REMARK H PARENT 96 26 64 37
REMARK Flexibility Score: inf
ROOT
ATOM      1  C   UNL     1       2.622  -1.561  -0.866  1.00  0.00     0.188 C 
ENDROOT
BRANCH   1   2
ATOM      2  C   UNL     1       3.117  -0.142  -1.189  1.00  0.00     0.188 C 
BRANCH   2   3
ATOM      3  O   UNL     1       4.470   0.196  -0.970  1.00  0.00    -0.376 OA
BRANCH   3   4
ATOM      4  C   UNL     1       5.169   0.278   0.255  1.00  0.00     0.202 C 
BRANCH   4   5
ATOM      5  C   UNL     1       4.621   0.021   1.670  1.00  0.00     0.261 C 
BRANCH   5   6
ATOM      6  O   UNL     1       3.267  -0.392   1.810  1.00  0.00    -0.460 OA
BRANCH   6   7
ATOM      7  C   UNL     1       2.132   0.335   1.815  1.00  0.00     0.338 C 
ATOM      8  O   UNL     1       1.073  -0.248   2.042  1.00  0.00    -0.246 OA
BRANCH   7   9
ATOM      9  C   UNL     1       2.079   1.761   1.395  1.00  0.00     0.060 A 
ATOM     10  C   UNL     1       3.166   2.634   1.336  1.00  0.00     0.016 A 
ATOM     11  C   UNL     1       0.803   2.232   1.024  1.00  0.00     0.016 A 
ATOM     12  C   UNL     1       2.981   3.962   1.017  1.00  0.00     0.010 A 
ATOM     13  C   UNL     1       0.605   3.565   0.714  1.00  0.00     0.010 A 
ATOM     14  C   UNL     1       1.694   4.426   0.786  1.00  0.00    -0.014 A 
BRANCH  14  15
ATOM     15  C   UNL     1       1.540   5.864   0.800  1.00  0.00     0.031 A 
ATOM     16  C   UNL     1       2.060   6.599  -0.371  1.00  0.00     0.074 A 
ATOM     17  C   UNL     1       1.001   6.455   1.881  1.00  0.00     0.049 A 
ATOM     18  N   UNL     1       3.026   7.456  -0.403  1.00  0.00    -0.248 NA
ATOM     19  C   UNL     1       1.512   6.259  -1.690  1.00  0.00     0.031 C 
ATOM     20  C   UNL     1       0.292   5.807   2.990  1.00  0.00     0.029 A 
ATOM     21  N   UNL     1       0.874   7.777   2.157  1.00  0.00    -0.354 N 
ATOM     22  C   UNL     1       3.070   7.932  -1.709  1.00  0.00     0.074 A 
ATOM     23  C   UNL     1       2.233   7.051  -2.483  1.00  0.00     0.031 C 
ATOM     24  C   UNL     1      -0.402   6.742   3.671  1.00  0.00     0.029 A 
ATOM     25  C   UNL     1      -0.082   8.049   3.123  1.00  0.00     0.049 A 
ATOM     26  H   UNL     1       1.409   8.476   1.714  1.00  0.00     0.167 HD
ATOM     27  C   UNL     1       3.619   9.141  -2.007  1.00  0.00     0.034 A 
ATOM     28  C   UNL     1      -0.661   9.249   3.370  1.00  0.00     0.034 A 
ATOM     29  C   UNL     1       4.507   9.591  -0.963  1.00  0.00     0.049 A 
ATOM     30  C   UNL     1       0.266  10.295   2.871  1.00  0.00     0.074 A 
ATOM     31  C   UNL     1       5.660   9.088  -0.391  1.00  0.00     0.029 A 
ATOM     32  N   UNL     1       4.070  10.575  -0.105  1.00  0.00    -0.354 N 
ATOM     33  N   UNL     1       1.444  10.516   3.390  1.00  0.00    -0.248 NA
ATOM     34  C   UNL     1       0.097  10.784   1.509  1.00  0.00     0.031 C 
ATOM     35  C   UNL     1       5.576   9.441   0.986  1.00  0.00     0.029 A 
ATOM     36  C   UNL     1       4.408  10.184   1.167  1.00  0.00     0.049 A 
ATOM     37  H   UNL     1       3.602  11.403  -0.356  1.00  0.00     0.167 HD
ATOM     38  C   UNL     1       2.276  10.763   2.308  1.00  0.00     0.074 A 
ATOM     39  C   UNL     1       1.372  11.029   1.192  1.00  0.00     0.031 C 
ATOM     40  C   UNL     1       3.607  10.453   2.347  1.00  0.00     0.034 A 
BRANCH  27  41
ATOM     41  C   UNL     1       3.104  10.070  -3.082  1.00  0.00     0.023 A 
ATOM     42  C   UNL     1       3.804  11.274  -3.294  1.00  0.00     0.031 A 
ATOM     43  C   UNL     1       1.829   9.984  -3.688  1.00  0.00     0.131 A 
ATOM     44  C   UNL     1       3.207  12.344  -3.982  1.00  0.00     0.055 A 
ATOM     45  C   UNL     1       1.271  11.024  -4.436  1.00  0.00     0.041 A 
ATOM     46  F   UNL     1       1.012   8.940  -3.510  1.00  0.00    -0.206 F 
ATOM     47  C   UNL     1       1.945  12.226  -4.559  1.00  0.00     0.022 A 
BRANCH  44  48
ATOM     48  S   UNL     1       4.026  13.959  -3.938  1.00  0.00     0.124 S 
ATOM     49  O   UNL     1       4.224  14.150  -2.506  1.00  0.00    -0.237 OA
ATOM     50  O   UNL     1       5.227  13.707  -4.728  1.00  0.00    -0.237 OA
ATOM     51  O   UNL     1       3.049  14.851  -4.557  1.00  0.00    -0.744 OA
ENDBRANCH  44  48
ENDBRANCH  27  41
BRANCH  28  52
ATOM     52  C   UNL     1      -2.102   9.450   3.666  1.00  0.00     0.023 A 
ATOM     53  C   UNL     1      -2.591  10.621   4.270  1.00  0.00     0.031 A 
ATOM     54  C   UNL     1      -3.068   8.543   3.164  1.00  0.00     0.131 A 
ATOM     55  C   UNL     1      -3.984  10.837   4.369  1.00  0.00     0.055 A 
ATOM     56  C   UNL     1      -4.441   8.749   3.285  1.00  0.00     0.041 A 
ATOM     57  F   UNL     1      -2.709   7.456   2.462  1.00  0.00    -0.206 F 
ATOM     58  C   UNL     1      -4.907   9.905   3.885  1.00  0.00     0.022 A 
BRANCH  55  59
ATOM     59  S   UNL     1      -4.616  12.404   5.042  1.00  0.00     0.124 S 
ATOM     60  O   UNL     1      -4.293  12.284   6.458  1.00  0.00    -0.237 OA
ATOM     61  O   UNL     1      -3.860  13.396   4.285  1.00  0.00    -0.237 OA
ATOM     62  O   UNL     1      -6.045  12.357   4.729  1.00  0.00    -0.744 OA
ENDBRANCH  55  59
ENDBRANCH  28  52
BRANCH  40  63
ATOM     63  C   UNL     1       4.236  10.120   3.684  1.00  0.00     0.023 A 
ATOM     64  C   UNL     1       3.819   9.060   4.521  1.00  0.00     0.031 A 
ATOM     65  C   UNL     1       5.397  10.824   4.051  1.00  0.00     0.131 A 
ATOM     66  C   UNL     1       4.554   8.748   5.681  1.00  0.00     0.055 A 
ATOM     67  C   UNL     1       6.131  10.501   5.192  1.00  0.00     0.041 A 
ATOM     68  F   UNL     1       5.865  11.817   3.276  1.00  0.00    -0.206 F 
ATOM     69  C   UNL     1       5.709   9.464   6.015  1.00  0.00     0.022 A 
BRANCH  66  70
ATOM     70  S   UNL     1       4.020   7.398   6.781  1.00  0.00     0.124 S 
ATOM     71  O   UNL     1       2.591   7.636   6.946  1.00  0.00    -0.237 OA
ATOM     72  O   UNL     1       4.388   6.207   6.019  1.00  0.00    -0.237 OA
ATOM     73  O   UNL     1       4.816   7.612   7.991  1.00  0.00    -0.744 OA
ENDBRANCH  66  70
ENDBRANCH  40  63
ENDBRANCH  14  15
ENDBRANCH   7   9
ENDBRANCH   6   7
ENDBRANCH   5   6
ENDBRANCH   4   5
ENDBRANCH   3   4
ENDBRANCH   2   3
ENDBRANCH   1   2
BRANCH   1  74
ATOM     74  O   UNL     1       3.430  -2.601  -1.405  1.00  0.00    -0.377 OA
BRANCH  74  75
ATOM     75  C   UNL     1       4.619  -2.833  -0.665  1.00  0.00     0.188 C 
BRANCH  75  76
ATOM     76  C   UNL     1       5.934  -2.705  -1.463  1.00  0.00     0.188 C 
BRANCH  76  77
ATOM     77  O   UNL     1       6.006  -1.956  -2.671  1.00  0.00    -0.376 OA
BRANCH  77  78
ATOM     78  C   UNL     1       4.971  -2.083  -3.633  1.00  0.00     0.202 C 
BRANCH  78  79
ATOM     79  C   UNL     1       4.625  -3.473  -4.167  1.00  0.00     0.261 C 
BRANCH  79  80
ATOM     80  O   UNL     1       4.421  -4.464  -3.155  1.00  0.00    -0.458 OA
BRANCH  80  81
ATOM     81  C   UNL     1       5.366  -5.428  -3.035  1.00  0.00     0.361 C 
ATOM     82  O   UNL     1       6.356  -5.554  -3.749  1.00  0.00    -0.244 OA
BRANCH  81  83
ATOM     83  C   UNL     1       5.106  -6.296  -1.905  1.00  0.00     0.198 A 
ATOM     84  N   UNL     1       5.776  -6.178  -0.711  1.00  0.00    -0.122 NA
ATOM     85  C   UNL     1       4.189  -7.327  -1.810  1.00  0.00     0.123 A 
ATOM     86  N   UNL     1       5.295  -7.086   0.127  1.00  0.00    -0.061 NA
ATOM     87  N   UNL     1       4.469  -7.888  -0.577  1.00  0.00    -0.213 N 
BRANCH  85  88
ATOM     88  C   UNL     1       3.086  -7.795  -2.698  1.00  0.00     0.262 C 
ATOM     89  C   UNL     1       3.489  -8.100  -4.141  1.00  0.00     0.281 C 
ATOM     90  O   UNL     1       1.998  -6.882  -2.544  1.00  0.00    -0.477 OA
ATOM     91  O   UNL     1       3.537  -6.967  -5.003  1.00  0.00    -0.485 OA
ATOM     92  C   UNL     1       1.742  -6.091  -3.625  1.00  0.00     0.162 A 
ATOM     93  C   UNL     1       2.457  -6.148  -4.819  1.00  0.00     0.161 A 
ATOM     94  C   UNL     1       0.728  -5.145  -3.470  1.00  0.00     0.050 A 
ATOM     95  C   UNL     1       2.154  -5.271  -5.861  1.00  0.00     0.050 A 
ATOM     96  C   UNL     1       0.429  -4.259  -4.507  1.00  0.00     0.004 A 
ATOM     97  C   UNL     1       1.139  -4.326  -5.705  1.00  0.00     0.004 A 
ENDBRANCH  85  88
BRANCH  87  98
ATOM     98  C   UNL     1       4.181  -9.191  -0.120  1.00  0.00     0.068 A 
ATOM     99  C   UNL     1       4.359 -10.273  -0.996  1.00  0.00     0.028 A 
ATOM    100  C   UNL     1       3.757  -9.398   1.195  1.00  0.00     0.044 A 
ATOM    101  C   UNL     1       4.066 -11.565  -0.570  1.00  0.00     0.003 A 
ATOM    102  C   UNL     1       3.433 -10.694   1.595  1.00  0.00     0.020 A 
ATOM    103  C   UNL     1       3.584 -11.775   0.721  1.00  0.00     0.016 A 
ATOM    104  Br  UNL     1       2.750 -11.002   3.332  1.00  0.00    -0.051 Br
ENDBRANCH  87  98
ENDBRANCH  81  83
ENDBRANCH  80  81
ENDBRANCH  79  80
ENDBRANCH  78  79
ENDBRANCH  77  78
ENDBRANCH  76  77
ENDBRANCH  75  76
ENDBRANCH  74  75
ENDBRANCH   1  74
TORSDOF 25
