REMARK SMILES C[C@@H](C(=O)OCCOCCOCCOCCOC(=O)c1ccc(-c2c3nc(c(-c4cc(S(=O)(=O)[O-])ccc4F)c4ccc([nH]4)c(-c4cc(S(=O)(=O)[O-])ccc4F)c4nc(c(-c5cc(S(=O)(=O)[O-])ccc5F)c5ccc2[nH]5)C=C4)C=C3)cc1)c1ccc(C[SiH](C)C)cc1
REMARK SMILES IDX 11 1 10 2 9 3 8 4 7 5 6 6 5 7 3 8 4 9 2 10 1 11 83 12 84 13
REMARK SMILES IDX 92 14 85 15 91 16 86 17 87 18 88 19 89 20 90 21 12 23 13 24
REMARK SMILES IDX 14 25 15 26 16 27 17 28 18 29 19 30 20 31 21 32 82 33 22 34
REMARK SMILES IDX 81 35 23 36 24 37 25 38 75 39 26 40 80 41 74 42 76 43 27 44
REMARK SMILES IDX 79 45 73 46 72 47 28 49 60 50 40 51 59 52 41 53 44 54 58 55
REMARK SMILES IDX 77 56 42 57 43 58 57 60 78 61 45 62 29 63 30 64 38 65 31 66
REMARK SMILES IDX 37 67 39 68 36 69 32 70 33 71 34 72 35 73 61 74 62 75 70 76
REMARK SMILES IDX 63 77 69 78 71 79 68 80 64 81 65 82 66 83 67 84 46 85 47 86
REMARK SMILES IDX 55 87 48 88 54 89 56 90 53 91 49 92 50 93 51 94 52 95
REMARK H PARENT 88 22 76 48 44 59
REMARK Flexibility Score: inf
ROOT
ATOM      1  O   UNL     1       2.389   0.403   2.801  1.00  0.00    -0.377 OA
ENDROOT
BRANCH   1   2
ATOM      2  C   UNL     1       0.988   0.474   2.641  1.00  0.00     0.188 C 
BRANCH   2   3
ATOM      3  C   UNL     1       0.182  -0.537   3.475  1.00  0.00     0.188 C 
BRANCH   3   4
ATOM      4  O   UNL     1       0.784  -1.194   4.578  1.00  0.00    -0.376 OA
BRANCH   4   5
ATOM      5  C   UNL     1       2.034  -1.855   4.438  1.00  0.00     0.202 C 
BRANCH   5   6
ATOM      6  C   UNL     1       2.467  -2.594   3.155  1.00  0.00     0.261 C 
BRANCH   6   7
ATOM      7  O   UNL     1       2.002  -2.043   1.912  1.00  0.00    -0.463 OA
BRANCH   7   8
ATOM      8  C   UNL     1       1.185  -2.819   1.163  1.00  0.00     0.313 C 
ATOM      9  O   UNL     1       0.880  -3.972   1.457  1.00  0.00    -0.252 OA
BRANCH   8  10
ATOM     10  C   UNL     1       0.603  -2.095  -0.070  1.00  0.00     0.126 C 
ATOM     11  C   UNL     1       1.484  -0.974  -0.647  1.00  0.00     0.025 C 
BRANCH  10  12
ATOM     12  C   UNL     1      -0.893  -1.800   0.111  1.00  0.00    -0.034 A 
ATOM     13  C   UNL     1      -1.474  -0.524   0.089  1.00  0.00     0.005 A 
ATOM     14  C   UNL     1      -1.752  -2.889   0.343  1.00  0.00     0.005 A 
ATOM     15  C   UNL     1      -2.853  -0.349   0.308  1.00  0.00     0.004 A 
ATOM     16  C   UNL     1      -3.119  -2.717   0.571  1.00  0.00     0.004 A 
ATOM     17  C   UNL     1      -3.691  -1.444   0.553  1.00  0.00    -0.051 A 
BRANCH  17  18
ATOM     18  C   UNL     1      -5.185  -1.288   0.727  1.00  0.00     0.021 C 
BRANCH  18  19
ATOM     19  Si  UNL     1      -5.840  -0.539   2.327  1.00  0.00     0.035 Si
ATOM     20  C   UNL     1      -5.306   1.234   2.522  1.00  0.00    -0.013 C 
ATOM     21  C   UNL     1      -7.713  -0.618   2.303  1.00  0.00    -0.013 C 
ATOM     22  H   UNL     1      -5.314  -1.279   3.419  1.00  0.00     0.014 H 
ENDBRANCH  18  19
ENDBRANCH  17  18
ENDBRANCH  10  12
ENDBRANCH   8  10
ENDBRANCH   7   8
ENDBRANCH   6   7
ENDBRANCH   5   6
ENDBRANCH   4   5
ENDBRANCH   3   4
ENDBRANCH   2   3
ENDBRANCH   1   2
BRANCH   1  23
ATOM     23  C   UNL     1       2.989   1.275   3.748  1.00  0.00     0.188 C 
BRANCH  23  24
ATOM     24  C   UNL     1       2.175   1.707   4.984  1.00  0.00     0.188 C 
BRANCH  24  25
ATOM     25  O   UNL     1       0.858   2.158   4.692  1.00  0.00    -0.376 OA
BRANCH  25  26
ATOM     26  C   UNL     1       0.631   3.555   4.570  1.00  0.00     0.202 C 
BRANCH  26  27
ATOM     27  C   UNL     1       1.288   4.283   3.384  1.00  0.00     0.261 C 
BRANCH  27  28
ATOM     28  O   UNL     1       2.721   4.244   3.317  1.00  0.00    -0.460 OA
BRANCH  28  29
ATOM     29  C   UNL     1       3.415   4.708   4.378  1.00  0.00     0.338 C 
ATOM     30  O   UNL     1       2.952   5.231   5.379  1.00  0.00    -0.246 OA
BRANCH  29  31
ATOM     31  C   UNL     1       4.823   4.287   4.219  1.00  0.00     0.060 A 
ATOM     32  C   UNL     1       5.405   3.480   5.206  1.00  0.00     0.016 A 
ATOM     33  C   UNL     1       5.564   4.678   3.101  1.00  0.00     0.016 A 
ATOM     34  C   UNL     1       6.742   3.095   5.098  1.00  0.00     0.010 A 
ATOM     35  C   UNL     1       6.910   4.310   3.005  1.00  0.00     0.010 A 
ATOM     36  C   UNL     1       7.515   3.547   4.021  1.00  0.00    -0.014 A 
BRANCH  36  37
ATOM     37  C   UNL     1       8.993   3.408   4.067  1.00  0.00     0.031 A 
ATOM     38  C   UNL     1       9.803   4.595   4.517  1.00  0.00     0.074 A 
ATOM     39  C   UNL     1       9.605   2.252   3.751  1.00  0.00     0.049 A 
ATOM     40  N   UNL     1      11.100   4.745   4.580  1.00  0.00    -0.248 NA
ATOM     41  C   UNL     1       9.037   5.775   4.949  1.00  0.00     0.031 C 
ATOM     42  C   UNL     1       8.928   1.018   3.359  1.00  0.00     0.029 A 
ATOM     43  N   UNL     1      10.940   1.934   3.704  1.00  0.00    -0.354 N 
ATOM     44  C   UNL     1      11.307   6.037   5.054  1.00  0.00     0.074 A 
ATOM     45  C   UNL     1      10.002   6.639   5.219  1.00  0.00     0.031 C 
ATOM     46  C   UNL     1       9.854   0.078   3.098  1.00  0.00     0.029 A 
ATOM     47  C   UNL     1      11.188   0.655   3.260  1.00  0.00     0.049 A 
ATOM     48  H   UNL     1      11.653   2.561   3.962  1.00  0.00     0.167 HD
ATOM     49  C   UNL     1      12.478   6.659   5.336  1.00  0.00     0.034 A 
ATOM     50  C   UNL     1      12.356   0.036   2.986  1.00  0.00     0.034 A 
ATOM     51  C   UNL     1      13.772   6.050   5.148  1.00  0.00     0.049 A 
ATOM     52  C   UNL     1      13.652   0.785   3.204  1.00  0.00     0.074 A 
ATOM     53  C   UNL     1      15.022   6.587   5.401  1.00  0.00     0.029 A 
ATOM     54  N   UNL     1      13.985   4.771   4.646  1.00  0.00    -0.354 N 
ATOM     55  N   UNL     1      13.838   2.007   3.650  1.00  0.00    -0.248 NA
ATOM     56  C   UNL     1      14.895   0.069   2.887  1.00  0.00     0.031 C 
ATOM     57  C   UNL     1      15.988   5.670   4.974  1.00  0.00     0.029 A 
ATOM     58  C   UNL     1      15.345   4.519   4.547  1.00  0.00     0.049 A 
ATOM     59  H   UNL     1      13.274   4.137   4.398  1.00  0.00     0.167 HD
ATOM     60  C   UNL     1      15.219   2.189   3.701  1.00  0.00     0.074 A 
ATOM     61  C   UNL     1      15.816   0.949   3.252  1.00  0.00     0.031 C 
ATOM     62  C   UNL     1      15.930   3.280   4.090  1.00  0.00     0.034 A 
BRANCH  49  63
ATOM     63  C   UNL     1      12.405   8.088   5.818  1.00  0.00     0.023 A 
ATOM     64  C   UNL     1      11.770   8.432   7.025  1.00  0.00     0.031 A 
ATOM     65  C   UNL     1      12.948   9.128   5.042  1.00  0.00     0.131 A 
ATOM     66  C   UNL     1      11.627   9.782   7.381  1.00  0.00     0.055 A 
ATOM     67  C   UNL     1      12.880  10.462   5.446  1.00  0.00     0.041 A 
ATOM     68  F   UNL     1      13.541   8.866   3.867  1.00  0.00    -0.206 F 
ATOM     69  C   UNL     1      12.202  10.798   6.614  1.00  0.00     0.022 A 
BRANCH  66  70
ATOM     70  S   UNL     1      10.541  10.200   8.772  1.00  0.00     0.124 S 
ATOM     71  O   UNL     1       9.274   9.610   8.345  1.00  0.00    -0.237 OA
ATOM     72  O   UNL     1      11.203   9.547   9.896  1.00  0.00    -0.237 OA
ATOM     73  O   UNL     1      10.562  11.661   8.797  1.00  0.00    -0.744 OA
ENDBRANCH  66  70
ENDBRANCH  49  63
BRANCH  50  74
ATOM     74  C   UNL     1      12.367  -1.348   2.426  1.00  0.00     0.023 A 
ATOM     75  C   UNL     1      12.980  -2.410   3.111  1.00  0.00     0.031 A 
ATOM     76  C   UNL     1      11.817  -1.616   1.158  1.00  0.00     0.131 A 
ATOM     77  C   UNL     1      13.072  -3.674   2.506  1.00  0.00     0.055 A 
ATOM     78  C   UNL     1      11.856  -2.889   0.588  1.00  0.00     0.041 A 
ATOM     79  F   UNL     1      11.227  -0.637   0.453  1.00  0.00    -0.206 F 
ATOM     80  C   UNL     1      12.499  -3.925   1.257  1.00  0.00     0.022 A 
BRANCH  77  81
ATOM     81  S   UNL     1      14.043  -4.965   3.332  1.00  0.00     0.124 S 
ATOM     82  O   UNL     1      15.352  -4.331   3.434  1.00  0.00    -0.237 OA
ATOM     83  O   UNL     1      13.313  -5.138   4.584  1.00  0.00    -0.237 OA
ATOM     84  O   UNL     1      13.965  -6.094   2.407  1.00  0.00    -0.744 OA
ENDBRANCH  77  81
ENDBRANCH  50  74
BRANCH  62  85
ATOM     85  C   UNL     1      17.437   3.159   4.101  1.00  0.00     0.023 A 
ATOM     86  C   UNL     1      18.180   2.978   2.921  1.00  0.00     0.031 A 
ATOM     87  C   UNL     1      18.140   3.227   5.318  1.00  0.00     0.131 A 
ATOM     88  C   UNL     1      19.573   2.812   2.990  1.00  0.00     0.055 A 
ATOM     89  C   UNL     1      19.532   3.133   5.373  1.00  0.00     0.041 A 
ATOM     90  F   UNL     1      17.485   3.394   6.478  1.00  0.00    -0.206 F 
ATOM     91  C   UNL     1      20.255   2.910   4.205  1.00  0.00     0.022 A 
BRANCH  88  92
ATOM     92  S   UNL     1      20.473   2.362   1.481  1.00  0.00     0.124 S 
ATOM     93  O   UNL     1      19.805   1.126   1.087  1.00  0.00    -0.237 OA
ATOM     94  O   UNL     1      20.237   3.517   0.620  1.00  0.00    -0.237 OA
ATOM     95  O   UNL     1      21.852   2.203   1.938  1.00  0.00    -0.744 OA
ENDBRANCH  88  92
ENDBRANCH  62  85
ENDBRANCH  36  37
ENDBRANCH  29  31
ENDBRANCH  28  29
ENDBRANCH  27  28
ENDBRANCH  26  27
ENDBRANCH  25  26
ENDBRANCH  24  25
ENDBRANCH  23  24
ENDBRANCH   1  23
TORSDOF 26
