REMARK SMILES CC(C)c1ccc(C(=O)N2CCC[C@@H](C(=O)OCCOCCOCCOCCOC(=O)c3ccc(-c4c5nc(c(-c6cc(S(=O)(=O)[O-])ccc6F)c6ccc([nH]6)c(-c6cc(S(=O)(=O)[O-])ccc6F)c6nc(c(-c7cc(S(=O)(=O)[O-])ccc7F)c7ccc4[nH]7)C=C6)C=C5)cc3)C2)cc1
REMARK SMILES IDX 23 1 22 2 21 3 20 4 19 5 18 6 17 7 15 8 16 9 14 10 10 11
REMARK SMILES IDX 11 12 95 13 12 14 13 15 8 16 9 17 7 18 4 19 5 20 97 21 6 22
REMARK SMILES IDX 96 23 2 24 1 25 3 26 24 27 25 28 26 29 27 30 28 31 29 32
REMARK SMILES IDX 30 33 31 34 32 35 33 36 94 37 34 38 93 39 35 40 36 41 37 42
REMARK SMILES IDX 87 43 38 44 92 45 86 46 88 47 39 48 91 49 85 50 84 51 40 53
REMARK SMILES IDX 72 54 52 55 71 56 53 57 56 58 70 59 89 60 54 61 55 62 69 64
REMARK SMILES IDX 90 65 57 66 41 67 42 68 50 69 43 70 49 71 51 72 48 73 44 74
REMARK SMILES IDX 45 75 46 76 47 77 73 78 74 79 82 80 75 81 81 82 83 83 80 84
REMARK SMILES IDX 76 85 77 86 78 87 79 88 58 89 59 90 67 91 60 92 66 93 68 94
REMARK SMILES IDX 65 95 61 96 62 97 63 98 64 99
REMARK H PARENT 88 52 56 63
REMARK Flexibility Score: inf
ROOT
ATOM      1  O   UNL     1      -5.753  -7.004  -1.082  1.00  0.00    -0.377 OA
ENDROOT
BRANCH   1   2
ATOM      2  C   UNL     1      -5.713  -5.806  -0.317  1.00  0.00     0.188 C 
BRANCH   2   3
ATOM      3  C   UNL     1      -5.814  -5.759   1.230  1.00  0.00     0.188 C 
BRANCH   3   4
ATOM      4  O   UNL     1      -6.457  -6.876   1.811  1.00  0.00    -0.376 OA
BRANCH   4   5
ATOM      5  C   UNL     1      -7.772  -6.717   2.304  1.00  0.00     0.202 C 
BRANCH   5   6
ATOM      6  C   UNL     1      -8.863  -6.266   1.325  1.00  0.00     0.261 C 
BRANCH   6   7
ATOM      7  O   UNL     1      -8.540  -5.171   0.449  1.00  0.00    -0.463 OA
BRANCH   7   8
ATOM      8  C   UNL     1      -8.525  -3.905   0.935  1.00  0.00     0.310 C 
ATOM      9  O   UNL     1      -8.675  -3.621   2.116  1.00  0.00    -0.252 OA
BRANCH   8  10
ATOM     10  C   UNL     1      -8.199  -2.879  -0.155  1.00  0.00     0.119 C 
ATOM     11  N   UNL     1      -6.212  -1.709  -1.198  1.00  0.00    -0.338 N 
ATOM     12  C   UNL     1      -6.599  -2.136  -2.534  1.00  0.00     0.120 C 
ATOM     13  C   UNL     1      -6.738  -2.419  -0.037  1.00  0.00     0.135 C 
ATOM     14  C   UNL     1      -8.105  -2.360  -2.624  1.00  0.00     0.022 C 
ATOM     15  C   UNL     1      -8.556  -3.365  -1.571  1.00  0.00     0.019 C 
BRANCH  11  16
ATOM     16  C   UNL     1      -5.467  -0.556  -1.024  1.00  0.00     0.253 C 
ATOM     17  O   UNL     1      -5.993   0.511  -0.723  1.00  0.00    -0.269 OA
BRANCH  16  18
ATOM     18  C   UNL     1      -3.975  -0.662  -1.160  1.00  0.00     0.040 A 
ATOM     19  C   UNL     1      -1.129  -0.727  -1.266  1.00  0.00    -0.045 A 
ATOM     20  C   UNL     1      -1.832   0.490  -1.241  1.00  0.00     0.005 A 
ATOM     21  C   UNL     1      -1.883  -1.911  -1.256  1.00  0.00     0.005 A 
ATOM     22  C   UNL     1      -3.231   0.523  -1.178  1.00  0.00     0.014 A 
ATOM     23  C   UNL     1      -3.290  -1.881  -1.209  1.00  0.00     0.014 A 
BRANCH  19  24
ATOM     24  C   UNL     1       0.397  -0.693  -1.319  1.00  0.00     0.013 C 
ATOM     25  C   UNL     1       0.989  -0.017  -0.072  1.00  0.00     0.012 C 
ATOM     26  C   UNL     1       1.087  -2.049  -1.515  1.00  0.00     0.012 C 
ENDBRANCH  19  24
ENDBRANCH  16  18
ENDBRANCH  11  16
ENDBRANCH   8  10
ENDBRANCH   7   8
ENDBRANCH   6   7
ENDBRANCH   5   6
ENDBRANCH   4   5
ENDBRANCH   3   4
ENDBRANCH   2   3
ENDBRANCH   1   2
BRANCH   1  27
ATOM     27  C   UNL     1      -5.850  -8.246  -0.408  1.00  0.00     0.188 C 
BRANCH  27  28
ATOM     28  C   UNL     1      -4.626  -8.615   0.450  1.00  0.00     0.188 C 
BRANCH  28  29
ATOM     29  O   UNL     1      -3.774  -7.508   0.711  1.00  0.00    -0.376 OA
BRANCH  29  30
ATOM     30  C   UNL     1      -2.574  -7.381  -0.031  1.00  0.00     0.202 C 
BRANCH  30  31
ATOM     31  C   UNL     1      -2.612  -7.312  -1.567  1.00  0.00     0.261 C 
BRANCH  31  32
ATOM     32  O   UNL     1      -3.430  -8.265  -2.252  1.00  0.00    -0.460 OA
BRANCH  32  33
ATOM     33  C   UNL     1      -3.050  -9.563  -2.196  1.00  0.00     0.338 C 
ATOM     34  O   UNL     1      -2.086 -10.015  -1.624  1.00  0.00    -0.246 OA
BRANCH  33  35
ATOM     35  C   UNL     1      -4.147 -10.351  -2.803  1.00  0.00     0.060 A 
ATOM     36  C   UNL     1      -4.826 -11.293  -2.017  1.00  0.00     0.016 A 
ATOM     37  C   UNL     1      -4.522 -10.133  -4.131  1.00  0.00     0.016 A 
ATOM     38  C   UNL     1      -5.875 -12.031  -2.564  1.00  0.00     0.010 A 
ATOM     39  C   UNL     1      -5.547 -10.899  -4.688  1.00  0.00     0.010 A 
ATOM     40  C   UNL     1      -6.208 -11.870  -3.915  1.00  0.00    -0.014 A 
BRANCH  40  41
ATOM     41  C   UNL     1      -7.069 -12.873  -4.583  1.00  0.00     0.031 A 
ATOM     42  C   UNL     1      -6.389 -14.000  -5.310  1.00  0.00     0.074 A 
ATOM     43  C   UNL     1      -8.411 -12.795  -4.542  1.00  0.00     0.049 A 
ATOM     44  N   UNL     1      -6.903 -14.944  -6.053  1.00  0.00    -0.248 NA
ATOM     45  C   UNL     1      -4.923 -14.061  -5.183  1.00  0.00     0.031 C 
ATOM     46  C   UNL     1      -9.176 -11.785  -3.815  1.00  0.00     0.029 A 
ATOM     47  N   UNL     1      -9.366 -13.578  -5.140  1.00  0.00    -0.354 N 
ATOM     48  C   UNL     1      -5.824 -15.706  -6.490  1.00  0.00     0.074 A 
ATOM     49  C   UNL     1      -4.628 -15.092  -5.957  1.00  0.00     0.031 C 
ATOM     50  C   UNL     1     -10.487 -12.000  -4.024  1.00  0.00     0.029 A 
ATOM     51  C   UNL     1     -10.651 -13.131  -4.937  1.00  0.00     0.049 A 
ATOM     52  H   UNL     1      -9.152 -14.383  -5.664  1.00  0.00     0.167 HD
ATOM     53  C   UNL     1      -5.835 -16.818  -7.263  1.00  0.00     0.034 A 
ATOM     54  C   UNL     1     -11.816 -13.566  -5.461  1.00  0.00     0.034 A 
ATOM     55  C   UNL     1      -7.038 -17.399  -7.801  1.00  0.00     0.049 A 
ATOM     56  C   UNL     1     -11.796 -14.744  -6.410  1.00  0.00     0.074 A 
ATOM     57  C   UNL     1      -7.170 -18.524  -8.596  1.00  0.00     0.029 A 
ATOM     58  N   UNL     1      -8.319 -16.893  -7.614  1.00  0.00    -0.354 N 
ATOM     59  N   UNL     1     -10.772 -15.456  -6.825  1.00  0.00    -0.248 NA
ATOM     60  C   UNL     1     -13.087 -15.180  -6.958  1.00  0.00     0.031 C 
ATOM     61  C   UNL     1      -8.515 -18.647  -8.959  1.00  0.00     0.029 A 
ATOM     62  C   UNL     1      -9.240 -17.660  -8.309  1.00  0.00     0.049 A 
ATOM     63  H   UNL     1      -8.539 -16.104  -7.068  1.00  0.00     0.167 HD
ATOM     64  C   UNL     1     -11.304 -16.449  -7.646  1.00  0.00     0.074 A 
ATOM     65  C   UNL     1     -12.738 -16.245  -7.663  1.00  0.00     0.031 C 
ATOM     66  C   UNL     1     -10.669 -17.445  -8.315  1.00  0.00     0.034 A 
BRANCH  53  67
ATOM     67  C   UNL     1      -4.501 -17.428  -7.619  1.00  0.00     0.023 A 
ATOM     68  C   UNL     1      -3.639 -17.954  -6.640  1.00  0.00     0.031 A 
ATOM     69  C   UNL     1      -4.069 -17.450  -8.956  1.00  0.00     0.131 A 
ATOM     70  C   UNL     1      -2.364 -18.412  -7.004  1.00  0.00     0.055 A 
ATOM     71  C   UNL     1      -2.834 -17.988  -9.323  1.00  0.00     0.041 A 
ATOM     72  F   UNL     1      -4.834 -16.934  -9.931  1.00  0.00    -0.206 F 
ATOM     73  C   UNL     1      -1.967 -18.459  -8.342  1.00  0.00     0.022 A 
BRANCH  70  74
ATOM     74  S   UNL     1      -1.175 -18.800  -5.690  1.00  0.00     0.124 S 
ATOM     75  O   UNL     1      -1.107 -17.531  -4.970  1.00  0.00    -0.237 OA
ATOM     76  O   UNL     1      -1.828 -19.899  -4.988  1.00  0.00    -0.237 OA
ATOM     77  O   UNL     1       0.038 -19.160  -6.421  1.00  0.00    -0.744 OA
ENDBRANCH  70  74
ENDBRANCH  53  67
BRANCH  54  78
ATOM     78  C   UNL     1     -13.098 -12.867  -5.148  1.00  0.00     0.023 A 
ATOM     79  C   UNL     1     -14.152 -13.534  -4.505  1.00  0.00     0.031 A 
ATOM     80  C   UNL     1     -13.311 -11.535  -5.549  1.00  0.00     0.131 A 
ATOM     81  C   UNL     1     -15.386 -12.888  -4.328  1.00  0.00     0.055 A 
ATOM     82  C   UNL     1     -14.520 -10.877  -5.315  1.00  0.00     0.041 A 
ATOM     83  F   UNL     1     -12.341 -10.850  -6.175  1.00  0.00    -0.206 F 
ATOM     84  C   UNL     1     -15.572 -11.559  -4.714  1.00  0.00     0.022 A 
BRANCH  81  85
ATOM     85  S   UNL     1     -16.783 -13.846  -3.678  1.00  0.00     0.124 S 
ATOM     86  O   UNL     1     -16.882 -14.924  -4.655  1.00  0.00    -0.237 OA
ATOM     87  O   UNL     1     -16.301 -14.222  -2.353  1.00  0.00    -0.237 OA
ATOM     88  O   UNL     1     -17.887 -12.888  -3.689  1.00  0.00    -0.744 OA
ENDBRANCH  81  85
ENDBRANCH  54  78
BRANCH  66  89
ATOM     89  C   UNL     1     -11.526 -18.439  -9.065  1.00  0.00     0.023 A 
ATOM     90  C   UNL     1     -12.290 -18.075 -10.187  1.00  0.00     0.031 A 
ATOM     91  C   UNL     1     -11.564 -19.783  -8.649  1.00  0.00     0.131 A 
ATOM     92  C   UNL     1     -13.097 -19.031 -10.822  1.00  0.00     0.055 A 
ATOM     93  C   UNL     1     -12.315 -20.744  -9.326  1.00  0.00     0.041 A 
ATOM     94  F   UNL     1     -10.858 -20.188  -7.581  1.00  0.00    -0.206 F 
ATOM     95  C   UNL     1     -13.098 -20.367 -10.412  1.00  0.00     0.022 A 
BRANCH  92  96
ATOM     96  S   UNL     1     -14.223 -18.488 -12.137  1.00  0.00     0.124 S 
ATOM     97  O   UNL     1     -15.032 -17.487 -11.449  1.00  0.00    -0.237 OA
ATOM     98  O   UNL     1     -13.302 -17.979 -13.147  1.00  0.00    -0.237 OA
ATOM     99  O   UNL     1     -14.934 -19.711 -12.507  1.00  0.00    -0.744 OA
ENDBRANCH  92  96
ENDBRANCH  66  89
ENDBRANCH  40  41
ENDBRANCH  33  35
ENDBRANCH  32  33
ENDBRANCH  31  32
ENDBRANCH  30  31
ENDBRANCH  29  30
ENDBRANCH  28  29
ENDBRANCH  27  28
ENDBRANCH   1  27
TORSDOF 26
