REMARK SMILES CCC1CN(c2cc(F)ccc2C(=O)OCCOCCOCCOCCOC(=O)c2ccc(-c3c4nc(c(-c5cc(S(=O)(=O)[O-])ccc5F)c5ccc([nH]5)c(-c5cc(S(=O)(=O)[O-])ccc5F)c5nc(c(-c6cc(S(=O)(=O)[O-])ccc6F)c6ccc3[nH]6)C=C5)C=C4)cc2)C1
REMARK SMILES IDX 22 1 21 2 20 3 19 4 18 5 17 6 16 7 15 8 13 9 14 10 12 11
REMARK SMILES IDX 6 12 7 13 8 14 11 15 9 16 10 17 5 18 3 19 4 20 93 21 2 22
REMARK SMILES IDX 1 23 23 24 24 25 25 26 26 27 27 28 28 29 29 30 30 31 31 32
REMARK SMILES IDX 92 33 32 34 91 35 33 36 34 37 35 38 85 39 36 40 90 41 84 42
REMARK SMILES IDX 86 43 37 44 89 45 83 46 82 47 38 49 70 50 50 51 69 52 51 53
REMARK SMILES IDX 54 54 68 55 87 56 52 57 53 58 67 60 88 61 55 62 39 63 40 64
REMARK SMILES IDX 48 65 41 66 47 67 49 68 46 69 42 70 43 71 44 72 45 73 71 74
REMARK SMILES IDX 72 75 80 76 73 77 79 78 81 79 78 80 74 81 75 82 76 83 77 84
REMARK SMILES IDX 56 85 57 86 65 87 58 88 64 89 66 90 63 91 59 92 60 93 61 94
REMARK SMILES IDX 62 95
REMARK H PARENT 86 48 54 59
REMARK Flexibility Score: inf
ROOT
ATOM      1  C   UNL     1      -3.273  -5.367  -1.809  1.00  0.00     0.188 C 
ENDROOT
BRANCH   1   2
ATOM      2  O   UNL     1      -2.086  -5.832  -1.179  1.00  0.00    -0.377 OA
BRANCH   2   3
ATOM      3  C   UNL     1      -2.130  -6.924  -0.274  1.00  0.00     0.188 C 
BRANCH   3   4
ATOM      4  C   UNL     1      -3.204  -6.991   0.838  1.00  0.00     0.188 C 
BRANCH   4   5
ATOM      5  O   UNL     1      -4.328  -6.158   0.650  1.00  0.00    -0.376 OA
BRANCH   5   6
ATOM      6  C   UNL     1      -4.471  -4.934   1.342  1.00  0.00     0.202 C 
BRANCH   6   7
ATOM      7  C   UNL     1      -3.284  -4.035   1.715  1.00  0.00     0.261 C 
BRANCH   7   8
ATOM      8  O   UNL     1      -1.998  -4.644   1.639  1.00  0.00    -0.460 OA
BRANCH   8   9
ATOM      9  C   UNL     1      -1.400  -5.000   2.795  1.00  0.00     0.340 C 
ATOM     10  O   UNL     1      -1.880  -4.930   3.915  1.00  0.00    -0.246 OA
BRANCH   9  11
ATOM     11  C   UNL     1      -0.157  -5.741   2.478  1.00  0.00     0.083 A 
ATOM     12  C   UNL     1       0.809  -5.308   1.545  1.00  0.00     0.054 A 
ATOM     13  C   UNL     1       1.871  -6.189   1.262  1.00  0.00     0.066 A 
ATOM     14  C   UNL     1       1.964  -7.437   1.873  1.00  0.00     0.125 A 
ATOM     15  C   UNL     1      -0.060  -7.018   3.076  1.00  0.00     0.021 A 
ATOM     16  F   UNL     1       3.005  -8.233   1.593  1.00  0.00    -0.207 F 
ATOM     17  C   UNL     1       1.000  -7.867   2.768  1.00  0.00     0.040 A 
BRANCH  12  18
ATOM     18  N   UNL     1       0.798  -4.067   0.897  1.00  0.00    -0.370 N 
ATOM     19  C   UNL     1       1.208  -2.237   0.092  1.00  0.00     0.028 C 
ATOM     20  C   UNL     1       0.328  -2.768   1.243  1.00  0.00     0.122 C 
ATOM     21  C   UNL     1       1.207  -3.688  -0.419  1.00  0.00     0.122 C 
BRANCH  19  22
ATOM     22  C   UNL     1       0.616  -1.164  -0.808  1.00  0.00     0.004 C 
ATOM     23  C   UNL     1       0.820   0.203  -0.172  1.00  0.00     0.004 C 
ENDBRANCH  19  22
ENDBRANCH  12  18
ENDBRANCH   9  11
ENDBRANCH   8   9
ENDBRANCH   7   8
ENDBRANCH   6   7
ENDBRANCH   5   6
ENDBRANCH   4   5
ENDBRANCH   3   4
ENDBRANCH   2   3
ENDBRANCH   1   2
BRANCH   1  24
ATOM     24  C   UNL     1      -4.464  -6.312  -2.088  1.00  0.00     0.188 C 
BRANCH  24  25
ATOM     25  O   UNL     1      -4.234  -7.668  -1.745  1.00  0.00    -0.376 OA
BRANCH  25  26
ATOM     26  C   UNL     1      -4.058  -8.597  -2.798  1.00  0.00     0.202 C 
BRANCH  26  27
ATOM     27  C   UNL     1      -2.863  -8.389  -3.737  1.00  0.00     0.261 C 
BRANCH  27  28
ATOM     28  O   UNL     1      -2.733  -7.090  -4.327  1.00  0.00    -0.460 OA
BRANCH  28  29
ATOM     29  C   UNL     1      -3.690  -6.707  -5.199  1.00  0.00     0.338 C 
ATOM     30  O   UNL     1      -4.680  -7.338  -5.529  1.00  0.00    -0.246 OA
BRANCH  29  31
ATOM     31  C   UNL     1      -3.410  -5.303  -5.555  1.00  0.00     0.060 A 
ATOM     32  C   UNL     1      -4.336  -4.303  -5.231  1.00  0.00     0.016 A 
ATOM     33  C   UNL     1      -2.210  -4.985  -6.194  1.00  0.00     0.016 A 
ATOM     34  C   UNL     1      -4.073  -2.976  -5.574  1.00  0.00     0.010 A 
ATOM     35  C   UNL     1      -1.960  -3.664  -6.556  1.00  0.00     0.010 A 
ATOM     36  C   UNL     1      -2.904  -2.660  -6.277  1.00  0.00    -0.014 A 
BRANCH  36  37
ATOM     37  C   UNL     1      -2.741  -1.338  -6.921  1.00  0.00     0.031 A 
ATOM     38  C   UNL     1      -3.075  -1.223  -8.381  1.00  0.00     0.074 A 
ATOM     39  C   UNL     1      -2.280  -0.275  -6.241  1.00  0.00     0.049 A 
ATOM     40  N   UNL     1      -2.854  -0.239  -9.212  1.00  0.00    -0.248 NA
ATOM     41  C   UNL     1      -3.740  -2.389  -8.985  1.00  0.00     0.031 C 
ATOM     42  C   UNL     1      -1.993  -0.244  -4.809  1.00  0.00     0.029 A 
ATOM     43  N   UNL     1      -1.961   0.984  -6.680  1.00  0.00    -0.354 N 
ATOM     44  C   UNL     1      -3.342  -0.670 -10.440  1.00  0.00     0.074 A 
ATOM     45  C   UNL     1      -3.838  -2.016 -10.251  1.00  0.00     0.031 C 
ATOM     46  C   UNL     1      -1.532   0.977  -4.487  1.00  0.00     0.029 A 
ATOM     47  C   UNL     1      -1.442   1.791  -5.699  1.00  0.00     0.049 A 
ATOM     48  H   UNL     1      -2.092   1.281  -7.610  1.00  0.00     0.167 HD
ATOM     49  C   UNL     1      -3.378   0.001 -11.617  1.00  0.00     0.034 A 
ATOM     50  C   UNL     1      -0.923   3.033  -5.779  1.00  0.00     0.034 A 
ATOM     51  C   UNL     1      -2.862   1.335 -11.791  1.00  0.00     0.049 A 
ATOM     52  C   UNL     1      -0.862   3.721  -7.119  1.00  0.00     0.074 A 
ATOM     53  C   UNL     1      -2.831   2.103 -12.940  1.00  0.00     0.029 A 
ATOM     54  N   UNL     1      -2.278   2.098 -10.787  1.00  0.00    -0.354 N 
ATOM     55  N   UNL     1      -1.271   3.290  -8.290  1.00  0.00    -0.248 NA
ATOM     56  C   UNL     1      -0.261   5.061  -7.146  1.00  0.00     0.031 C 
ATOM     57  C   UNL     1      -2.167   3.300 -12.649  1.00  0.00     0.029 A 
ATOM     58  C   UNL     1      -1.855   3.315 -11.298  1.00  0.00     0.049 A 
ATOM     59  H   UNL     1      -2.179   1.815  -9.849  1.00  0.00     0.167 HD
ATOM     60  C   UNL     1      -0.995   4.315  -9.192  1.00  0.00     0.074 A 
ATOM     61  C   UNL     1      -0.393   5.388  -8.424  1.00  0.00     0.031 C 
ATOM     62  C   UNL     1      -1.227   4.366 -10.530  1.00  0.00     0.034 A 
BRANCH  49  63
ATOM     63  C   UNL     1      -3.948  -0.730 -12.807  1.00  0.00     0.023 A 
ATOM     64  C   UNL     1      -5.299  -1.113 -12.859  1.00  0.00     0.031 A 
ATOM     65  C   UNL     1      -3.120  -1.078 -13.889  1.00  0.00     0.131 A 
ATOM     66  C   UNL     1      -5.768  -1.876 -13.939  1.00  0.00     0.055 A 
ATOM     67  C   UNL     1      -3.611  -1.771 -14.996  1.00  0.00     0.041 A 
ATOM     68  F   UNL     1      -1.816  -0.761 -13.881  1.00  0.00    -0.206 F 
ATOM     69  C   UNL     1      -4.939  -2.186 -15.020  1.00  0.00     0.022 A 
BRANCH  66  70
ATOM     70  S   UNL     1      -7.445  -2.561 -13.855  1.00  0.00     0.124 S 
ATOM     71  O   UNL     1      -7.352  -3.424 -12.680  1.00  0.00    -0.237 OA
ATOM     72  O   UNL     1      -8.268  -1.366 -13.706  1.00  0.00    -0.237 OA
ATOM     73  O   UNL     1      -7.592  -3.264 -15.127  1.00  0.00    -0.744 OA
ENDBRANCH  66  70
ENDBRANCH  49  63
BRANCH  50  74
ATOM     74  C   UNL     1      -0.405   3.691  -4.550  1.00  0.00     0.023 A 
ATOM     75  C   UNL     1      -1.093   4.770  -3.975  1.00  0.00     0.031 A 
ATOM     76  C   UNL     1       0.760   3.228  -3.914  1.00  0.00     0.131 A 
ATOM     77  C   UNL     1      -0.608   5.354  -2.795  1.00  0.00     0.055 A 
ATOM     78  C   UNL     1       1.222   3.793  -2.724  1.00  0.00     0.041 A 
ATOM     79  F   UNL     1       1.446   2.193  -4.424  1.00  0.00    -0.206 F 
ATOM     80  C   UNL     1       0.535   4.864  -2.158  1.00  0.00     0.022 A 
BRANCH  77  81
ATOM     81  S   UNL     1      -1.506   6.762  -2.089  1.00  0.00     0.124 S 
ATOM     82  O   UNL     1      -1.283   7.792  -3.097  1.00  0.00    -0.237 OA
ATOM     83  O   UNL     1      -2.866   6.241  -1.992  1.00  0.00    -0.237 OA
ATOM     84  O   UNL     1      -0.837   6.984  -0.809  1.00  0.00    -0.744 OA
ENDBRANCH  77  81
ENDBRANCH  50  74
BRANCH  62  85
ATOM     85  C   UNL     1      -0.845   5.636 -11.250  1.00  0.00     0.023 A 
ATOM     86  C   UNL     1       0.498   6.024 -11.399  1.00  0.00     0.031 A 
ATOM     87  C   UNL     1      -1.837   6.464 -11.806  1.00  0.00     0.131 A 
ATOM     88  C   UNL     1       0.810   7.232 -12.042  1.00  0.00     0.055 A 
ATOM     89  C   UNL     1      -1.518   7.633 -12.499  1.00  0.00     0.041 A 
ATOM     90  F   UNL     1      -3.136   6.143 -11.695  1.00  0.00    -0.206 F 
ATOM     91  C   UNL     1      -0.188   8.029 -12.609  1.00  0.00     0.022 A 
BRANCH  88  92
ATOM     92  S   UNL     1       2.535   7.789 -12.057  1.00  0.00     0.124 S 
ATOM     93  O   UNL     1       2.822   7.919 -10.632  1.00  0.00    -0.237 OA
ATOM     94  O   UNL     1       3.213   6.697 -12.747  1.00  0.00    -0.237 OA
ATOM     95  O   UNL     1       2.482   9.050 -12.795  1.00  0.00    -0.744 OA
ENDBRANCH  88  92
ENDBRANCH  62  85
ENDBRANCH  36  37
ENDBRANCH  29  31
ENDBRANCH  28  29
ENDBRANCH  27  28
ENDBRANCH  26  27
ENDBRANCH  25  26
ENDBRANCH  24  25
ENDBRANCH   1  24
TORSDOF 25
