REMARK SMILES CC[NH2+][C@@]1(C(=O)OCCOCCOCCOCCOC(=O)c2ccc(-c3c4nc(c(-c5cc(S(=O)(=O)[O-])ccc5F)c5ccc([nH]5)c(-c5cc(S(=O)(=O)[O-])ccc5F)c5nc(c(-c6cc(S(=O)(=O)[O-])ccc6F)c6ccc3[nH]6)C=C5)C=C4)cc2)CCC[C@H]1CCN1C(=O)CCC1=O
REMARK SMILES IDX 13 1 12 2 11 3 10 4 9 5 8 6 7 7 5 8 6 9 4 10 85 11 88 12
REMARK SMILES IDX 86 13 87 14 3 15 2 18 1 19 89 20 90 21 91 22 92 23 96 24
REMARK SMILES IDX 93 25 94 26 95 27 97 28 14 29 15 30 16 31 17 32 18 33 19 34
REMARK SMILES IDX 20 35 21 36 22 37 23 38 84 39 24 40 83 41 25 42 26 43 27 44
REMARK SMILES IDX 77 45 28 46 82 47 76 48 78 49 29 50 81 51 75 52 74 53 30 55
REMARK SMILES IDX 62 56 42 57 61 58 43 59 46 60 60 61 79 62 44 63 45 64 59 66
REMARK SMILES IDX 80 67 47 68 31 69 32 70 40 71 33 72 39 73 41 74 38 75 34 76
REMARK SMILES IDX 35 77 36 78 37 79 63 80 64 81 72 82 65 83 71 84 73 85 70 86
REMARK SMILES IDX 66 87 67 88 68 89 69 90 48 91 49 92 57 93 50 94 56 95 58 96
REMARK SMILES IDX 55 97 51 98 52 99 53 100 54 101
REMARK H PARENT 3 16 3 17 78 54 46 65
REMARK Flexibility Score: inf
ROOT
ATOM      1  O   UNL     1       0.101   0.404   5.371  1.00  0.00    -0.377 OA
ENDROOT
BRANCH   1   2
ATOM      2  C   UNL     1       0.697  -0.159   4.216  1.00  0.00     0.188 C 
BRANCH   2   3
ATOM      3  C   UNL     1       2.214  -0.344   4.262  1.00  0.00     0.188 C 
BRANCH   3   4
ATOM      4  O   UNL     1       2.739  -0.125   5.557  1.00  0.00    -0.376 OA
BRANCH   4   5
ATOM      5  C   UNL     1       3.324   1.146   5.779  1.00  0.00     0.202 C 
BRANCH   5   6
ATOM      6  C   UNL     1       2.471   2.429   5.649  1.00  0.00     0.261 C 
BRANCH   6   7
ATOM      7  O   UNL     1       1.501   2.540   4.581  1.00  0.00    -0.459 OA
BRANCH   7   8
ATOM      8  C   UNL     1       1.918   2.846   3.335  1.00  0.00     0.368 C 
ATOM      9  O   UNL     1       3.105   2.953   3.030  1.00  0.00    -0.245 OA
BRANCH   8  10
ATOM     10  C   UNL     1       0.735   3.097   2.290  1.00  0.00     0.197 C 
ATOM     11  C   UNL     1       0.649   4.637   2.212  1.00  0.00     0.081 C 
ATOM     12  C   UNL     1      -0.754   2.747   2.662  1.00  0.00     0.064 C 
ATOM     13  C   UNL     1      -0.184   5.027   3.429  1.00  0.00     0.008 C 
ATOM     14  C   UNL     1      -1.136   3.860   3.676  1.00  0.00     0.011 C 
BRANCH  10  15
ATOM     15  N   UNL     1       1.177   2.562   0.967  1.00  0.00    -0.332 N 
ATOM     16  H   UNL     1       0.457   2.774   0.277  1.00  0.00     0.347 HD
ATOM     17  H   UNL     1       2.069   3.007   0.751  1.00  0.00     0.347 HD
BRANCH  15  18
ATOM     18  C   UNL     1       1.411   1.115   0.961  1.00  0.00     0.257 C 
ATOM     19  C   UNL     1       1.782   0.611  -0.423  1.00  0.00     0.071 C 
ENDBRANCH  15  18
ENDBRANCH  10  15
BRANCH  12  20
ATOM     20  C   UNL     1      -1.831   2.779   1.526  1.00  0.00     0.033 C 
BRANCH  20  21
ATOM     21  C   UNL     1      -1.875   1.700   0.429  1.00  0.00     0.129 C 
BRANCH  21  22
ATOM     22  N   UNL     1      -1.985   0.296   0.808  1.00  0.00    -0.283 N 
ATOM     23  C   UNL     1      -2.748  -0.205   1.820  1.00  0.00     0.229 C 
ATOM     24  C   UNL     1      -1.582  -0.702  -0.042  1.00  0.00     0.229 C 
ATOM     25  O   UNL     1      -3.466   0.412   2.589  1.00  0.00    -0.274 OA
ATOM     26  C   UNL     1      -2.597  -1.698   1.843  1.00  0.00     0.110 C 
ATOM     27  C   UNL     1      -1.869  -2.037   0.569  1.00  0.00     0.110 C 
ATOM     28  O   UNL     1      -1.098  -0.573  -1.157  1.00  0.00    -0.274 OA
ENDBRANCH  21  22
ENDBRANCH  20  21
ENDBRANCH  12  20
ENDBRANCH   8  10
ENDBRANCH   7   8
ENDBRANCH   6   7
ENDBRANCH   5   6
ENDBRANCH   4   5
ENDBRANCH   3   4
ENDBRANCH   2   3
ENDBRANCH   1   2
BRANCH   1  29
ATOM     29  C   UNL     1       0.002  -0.393   6.549  1.00  0.00     0.188 C 
BRANCH  29  30
ATOM     30  C   UNL     1       0.642  -1.795   6.601  1.00  0.00     0.188 C 
BRANCH  30  31
ATOM     31  O   UNL     1       0.601  -2.524   5.382  1.00  0.00    -0.376 OA
BRANCH  31  32
ATOM     32  C   UNL     1      -0.523  -3.342   5.095  1.00  0.00     0.202 C 
BRANCH  32  33
ATOM     33  C   UNL     1      -1.920  -2.720   5.200  1.00  0.00     0.261 C 
BRANCH  33  34
ATOM     34  O   UNL     1      -2.386  -2.347   6.492  1.00  0.00    -0.460 OA
BRANCH  34  35
ATOM     35  C   UNL     1      -2.182  -3.172   7.535  1.00  0.00     0.338 C 
ATOM     36  O   UNL     1      -1.758  -4.304   7.525  1.00  0.00    -0.246 OA
BRANCH  35  37
ATOM     37  C   UNL     1      -2.323  -2.301   8.712  1.00  0.00     0.060 A 
ATOM     38  C   UNL     1      -1.276  -2.267   9.638  1.00  0.00     0.016 A 
ATOM     39  C   UNL     1      -3.443  -1.471   8.840  1.00  0.00     0.016 A 
ATOM     40  C   UNL     1      -1.383  -1.444  10.745  1.00  0.00     0.010 A 
ATOM     41  C   UNL     1      -3.557  -0.656   9.956  1.00  0.00     0.010 A 
ATOM     42  C   UNL     1      -2.552  -0.696  10.934  1.00  0.00    -0.014 A 
BRANCH  42  43
ATOM     43  C   UNL     1      -2.832  -0.211  12.295  1.00  0.00     0.031 A 
ATOM     44  C   UNL     1      -3.685  -1.084  13.170  1.00  0.00     0.074 A 
ATOM     45  C   UNL     1      -2.245   0.907  12.747  1.00  0.00     0.049 A 
ATOM     46  N   UNL     1      -4.018  -0.932  14.421  1.00  0.00    -0.248 NA
ATOM     47  C   UNL     1      -4.234  -2.301  12.545  1.00  0.00     0.031 C 
ATOM     48  C   UNL     1      -1.360   1.770  11.963  1.00  0.00     0.029 A 
ATOM     49  N   UNL     1      -2.287   1.492  13.980  1.00  0.00    -0.354 N 
ATOM     50  C   UNL     1      -4.809  -2.033  14.733  1.00  0.00     0.074 A 
ATOM     51  C   UNL     1      -4.952  -2.816  13.529  1.00  0.00     0.031 C 
ATOM     52  C   UNL     1      -0.930   2.772  12.747  1.00  0.00     0.029 A 
ATOM     53  C   UNL     1      -1.539   2.639  14.068  1.00  0.00     0.049 A 
ATOM     54  H   UNL     1      -2.804   1.125  14.734  1.00  0.00     0.167 HD
ATOM     55  C   UNL     1      -5.353  -2.361  15.928  1.00  0.00     0.034 A 
ATOM     56  C   UNL     1      -1.385   3.485  15.104  1.00  0.00     0.034 A 
ATOM     57  C   UNL     1      -5.201  -1.540  17.102  1.00  0.00     0.049 A 
ATOM     58  C   UNL     1      -2.073   3.142  16.403  1.00  0.00     0.074 A 
ATOM     59  C   UNL     1      -5.708  -1.745  18.370  1.00  0.00     0.029 A 
ATOM     60  N   UNL     1      -4.493  -0.343  17.142  1.00  0.00    -0.354 N 
ATOM     61  N   UNL     1      -2.821   2.099  16.695  1.00  0.00    -0.248 NA
ATOM     62  C   UNL     1      -1.882   4.077  17.515  1.00  0.00     0.031 C 
ATOM     63  C   UNL     1      -5.380  -0.633  19.152  1.00  0.00     0.029 A 
ATOM     64  C   UNL     1      -4.581   0.220  18.404  1.00  0.00     0.049 A 
ATOM     65  H   UNL     1      -4.001   0.047  16.384  1.00  0.00     0.167 HD
ATOM     66  C   UNL     1      -3.164   2.240  18.036  1.00  0.00     0.074 A 
ATOM     67  C   UNL     1      -2.518   3.455  18.496  1.00  0.00     0.031 C 
ATOM     68  C   UNL     1      -3.937   1.444  18.823  1.00  0.00     0.034 A 
BRANCH  55  69
ATOM     69  C   UNL     1      -6.204  -3.606  15.986  1.00  0.00     0.023 A 
ATOM     70  C   UNL     1      -5.681  -4.884  15.715  1.00  0.00     0.031 A 
ATOM     71  C   UNL     1      -7.579  -3.507  16.265  1.00  0.00     0.131 A 
ATOM     72  C   UNL     1      -6.537  -5.996  15.661  1.00  0.00     0.055 A 
ATOM     73  C   UNL     1      -8.409  -4.629  16.294  1.00  0.00     0.041 A 
ATOM     74  F   UNL     1      -8.145  -2.311  16.494  1.00  0.00    -0.206 F 
ATOM     75  C   UNL     1      -7.892  -5.881  15.977  1.00  0.00     0.022 A 
BRANCH  72  76
ATOM     76  S   UNL     1      -5.888  -7.564  15.019  1.00  0.00     0.124 S 
ATOM     77  O   UNL     1      -5.445  -7.175  13.682  1.00  0.00    -0.237 OA
ATOM     78  O   UNL     1      -4.833  -7.884  15.974  1.00  0.00    -0.237 OA
ATOM     79  O   UNL     1      -7.048  -8.453  15.048  1.00  0.00    -0.744 OA
ENDBRANCH  72  76
ENDBRANCH  55  69
BRANCH  56  80
ATOM     80  C   UNL     1      -0.581   4.730  14.951  1.00  0.00     0.023 A 
ATOM     81  C   UNL     1       0.560   4.966  15.732  1.00  0.00     0.031 A 
ATOM     82  C   UNL     1      -0.972   5.730  14.041  1.00  0.00     0.131 A 
ATOM     83  C   UNL     1       1.241   6.189  15.626  1.00  0.00     0.055 A 
ATOM     84  C   UNL     1      -0.256   6.919  13.894  1.00  0.00     0.041 A 
ATOM     85  F   UNL     1      -2.057   5.559  13.268  1.00  0.00    -0.206 F 
ATOM     86  C   UNL     1       0.850   7.160  14.701  1.00  0.00     0.022 A 
BRANCH  83  87
ATOM     87  S   UNL     1       2.590   6.536  16.787  1.00  0.00     0.124 S 
ATOM     88  O   UNL     1       1.921   6.381  18.074  1.00  0.00    -0.237 OA
ATOM     89  O   UNL     1       3.561   5.504  16.439  1.00  0.00    -0.237 OA
ATOM     90  O   UNL     1       2.986   7.902  16.449  1.00  0.00    -0.744 OA
ENDBRANCH  83  87
ENDBRANCH  56  80
BRANCH  68  91
ATOM     91  C   UNL     1      -4.078   1.854  20.269  1.00  0.00     0.023 A 
ATOM     92  C   UNL     1      -4.702   3.057  20.638  1.00  0.00     0.031 A 
ATOM     93  C   UNL     1      -3.554   1.039  21.289  1.00  0.00     0.131 A 
ATOM     94  C   UNL     1      -4.709   3.453  21.983  1.00  0.00     0.055 A 
ATOM     95  C   UNL     1      -3.642   1.398  22.633  1.00  0.00     0.041 A 
ATOM     96  F   UNL     1      -2.946  -0.122  20.994  1.00  0.00    -0.206 F 
ATOM     97  C   UNL     1      -4.203   2.622  22.985  1.00  0.00     0.022 A 
BRANCH  94  98
ATOM     98  S   UNL     1      -5.258   5.134  22.384  1.00  0.00     0.124 S 
ATOM     99  O   UNL     1      -4.371   5.946  21.556  1.00  0.00    -0.237 OA
ATOM    100  O   UNL     1      -6.660   5.109  21.982  1.00  0.00    -0.237 OA
ATOM    101  O   UNL     1      -5.026   5.234  23.824  1.00  0.00    -0.744 OA
ENDBRANCH  94  98
ENDBRANCH  68  91
ENDBRANCH  42  43
ENDBRANCH  35  37
ENDBRANCH  34  35
ENDBRANCH  33  34
ENDBRANCH  32  33
ENDBRANCH  31  32
ENDBRANCH  30  31
ENDBRANCH  29  30
ENDBRANCH   1  29
TORSDOF 28
