REMARK SMILES CCCSc1nc2n(n1)[C@@H](c1ccccc1C(=O)OCCOCCOCCOCCOC(=O)c1ccc(-c3c4nc(c(-c5cc(S(=O)(=O)[O-])ccc5F)c5ccc([nH]5)c(-c5cc(S(=O)(=O)[O-])ccc5F)c5nc(c(-c6cc(S(=O)(=O)[O-])ccc6F)c6ccc3[nH]6)C=C5)C=C4)cc1)C(C(=O)Nc1cccc(C)c1C)=C(C)N2
REMARK SMILES IDX 24 1 23 2 22 3 21 4 20 5 19 6 17 7 18 8 16 9 11 10 12 11
REMARK SMILES IDX 13 12 15 13 14 14 10 15 5 16 6 17 9 18 7 19 8 20 111 21
REMARK SMILES IDX 109 22 97 24 110 25 4 26 3 27 2 28 1 29 98 30 99 31 100 32
REMARK SMILES IDX 101 34 102 35 107 36 103 37 105 38 108 39 104 40 106 41
REMARK SMILES IDX 25 42 26 43 27 44 28 45 29 46 30 47 31 48 32 49 33 50 34 51
REMARK SMILES IDX 35 52 96 53 36 54 95 55 37 56 38 57 39 58 89 59 40 60 94 61
REMARK SMILES IDX 88 62 90 63 41 64 93 65 87 66 86 67 42 69 74 70 54 71 73 72
REMARK SMILES IDX 55 73 58 74 72 75 91 76 56 77 57 78 71 80 92 81 59 82 43 83
REMARK SMILES IDX 44 84 52 85 45 86 51 87 53 88 50 89 46 90 47 91 48 92 49 93
REMARK SMILES IDX 75 94 76 95 84 96 77 97 83 98 85 99 82 100 78 101 79 102
REMARK SMILES IDX 80 103 81 104 60 105 61 106 69 107 62 108 68 109 70 110
REMARK SMILES IDX 67 111 63 112 64 113 65 114 66 115
REMARK H PARENT 111 23 100 33 90 68 58 79
REMARK Flexibility Score: inf
ROOT
ATOM      1  C   UNL     1       0.407  -9.282  -1.412  1.00  0.00     0.188 C 
ENDROOT
BRANCH   1   2
ATOM      2  C   UNL     1       0.963 -10.467  -0.583  1.00  0.00     0.188 C 
BRANCH   2   3
ATOM      3  O   UNL     1       0.177 -10.872   0.513  1.00  0.00    -0.376 OA
BRANCH   3   4
ATOM      4  C   UNL     1       0.452 -10.477   1.825  1.00  0.00     0.202 C 
BRANCH   4   5
ATOM      5  C   UNL     1       0.811  -9.035   2.155  1.00  0.00     0.261 C 
BRANCH   5   6
ATOM      6  O   UNL     1       1.414  -8.222   1.142  1.00  0.00    -0.460 OA
BRANCH   6   7
ATOM      7  C   UNL     1       2.735  -8.408   0.937  1.00  0.00     0.338 C 
ATOM      8  O   UNL     1       3.407  -9.298   1.450  1.00  0.00    -0.246 OA
BRANCH   7   9
ATOM      9  C   UNL     1       3.239  -7.475  -0.113  1.00  0.00     0.065 A 
ATOM     10  C   UNL     1       2.846  -6.120  -0.297  1.00  0.00    -0.004 A 
ATOM     11  C   UNL     1       3.445  -5.440  -1.391  1.00  0.00     0.007 A 
ATOM     12  C   UNL     1       4.369  -6.048  -2.246  1.00  0.00     0.000 A 
ATOM     13  C   UNL     1       4.187  -8.068  -0.976  1.00  0.00     0.016 A 
ATOM     14  C   UNL     1       4.746  -7.362  -2.035  1.00  0.00     0.001 A 
BRANCH  10  15
ATOM     15  C   UNL     1       1.875  -5.365   0.655  1.00  0.00     0.180 C 
ATOM     16  C   UNL     1       0.841  -2.526  -1.183  1.00  0.00     0.210 A 
ATOM     17  N   UNL     1       1.746  -1.923  -0.356  1.00  0.00    -0.185 NA
ATOM     18  N   UNL     1       0.647  -3.839  -0.963  1.00  0.00    -0.141 NA
ATOM     19  C   UNL     1       2.055  -2.867   0.480  1.00  0.00     0.227 A 
ATOM     20  N   UNL     1       1.482  -4.048   0.086  1.00  0.00    -0.218 N 
ATOM     21  N   UNL     1       2.804  -2.819   1.587  1.00  0.00    -0.328 N 
ATOM     22  C   UNL     1       2.980  -3.908   2.417  1.00  0.00     0.026 C 
ATOM     23  H   UNL     1       3.248  -1.972   1.820  1.00  0.00     0.169 HD
ATOM     24  C   UNL     1       2.498  -5.117   2.043  1.00  0.00     0.065 C 
ATOM     25  C   UNL     1       3.731  -3.626   3.690  1.00  0.00     0.065 C 
BRANCH  16  26
ATOM     26  S   UNL     1      -0.010  -1.615  -2.399  1.00  0.00    -0.084 SA
BRANCH  26  27
ATOM     27  C   UNL     1       0.800   0.021  -2.263  1.00  0.00     0.078 C 
BRANCH  27  28
ATOM     28  C   UNL     1       0.203   0.968  -1.212  1.00  0.00     0.008 C 
ATOM     29  C   UNL     1       0.517   0.631   0.238  1.00  0.00     0.005 C 
ENDBRANCH  27  28
ENDBRANCH  26  27
ENDBRANCH  16  26
BRANCH  24  30
ATOM     30  C   UNL     1       2.736  -6.256   2.938  1.00  0.00     0.255 C 
ATOM     31  O   UNL     1       3.823  -6.830   2.917  1.00  0.00    -0.269 OA
ATOM     32  N   UNL     1       1.758  -6.676   3.807  1.00  0.00    -0.322 N 
ATOM     33  H   UNL     1       1.327  -7.551   3.679  1.00  0.00     0.170 HD
BRANCH  32  34
ATOM     34  C   UNL     1       1.374  -5.850   4.882  1.00  0.00     0.044 A 
ATOM     35  C   UNL     1       2.051  -6.102   6.084  1.00  0.00     0.026 A 
ATOM     36  C   UNL     1       0.528  -4.744   4.736  1.00  0.00    -0.025 A 
ATOM     37  C   UNL     1       2.039  -5.157   7.093  1.00  0.00     0.002 A 
ATOM     38  C   UNL     1       0.591  -3.747   5.728  1.00  0.00    -0.046 A 
ATOM     39  C   UNL     1      -0.436  -4.644   3.584  1.00  0.00     0.047 C 
ATOM     40  C   UNL     1       1.354  -3.964   6.893  1.00  0.00     0.004 A 
ATOM     41  C   UNL     1      -0.053  -2.397   5.566  1.00  0.00     0.044 C 
ENDBRANCH  32  34
ENDBRANCH  24  30
ENDBRANCH  10  15
ENDBRANCH   7   9
ENDBRANCH   6   7
ENDBRANCH   5   6
ENDBRANCH   4   5
ENDBRANCH   3   4
ENDBRANCH   2   3
ENDBRANCH   1   2
BRANCH   1  42
ATOM     42  O   UNL     1      -0.895  -8.735  -1.247  1.00  0.00    -0.377 OA
BRANCH  42  43
ATOM     43  C   UNL     1      -1.837  -9.348  -0.388  1.00  0.00     0.188 C 
BRANCH  43  44
ATOM     44  C   UNL     1      -2.251 -10.813  -0.667  1.00  0.00     0.188 C 
BRANCH  44  45
ATOM     45  O   UNL     1      -1.351 -11.581  -1.446  1.00  0.00    -0.376 OA
BRANCH  45  46
ATOM     46  C   UNL     1      -1.380 -11.741  -2.854  1.00  0.00     0.202 C 
BRANCH  46  47
ATOM     47  C   UNL     1      -1.734 -10.637  -3.853  1.00  0.00     0.261 C 
BRANCH  47  48
ATOM     48  O   UNL     1      -2.533  -9.610  -3.327  1.00  0.00    -0.460 OA
BRANCH  48  49
ATOM     49  C   UNL     1      -3.760 -10.009  -2.991  1.00  0.00     0.338 C 
ATOM     50  O   UNL     1      -4.221 -11.153  -3.105  1.00  0.00    -0.246 OA
BRANCH  49  51
ATOM     51  C   UNL     1      -4.482  -8.869  -2.419  1.00  0.00     0.060 A 
ATOM     52  C   UNL     1      -5.803  -9.165  -2.103  1.00  0.00     0.016 A 
ATOM     53  C   UNL     1      -4.054  -7.598  -2.834  1.00  0.00     0.016 A 
ATOM     54  C   UNL     1      -6.737  -8.393  -2.726  1.00  0.00     0.010 A 
ATOM     55  C   UNL     1      -4.985  -6.832  -3.469  1.00  0.00     0.010 A 
ATOM     56  C   UNL     1      -6.276  -7.342  -3.526  1.00  0.00    -0.014 A 
BRANCH  56  57
ATOM     57  C   UNL     1      -7.191  -6.829  -4.503  1.00  0.00     0.031 A 
ATOM     58  C   UNL     1      -8.144  -5.889  -3.915  1.00  0.00     0.074 A 
ATOM     59  C   UNL     1      -7.137  -7.198  -5.792  1.00  0.00     0.049 A 
ATOM     60  N   UNL     1      -9.373  -6.130  -3.620  1.00  0.00    -0.248 NA
ATOM     61  C   UNL     1      -7.606  -4.645  -3.353  1.00  0.00     0.031 C 
ATOM     62  C   UNL     1      -6.093  -7.931  -6.510  1.00  0.00     0.029 A 
ATOM     63  N   UNL     1      -8.012  -6.874  -6.770  1.00  0.00    -0.354 N 
ATOM     64  C   UNL     1      -9.832  -4.971  -3.020  1.00  0.00     0.074 A 
ATOM     65  C   UNL     1      -8.662  -4.215  -2.666  1.00  0.00     0.031 C 
ATOM     66  C   UNL     1      -6.280  -7.760  -7.840  1.00  0.00     0.029 A 
ATOM     67  C   UNL     1      -7.510  -7.010  -8.052  1.00  0.00     0.049 A 
ATOM     68  H   UNL     1      -8.929  -6.566  -6.585  1.00  0.00     0.167 HD
ATOM     69  C   UNL     1     -11.143  -4.628  -3.085  1.00  0.00     0.034 A 
ATOM     70  C   UNL     1      -8.025  -6.414  -9.160  1.00  0.00     0.034 A 
ATOM     71  C   UNL     1     -11.950  -5.745  -3.527  1.00  0.00     0.049 A 
ATOM     72  C   UNL     1      -9.453  -6.100  -8.849  1.00  0.00     0.074 A 
ATOM     73  C   UNL     1     -12.207  -7.003  -3.014  1.00  0.00     0.029 A 
ATOM     74  N   UNL     1     -12.294  -5.807  -4.862  1.00  0.00    -0.354 N 
ATOM     75  N   UNL     1     -10.352  -7.025  -8.629  1.00  0.00    -0.248 NA
ATOM     76  C   UNL     1      -9.767  -4.803  -8.255  1.00  0.00     0.031 C 
ATOM     77  C   UNL     1     -12.230  -7.868  -4.147  1.00  0.00     0.029 A 
ATOM     78  C   UNL     1     -12.058  -7.092  -5.296  1.00  0.00     0.049 A 
ATOM     79  H   UNL     1     -12.645  -5.066  -5.407  1.00  0.00     0.167 HD
ATOM     80  C   UNL     1     -11.090  -6.575  -7.540  1.00  0.00     0.074 A 
ATOM     81  C   UNL     1     -10.754  -5.156  -7.421  1.00  0.00     0.031 C 
ATOM     82  C   UNL     1     -11.662  -7.446  -6.652  1.00  0.00     0.034 A 
BRANCH  69  83
ATOM     83  C   UNL     1     -11.648  -3.212  -3.071  1.00  0.00     0.023 A 
ATOM     84  C   UNL     1     -13.041  -3.035  -3.076  1.00  0.00     0.031 A 
ATOM     85  C   UNL     1     -10.875  -2.051  -3.309  1.00  0.00     0.131 A 
ATOM     86  C   UNL     1     -13.604  -1.789  -3.390  1.00  0.00     0.055 A 
ATOM     87  C   UNL     1     -11.440  -0.798  -3.546  1.00  0.00     0.041 A 
ATOM     88  F   UNL     1      -9.543  -2.071  -3.429  1.00  0.00    -0.206 F 
ATOM     89  C   UNL     1     -12.813  -0.666  -3.620  1.00  0.00     0.022 A 
BRANCH  86  90
ATOM     90  S   UNL     1     -15.388  -1.708  -3.671  1.00  0.00     0.124 S 
ATOM     91  O   UNL     1     -15.589  -2.785  -4.634  1.00  0.00    -0.237 OA
ATOM     92  O   UNL     1     -15.912  -1.936  -2.329  1.00  0.00    -0.237 OA
ATOM     93  O   UNL     1     -15.584  -0.359  -4.198  1.00  0.00    -0.744 OA
ENDBRANCH  86  90
ENDBRANCH  69  83
BRANCH  70  94
ATOM     94  C   UNL     1      -7.218  -5.778 -10.242  1.00  0.00     0.023 A 
ATOM     95  C   UNL     1      -7.744  -5.464 -11.511  1.00  0.00     0.031 A 
ATOM     96  C   UNL     1      -5.921  -5.280  -9.961  1.00  0.00     0.131 A 
ATOM     97  C   UNL     1      -6.977  -4.711 -12.435  1.00  0.00     0.055 A 
ATOM     98  C   UNL     1      -5.163  -4.555 -10.881  1.00  0.00     0.041 A 
ATOM     99  F   UNL     1      -5.369  -5.410  -8.745  1.00  0.00    -0.206 F 
ATOM    100  C   UNL     1      -5.691  -4.261 -12.124  1.00  0.00     0.022 A 
BRANCH  97 101
ATOM    101  S   UNL     1      -7.685  -4.216 -14.040  1.00  0.00     0.124 S 
ATOM    102  O   UNL     1      -7.744  -5.484 -14.757  1.00  0.00    -0.237 OA
ATOM    103  O   UNL     1      -8.963  -3.629 -13.652  1.00  0.00    -0.237 OA
ATOM    104  O   UNL     1      -6.709  -3.259 -14.564  1.00  0.00    -0.744 OA
ENDBRANCH  97 101
ENDBRANCH  70  94
BRANCH  82 105
ATOM    105  C   UNL     1     -11.674  -8.927  -6.996  1.00  0.00     0.023 A 
ATOM    106  C   UNL     1     -10.517  -9.695  -7.263  1.00  0.00     0.031 A 
ATOM    107  C   UNL     1     -12.897  -9.614  -6.897  1.00  0.00     0.131 A 
ATOM    108  C   UNL     1     -10.614 -11.091  -7.430  1.00  0.00     0.055 A 
ATOM    109  C   UNL     1     -12.986 -10.999  -7.037  1.00  0.00     0.041 A 
ATOM    110  F   UNL     1     -14.030  -8.950  -6.614  1.00  0.00    -0.206 F 
ATOM    111  C   UNL     1     -11.845 -11.744  -7.309  1.00  0.00     0.022 A 
BRANCH 108 112
ATOM    112  S   UNL     1      -9.137 -12.086  -7.818  1.00  0.00     0.124 S 
ATOM    113  O   UNL     1      -8.507 -11.349  -8.906  1.00  0.00    -0.237 OA
ATOM    114  O   UNL     1      -8.421 -12.093  -6.546  1.00  0.00    -0.237 OA
ATOM    115  O   UNL     1      -9.695 -13.383  -8.207  1.00  0.00    -0.744 OA
ENDBRANCH 108 112
ENDBRANCH  82 105
ENDBRANCH  56  57
ENDBRANCH  49  51
ENDBRANCH  48  49
ENDBRANCH  47  48
ENDBRANCH  46  47
ENDBRANCH  45  46
ENDBRANCH  44  45
ENDBRANCH  43  44
ENDBRANCH  42  43
ENDBRANCH   1  42
TORSDOF 29
