REMARK SMILES Cc1c(Cl)cc2c(c1C)O[C@H](C(F)(F)F)C(C(=O)OCCOCCOCCOCCOC(=O)c1ccc(-c3c4nc(c(-c5cc(S(=O)(=O)[O-])ccc5F)c5ccc([nH]5)c(-c5cc(S(=O)(=O)[O-])ccc5F)c5nc(c(-c6cc(S(=O)(=O)[O-])ccc6F)c6ccc3[nH]6)C=C5)C=C4)cc1)=C2
REMARK SMILES IDX 26 1 25 2 24 3 23 4 22 5 21 6 20 7 19 8 17 9 18 10 16 11
REMARK SMILES IDX 1 12 2 13 3 14 8 15 4 16 5 17 7 18 9 19 6 20 10 21 97 22
REMARK SMILES IDX 11 23 12 24 13 25 14 26 15 27 27 28 28 29 29 30 30 31 31 32
REMARK SMILES IDX 32 33 33 34 34 35 35 36 96 37 36 38 95 39 37 40 38 41 39 42
REMARK SMILES IDX 89 43 40 44 94 45 88 46 90 47 41 48 93 49 87 50 86 51 42 53
REMARK SMILES IDX 74 54 54 55 73 56 55 57 58 58 72 59 91 60 56 61 57 62 71 64
REMARK SMILES IDX 92 65 59 66 43 67 44 68 52 69 45 70 51 71 53 72 50 73 46 74
REMARK SMILES IDX 47 75 48 76 49 77 75 78 76 79 84 80 77 81 83 82 85 83 82 84
REMARK SMILES IDX 78 85 79 86 80 87 81 88 60 89 61 90 69 91 62 92 68 93 70 94
REMARK SMILES IDX 67 95 63 96 64 97 65 98 66 99
REMARK H PARENT 90 52 58 63
REMARK Flexibility Score: inf
ROOT
ATOM      1  C   UNL     1      -2.147 -10.094  -0.294  1.00  0.00     0.188 C 
ENDROOT
BRANCH   1   2
ATOM      2  O   UNL     1      -1.305  -9.018  -0.711  1.00  0.00    -0.377 OA
BRANCH   2   3
ATOM      3  C   UNL     1      -1.940  -7.840  -1.182  1.00  0.00     0.188 C 
BRANCH   3   4
ATOM      4  C   UNL     1      -2.251  -7.903  -2.689  1.00  0.00     0.188 C 
BRANCH   4   5
ATOM      5  O   UNL     1      -2.223  -9.220  -3.212  1.00  0.00    -0.376 OA
BRANCH   5   6
ATOM      6  C   UNL     1      -1.028  -9.769  -3.747  1.00  0.00     0.202 C 
BRANCH   6   7
ATOM      7  C   UNL     1       0.373  -9.557  -3.136  1.00  0.00     0.261 C 
BRANCH   7   8
ATOM      8  O   UNL     1       0.632  -8.303  -2.501  1.00  0.00    -0.460 OA
BRANCH   8   9
ATOM      9  C   UNL     1       0.860  -7.232  -3.278  1.00  0.00     0.338 C 
ATOM     10  O   UNL     1       0.893  -7.198  -4.495  1.00  0.00    -0.246 OA
BRANCH   9  11
ATOM     11  C   UNL     1       0.880  -6.044  -2.394  1.00  0.00     0.087 C 
ATOM     12  C   UNL     1       0.854  -0.051   0.093  1.00  0.00     0.046 C 
ATOM     13  C   UNL     1       0.541  -1.372  -0.564  1.00  0.00    -0.026 A 
ATOM     14  C   UNL     1      -0.335  -1.456  -1.663  1.00  0.00     0.045 A 
ATOM     15  C   UNL     1       1.154  -2.562  -0.094  1.00  0.00    -0.004 A 
ATOM     16  Cl  UNL     1      -1.224  -0.092  -2.252  1.00  0.00    -0.084 Cl
ATOM     17  C   UNL     1      -0.507  -2.657  -2.353  1.00  0.00     0.032 A 
ATOM     18  C   UNL     1       0.967  -3.768  -0.803  1.00  0.00     0.131 A 
ATOM     19  C   UNL     1       2.046  -2.587   1.125  1.00  0.00     0.049 C 
ATOM     20  C   UNL     1       0.187  -3.799  -1.958  1.00  0.00     0.019 A 
ATOM     21  O   UNL     1       1.600  -4.875  -0.310  1.00  0.00    -0.475 OA
ATOM     22  C   UNL     1       0.160  -4.988  -2.791  1.00  0.00     0.027 C 
ATOM     23  C   UNL     1       1.625  -6.105  -1.085  1.00  0.00     0.316 C 
BRANCH  23  24
ATOM     24  C   UNL     1       3.093  -6.516  -1.266  1.00  0.00     0.430 C 
ATOM     25  F   UNL     1       3.757  -6.495  -0.085  1.00  0.00    -0.167 F 
ATOM     26  F   UNL     1       3.216  -7.765  -1.766  1.00  0.00    -0.167 F 
ATOM     27  F   UNL     1       3.741  -5.677  -2.107  1.00  0.00    -0.167 F 
ENDBRANCH  23  24
ENDBRANCH   9  11
ENDBRANCH   8   9
ENDBRANCH   7   8
ENDBRANCH   6   7
ENDBRANCH   5   6
ENDBRANCH   4   5
ENDBRANCH   3   4
ENDBRANCH   2   3
ENDBRANCH   1   2
BRANCH   1  28
ATOM     28  C   UNL     1      -3.540 -10.310  -0.932  1.00  0.00     0.188 C 
BRANCH  28  29
ATOM     29  O   UNL     1      -4.331  -9.125  -1.008  1.00  0.00    -0.376 OA
BRANCH  29  30
ATOM     30  C   UNL     1      -5.423  -9.017  -0.107  1.00  0.00     0.202 C 
BRANCH  30  31
ATOM     31  C   UNL     1      -5.030  -8.691   1.340  1.00  0.00     0.261 C 
BRANCH  31  32
ATOM     32  O   UNL     1      -4.212  -9.672   1.994  1.00  0.00    -0.460 OA
BRANCH  32  33
ATOM     33  C   UNL     1      -4.713 -10.922   2.116  1.00  0.00     0.338 C 
ATOM     34  O   UNL     1      -5.816 -11.307   1.771  1.00  0.00    -0.246 OA
BRANCH  33  35
ATOM     35  C   UNL     1      -3.610 -11.792   2.569  1.00  0.00     0.060 A 
ATOM     36  C   UNL     1      -3.230 -12.883   1.778  1.00  0.00     0.016 A 
ATOM     37  C   UNL     1      -2.933 -11.506   3.758  1.00  0.00     0.016 A 
ATOM     38  C   UNL     1      -2.178 -13.704   2.188  1.00  0.00     0.010 A 
ATOM     39  C   UNL     1      -1.894 -12.339   4.175  1.00  0.00     0.010 A 
ATOM     40  C   UNL     1      -1.525 -13.454   3.404  1.00  0.00    -0.014 A 
BRANCH  40  41
ATOM     41  C   UNL     1      -0.578 -14.454   3.953  1.00  0.00     0.031 A 
ATOM     42  C   UNL     1      -1.098 -15.460   4.943  1.00  0.00     0.074 A 
ATOM     43  C   UNL     1       0.707 -14.491   3.558  1.00  0.00     0.049 A 
ATOM     44  N   UNL     1      -0.460 -16.413   5.568  1.00  0.00    -0.248 NA
ATOM     45  C   UNL     1      -2.533 -15.381   5.268  1.00  0.00     0.031 C 
ATOM     46  C   UNL     1       1.312 -13.601   2.567  1.00  0.00     0.029 A 
ATOM     47  N   UNL     1       1.735 -15.318   3.938  1.00  0.00    -0.354 N 
ATOM     48  C   UNL     1      -1.414 -17.059   6.345  1.00  0.00     0.074 A 
ATOM     49  C   UNL     1      -2.666 -16.361   6.149  1.00  0.00     0.031 C 
ATOM     50  C   UNL     1       2.604 -13.940   2.409  1.00  0.00     0.029 A 
ATOM     51  C   UNL     1       2.928 -15.046   3.310  1.00  0.00     0.049 A 
ATOM     52  H   UNL     1       1.627 -16.040   4.599  1.00  0.00     0.167 HD
ATOM     53  C   UNL     1      -1.265 -18.148   7.135  1.00  0.00     0.034 A 
ATOM     54  C   UNL     1       4.142 -15.619   3.454  1.00  0.00     0.034 A 
ATOM     55  C   UNL     1      -0.013 -18.830   7.336  1.00  0.00     0.049 A 
ATOM     56  C   UNL     1       4.309 -16.759   4.430  1.00  0.00     0.074 A 
ATOM     57  C   UNL     1       0.244 -19.933   8.130  1.00  0.00     0.029 A 
ATOM     58  N   UNL     1       1.189 -18.472   6.745  1.00  0.00    -0.354 N 
ATOM     59  N   UNL     1       3.402 -17.341   5.180  1.00  0.00    -0.248 NA
ATOM     60  C   UNL     1       5.660 -17.318   4.582  1.00  0.00     0.031 C 
ATOM     61  C   UNL     1       1.613 -20.206   8.067  1.00  0.00     0.029 A 
ATOM     62  C   UNL     1       2.196 -19.318   7.177  1.00  0.00     0.049 A 
ATOM     63  H   UNL     1       1.309 -17.728   6.112  1.00  0.00     0.167 HD
ATOM     64  C   UNL     1       4.067 -18.355   5.864  1.00  0.00     0.074 A 
ATOM     65  C   UNL     1       5.452 -18.304   5.445  1.00  0.00     0.031 C 
ATOM     66  C   UNL     1       3.573 -19.255   6.751  1.00  0.00     0.034 A 
BRANCH  53  67
ATOM     67  C   UNL     1      -2.481 -18.657   7.858  1.00  0.00     0.023 A 
ATOM     68  C   UNL     1      -3.541 -19.265   7.165  1.00  0.00     0.031 A 
ATOM     69  C   UNL     1      -2.569 -18.561   9.257  1.00  0.00     0.131 A 
ATOM     70  C   UNL     1      -4.661 -19.726   7.870  1.00  0.00     0.055 A 
ATOM     71  C   UNL     1      -3.659 -19.076   9.959  1.00  0.00     0.041 A 
ATOM     72  F   UNL     1      -1.593 -17.969   9.963  1.00  0.00    -0.206 F 
ATOM     73  C   UNL     1      -4.716 -19.658   9.265  1.00  0.00     0.022 A 
BRANCH  70  74
ATOM     74  S   UNL     1      -6.080 -20.355   6.933  1.00  0.00     0.124 S 
ATOM     75  O   UNL     1      -6.512 -19.158   6.216  1.00  0.00    -0.237 OA
ATOM     76  O   UNL     1      -5.482 -21.406   6.118  1.00  0.00    -0.237 OA
ATOM     77  O   UNL     1      -6.997 -20.818   7.972  1.00  0.00    -0.744 OA
ENDBRANCH  70  74
ENDBRANCH  53  67
BRANCH  54  78
ATOM     78  C   UNL     1       5.306 -15.120   2.667  1.00  0.00     0.023 A 
ATOM     79  C   UNL     1       5.916 -15.925   1.692  1.00  0.00     0.031 A 
ATOM     80  C   UNL     1       5.841 -13.841   2.899  1.00  0.00     0.131 A 
ATOM     81  C   UNL     1       7.043 -15.451   1.001  1.00  0.00     0.055 A 
ATOM     82  C   UNL     1       6.937 -13.359   2.180  1.00  0.00     0.041 A 
ATOM     83  F   UNL     1       5.295 -13.034   3.822  1.00  0.00    -0.206 F 
ATOM     84  C   UNL     1       7.549 -14.169   1.229  1.00  0.00     0.022 A 
BRANCH  81  85
ATOM     85  S   UNL     1       7.870 -16.556  -0.176  1.00  0.00     0.124 S 
ATOM     86  O   UNL     1       8.321 -17.634   0.697  1.00  0.00    -0.237 OA
ATOM     87  O   UNL     1       6.787 -16.885  -1.097  1.00  0.00    -0.237 OA
ATOM     88  O   UNL     1       8.930 -15.722  -0.738  1.00  0.00    -0.744 OA
ENDBRANCH  81  85
ENDBRANCH  54  78
BRANCH  66  89
ATOM     89  C   UNL     1       4.513 -20.293   7.305  1.00  0.00     0.023 A 
ATOM     90  C   UNL     1       5.490 -19.968   8.259  1.00  0.00     0.031 A 
ATOM     91  C   UNL     1       4.363 -21.642   6.934  1.00  0.00     0.131 A 
ATOM     92  C   UNL     1       6.294 -20.982   8.803  1.00  0.00     0.055 A 
ATOM     93  C   UNL     1       5.136 -22.651   7.509  1.00  0.00     0.041 A 
ATOM     94  F   UNL     1       3.437 -22.003   6.031  1.00  0.00    -0.206 F 
ATOM     95  C   UNL     1       6.109 -22.322   8.448  1.00  0.00     0.022 A 
BRANCH  92  96
ATOM     96  S   UNL     1       7.597 -20.528   9.979  1.00  0.00     0.124 S 
ATOM     97  O   UNL     1       8.499 -19.743   9.143  1.00  0.00    -0.237 OA
ATOM     98  O   UNL     1       6.861 -19.784  10.996  1.00  0.00    -0.237 OA
ATOM     99  O   UNL     1       8.125 -21.818  10.421  1.00  0.00    -0.744 OA
ENDBRANCH  92  96
ENDBRANCH  66  89
ENDBRANCH  40  41
ENDBRANCH  33  35
ENDBRANCH  32  33
ENDBRANCH  31  32
ENDBRANCH  30  31
ENDBRANCH  29  30
ENDBRANCH  28  29
ENDBRANCH   1  28
TORSDOF 24
