REMARK SMILES Cc1ccc(/C=C/C(=O)N2C[C@@H](O)C[C@H]2C(=O)OCCOCCOCCOCCOC(=O)c2ccc(-c3c4nc(c(-c5cc(S(=O)(=O)[O-])ccc5F)c5ccc([nH]5)c(-c5cc(S(=O)(=O)[O-])ccc5F)c5nc(c(-c6cc(S(=O)(=O)[O-])ccc6F)c6ccc3[nH]6)C=C5)C=C4)cc2)c(C)c1
REMARK SMILES IDX 24 1 23 2 22 3 21 4 20 5 19 6 18 7 16 8 17 9 15 10 10 11
REMARK SMILES IDX 11 12 12 13 14 14 8 15 9 16 7 17 6 18 5 19 1 20 2 21 3 22
REMARK SMILES IDX 98 23 4 24 96 25 97 26 13 27 25 29 26 30 27 31 28 32 29 33
REMARK SMILES IDX 30 34 31 35 32 36 33 37 34 38 95 39 35 40 94 41 36 42 37 43
REMARK SMILES IDX 38 44 88 45 39 46 93 47 87 48 89 49 40 50 92 51 86 52 85 53
REMARK SMILES IDX 41 55 73 56 53 57 72 58 54 59 57 60 71 61 90 62 55 63 56 64
REMARK SMILES IDX 70 66 91 67 58 68 42 69 43 70 51 71 44 72 50 73 52 74 49 75
REMARK SMILES IDX 45 76 46 77 47 78 48 79 74 80 75 81 83 82 76 83 82 84 84 85
REMARK SMILES IDX 81 86 77 87 78 88 79 89 80 90 59 91 60 92 68 93 61 94 67 95
REMARK SMILES IDX 69 96 66 97 62 98 63 99 64 100 65 101
REMARK H PARENT 13 28 89 54 57 65
REMARK Flexibility Score: inf
ROOT
ATOM      1  O   UNL     1      -7.712  -1.871   1.501  1.00  0.00    -0.377 OA
ENDROOT
BRANCH   1   2
ATOM      2  C   UNL     1      -7.451  -1.724   0.124  1.00  0.00     0.188 C 
BRANCH   2   3
ATOM      3  C   UNL     1      -8.519  -2.024  -0.935  1.00  0.00     0.188 C 
BRANCH   3   4
ATOM      4  O   UNL     1      -9.820  -2.361  -0.515  1.00  0.00    -0.376 OA
BRANCH   4   5
ATOM      5  C   UNL     1     -10.084  -3.527   0.236  1.00  0.00     0.202 C 
BRANCH   5   6
ATOM      6  C   UNL     1      -9.107  -4.697   0.470  1.00  0.00     0.261 C 
BRANCH   6   7
ATOM      7  O   UNL     1      -7.705  -4.500   0.229  1.00  0.00    -0.462 OA
BRANCH   7   8
ATOM      8  C   UNL     1      -7.213  -5.012  -0.929  1.00  0.00     0.329 C 
ATOM      9  O   UNL     1      -7.894  -5.628  -1.745  1.00  0.00    -0.250 OA
BRANCH   8  10
ATOM     10  C   UNL     1      -5.674  -4.908  -1.069  1.00  0.00     0.198 C 
ATOM     11  N   UNL     1      -4.838  -3.976  -0.278  1.00  0.00    -0.323 N 
ATOM     12  C   UNL     1      -4.127  -4.689   0.764  1.00  0.00     0.152 C 
ATOM     13  C   UNL     1      -3.848  -6.025   0.085  1.00  0.00     0.136 C 
ATOM     14  C   UNL     1      -5.131  -6.297  -0.695  1.00  0.00     0.071 C 
BRANCH  11  15
ATOM     15  C   UNL     1      -4.493  -2.736  -0.776  1.00  0.00     0.247 C 
ATOM     16  O   UNL     1      -4.962  -2.285  -1.820  1.00  0.00    -0.270 OA
BRANCH  15  17
ATOM     17  C   UNL     1      -3.513  -1.918  -0.014  1.00  0.00     0.072 C 
ATOM     18  C   UNL     1      -2.274  -1.859  -0.524  1.00  0.00     0.014 C 
BRANCH  18  19
ATOM     19  C   UNL     1      -1.124  -1.032  -0.108  1.00  0.00    -0.023 A 
ATOM     20  C   UNL     1       2.644   1.102   0.119  1.00  0.00     0.044 C 
ATOM     21  C   UNL     1       1.346   0.349   0.123  1.00  0.00    -0.051 A 
ATOM     22  C   UNL     1       1.318  -1.042   0.114  1.00  0.00     0.004 A 
ATOM     23  C   UNL     1       0.130   1.043   0.092  1.00  0.00     0.007 A 
ATOM     24  C   UNL     1       0.100  -1.720  -0.000  1.00  0.00     0.008 A 
ATOM     25  C   UNL     1      -1.111   0.374  -0.018  1.00  0.00    -0.044 A 
ATOM     26  C   UNL     1      -2.327   1.255  -0.119  1.00  0.00     0.045 C 
ENDBRANCH  18  19
ENDBRANCH  15  17
ENDBRANCH  11  15
BRANCH  13  27
ATOM     27  O   UNL     1      -3.554  -7.070   0.990  1.00  0.00    -0.391 OA
ATOM     28  H   UNL     1      -4.299  -7.189   1.600  1.00  0.00     0.211 HD
ENDBRANCH  13  27
ENDBRANCH   8  10
ENDBRANCH   7   8
ENDBRANCH   6   7
ENDBRANCH   5   6
ENDBRANCH   4   5
ENDBRANCH   3   4
ENDBRANCH   2   3
ENDBRANCH   1   2
BRANCH   1  29
ATOM     29  C   UNL     1      -8.740  -1.125   2.120  1.00  0.00     0.188 C 
BRANCH  29  30
ATOM     30  C   UNL     1      -9.401   0.070   1.417  1.00  0.00     0.188 C 
BRANCH  30  31
ATOM     31  O   UNL     1      -8.713   0.557   0.279  1.00  0.00    -0.376 OA
BRANCH  31  32
ATOM     32  C   UNL     1      -7.907   1.714   0.418  1.00  0.00     0.202 C 
BRANCH  32  33
ATOM     33  C   UNL     1      -6.675   1.636   1.336  1.00  0.00     0.261 C 
BRANCH  33  34
ATOM     34  O   UNL     1      -6.905   1.192   2.679  1.00  0.00    -0.460 OA
BRANCH  34  35
ATOM     35  C   UNL     1      -7.671   1.992   3.458  1.00  0.00     0.338 C 
ATOM     36  O   UNL     1      -8.184   3.042   3.140  1.00  0.00    -0.246 OA
BRANCH  35  37
ATOM     37  C   UNL     1      -7.933   1.261   4.717  1.00  0.00     0.060 A 
ATOM     38  C   UNL     1      -9.254   0.912   5.026  1.00  0.00     0.016 A 
ATOM     39  C   UNL     1      -6.885   0.905   5.570  1.00  0.00     0.016 A 
ATOM     40  C   UNL     1      -9.534   0.229   6.207  1.00  0.00     0.010 A 
ATOM     41  C   UNL     1      -7.172   0.247   6.770  1.00  0.00     0.010 A 
ATOM     42  C   UNL     1      -8.502  -0.060   7.108  1.00  0.00    -0.014 A 
BRANCH  42  43
ATOM     43  C   UNL     1      -8.860  -0.453   8.493  1.00  0.00     0.031 A 
ATOM     44  C   UNL     1      -8.911   0.629   9.538  1.00  0.00     0.074 A 
ATOM     45  C   UNL     1      -9.202  -1.716   8.801  1.00  0.00     0.049 A 
ATOM     46  N   UNL     1      -9.202   0.549  10.809  1.00  0.00    -0.248 NA
ATOM     47  C   UNL     1      -8.585   1.988   9.077  1.00  0.00     0.031 C 
ATOM     48  C   UNL     1      -9.240  -2.833   7.859  1.00  0.00     0.029 A 
ATOM     49  N   UNL     1      -9.585  -2.270   9.996  1.00  0.00    -0.354 N 
ATOM     50  C   UNL     1      -9.100   1.847  11.300  1.00  0.00     0.074 A 
ATOM     51  C   UNL     1      -8.668   2.681  10.200  1.00  0.00     0.031 C 
ATOM     52  C   UNL     1      -9.618  -3.943   8.517  1.00  0.00     0.029 A 
ATOM     53  C   UNL     1      -9.813  -3.624   9.931  1.00  0.00     0.049 A 
ATOM     54  H   UNL     1      -9.688  -1.746  10.824  1.00  0.00     0.167 HD
ATOM     55  C   UNL     1      -9.358   2.303  12.550  1.00  0.00     0.034 A 
ATOM     56  C   UNL     1     -10.118  -4.505  10.906  1.00  0.00     0.034 A 
ATOM     57  C   UNL     1      -9.764   1.449  13.639  1.00  0.00     0.049 A 
ATOM     58  C   UNL     1     -10.304  -3.994  12.316  1.00  0.00     0.074 A 
ATOM     59  C   UNL     1     -10.044   1.795  14.949  1.00  0.00     0.029 A 
ATOM     60  N   UNL     1      -9.931   0.072  13.549  1.00  0.00    -0.354 N 
ATOM     61  N   UNL     1     -10.209  -2.764  12.771  1.00  0.00    -0.248 NA
ATOM     62  C   UNL     1     -10.652  -4.986  13.340  1.00  0.00     0.031 C 
ATOM     63  C   UNL     1     -10.296   0.622  15.667  1.00  0.00     0.029 A 
ATOM     64  C   UNL     1     -10.273  -0.450  14.787  1.00  0.00     0.049 A 
ATOM     65  H   UNL     1      -9.822  -0.457  12.726  1.00  0.00     0.167 HD
ATOM     66  C   UNL     1     -10.518  -2.834  14.128  1.00  0.00     0.074 A 
ATOM     67  C   UNL     1     -10.819  -4.223  14.410  1.00  0.00     0.031 C 
ATOM     68  C   UNL     1     -10.557  -1.842  15.057  1.00  0.00     0.034 A 
BRANCH  55  69
ATOM     69  C   UNL     1      -9.143   3.777  12.804  1.00  0.00     0.023 A 
ATOM     70  C   UNL     1      -9.877   4.763  12.118  1.00  0.00     0.031 A 
ATOM     71  C   UNL     1      -8.149   4.206  13.700  1.00  0.00     0.131 A 
ATOM     72  C   UNL     1      -9.546   6.117  12.273  1.00  0.00     0.055 A 
ATOM     73  C   UNL     1      -7.888   5.559  13.920  1.00  0.00     0.041 A 
ATOM     74  F   UNL     1      -7.394   3.314  14.362  1.00  0.00    -0.206 F 
ATOM     75  C   UNL     1      -8.575   6.524  13.190  1.00  0.00     0.022 A 
BRANCH  72  76
ATOM     76  S   UNL     1     -10.276   7.323  11.130  1.00  0.00     0.124 S 
ATOM     77  O   UNL     1      -9.856   6.793   9.835  1.00  0.00    -0.237 OA
ATOM     78  O   UNL     1     -11.699   7.221  11.431  1.00  0.00    -0.237 OA
ATOM     79  O   UNL     1      -9.644   8.584  11.513  1.00  0.00    -0.744 OA
ENDBRANCH  72  76
ENDBRANCH  55  69
BRANCH  56  80
ATOM     80  C   UNL     1     -10.217  -5.964  10.602  1.00  0.00     0.023 A 
ATOM     81  C   UNL     1     -11.412  -6.676  10.789  1.00  0.00     0.031 A 
ATOM     82  C   UNL     1      -9.087  -6.680  10.165  1.00  0.00     0.131 A 
ATOM     83  C   UNL     1     -11.438  -8.066  10.582  1.00  0.00     0.055 A 
ATOM     84  C   UNL     1      -9.133  -8.050   9.904  1.00  0.00     0.041 A 
ATOM     85  F   UNL     1      -7.916  -6.051   9.975  1.00  0.00    -0.206 F 
ATOM     86  C   UNL     1     -10.312  -8.754  10.126  1.00  0.00     0.022 A 
BRANCH  83  87
ATOM     87  S   UNL     1     -12.946  -8.983  11.005  1.00  0.00     0.124 S 
ATOM     88  O   UNL     1     -13.103  -8.660  12.418  1.00  0.00    -0.237 OA
ATOM     89  O   UNL     1     -13.924  -8.390  10.098  1.00  0.00    -0.237 OA
ATOM     90  O   UNL     1     -12.593 -10.371  10.716  1.00  0.00    -0.744 OA
ENDBRANCH  83  87
ENDBRANCH  56  80
BRANCH  68  91
ATOM     91  C   UNL     1     -10.989  -2.222  16.455  1.00  0.00     0.023 A 
ATOM     92  C   UNL     1     -10.238  -3.101  17.254  1.00  0.00     0.031 A 
ATOM     93  C   UNL     1     -12.184  -1.705  16.990  1.00  0.00     0.131 A 
ATOM     94  C   UNL     1     -10.725  -3.493  18.511  1.00  0.00     0.055 A 
ATOM     95  C   UNL     1     -12.623  -2.038  18.272  1.00  0.00     0.041 A 
ATOM     96  F   UNL     1     -12.947  -0.863  16.273  1.00  0.00    -0.206 F 
ATOM     97  C   UNL     1     -11.901  -2.950  19.034  1.00  0.00     0.022 A 
BRANCH  94  98
ATOM     98  S   UNL     1      -9.864  -4.818  19.402  1.00  0.00     0.124 S 
ATOM     99  O   UNL     1      -9.890  -5.904  18.428  1.00  0.00    -0.237 OA
ATOM    100  O   UNL     1      -8.557  -4.223  19.660  1.00  0.00    -0.237 OA
ATOM    101  O   UNL     1     -10.693  -5.029  20.588  1.00  0.00    -0.744 OA
ENDBRANCH  94  98
ENDBRANCH  68  91
ENDBRANCH  42  43
ENDBRANCH  35  37
ENDBRANCH  34  35
ENDBRANCH  33  34
ENDBRANCH  32  33
ENDBRANCH  31  32
ENDBRANCH  30  31
ENDBRANCH  29  30
ENDBRANCH   1  29
TORSDOF 27
