REMARK SMILES O=C(N[C@@H](Cc1ccc(O)cc1)C(=O)N[C@@H](CO)C(=O)OCCOCCOCCOCCOC(=O)c1ccc(-c2c3nc(c(-c4cc(S(=O)(=O)[O-])ccc4F)c4ccc([nH]4)c(-c4cc(S(=O)(=O)[O-])ccc4F)c4nc(c(-c5cc(S(=O)(=O)[O-])ccc5F)c5ccc2[nH]5)C=C4)C=C3)cc1)c1ccc(F)cc1
REMARK SMILES IDX 26 1 25 2 24 3 23 4 22 5 21 6 19 7 20 8 16 9 15 10 13 11
REMARK SMILES IDX 14 12 4 14 3 15 1 16 2 17 99 19 100 20 105 21 101 22 104 23
REMARK SMILES IDX 102 24 103 25 5 26 6 27 7 28 12 29 8 30 11 31 9 32 10 33
REMARK SMILES IDX 17 35 18 36 27 38 28 39 29 40 30 41 31 42 32 43 33 44 34 45
REMARK SMILES IDX 35 46 36 47 37 48 98 49 38 50 97 51 39 52 40 53 41 54 91 55
REMARK SMILES IDX 42 56 96 57 90 58 92 59 43 60 95 61 89 62 88 63 44 65 76 66
REMARK SMILES IDX 56 67 75 68 57 69 60 70 74 71 93 72 58 73 59 74 73 76 94 77
REMARK SMILES IDX 61 78 45 79 46 80 54 81 47 82 53 83 55 84 52 85 48 86 49 87
REMARK SMILES IDX 50 88 51 89 77 90 78 91 86 92 79 93 85 94 87 95 84 96 80 97
REMARK SMILES IDX 81 98 82 99 83 100 62 101 63 102 71 103 64 104 70 105 72 106
REMARK SMILES IDX 69 107 65 108 66 109 67 110 68 111
REMARK H PARENT 15 13 3 18 10 34 18 37 92 64 60 75
REMARK Flexibility Score: inf
ROOT
ATOM      1  C   UNL     1       6.999  -4.676  -0.825  1.00  0.00     0.188 C 
ENDROOT
BRANCH   1   2
ATOM      2  C   UNL     1       6.500  -5.612   0.275  1.00  0.00     0.188 C 
BRANCH   2   3
ATOM      3  O   UNL     1       6.749  -6.993   0.057  1.00  0.00    -0.376 OA
BRANCH   3   4
ATOM      4  C   UNL     1       5.609  -7.750  -0.342  1.00  0.00     0.202 C 
BRANCH   4   5
ATOM      5  C   UNL     1       5.086  -7.424  -1.746  1.00  0.00     0.261 C 
BRANCH   5   6
ATOM      6  O   UNL     1       4.603  -6.069  -1.883  1.00  0.00    -0.462 OA
BRANCH   6   7
ATOM      7  C   UNL     1       3.329  -5.801  -1.498  1.00  0.00     0.331 C 
ATOM      8  O   UNL     1       2.555  -6.633  -1.032  1.00  0.00    -0.250 OA
BRANCH   7   9
ATOM      9  C   UNL     1       2.949  -4.320  -1.756  1.00  0.00     0.218 C 
BRANCH   9  10
ATOM     10  N   UNL     1       4.053  -3.402  -2.068  1.00  0.00    -0.339 N 
ATOM     11  C   UNL     1       4.555  -2.300  -1.448  1.00  0.00     0.243 C 
ATOM     12  O   UNL     1       5.560  -1.795  -1.968  1.00  0.00    -0.273 OA
ATOM     13  H   UNL     1       4.528  -3.632  -2.899  1.00  0.00     0.164 HD
BRANCH  11  14
ATOM     14  C   UNL     1       3.975  -1.627  -0.177  1.00  0.00     0.176 C 
BRANCH  14  15
ATOM     15  N   UNL     1       2.614  -1.148  -0.386  1.00  0.00    -0.340 N 
ATOM     16  O   UNL     1       0.895   0.293  -0.293  1.00  0.00    -0.269 OA
ATOM     17  C   UNL     1       2.109   0.119  -0.229  1.00  0.00     0.251 C 
ATOM     18  H   UNL     1       1.966  -1.828  -0.681  1.00  0.00     0.164 HD
BRANCH  17  19
ATOM     19  C   UNL     1       2.992   1.278   0.049  1.00  0.00     0.040 A 
ATOM     20  C   UNL     1       4.069   1.604  -0.787  1.00  0.00     0.017 A 
ATOM     21  C   UNL     1       2.671   2.108   1.132  1.00  0.00     0.017 A 
ATOM     22  C   UNL     1       4.855   2.725  -0.505  1.00  0.00     0.040 A 
ATOM     23  C   UNL     1       3.451   3.235   1.402  1.00  0.00     0.040 A 
ATOM     24  C   UNL     1       4.539   3.529   0.585  1.00  0.00     0.123 A 
ATOM     25  F   UNL     1       5.285   4.611   0.847  1.00  0.00    -0.207 F 
ENDBRANCH  17  19
ENDBRANCH  14  15
BRANCH  14  26
ATOM     26  C   UNL     1       4.273  -2.224   1.225  1.00  0.00     0.070 C 
BRANCH  26  27
ATOM     27  C   UNL     1       3.616  -3.490   1.719  1.00  0.00    -0.045 A 
ATOM     28  C   UNL     1       2.272  -3.796   1.500  1.00  0.00     0.007 A 
ATOM     29  C   UNL     1       4.385  -4.413   2.449  1.00  0.00     0.007 A 
ATOM     30  C   UNL     1       1.811  -5.101   1.687  1.00  0.00     0.046 A 
ATOM     31  C   UNL     1       3.919  -5.709   2.677  1.00  0.00     0.046 A 
ATOM     32  C   UNL     1       2.670  -6.061   2.200  1.00  0.00     0.115 A 
BRANCH  32  33
ATOM     33  O   UNL     1       2.328  -7.378   2.163  1.00  0.00    -0.508 OA
ATOM     34  H   UNL     1       1.485  -7.634   1.843  1.00  0.00     0.293 HD
ENDBRANCH  32  33
ENDBRANCH  26  27
ENDBRANCH  14  26
ENDBRANCH  11  14
ENDBRANCH   9  10
BRANCH   9  35
ATOM     35  C   UNL     1       1.891  -4.279  -2.862  1.00  0.00     0.193 C 
BRANCH  35  36
ATOM     36  O   UNL     1       2.410  -4.718  -4.112  1.00  0.00    -0.394 OA
ATOM     37  H   UNL     1       3.133  -4.133  -4.385  1.00  0.00     0.210 HD
ENDBRANCH  35  36
ENDBRANCH   9  35
ENDBRANCH   7   9
ENDBRANCH   6   7
ENDBRANCH   5   6
ENDBRANCH   4   5
ENDBRANCH   3   4
ENDBRANCH   2   3
ENDBRANCH   1   2
BRANCH   1  38
ATOM     38  O   UNL     1       7.721  -5.230  -1.897  1.00  0.00    -0.377 OA
BRANCH  38  39
ATOM     39  C   UNL     1       8.808  -6.084  -1.593  1.00  0.00     0.188 C 
BRANCH  39  40
ATOM     40  C   UNL     1       9.601  -5.912  -0.281  1.00  0.00     0.188 C 
BRANCH  40  41
ATOM     41  O   UNL     1       9.408  -4.679   0.409  1.00  0.00    -0.376 OA
BRANCH  41  42
ATOM     42  C   UNL     1      10.471  -3.737   0.323  1.00  0.00     0.202 C 
BRANCH  42  43
ATOM     43  C   UNL     1      10.492  -2.928  -0.979  1.00  0.00     0.261 C 
BRANCH  43  44
ATOM     44  O   UNL     1      10.715  -3.700  -2.166  1.00  0.00    -0.460 OA
BRANCH  44  45
ATOM     45  C   UNL     1      11.876  -4.397  -2.250  1.00  0.00     0.338 C 
ATOM     46  O   UNL     1      12.783  -4.410  -1.451  1.00  0.00    -0.246 OA
BRANCH  45  47
ATOM     47  C   UNL     1      11.724  -5.318  -3.398  1.00  0.00     0.060 A 
ATOM     48  C   UNL     1      11.849  -6.697  -3.176  1.00  0.00     0.016 A 
ATOM     49  C   UNL     1      11.331  -4.830  -4.647  1.00  0.00     0.016 A 
ATOM     50  C   UNL     1      11.561  -7.594  -4.206  1.00  0.00     0.010 A 
ATOM     51  C   UNL     1      11.087  -5.725  -5.687  1.00  0.00     0.010 A 
ATOM     52  C   UNL     1      11.214  -7.109  -5.475  1.00  0.00    -0.014 A 
BRANCH  52  53
ATOM     53  C   UNL     1      11.235  -8.013  -6.647  1.00  0.00     0.031 A 
ATOM     54  C   UNL     1      12.556  -8.207  -7.337  1.00  0.00     0.074 A 
ATOM     55  C   UNL     1      10.122  -8.608  -7.112  1.00  0.00     0.049 A 
ATOM     56  N   UNL     1      12.835  -8.855  -8.435  1.00  0.00    -0.248 NA
ATOM     57  C   UNL     1      13.719  -7.571  -6.696  1.00  0.00     0.031 C 
ATOM     58  C   UNL     1       8.797  -8.526  -6.502  1.00  0.00     0.029 A 
ATOM     59  N   UNL     1       9.933  -9.389  -8.225  1.00  0.00    -0.354 N 
ATOM     60  C   UNL     1      14.206  -8.712  -8.613  1.00  0.00     0.074 A 
ATOM     61  C   UNL     1      14.694  -7.890  -7.529  1.00  0.00     0.031 C 
ATOM     62  C   UNL     1       7.924  -9.211  -7.264  1.00  0.00     0.029 A 
ATOM     63  C   UNL     1       8.620  -9.745  -8.435  1.00  0.00     0.049 A 
ATOM     64  H   UNL     1      10.667  -9.668  -8.818  1.00  0.00     0.167 HD
ATOM     65  C   UNL     1      14.989  -9.221  -9.594  1.00  0.00     0.034 A 
ATOM     66  C   UNL     1       8.051 -10.392  -9.474  1.00  0.00     0.034 A 
ATOM     67  C   UNL     1      14.482  -9.992 -10.697  1.00  0.00     0.049 A 
ATOM     68  C   UNL     1       8.925 -10.840 -10.625  1.00  0.00     0.074 A 
ATOM     69  C   UNL     1      15.181 -10.555 -11.749  1.00  0.00     0.029 A 
ATOM     70  N   UNL     1      13.140 -10.286 -10.905  1.00  0.00    -0.354 N 
ATOM     71  N   UNL     1      10.225 -10.718 -10.776  1.00  0.00    -0.248 NA
ATOM     72  C   UNL     1       8.254 -11.508 -11.749  1.00  0.00     0.031 C 
ATOM     73  C   UNL     1      14.255 -11.125 -12.631  1.00  0.00     0.029 A 
ATOM     74  C   UNL     1      12.986 -10.986 -12.091  1.00  0.00     0.049 A 
ATOM     75  H   UNL     1      12.407 -10.034 -10.299  1.00  0.00     0.167 HD
ATOM     76  C   UNL     1      10.526 -11.317 -11.998  1.00  0.00     0.074 A 
ATOM     77  C   UNL     1       9.276 -11.809 -12.537  1.00  0.00     0.031 C 
ATOM     78  C   UNL     1      11.726 -11.455 -12.618  1.00  0.00     0.034 A 
BRANCH  65  79
ATOM     79  C   UNL     1      16.457  -8.888  -9.533  1.00  0.00     0.023 A 
ATOM     80  C   UNL     1      17.271  -9.346  -8.481  1.00  0.00     0.031 A 
ATOM     81  C   UNL     1      17.035  -8.050 -10.501  1.00  0.00     0.131 A 
ATOM     82  C   UNL     1      18.598  -8.904  -8.382  1.00  0.00     0.055 A 
ATOM     83  C   UNL     1      18.378  -7.676 -10.439  1.00  0.00     0.041 A 
ATOM     84  F   UNL     1      16.297  -7.559 -11.508  1.00  0.00    -0.206 F 
ATOM     85  C   UNL     1      19.164  -8.091  -9.367  1.00  0.00     0.022 A 
BRANCH  82  86
ATOM     86  S   UNL     1      19.528  -9.285  -6.872  1.00  0.00     0.124 S 
ATOM     87  O   UNL     1      18.695  -8.660  -5.847  1.00  0.00    -0.237 OA
ATOM     88  O   UNL     1      19.551 -10.743  -6.876  1.00  0.00    -0.237 OA
ATOM     89  O   UNL     1      20.820  -8.639  -7.094  1.00  0.00    -0.744 OA
ENDBRANCH  82  86
ENDBRANCH  65  79
BRANCH  66  90
ATOM     90  C   UNL     1       6.574 -10.605  -9.526  1.00  0.00     0.023 A 
ATOM     91  C   UNL     1       6.026 -11.898  -9.539  1.00  0.00     0.031 A 
ATOM     92  C   UNL     1       5.692  -9.516  -9.643  1.00  0.00     0.131 A 
ATOM     93  C   UNL     1       4.643 -12.071  -9.714  1.00  0.00     0.055 A 
ATOM     94  C   UNL     1       4.312  -9.692  -9.765  1.00  0.00     0.041 A 
ATOM     95  F   UNL     1       6.162  -8.258  -9.644  1.00  0.00    -0.206 F 
ATOM     96  C   UNL     1       3.781 -10.977  -9.815  1.00  0.00     0.022 A 
BRANCH  93  97
ATOM     97  S   UNL     1       3.992 -13.756  -9.896  1.00  0.00     0.124 S 
ATOM     98  O   UNL     1       4.718 -14.229 -11.069  1.00  0.00    -0.237 OA
ATOM     99  O   UNL     1       4.363 -14.363  -8.622  1.00  0.00    -0.237 OA
ATOM    100  O   UNL     1       2.558 -13.548 -10.090  1.00  0.00    -0.744 OA
ENDBRANCH  93  97
ENDBRANCH  66  90
BRANCH  78 101
ATOM    101  C   UNL     1      11.746 -12.201 -13.929  1.00  0.00     0.023 A 
ATOM    102  C   UNL     1      11.166 -11.667 -15.093  1.00  0.00     0.031 A 
ATOM    103  C   UNL     1      12.371 -13.457 -14.016  1.00  0.00     0.131 A 
ATOM    104  C   UNL     1      11.187 -12.408 -16.285  1.00  0.00     0.055 A 
ATOM    105  C   UNL     1      12.437 -14.164 -15.217  1.00  0.00     0.041 A 
ATOM    106  F   UNL     1      12.942 -14.012 -12.934  1.00  0.00    -0.206 F 
ATOM    107  C   UNL     1      11.835 -13.644 -16.358  1.00  0.00     0.022 A 
BRANCH 104 108
ATOM    108  S   UNL     1      10.299 -11.763 -17.730  1.00  0.00     0.124 S 
ATOM    109  O   UNL     1       8.928 -11.691 -17.236  1.00  0.00    -0.237 OA
ATOM    110  O   UNL     1      10.962 -10.483 -17.959  1.00  0.00    -0.237 OA
ATOM    111  O   UNL     1      10.536 -12.775 -18.758  1.00  0.00    -0.744 OA
ENDBRANCH 104 108
ENDBRANCH  78 101
ENDBRANCH  52  53
ENDBRANCH  45  47
ENDBRANCH  44  45
ENDBRANCH  43  44
ENDBRANCH  42  43
ENDBRANCH  41  42
ENDBRANCH  40  41
ENDBRANCH  39  40
ENDBRANCH  38  39
ENDBRANCH   1  38
TORSDOF 32
