REMARK SMILES CC(=O)O[C@H]1C[C@@H](C(=O)OCCOCCOCCOCCOC(=O)c2ccc(-c3c4nc(c(-c5cc(S(=O)(=O)[O-])ccc5F)c5ccc([nH]5)c(-c5cc(S(=O)(=O)[O-])ccc5F)c5nc(c(-c6cc(S(=O)(=O)[O-])ccc6F)c6ccc3[nH]6)C=C5)C=C4)cc2)N(S(=O)(=O)c2ccc(F)cc2)C1
REMARK SMILES IDX 17 1 16 2 15 3 14 4 13 5 12 6 11 7 10 8 8 9 9 10 7 11 5 12
REMARK SMILES IDX 6 13 99 14 88 15 4 16 2 17 1 18 3 19 89 20 90 21 91 22 92 23
REMARK SMILES IDX 93 24 98 25 94 26 97 27 95 28 96 29 18 30 19 31 20 32 21 33
REMARK SMILES IDX 22 34 23 35 24 36 25 37 26 38 87 39 27 40 86 41 28 42 29 43
REMARK SMILES IDX 30 44 80 45 31 46 85 47 79 48 81 49 32 50 84 51 78 52 77 53
REMARK SMILES IDX 33 55 65 56 45 57 64 58 46 59 49 60 63 61 82 62 47 63 48 64
REMARK SMILES IDX 62 66 83 67 50 68 34 69 35 70 43 71 36 72 42 73 44 74 41 75
REMARK SMILES IDX 37 76 38 77 39 78 40 79 66 80 67 81 75 82 68 83 74 84 76 85
REMARK SMILES IDX 73 86 69 87 70 88 71 89 72 90 51 91 52 92 60 93 53 94 59 95
REMARK SMILES IDX 61 96 58 97 54 98 55 99 56 100 57 101
REMARK H PARENT 81 54 49 65
REMARK Flexibility Score: inf
ROOT
ATOM      1  C   UNL     1      -4.614  -2.454   6.539  1.00  0.00     0.188 C 
ENDROOT
BRANCH   1   2
ATOM      2  O   UNL     1      -3.231  -2.229   6.380  1.00  0.00    -0.377 OA
BRANCH   2   3
ATOM      3  C   UNL     1      -2.893  -1.087   5.626  1.00  0.00     0.188 C 
BRANCH   3   4
ATOM      4  C   UNL     1      -3.709   0.214   5.760  1.00  0.00     0.188 C 
BRANCH   4   5
ATOM      5  O   UNL     1      -5.113   0.181   5.570  1.00  0.00    -0.376 OA
BRANCH   5   6
ATOM      6  C   UNL     1      -5.745  -0.088   4.332  1.00  0.00     0.202 C 
BRANCH   6   7
ATOM      7  C   UNL     1      -4.998  -0.288   3.002  1.00  0.00     0.261 C 
BRANCH   7   8
ATOM      8  O   UNL     1      -3.597   0.015   3.053  1.00  0.00    -0.462 OA
BRANCH   8   9
ATOM      9  C   UNL     1      -3.112   1.017   2.290  1.00  0.00     0.324 C 
ATOM     10  O   UNL     1      -3.762   1.618   1.443  1.00  0.00    -0.250 OA
BRANCH   9  11
ATOM     11  C   UNL     1      -1.686   1.363   2.620  1.00  0.00     0.187 C 
ATOM     12  C   UNL     1       0.553   0.937   3.233  1.00  0.00     0.194 C 
ATOM     13  C   UNL     1      -0.834   0.331   3.343  1.00  0.00     0.079 C 
ATOM     14  C   UNL     1       0.289   2.457   3.330  1.00  0.00     0.148 C 
ATOM     15  N   UNL     1      -1.238   2.679   3.189  1.00  0.00    -0.180 NA
BRANCH  12  16
ATOM     16  O   UNL     1       1.354   0.472   4.338  1.00  0.00    -0.461 OA
BRANCH  16  17
ATOM     17  C   UNL     1       2.558  -0.139   4.232  1.00  0.00     0.302 C 
ATOM     18  C   UNL     1       3.107  -0.361   2.856  1.00  0.00     0.139 C 
ATOM     19  O   UNL     1       3.177  -0.494   5.230  1.00  0.00    -0.253 OA
ENDBRANCH  16  17
ENDBRANCH  12  16
BRANCH  15  20
ATOM     20  S   UNL     1      -1.796   3.387   4.659  1.00  0.00     0.243 S 
ATOM     21  O   UNL     1      -1.593   2.402   5.700  1.00  0.00    -0.207 OA
ATOM     22  O   UNL     1      -1.060   4.639   4.727  1.00  0.00    -0.207 OA
BRANCH  20  23
ATOM     23  C   UNL     1      -3.511   3.888   4.754  1.00  0.00     0.082 A 
ATOM     24  C   UNL     1      -3.808   4.931   5.655  1.00  0.00     0.025 A 
ATOM     25  C   UNL     1      -4.575   3.249   4.133  1.00  0.00     0.025 A 
ATOM     26  C   UNL     1      -5.134   5.288   5.939  1.00  0.00     0.040 A 
ATOM     27  C   UNL     1      -5.904   3.597   4.419  1.00  0.00     0.040 A 
ATOM     28  C   UNL     1      -6.173   4.605   5.327  1.00  0.00     0.123 A 
ATOM     29  F   UNL     1      -7.443   4.912   5.621  1.00  0.00    -0.207 F 
ENDBRANCH  20  23
ENDBRANCH  15  20
ENDBRANCH   9  11
ENDBRANCH   8   9
ENDBRANCH   7   8
ENDBRANCH   6   7
ENDBRANCH   5   6
ENDBRANCH   4   5
ENDBRANCH   3   4
ENDBRANCH   2   3
ENDBRANCH   1   2
BRANCH   1  30
ATOM     30  C   UNL     1      -5.161  -1.803   7.818  1.00  0.00     0.188 C 
BRANCH  30  31
ATOM     31  O   UNL     1      -4.317  -0.815   8.376  1.00  0.00    -0.376 OA
BRANCH  31  32
ATOM     32  C   UNL     1      -3.189  -1.149   9.171  1.00  0.00     0.202 C 
BRANCH  32  33
ATOM     33  C   UNL     1      -2.402  -2.482   9.187  1.00  0.00     0.261 C 
BRANCH  33  34
ATOM     34  O   UNL     1      -2.975  -3.656   8.614  1.00  0.00    -0.460 OA
BRANCH  34  35
ATOM     35  C   UNL     1      -3.916  -4.318   9.325  1.00  0.00     0.338 C 
ATOM     36  O   UNL     1      -4.319  -4.041  10.429  1.00  0.00    -0.246 OA
BRANCH  35  37
ATOM     37  C   UNL     1      -4.544  -5.283   8.382  1.00  0.00     0.060 A 
ATOM     38  C   UNL     1      -5.931  -5.206   8.189  1.00  0.00     0.016 A 
ATOM     39  C   UNL     1      -3.772  -6.153   7.602  1.00  0.00     0.016 A 
ATOM     40  C   UNL     1      -6.551  -6.003   7.228  1.00  0.00     0.010 A 
ATOM     41  C   UNL     1      -4.402  -6.992   6.676  1.00  0.00     0.010 A 
ATOM     42  C   UNL     1      -5.798  -6.940   6.510  1.00  0.00    -0.014 A 
BRANCH  42  43
ATOM     43  C   UNL     1      -6.511  -8.057   5.845  1.00  0.00     0.031 A 
ATOM     44  C   UNL     1      -6.765  -9.286   6.676  1.00  0.00     0.074 A 
ATOM     45  C   UNL     1      -6.966  -7.976   4.583  1.00  0.00     0.049 A 
ATOM     46  N   UNL     1      -7.346 -10.409   6.350  1.00  0.00    -0.248 NA
ATOM     47  C   UNL     1      -6.297  -9.232   8.072  1.00  0.00     0.031 C 
ATOM     48  C   UNL     1      -6.843  -6.811   3.709  1.00  0.00     0.029 A 
ATOM     49  N   UNL     1      -7.633  -8.901   3.818  1.00  0.00    -0.354 N 
ATOM     50  C   UNL     1      -7.308 -11.195   7.497  1.00  0.00     0.074 A 
ATOM     51  C   UNL     1      -6.621 -10.434   8.515  1.00  0.00     0.031 C 
ATOM     52  C   UNL     1      -7.412  -7.095   2.523  1.00  0.00     0.029 A 
ATOM     53  C   UNL     1      -7.904  -8.473   2.539  1.00  0.00     0.049 A 
ATOM     54  H   UNL     1      -7.893  -9.789   4.154  1.00  0.00     0.167 HD
ATOM     55  C   UNL     1      -7.804 -12.441   7.684  1.00  0.00     0.034 A 
ATOM     56  C   UNL     1      -8.462  -9.131   1.501  1.00  0.00     0.034 A 
ATOM     57  C   UNL     1      -8.467 -13.194   6.651  1.00  0.00     0.049 A 
ATOM     58  C   UNL     1      -8.911 -10.562   1.701  1.00  0.00     0.074 A 
ATOM     59  C   UNL     1      -9.013 -14.461   6.728  1.00  0.00     0.029 A 
ATOM     60  N   UNL     1      -8.657 -12.755   5.346  1.00  0.00    -0.354 N 
ATOM     61  N   UNL     1      -8.869 -11.300   2.788  1.00  0.00    -0.248 NA
ATOM     62  C   UNL     1      -9.486 -11.247   0.535  1.00  0.00     0.031 C 
ATOM     63  C   UNL     1      -9.452 -14.824   5.451  1.00  0.00     0.029 A 
ATOM     64  C   UNL     1      -9.273 -13.746   4.598  1.00  0.00     0.049 A 
ATOM     65  H   UNL     1      -8.392 -11.871   5.004  1.00  0.00     0.167 HD
ATOM     66  C   UNL     1      -9.446 -12.522   2.443  1.00  0.00     0.074 A 
ATOM     67  C   UNL     1      -9.835 -12.416   1.052  1.00  0.00     0.031 C 
ATOM     68  C   UNL     1      -9.646 -13.627   3.208  1.00  0.00     0.034 A 
BRANCH  55  69
ATOM     69  C   UNL     1      -7.574 -13.082   9.029  1.00  0.00     0.023 A 
ATOM     70  C   UNL     1      -8.128 -12.559  10.211  1.00  0.00     0.031 A 
ATOM     71  C   UNL     1      -6.750 -14.217   9.134  1.00  0.00     0.131 A 
ATOM     72  C   UNL     1      -7.798 -13.130  11.450  1.00  0.00     0.055 A 
ATOM     73  C   UNL     1      -6.493 -14.830  10.361  1.00  0.00     0.041 A 
ATOM     74  F   UNL     1      -6.166 -14.740   8.044  1.00  0.00    -0.206 F 
ATOM     75  C   UNL     1      -7.008 -14.279  11.530  1.00  0.00     0.022 A 
BRANCH  72  76
ATOM     76  S   UNL     1      -8.297 -12.266  12.964  1.00  0.00     0.124 S 
ATOM     77  O   UNL     1      -7.647 -10.969  12.792  1.00  0.00    -0.237 OA
ATOM     78  O   UNL     1      -9.752 -12.270  12.866  1.00  0.00    -0.237 OA
ATOM     79  O   UNL     1      -7.741 -13.096  14.031  1.00  0.00    -0.744 OA
ENDBRANCH  72  76
ENDBRANCH  55  69
BRANCH  56  80
ATOM     80  C   UNL     1      -8.596  -8.476   0.166  1.00  0.00     0.023 A 
ATOM     81  C   UNL     1      -9.854  -8.264  -0.420  1.00  0.00     0.031 A 
ATOM     82  C   UNL     1      -7.457  -8.106  -0.574  1.00  0.00     0.131 A 
ATOM     83  C   UNL     1      -9.943  -7.740  -1.720  1.00  0.00     0.055 A 
ATOM     84  C   UNL     1      -7.553  -7.535  -1.844  1.00  0.00     0.041 A 
ATOM     85  F   UNL     1      -6.228  -8.292  -0.067  1.00  0.00    -0.206 F 
ATOM     86  C   UNL     1      -8.802  -7.360  -2.430  1.00  0.00     0.022 A 
BRANCH  83  87
ATOM     87  S   UNL     1     -11.574  -7.638  -2.510  1.00  0.00     0.124 S 
ATOM     88  O   UNL     1     -11.996  -9.034  -2.500  1.00  0.00    -0.237 OA
ATOM     89  O   UNL     1     -12.290  -6.743  -1.607  1.00  0.00    -0.237 OA
ATOM     90  O   UNL     1     -11.279  -7.083  -3.829  1.00  0.00    -0.744 OA
ENDBRANCH  83  87
ENDBRANCH  56  80
BRANCH  68  91
ATOM     91  C   UNL     1     -10.364 -14.793   2.570  1.00  0.00     0.023 A 
ATOM     92  C   UNL     1      -9.805 -15.522   1.506  1.00  0.00     0.031 A 
ATOM     93  C   UNL     1     -11.631 -15.184   3.043  1.00  0.00     0.131 A 
ATOM     94  C   UNL     1     -10.534 -16.565   0.915  1.00  0.00     0.055 A 
ATOM     95  C   UNL     1     -12.320 -16.268   2.498  1.00  0.00     0.041 A 
ATOM     96  F   UNL     1     -12.216 -14.523   4.055  1.00  0.00    -0.206 F 
ATOM     97  C   UNL     1     -11.778 -16.956   1.417  1.00  0.00     0.022 A 
BRANCH  94  98
ATOM     98  S   UNL     1      -9.880 -17.340  -0.590  1.00  0.00     0.124 S 
ATOM     99  O   UNL     1      -9.753 -16.196  -1.488  1.00  0.00    -0.237 OA
ATOM    100  O   UNL     1      -8.629 -17.925  -0.122  1.00  0.00    -0.237 OA
ATOM    101  O   UNL     1     -10.916 -18.304  -0.957  1.00  0.00    -0.744 OA
ENDBRANCH  94  98
ENDBRANCH  68  91
ENDBRANCH  42  43
ENDBRANCH  35  37
ENDBRANCH  34  35
ENDBRANCH  33  34
ENDBRANCH  32  33
ENDBRANCH  31  32
ENDBRANCH  30  31
ENDBRANCH   1  30
TORSDOF 27
