REMARK SMILES O=C(OCCOCCOCCOCCOC(=O)[C@H]1C[C@](O)(c2ccc(F)cc2)[C@@H](c2ccc(F)cc2)O1)c1ccc(-c2c3nc(c(-c4cc(S(=O)(=O)[O-])ccc4F)c4ccc([nH]4)c(-c4cc(S(=O)(=O)[O-])ccc4F)c4nc(c(-c5cc(S(=O)(=O)[O-])ccc5F)c5ccc2[nH]5)C=C4)C=C3)cc1
REMARK SMILES IDX 8 1 7 2 6 3 5 4 4 5 3 6 2 7 1 8 38 9 39 10 100 11 40 12
REMARK SMILES IDX 99 13 41 14 42 15 43 16 93 17 44 18 98 19 92 20 94 21 45 22
REMARK SMILES IDX 97 23 91 24 90 25 46 27 78 28 58 29 77 30 59 31 62 32 76 33
REMARK SMILES IDX 95 34 60 35 61 36 75 38 96 39 63 40 47 41 48 42 56 43 49 44
REMARK SMILES IDX 55 45 57 46 54 47 50 48 51 49 52 50 53 51 79 52 80 53 88 54
REMARK SMILES IDX 81 55 87 56 89 57 86 58 82 59 83 60 84 61 85 62 64 63 65 64
REMARK SMILES IDX 73 65 66 66 72 67 74 68 71 69 67 70 68 71 69 72 70 73 9 74
REMARK SMILES IDX 10 75 11 76 12 77 13 78 14 79 15 80 16 81 17 82 18 83 19 84
REMARK SMILES IDX 37 85 20 86 29 87 22 88 23 89 28 90 24 91 27 92 25 93 26 94
REMARK SMILES IDX 21 95 30 97 31 98 36 99 32 100 35 101 33 102 34 103
REMARK H PARENT 94 26 62 37 21 96
REMARK Flexibility Score: inf
ROOT
ATOM      1  C   UNL     1       3.590   2.975  -6.458  1.00  0.00     0.188 C 
ENDROOT
BRANCH   1   2
ATOM      2  C   UNL     1       3.382   1.478  -6.584  1.00  0.00     0.188 C 
BRANCH   2   3
ATOM      3  O   UNL     1       2.342   1.106  -5.701  1.00  0.00    -0.376 OA
BRANCH   3   4
ATOM      4  C   UNL     1       2.065  -0.252  -5.442  1.00  0.00     0.202 C 
BRANCH   4   5
ATOM      5  C   UNL     1       2.523  -1.289  -6.452  1.00  0.00     0.261 C 
BRANCH   5   6
ATOM      6  O   UNL     1       2.549  -0.956  -7.869  1.00  0.00    -0.460 OA
BRANCH   6   7
ATOM      7  C   UNL     1       1.670  -0.494  -8.785  1.00  0.00     0.338 C 
ATOM      8  O   UNL     1       2.005  -0.425  -9.965  1.00  0.00    -0.246 OA
BRANCH   7   9
ATOM      9  C   UNL     1       0.300  -0.080  -8.434  1.00  0.00     0.060 A 
ATOM     10  C   UNL     1       0.044   0.854  -7.445  1.00  0.00     0.016 A 
ATOM     11  C   UNL     1      -0.769  -0.515  -9.220  1.00  0.00     0.016 A 
ATOM     12  C   UNL     1      -1.235   1.075  -6.987  1.00  0.00     0.010 A 
ATOM     13  C   UNL     1      -2.074  -0.137  -8.890  1.00  0.00     0.010 A 
ATOM     14  C   UNL     1      -2.313   0.587  -7.711  1.00  0.00    -0.014 A 
BRANCH  14  15
ATOM     15  C   UNL     1      -3.659   0.717  -7.122  1.00  0.00     0.031 A 
ATOM     16  C   UNL     1      -4.369  -0.549  -6.746  1.00  0.00     0.074 A 
ATOM     17  C   UNL     1      -4.140   1.927  -6.774  1.00  0.00     0.049 A 
ATOM     18  N   UNL     1      -5.607  -0.728  -6.385  1.00  0.00    -0.248 NA
ATOM     19  C   UNL     1      -3.570  -1.789  -6.782  1.00  0.00     0.031 C 
ATOM     20  C   UNL     1      -3.420   3.200  -6.915  1.00  0.00     0.029 A 
ATOM     21  N   UNL     1      -5.318   2.288  -6.178  1.00  0.00    -0.354 N 
ATOM     22  C   UNL     1      -5.751  -2.101  -6.215  1.00  0.00     0.074 A 
ATOM     23  C   UNL     1      -4.476  -2.712  -6.504  1.00  0.00     0.031 C 
ATOM     24  C   UNL     1      -4.143   4.183  -6.359  1.00  0.00     0.029 A 
ATOM     25  C   UNL     1      -5.432   3.642  -5.958  1.00  0.00     0.049 A 
ATOM     26  H   UNL     1      -6.017   1.640  -5.931  1.00  0.00     0.167 HD
ATOM     27  C   UNL     1      -6.868  -2.775  -5.862  1.00  0.00     0.034 A 
ATOM     28  C   UNL     1      -6.491   4.364  -5.547  1.00  0.00     0.034 A 
ATOM     29  C   UNL     1      -8.100  -2.099  -5.559  1.00  0.00     0.049 A 
ATOM     30  C   UNL     1      -7.766   3.606  -5.293  1.00  0.00     0.074 A 
ATOM     31  C   UNL     1      -9.345  -2.633  -5.298  1.00  0.00     0.029 A 
ATOM     32  N   UNL     1      -8.224  -0.715  -5.467  1.00  0.00    -0.354 N 
ATOM     33  N   UNL     1      -7.964   2.306  -5.323  1.00  0.00    -0.248 NA
ATOM     34  C   UNL     1      -8.963   4.396  -4.997  1.00  0.00     0.031 C 
ATOM     35  C   UNL     1     -10.233  -1.569  -5.102  1.00  0.00     0.029 A 
ATOM     36  C   UNL     1      -9.528  -0.374  -5.171  1.00  0.00     0.049 A 
ATOM     37  H   UNL     1      -7.489  -0.073  -5.594  1.00  0.00     0.167 HD
ATOM     38  C   UNL     1      -9.310   2.119  -5.044  1.00  0.00     0.074 A 
ATOM     39  C   UNL     1      -9.872   3.443  -4.836  1.00  0.00     0.031 C 
ATOM     40  C   UNL     1     -10.025   0.968  -4.972  1.00  0.00     0.034 A 
BRANCH  27  41
ATOM     41  C   UNL     1      -6.812  -4.277  -5.909  1.00  0.00     0.023 A 
ATOM     42  C   UNL     1      -6.046  -5.029  -5.001  1.00  0.00     0.031 A 
ATOM     43  C   UNL     1      -7.479  -4.964  -6.939  1.00  0.00     0.131 A 
ATOM     44  C   UNL     1      -5.921  -6.417  -5.177  1.00  0.00     0.055 A 
ATOM     45  C   UNL     1      -7.405  -6.352  -7.068  1.00  0.00     0.041 A 
ATOM     46  F   UNL     1      -8.193  -4.292  -7.856  1.00  0.00    -0.206 F 
ATOM     47  C   UNL     1      -6.614  -7.086  -6.190  1.00  0.00     0.022 A 
BRANCH  44  48
ATOM     48  S   UNL     1      -4.757  -7.333  -4.128  1.00  0.00     0.124 S 
ATOM     49  O   UNL     1      -3.474  -6.808  -4.589  1.00  0.00    -0.237 OA
ATOM     50  O   UNL     1      -5.160  -6.940  -2.783  1.00  0.00    -0.237 OA
ATOM     51  O   UNL     1      -5.013  -8.730  -4.471  1.00  0.00    -0.744 OA
ENDBRANCH  44  48
ENDBRANCH  27  41
BRANCH  28  52
ATOM     52  C   UNL     1      -6.417   5.853  -5.475  1.00  0.00     0.023 A 
ATOM     53  C   UNL     1      -6.589   6.540  -4.264  1.00  0.00     0.031 A 
ATOM     54  C   UNL     1      -6.161   6.620  -6.631  1.00  0.00     0.131 A 
ATOM     55  C   UNL     1      -6.513   7.944  -4.237  1.00  0.00     0.055 A 
ATOM     56  C   UNL     1      -6.041   8.010  -6.591  1.00  0.00     0.041 A 
ATOM     57  F   UNL     1      -5.991   6.020  -7.820  1.00  0.00    -0.206 F 
ATOM     58  C   UNL     1      -6.224   8.681  -5.389  1.00  0.00     0.022 A 
BRANCH  55  59
ATOM     59  S   UNL     1      -6.830   8.810  -2.674  1.00  0.00     0.124 S 
ATOM     60  O   UNL     1      -8.213   8.435  -2.403  1.00  0.00    -0.237 OA
ATOM     61  O   UNL     1      -5.822   8.229  -1.794  1.00  0.00    -0.237 OA
ATOM     62  O   UNL     1      -6.620  10.216  -3.014  1.00  0.00    -0.744 OA
ENDBRANCH  55  59
ENDBRANCH  28  52
BRANCH  40  63
ATOM     63  C   UNL     1     -11.476   1.095  -4.618  1.00  0.00     0.023 A 
ATOM     64  C   UNL     1     -12.410   1.571  -5.549  1.00  0.00     0.031 A 
ATOM     65  C   UNL     1     -11.930   0.658  -3.362  1.00  0.00     0.131 A 
ATOM     66  C   UNL     1     -13.765   1.616  -5.200  1.00  0.00     0.055 A 
ATOM     67  C   UNL     1     -13.284   0.659  -3.041  1.00  0.00     0.041 A 
ATOM     68  F   UNL     1     -11.064   0.191  -2.448  1.00  0.00    -0.206 F 
ATOM     69  C   UNL     1     -14.210   1.143  -3.962  1.00  0.00     0.022 A 
BRANCH  66  70
ATOM     70  S   UNL     1     -14.939   2.325  -6.383  1.00  0.00     0.124 S 
ATOM     71  O   UNL     1     -14.504   3.717  -6.440  1.00  0.00    -0.237 OA
ATOM     72  O   UNL     1     -14.697   1.533  -7.584  1.00  0.00    -0.237 OA
ATOM     73  O   UNL     1     -16.237   2.106  -5.748  1.00  0.00    -0.744 OA
ENDBRANCH  66  70
ENDBRANCH  40  63
ENDBRANCH  14  15
ENDBRANCH   7   9
ENDBRANCH   6   7
ENDBRANCH   5   6
ENDBRANCH   4   5
ENDBRANCH   3   4
ENDBRANCH   2   3
ENDBRANCH   1   2
BRANCH   1  74
ATOM     74  O   UNL     1       3.957   3.447  -5.161  1.00  0.00    -0.377 OA
BRANCH  74  75
ATOM     75  C   UNL     1       3.133   3.109  -4.055  1.00  0.00     0.188 C 
BRANCH  75  76
ATOM     76  C   UNL     1       1.772   3.802  -3.958  1.00  0.00     0.188 C 
BRANCH  76  77
ATOM     77  O   UNL     1       1.240   4.232  -5.192  1.00  0.00    -0.376 OA
BRANCH  77  78
ATOM     78  C   UNL     1       1.435   5.588  -5.590  1.00  0.00     0.202 C 
BRANCH  78  79
ATOM     79  C   UNL     1       2.315   6.575  -4.796  1.00  0.00     0.261 C 
BRANCH  79  80
ATOM     80  O   UNL     1       3.718   6.242  -4.707  1.00  0.00    -0.461 OA
BRANCH  80  81
ATOM     81  C   UNL     1       4.267   6.157  -3.467  1.00  0.00     0.335 C 
ATOM     82  O   UNL     1       3.616   6.191  -2.421  1.00  0.00    -0.249 OA
BRANCH  81  83
ATOM     83  C   UNL     1       5.813   6.041  -3.443  1.00  0.00     0.232 C 
ATOM     84  C   UNL     1       6.345   4.630  -3.271  1.00  0.00     0.087 C 
ATOM     85  O   UNL     1       6.600   6.692  -4.426  1.00  0.00    -0.355 OA
ATOM     86  C   UNL     1       7.221   4.325  -4.491  1.00  0.00     0.123 C 
ATOM     87  C   UNL     1       7.389   5.731  -5.166  1.00  0.00     0.186 C 
BRANCH  86  88
ATOM     88  C   UNL     1       8.428   3.529  -3.969  1.00  0.00    -0.013 A 
ATOM     89  C   UNL     1       8.246   2.152  -3.661  1.00  0.00     0.010 A 
ATOM     90  C   UNL     1       9.674   4.097  -3.677  1.00  0.00     0.010 A 
ATOM     91  C   UNL     1       9.271   1.374  -3.123  1.00  0.00     0.039 A 
ATOM     92  C   UNL     1      10.702   3.315  -3.133  1.00  0.00     0.039 A 
ATOM     93  C   UNL     1      10.495   1.965  -2.867  1.00  0.00     0.123 A 
ATOM     94  F   UNL     1      11.487   1.233  -2.343  1.00  0.00    -0.207 F 
ENDBRANCH  86  88
BRANCH  86  95
ATOM     95  O   UNL     1       6.571   3.409  -5.371  1.00  0.00    -0.382 OA
ATOM     96  H   UNL     1       5.786   3.831  -5.754  1.00  0.00     0.212 HD
ENDBRANCH  86  95
BRANCH  87  97
ATOM     97  C   UNL     1       6.959   5.954  -6.612  1.00  0.00    -0.016 A 
ATOM     98  C   UNL     1       5.642   5.691  -7.016  1.00  0.00     0.009 A 
ATOM     99  C   UNL     1       7.798   6.587  -7.538  1.00  0.00     0.009 A 
ATOM    100  C   UNL     1       5.152   6.045  -8.272  1.00  0.00     0.039 A 
ATOM    101  C   UNL     1       7.317   6.948  -8.806  1.00  0.00     0.039 A 
ATOM    102  C   UNL     1       5.998   6.681  -9.157  1.00  0.00     0.123 A 
ATOM    103  F   UNL     1       5.537   7.061 -10.356  1.00  0.00    -0.207 F 
ENDBRANCH  87  97
ENDBRANCH  81  83
ENDBRANCH  80  81
ENDBRANCH  79  80
ENDBRANCH  78  79
ENDBRANCH  77  78
ENDBRANCH  76  77
ENDBRANCH  75  76
ENDBRANCH  74  75
ENDBRANCH   1  74
TORSDOF 26
