REMARK SMILES CCc1cccc(-c2ccc([C@@H](C)C(=O)OCCOCCOCCOCCOC(=O)c3ccc(-c4c5nc(c(-c6cc(S(=O)(=O)[O-])ccc6F)c6ccc([nH]6)c(-c6cc(S(=O)(=O)[O-])ccc6F)c6nc(c(-c7cc(S(=O)(=O)[O-])ccc7F)c7ccc4[nH]7)C=C6)C=C5)cc3)cc2)c1
REMARK SMILES IDX 22 1 21 2 20 3 19 4 18 5 17 6 16 7 14 8 15 9 12 10 13 11
REMARK SMILES IDX 11 12 8 13 9 14 95 15 10 16 94 17 7 18 3 19 4 20 96 21 5 22
REMARK SMILES IDX 6 23 2 24 1 25 23 26 24 27 25 28 26 29 27 30 28 31 29 32
REMARK SMILES IDX 30 33 31 34 32 35 93 36 33 37 92 38 34 39 35 40 36 41 86 42
REMARK SMILES IDX 37 43 91 44 85 45 87 46 38 47 90 48 84 49 83 50 39 52 71 53
REMARK SMILES IDX 51 54 70 55 52 56 55 57 69 58 88 59 53 60 54 61 68 63 89 64
REMARK SMILES IDX 56 65 40 66 41 67 49 68 42 69 48 70 50 71 47 72 43 73 44 74
REMARK SMILES IDX 45 75 46 76 72 77 73 78 81 79 74 80 80 81 82 82 79 83 75 84
REMARK SMILES IDX 76 85 77 86 78 87 57 88 58 89 66 90 59 91 65 92 67 93 64 94
REMARK SMILES IDX 60 95 61 96 62 97 63 98
REMARK H PARENT 87 51 55 62
REMARK Flexibility Score: inf
ROOT
ATOM      1  O   UNL     1       3.558   5.717   3.822  1.00  0.00    -0.377 OA
ENDROOT
BRANCH   1   2
ATOM      2  C   UNL     1       2.193   6.006   3.613  1.00  0.00     0.188 C 
BRANCH   2   3
ATOM      3  C   UNL     1       1.826   7.497   3.643  1.00  0.00     0.188 C 
BRANCH   3   4
ATOM      4  O   UNL     1       2.825   8.505   3.701  1.00  0.00    -0.376 OA
BRANCH   4   5
ATOM      5  C   UNL     1       4.023   8.300   4.438  1.00  0.00     0.202 C 
BRANCH   5   6
ATOM      6  C   UNL     1       3.981   7.870   5.917  1.00  0.00     0.261 C 
BRANCH   6   7
ATOM      7  O   UNL     1       3.145   6.741   6.250  1.00  0.00    -0.463 OA
BRANCH   7   8
ATOM      8  C   UNL     1       1.974   7.021   6.865  1.00  0.00     0.313 C 
ATOM      9  O   UNL     1       1.621   8.162   7.162  1.00  0.00    -0.252 OA
BRANCH   8  10
ATOM     10  C   UNL     1       1.092   5.822   7.214  1.00  0.00     0.126 C 
ATOM     11  C   UNL     1       1.116   5.632   8.727  1.00  0.00     0.025 C 
BRANCH  10  12
ATOM     12  C   UNL     1       1.223   4.484   6.484  1.00  0.00    -0.034 A 
ATOM     13  C   UNL     1       1.339   1.989   5.064  1.00  0.00    -0.018 A 
ATOM     14  C   UNL     1       2.456   2.508   5.744  1.00  0.00     0.009 A 
ATOM     15  C   UNL     1       0.161   2.745   5.104  1.00  0.00     0.009 A 
ATOM     16  C   UNL     1       2.402   3.731   6.445  1.00  0.00     0.005 A 
ATOM     17  C   UNL     1       0.100   3.959   5.809  1.00  0.00     0.005 A 
BRANCH  13  18
ATOM     18  C   UNL     1       1.376   0.668   4.397  1.00  0.00    -0.018 A 
ATOM     19  C   UNL     1       1.034  -0.783   2.433  1.00  0.00    -0.048 A 
ATOM     20  C   UNL     1       1.374  -1.896   3.215  1.00  0.00     0.004 A 
ATOM     21  C   UNL     1       1.026   0.490   3.041  1.00  0.00     0.012 A 
ATOM     22  C   UNL     1       1.722  -1.743   4.554  1.00  0.00     0.001 A 
ATOM     23  C   UNL     1       1.726  -0.475   5.135  1.00  0.00     0.009 A 
BRANCH  19  24
ATOM     24  C   UNL     1       0.614  -1.017   0.998  1.00  0.00     0.032 C 
ATOM     25  C   UNL     1       1.137  -0.009  -0.015  1.00  0.00     0.009 C 
ENDBRANCH  19  24
ENDBRANCH  13  18
ENDBRANCH  10  12
ENDBRANCH   8  10
ENDBRANCH   7   8
ENDBRANCH   6   7
ENDBRANCH   5   6
ENDBRANCH   4   5
ENDBRANCH   3   4
ENDBRANCH   2   3
ENDBRANCH   1   2
BRANCH   1  26
ATOM     26  C   UNL     1       4.322   5.383   2.676  1.00  0.00     0.188 C 
BRANCH  26  27
ATOM     27  C   UNL     1       4.045   6.191   1.395  1.00  0.00     0.188 C 
BRANCH  27  28
ATOM     28  O   UNL     1       2.675   6.205   1.007  1.00  0.00    -0.376 OA
BRANCH  28  29
ATOM     29  C   UNL     1       2.230   5.251   0.053  1.00  0.00     0.202 C 
BRANCH  29  30
ATOM     30  C   UNL     1       2.254   3.760   0.436  1.00  0.00     0.261 C 
BRANCH  30  31
ATOM     31  O   UNL     1       3.521   3.191   0.800  1.00  0.00    -0.460 OA
BRANCH  31  32
ATOM     32  C   UNL     1       4.540   3.289  -0.078  1.00  0.00     0.338 C 
ATOM     33  O   UNL     1       4.484   3.751  -1.206  1.00  0.00    -0.246 OA
BRANCH  32  34
ATOM     34  C   UNL     1       5.792   2.940   0.631  1.00  0.00     0.060 A 
ATOM     35  C   UNL     1       6.819   3.891   0.698  1.00  0.00     0.016 A 
ATOM     36  C   UNL     1       5.954   1.689   1.232  1.00  0.00     0.016 A 
ATOM     37  C   UNL     1       8.025   3.582   1.330  1.00  0.00     0.010 A 
ATOM     38  C   UNL     1       7.175   1.370   1.841  1.00  0.00     0.010 A 
ATOM     39  C   UNL     1       8.228   2.303   1.863  1.00  0.00    -0.014 A 
BRANCH  39  40
ATOM     40  C   UNL     1       9.600   1.877   2.245  1.00  0.00     0.031 A 
ATOM     41  C   UNL     1      10.397   1.072   1.252  1.00  0.00     0.074 A 
ATOM     42  C   UNL     1      10.148   2.227   3.424  1.00  0.00     0.049 A 
ATOM     43  N   UNL     1      11.582   0.533   1.375  1.00  0.00    -0.248 NA
ATOM     44  C   UNL     1       9.763   0.844  -0.056  1.00  0.00     0.031 C 
ATOM     45  C   UNL     1       9.503   3.055   4.441  1.00  0.00     0.029 A 
ATOM     46  N   UNL     1      11.373   1.921   3.966  1.00  0.00    -0.354 N 
ATOM     47  C   UNL     1      11.837  -0.097   0.160  1.00  0.00     0.074 A 
ATOM     48  C   UNL     1      10.664   0.091  -0.666  1.00  0.00     0.031 C 
ATOM     49  C   UNL     1      10.333   3.176   5.493  1.00  0.00     0.029 A 
ATOM     50  C   UNL     1      11.547   2.400   5.244  1.00  0.00     0.049 A 
ATOM     51  H   UNL     1      12.061   1.407   3.485  1.00  0.00     0.167 HD
ATOM     52  C   UNL     1      12.951  -0.761  -0.233  1.00  0.00     0.034 A 
ATOM     53  C   UNL     1      12.554   2.204   6.122  1.00  0.00     0.034 A 
ATOM     54  C   UNL     1      14.106  -0.958   0.608  1.00  0.00     0.049 A 
ATOM     55  C   UNL     1      13.741   1.364   5.702  1.00  0.00     0.074 A 
ATOM     56  C   UNL     1      15.283  -1.622   0.313  1.00  0.00     0.029 A 
ATOM     57  N   UNL     1      14.226  -0.502   1.915  1.00  0.00    -0.354 N 
ATOM     58  N   UNL     1      13.969   0.767   4.553  1.00  0.00    -0.248 NA
ATOM     59  C   UNL     1      14.810   1.178   6.693  1.00  0.00     0.031 C 
ATOM     60  C   UNL     1      16.078  -1.638   1.463  1.00  0.00     0.029 A 
ATOM     61  C   UNL     1      15.442  -0.900   2.448  1.00  0.00     0.049 A 
ATOM     62  H   UNL     1      13.546   0.027   2.392  1.00  0.00     0.167 HD
ATOM     63  C   UNL     1      15.222   0.168   4.676  1.00  0.00     0.074 A 
ATOM     64  C   UNL     1      15.706   0.490   6.002  1.00  0.00     0.031 C 
ATOM     65  C   UNL     1      15.914  -0.576   3.775  1.00  0.00     0.034 A 
BRANCH  52  66
ATOM     66  C   UNL     1      12.949  -1.365  -1.617  1.00  0.00     0.023 A 
ATOM     67  C   UNL     1      12.869  -0.567  -2.772  1.00  0.00     0.031 A 
ATOM     68  C   UNL     1      13.008  -2.760  -1.784  1.00  0.00     0.131 A 
ATOM     69  C   UNL     1      12.786  -1.171  -4.035  1.00  0.00     0.055 A 
ATOM     70  C   UNL     1      13.009  -3.351  -3.048  1.00  0.00     0.041 A 
ATOM     71  F   UNL     1      13.056  -3.574  -0.717  1.00  0.00    -0.206 F 
ATOM     72  C   UNL     1      12.885  -2.557  -4.183  1.00  0.00     0.022 A 
BRANCH  69  73
ATOM     73  S   UNL     1      12.406  -0.130  -5.471  1.00  0.00     0.124 S 
ATOM     74  O   UNL     1      11.124   0.453  -5.082  1.00  0.00    -0.237 OA
ATOM     75  O   UNL     1      13.540   0.786  -5.506  1.00  0.00    -0.237 OA
ATOM     76  O   UNL     1      12.339  -1.083  -6.577  1.00  0.00    -0.744 OA
ENDBRANCH  69  73
ENDBRANCH  52  66
BRANCH  53  77
ATOM     77  C   UNL     1      12.473   2.753   7.510  1.00  0.00     0.023 A 
ATOM     78  C   UNL     1      13.431   3.656   7.998  1.00  0.00     0.031 A 
ATOM     79  C   UNL     1      11.474   2.314   8.399  1.00  0.00     0.131 A 
ATOM     80  C   UNL     1      13.405   4.044   9.348  1.00  0.00     0.055 A 
ATOM     81  C   UNL     1      11.413   2.756   9.722  1.00  0.00     0.041 A 
ATOM     82  F   UNL     1      10.537   1.443   7.992  1.00  0.00    -0.206 F 
ATOM     83  C   UNL     1      12.393   3.614  10.208  1.00  0.00     0.022 A 
BRANCH  80  84
ATOM     84  S   UNL     1      14.785   5.029   9.996  1.00  0.00     0.124 S 
ATOM     85  O   UNL     1      15.927   4.175   9.691  1.00  0.00    -0.237 OA
ATOM     86  O   UNL     1      14.674   6.256   9.214  1.00  0.00    -0.237 OA
ATOM     87  O   UNL     1      14.467   5.166  11.415  1.00  0.00    -0.744 OA
ENDBRANCH  80  84
ENDBRANCH  53  77
BRANCH  65  88
ATOM     88  C   UNL     1      17.295  -1.044   4.172  1.00  0.00     0.023 A 
ATOM     89  C   UNL     1      17.501  -1.954   5.224  1.00  0.00     0.031 A 
ATOM     90  C   UNL     1      18.426  -0.567   3.484  1.00  0.00     0.131 A 
ATOM     91  C   UNL     1      18.807  -2.309   5.596  1.00  0.00     0.055 A 
ATOM     92  C   UNL     1      19.718  -0.980   3.812  1.00  0.00     0.041 A 
ATOM     93  F   UNL     1      18.293   0.306   2.472  1.00  0.00    -0.206 F 
ATOM     94  C   UNL     1      19.915  -1.845   4.884  1.00  0.00     0.022 A 
BRANCH  91  95
ATOM     95  S   UNL     1      19.045  -3.306   7.093  1.00  0.00     0.124 S 
ATOM     96  O   UNL     1      18.402  -2.482   8.111  1.00  0.00    -0.237 OA
ATOM     97  O   UNL     1      18.360  -4.549   6.753  1.00  0.00    -0.237 OA
ATOM     98  O   UNL     1      20.499  -3.411   7.207  1.00  0.00    -0.744 OA
ENDBRANCH  91  95
ENDBRANCH  65  88
ENDBRANCH  39  40
ENDBRANCH  32  34
ENDBRANCH  31  32
ENDBRANCH  30  31
ENDBRANCH  29  30
ENDBRANCH  28  29
ENDBRANCH  27  28
ENDBRANCH  26  27
ENDBRANCH   1  26
TORSDOF 26
