REMARK SMILES O=C(OCCOCCOCCOCCOC(=O)[C@@H]1CCCC[C@@H]1NS(=O)(=O)c1ccc2ccccc2c1)c1ccc(-c2c3nc(c(-c4cc(S(=O)(=O)[O-])ccc4F)c4ccc([nH]4)c(-c4cc(S(=O)(=O)[O-])ccc4F)c4nc(c(-c5cc(S(=O)(=O)[O-])ccc5F)c5ccc2[nH]5)C=C4)C=C3)cc1
REMARK SMILES IDX 9 1 8 2 7 3 6 4 5 5 4 6 3 7 2 8 1 9 38 10 39 11 100 12 40 13
REMARK SMILES IDX 99 14 41 15 42 16 43 17 93 18 44 19 98 20 92 21 94 22 45 23
REMARK SMILES IDX 97 24 91 25 90 26 46 28 78 29 58 30 77 31 59 32 62 33 76 34
REMARK SMILES IDX 95 35 60 36 61 37 75 39 96 40 63 41 47 42 48 43 56 44 49 45
REMARK SMILES IDX 55 46 57 47 54 48 50 49 51 50 52 51 53 52 79 53 80 54 88 55
REMARK SMILES IDX 81 56 87 57 89 58 86 59 82 60 83 61 84 62 85 63 64 64 65 65
REMARK SMILES IDX 73 66 66 67 72 68 74 69 71 70 67 71 68 72 69 73 70 74 10 75
REMARK SMILES IDX 11 76 12 77 13 78 14 79 15 80 16 81 17 82 18 83 19 84 23 85
REMARK SMILES IDX 20 86 22 87 21 88 24 89 25 91 26 92 27 93 28 94 29 95 37 96
REMARK SMILES IDX 30 97 36 98 31 99 35 100 32 101 34 102 33 103
REMARK H PARENT 94 27 62 38 24 90
REMARK Flexibility Score: inf
ROOT
ATOM      1  O   UNL     1       3.976  -1.038   4.210  1.00  0.00    -0.377 OA
ENDROOT
BRANCH   1   2
ATOM      2  C   UNL     1       2.329  -1.028   3.307  1.00  0.00     0.188 C 
BRANCH   2   3
ATOM      3  C   UNL     1       1.998  -0.503   1.538  1.00  0.00     0.188 C 
BRANCH   3   4
ATOM      4  O   UNL     1       2.938  -0.090   0.428  1.00  0.00    -0.376 OA
BRANCH   4   5
ATOM      5  C   UNL     1       3.960   0.938   0.288  1.00  0.00     0.202 C 
BRANCH   5   6
ATOM      6  C   UNL     1       4.121   1.690  -1.049  1.00  0.00     0.261 C 
BRANCH   6   7
ATOM      7  O   UNL     1       2.963   1.685  -1.863  1.00  0.00    -0.460 OA
BRANCH   7   8
ATOM      8  C   UNL     1       2.331   0.528  -2.150  1.00  0.00     0.338 C 
ATOM      9  O   UNL     1       1.104   0.496  -2.197  1.00  0.00    -0.246 OA
BRANCH   8  10
ATOM     10  C   UNL     1       3.120  -0.663  -2.598  1.00  0.00     0.060 A 
ATOM     11  C   UNL     1       4.347  -1.101  -2.079  1.00  0.00     0.016 A 
ATOM     12  C   UNL     1       2.487  -1.455  -3.562  1.00  0.00     0.016 A 
ATOM     13  C   UNL     1       4.871  -2.336  -2.422  1.00  0.00     0.010 A 
ATOM     14  C   UNL     1       3.044  -2.662  -3.973  1.00  0.00     0.010 A 
ATOM     15  C   UNL     1       4.228  -3.105  -3.385  1.00  0.00    -0.014 A 
BRANCH  15  16
ATOM     16  C   UNL     1       4.965  -4.265  -3.889  1.00  0.00     0.031 A 
ATOM     17  C   UNL     1       5.992  -3.991  -4.926  1.00  0.00     0.074 A 
ATOM     18  C   UNL     1       4.809  -5.467  -3.314  1.00  0.00     0.049 A 
ATOM     19  N   UNL     1       6.738  -4.842  -5.559  1.00  0.00    -0.248 NA
ATOM     20  C   UNL     1       6.179  -2.585  -5.330  1.00  0.00     0.031 C 
ATOM     21  C   UNL     1       3.834  -5.742  -2.271  1.00  0.00     0.029 A 
ATOM     22  N   UNL     1       5.482  -6.648  -3.450  1.00  0.00    -0.354 N 
ATOM     23  C   UNL     1       7.411  -4.092  -6.508  1.00  0.00     0.074 A 
ATOM     24  C   UNL     1       7.053  -2.707  -6.315  1.00  0.00     0.031 C 
ATOM     25  C   UNL     1       4.091  -6.943  -1.732  1.00  0.00     0.029 A 
ATOM     26  C   UNL     1       5.083  -7.617  -2.553  1.00  0.00     0.049 A 
ATOM     27  H   UNL     1       6.186  -6.793  -4.124  1.00  0.00     0.167 HD
ATOM     28  C   UNL     1       8.188  -4.571  -7.499  1.00  0.00     0.034 A 
ATOM     29  C   UNL     1       5.420  -8.921  -2.480  1.00  0.00     0.034 A 
ATOM     30  C   UNL     1       8.460  -5.974  -7.644  1.00  0.00     0.049 A 
ATOM     31  C   UNL     1       6.282  -9.422  -3.616  1.00  0.00     0.074 A 
ATOM     32  C   UNL     1       9.185  -6.608  -8.630  1.00  0.00     0.029 A 
ATOM     33  N   UNL     1       7.994  -6.962  -6.780  1.00  0.00    -0.354 N 
ATOM     34  N   UNL     1       6.872  -8.726  -4.565  1.00  0.00    -0.248 NA
ATOM     35  C   UNL     1       6.455 -10.872  -3.736  1.00  0.00     0.031 C 
ATOM     36  C   UNL     1       9.085  -7.984  -8.412  1.00  0.00     0.029 A 
ATOM     37  C   UNL     1       8.386  -8.206  -7.233  1.00  0.00     0.049 A 
ATOM     38  H   UNL     1       7.464  -6.797  -5.967  1.00  0.00     0.167 HD
ATOM     39  C   UNL     1       7.459  -9.655  -5.411  1.00  0.00     0.074 A 
ATOM     40  C   UNL     1       7.213 -10.957  -4.818  1.00  0.00     0.031 C 
ATOM     41  C   UNL     1       8.107  -9.469  -6.589  1.00  0.00     0.034 A 
BRANCH  28  42
ATOM     42  C   UNL     1       8.627  -3.600  -8.552  1.00  0.00     0.023 A 
ATOM     43  C   UNL     1       9.522  -2.553  -8.284  1.00  0.00     0.031 A 
ATOM     44  C   UNL     1       8.084  -3.699  -9.845  1.00  0.00     0.131 A 
ATOM     45  C   UNL     1       9.820  -1.624  -9.290  1.00  0.00     0.055 A 
ATOM     46  C   UNL     1       8.445  -2.818 -10.862  1.00  0.00     0.041 A 
ATOM     47  F   UNL     1       7.173  -4.643 -10.133  1.00  0.00    -0.206 F 
ATOM     48  C   UNL     1       9.316  -1.769 -10.586  1.00  0.00     0.022 A 
BRANCH  45  49
ATOM     49  S   UNL     1      10.781  -0.152  -8.851  1.00  0.00     0.124 S 
ATOM     50  O   UNL     1       9.895   0.503  -7.891  1.00  0.00    -0.237 OA
ATOM     51  O   UNL     1      12.004  -0.724  -8.299  1.00  0.00    -0.237 OA
ATOM     52  O   UNL     1      10.939   0.547 -10.124  1.00  0.00    -0.744 OA
ENDBRANCH  45  49
ENDBRANCH  28  42
BRANCH  29  53
ATOM     53  C   UNL     1       4.822  -9.862  -1.474  1.00  0.00     0.023 A 
ATOM     54  C   UNL     1       5.624 -10.763  -0.751  1.00  0.00     0.031 A 
ATOM     55  C   UNL     1       3.428  -9.966  -1.291  1.00  0.00     0.131 A 
ATOM     56  C   UNL     1       5.029 -11.755   0.050  1.00  0.00     0.055 A 
ATOM     57  C   UNL     1       2.849 -10.879  -0.408  1.00  0.00     0.041 A 
ATOM     58  F   UNL     1       2.582  -9.191  -1.989  1.00  0.00    -0.206 F 
ATOM     59  C   UNL     1       3.650 -11.800   0.251  1.00  0.00     0.022 A 
BRANCH  56  60
ATOM     60  S   UNL     1       6.066 -13.110   0.673  1.00  0.00     0.124 S 
ATOM     61  O   UNL     1       6.699 -13.582  -0.554  1.00  0.00    -0.237 OA
ATOM     62  O   UNL     1       6.935 -12.415   1.617  1.00  0.00    -0.237 OA
ATOM     63  O   UNL     1       5.101 -14.030   1.271  1.00  0.00    -0.744 OA
ENDBRANCH  56  60
ENDBRANCH  29  53
BRANCH  41  64
ATOM     64  C   UNL     1       8.614 -10.707  -7.271  1.00  0.00     0.023 A 
ATOM     65  C   UNL     1       7.732 -11.658  -7.806  1.00  0.00     0.031 A 
ATOM     66  C   UNL     1       9.996 -10.923  -7.395  1.00  0.00     0.131 A 
ATOM     67  C   UNL     1       8.246 -12.819  -8.393  1.00  0.00     0.055 A 
ATOM     68  C   UNL     1      10.501 -12.039  -8.055  1.00  0.00     0.041 A 
ATOM     69  F   UNL     1      10.874 -10.040  -6.892  1.00  0.00    -0.206 F 
ATOM     70  C   UNL     1       9.624 -13.003  -8.546  1.00  0.00     0.022 A 
BRANCH  67  71
ATOM     71  S   UNL     1       7.092 -14.136  -8.855  1.00  0.00     0.124 S 
ATOM     72  O   UNL     1       6.468 -14.451  -7.574  1.00  0.00    -0.237 OA
ATOM     73  O   UNL     1       6.236 -13.474  -9.835  1.00  0.00    -0.237 OA
ATOM     74  O   UNL     1       7.962 -15.178  -9.395  1.00  0.00    -0.744 OA
ENDBRANCH  67  71
ENDBRANCH  41  64
ENDBRANCH  15  16
ENDBRANCH   8  10
ENDBRANCH   7   8
ENDBRANCH   6   7
ENDBRANCH   5   6
ENDBRANCH   4   5
ENDBRANCH   3   4
ENDBRANCH   2   3
ENDBRANCH   1   2
BRANCH   1  75
ATOM     75  C   UNL     1       5.769  -0.977   3.603  1.00  0.00     0.188 C 
BRANCH  75  76
ATOM     76  C   UNL     1       6.335  -2.200   2.521  1.00  0.00     0.188 C 
BRANCH  76  77
ATOM     77  O   UNL     1       5.210  -3.265   2.090  1.00  0.00    -0.376 OA
BRANCH  77  78
ATOM     78  C   UNL     1       3.407  -3.824   2.757  1.00  0.00     0.202 C 
BRANCH  78  79
ATOM     79  C   UNL     1       2.784  -3.922   4.474  1.00  0.00     0.261 C 
BRANCH  79  80
ATOM     80  O   UNL     1       2.662  -2.672   5.315  1.00  0.00    -0.463 OA
BRANCH  80  81
ATOM     81  C   UNL     1       3.502  -2.471   6.374  1.00  0.00     0.310 C 
ATOM     82  O   UNL     1       4.003  -3.429   6.970  1.00  0.00    -0.252 OA
BRANCH  81  83
ATOM     83  C   UNL     1       3.920  -0.982   6.812  1.00  0.00     0.117 C 
ATOM     84  C   UNL     1       3.305  -0.723   8.189  1.00  0.00     0.017 C 
ATOM     85  C   UNL     1       4.250   0.365   5.984  1.00  0.00     0.084 C 
ATOM     86  C   UNL     1       3.990   0.435   8.904  1.00  0.00     0.001 C 
ATOM     87  C   UNL     1       4.650   1.582   6.811  1.00  0.00     0.021 C 
ATOM     88  C   UNL     1       3.866   1.714   8.094  1.00  0.00     0.002 C 
BRANCH  85  89
ATOM     89  N   UNL     1       3.286   0.825   4.937  1.00  0.00    -0.207 NA
ATOM     90  H   UNL     1       3.073   1.807   5.115  1.00  0.00     0.141 HD
BRANCH  89  91
ATOM     91  S   UNL     1       3.937   0.664   3.012  1.00  0.00     0.240 S 
ATOM     92  O   UNL     1       2.738   1.362   2.554  1.00  0.00    -0.207 OA
ATOM     93  O   UNL     1       5.167   1.439   2.999  1.00  0.00    -0.207 OA
BRANCH  91  94
ATOM     94  C   UNL     1       4.144  -1.682   2.431  1.00  0.00     0.083 A 
ATOM     95  C   UNL     1       3.889  -2.495   0.874  1.00  0.00     0.022 A 
ATOM     96  C   UNL     1       4.791  -2.864   3.828  1.00  0.00     0.030 A 
ATOM     97  C   UNL     1       4.341  -4.227   0.692  1.00  0.00     0.010 A 
ATOM     98  C   UNL     1       5.384  -4.545   3.550  1.00  0.00    -0.017 A 
ATOM     99  C   UNL     1       5.157  -5.227   1.956  1.00  0.00    -0.018 A 
ATOM    100  C   UNL     1       6.154  -5.240   4.469  1.00  0.00     0.009 A 
ATOM    101  C   UNL     1       5.725  -6.492   1.809  1.00  0.00     0.009 A 
ATOM    102  C   UNL     1       6.748  -6.441   4.091  1.00  0.00     0.001 A 
ATOM    103  C   UNL     1       6.523  -7.048   2.833  1.00  0.00     0.001 A 
ENDBRANCH  91  94
ENDBRANCH  89  91
ENDBRANCH  85  89
ENDBRANCH  81  83
ENDBRANCH  80  81
ENDBRANCH  79  80
ENDBRANCH  78  79
ENDBRANCH  77  78
ENDBRANCH  76  77
ENDBRANCH  75  76
ENDBRANCH   1  75
TORSDOF 26
