REMARK SMILES Nc1oc(-c2ccccc2)cc1C(=O)OCCOCCOCCOCCOC(=O)c1ccc(-c2c3nc(c(-c4cc(S(=O)(=O)[O-])ccc4F)c4ccc([nH]4)c(-c4cc(S(=O)(=O)[O-])ccc4F)c4nc(c(-c5cc(S(=O)(=O)[O-])ccc5F)c5ccc2[nH]5)C=C4)C=C3)cc1
REMARK SMILES IDX 22 1 21 2 20 3 19 4 18 5 17 6 16 7 15 8 13 9 14 10 12 11
REMARK SMILES IDX 2 12 3 13 4 14 11 15 1 16 5 19 6 20 10 21 7 22 9 23 8 24
REMARK SMILES IDX 23 25 24 26 25 27 26 28 27 29 28 30 29 31 30 32 31 33 92 34
REMARK SMILES IDX 32 35 91 36 33 37 34 38 35 39 85 40 36 41 90 42 84 43 86 44
REMARK SMILES IDX 37 45 89 46 83 47 82 48 38 50 70 51 50 52 69 53 51 54 54 55
REMARK SMILES IDX 68 56 87 57 52 58 53 59 67 61 88 62 55 63 39 64 40 65 48 66
REMARK SMILES IDX 41 67 47 68 49 69 46 70 42 71 43 72 44 73 45 74 71 75 72 76
REMARK SMILES IDX 80 77 73 78 79 79 81 80 78 81 74 82 75 83 76 84 77 85 56 86
REMARK SMILES IDX 57 87 65 88 58 89 64 90 66 91 63 92 59 93 60 94 61 95 62 96
REMARK H PARENT 1 17 1 18 86 49 54 60
REMARK Flexibility Score: inf
ROOT
ATOM      1  C   UNL     1      -4.860  -1.515   0.542  1.00  0.00     0.188 C 
ENDROOT
BRANCH   1   2
ATOM      2  O   UNL     1      -3.789  -0.696   1.008  1.00  0.00    -0.377 OA
BRANCH   2   3
ATOM      3  C   UNL     1      -2.692  -0.550   0.127  1.00  0.00     0.188 C 
BRANCH   3   4
ATOM      4  C   UNL     1      -1.571  -1.588   0.360  1.00  0.00     0.188 C 
BRANCH   4   5
ATOM      5  O   UNL     1      -1.737  -2.718   1.206  1.00  0.00    -0.376 OA
BRANCH   5   6
ATOM      6  C   UNL     1      -2.391  -2.669   2.461  1.00  0.00     0.202 C 
BRANCH   6   7
ATOM      7  C   UNL     1      -2.200  -1.542   3.491  1.00  0.00     0.261 C 
BRANCH   7   8
ATOM      8  O   UNL     1      -1.840  -0.256   2.999  1.00  0.00    -0.459 OA
BRANCH   8   9
ATOM      9  C   UNL     1      -0.513  -0.051   2.801  1.00  0.00     0.343 C 
ATOM     10  O   UNL     1       0.375  -0.842   3.121  1.00  0.00    -0.246 OA
BRANCH   9  11
ATOM     11  C   UNL     1      -0.283   1.156   2.046  1.00  0.00     0.123 A 
ATOM     12  C   UNL     1       0.595   1.305   0.989  1.00  0.00     0.205 A 
ATOM     13  O   UNL     1       0.541   2.568   0.495  1.00  0.00    -0.440 OA
ATOM     14  C   UNL     1      -0.379   3.243   1.239  1.00  0.00     0.137 A 
ATOM     15  C   UNL     1      -0.978   2.392   2.140  1.00  0.00     0.069 A 
BRANCH  12  16
ATOM     16  N   UNL     1       1.417   0.466   0.350  1.00  0.00    -0.369 N 
ATOM     17  H   UNL     1       1.969   0.792  -0.397  1.00  0.00     0.159 HD
ATOM     18  H   UNL     1       1.470  -0.477   0.627  1.00  0.00     0.159 HD
ENDBRANCH  12  16
BRANCH  14  19
ATOM     19  C   UNL     1      -0.457   4.676   1.045  1.00  0.00     0.017 A 
ATOM     20  C   UNL     1      -0.521   5.263  -0.221  1.00  0.00     0.012 A 
ATOM     21  C   UNL     1      -0.441   5.496   2.183  1.00  0.00     0.012 A 
ATOM     22  C   UNL     1      -0.573   6.655  -0.342  1.00  0.00     0.001 A 
ATOM     23  C   UNL     1      -0.479   6.882   2.062  1.00  0.00     0.001 A 
ATOM     24  C   UNL     1      -0.547   7.461   0.798  1.00  0.00     0.000 A 
ENDBRANCH  14  19
ENDBRANCH   9  11
ENDBRANCH   8   9
ENDBRANCH   7   8
ENDBRANCH   6   7
ENDBRANCH   5   6
ENDBRANCH   4   5
ENDBRANCH   3   4
ENDBRANCH   2   3
ENDBRANCH   1   2
BRANCH   1  25
ATOM     25  C   UNL     1      -4.549  -2.810  -0.263  1.00  0.00     0.188 C 
BRANCH  25  26
ATOM     26  O   UNL     1      -3.427  -2.731  -1.130  1.00  0.00    -0.376 OA
BRANCH  26  27
ATOM     27  C   UNL     1      -3.510  -2.670  -2.544  1.00  0.00     0.202 C 
BRANCH  27  28
ATOM     28  C   UNL     1      -4.166  -1.452  -3.186  1.00  0.00     0.261 C 
BRANCH  28  29
ATOM     29  O   UNL     1      -5.271  -0.979  -2.450  1.00  0.00    -0.460 OA
BRANCH  29  30
ATOM     30  C   UNL     1      -6.327  -1.812  -2.452  1.00  0.00     0.338 C 
ATOM     31  O   UNL     1      -6.372  -2.943  -2.911  1.00  0.00    -0.246 OA
BRANCH  30  32
ATOM     32  C   UNL     1      -7.460  -1.097  -1.859  1.00  0.00     0.060 A 
ATOM     33  C   UNL     1      -8.653  -1.813  -1.851  1.00  0.00     0.016 A 
ATOM     34  C   UNL     1      -7.403   0.303  -1.894  1.00  0.00     0.016 A 
ATOM     35  C   UNL     1      -9.758  -1.157  -2.319  1.00  0.00     0.010 A 
ATOM     36  C   UNL     1      -8.491   0.945  -2.400  1.00  0.00     0.010 A 
ATOM     37  C   UNL     1      -9.602   0.172  -2.721  1.00  0.00    -0.014 A 
BRANCH  37  38
ATOM     38  C   UNL     1     -10.675   0.809  -3.432  1.00  0.00     0.031 A 
ATOM     39  C   UNL     1     -11.703   1.281  -2.491  1.00  0.00     0.074 A 
ATOM     40  C   UNL     1     -10.623   1.022  -4.759  1.00  0.00     0.049 A 
ATOM     41  N   UNL     1     -12.814   0.687  -2.216  1.00  0.00    -0.248 NA
ATOM     42  C   UNL     1     -11.322   2.322  -1.519  1.00  0.00     0.031 C 
ATOM     43  C   UNL     1      -9.529   0.770  -5.699  1.00  0.00     0.029 A 
ATOM     44  N   UNL     1     -11.554   1.619  -5.539  1.00  0.00    -0.354 N 
ATOM     45  C   UNL     1     -13.395   1.472  -1.234  1.00  0.00     0.074 A 
ATOM     46  C   UNL     1     -12.321   2.216  -0.643  1.00  0.00     0.031 C 
ATOM     47  C   UNL     1      -9.778   1.427  -6.858  1.00  0.00     0.029 A 
ATOM     48  C   UNL     1     -11.092   2.046  -6.780  1.00  0.00     0.049 A 
ATOM     49  H   UNL     1     -12.488   1.742  -5.250  1.00  0.00     0.167 HD
ATOM     50  C   UNL     1     -14.734   1.701  -1.235  1.00  0.00     0.034 A 
ATOM     51  C   UNL     1     -11.734   2.926  -7.601  1.00  0.00     0.034 A 
ATOM     52  C   UNL     1     -15.408   0.762  -2.110  1.00  0.00     0.049 A 
ATOM     53  C   UNL     1     -13.170   2.902  -7.186  1.00  0.00     0.074 A 
ATOM     54  C   UNL     1     -15.487  -0.618  -2.151  1.00  0.00     0.029 A 
ATOM     55  N   UNL     1     -15.755   1.198  -3.373  1.00  0.00    -0.354 N 
ATOM     56  N   UNL     1     -13.925   1.843  -7.332  1.00  0.00    -0.248 NA
ATOM     57  C   UNL     1     -13.592   3.807  -6.120  1.00  0.00     0.031 C 
ATOM     58  C   UNL     1     -15.389  -0.949  -3.534  1.00  0.00     0.029 A 
ATOM     59  C   UNL     1     -15.370   0.235  -4.275  1.00  0.00     0.049 A 
ATOM     60  H   UNL     1     -16.201   2.049  -3.589  1.00  0.00     0.167 HD
ATOM     61  C   UNL     1     -14.627   1.723  -6.139  1.00  0.00     0.074 A 
ATOM     62  C   UNL     1     -14.440   3.007  -5.460  1.00  0.00     0.031 C 
ATOM     63  C   UNL     1     -15.018   0.502  -5.661  1.00  0.00     0.034 A 
BRANCH  50  64
ATOM     64  C   UNL     1     -15.375   2.994  -0.791  1.00  0.00     0.023 A 
ATOM     65  C   UNL     1     -16.776   3.050  -0.860  1.00  0.00     0.031 A 
ATOM     66  C   UNL     1     -14.722   4.231  -0.573  1.00  0.00     0.131 A 
ATOM     67  C   UNL     1     -17.450   4.280  -0.834  1.00  0.00     0.055 A 
ATOM     68  C   UNL     1     -15.402   5.446  -0.479  1.00  0.00     0.041 A 
ATOM     69  F   UNL     1     -13.393   4.368  -0.528  1.00  0.00    -0.206 F 
ATOM     70  C   UNL     1     -16.773   5.481  -0.645  1.00  0.00     0.022 A 
BRANCH  67  71
ATOM     71  S   UNL     1     -19.212   4.291  -1.236  1.00  0.00     0.124 S 
ATOM     72  O   UNL     1     -19.223   3.601  -2.521  1.00  0.00    -0.237 OA
ATOM     73  O   UNL     1     -19.778   3.562  -0.106  1.00  0.00    -0.237 OA
ATOM     74  O   UNL     1     -19.535   5.715  -1.288  1.00  0.00    -0.744 OA
ENDBRANCH  67  71
ENDBRANCH  50  64
BRANCH  51  75
ATOM     75  C   UNL     1     -11.107   4.012  -8.419  1.00  0.00     0.023 A 
ATOM     76  C   UNL     1     -11.758   4.673  -9.488  1.00  0.00     0.031 A 
ATOM     77  C   UNL     1      -9.879   4.575  -7.996  1.00  0.00     0.131 A 
ATOM     78  C   UNL     1     -11.173   5.824 -10.084  1.00  0.00     0.055 A 
ATOM     79  C   UNL     1      -9.308   5.705  -8.587  1.00  0.00     0.041 A 
ATOM     80  F   UNL     1      -9.222   4.093  -6.930  1.00  0.00    -0.206 F 
ATOM     81  C   UNL     1      -9.957   6.340  -9.630  1.00  0.00     0.022 A 
BRANCH  78  82
ATOM     82  S   UNL     1     -12.021   6.728 -11.426  1.00  0.00     0.124 S 
ATOM     83  O   UNL     1     -11.978   5.771 -12.524  1.00  0.00    -0.237 OA
ATOM     84  O   UNL     1     -13.333   6.995 -10.847  1.00  0.00    -0.237 OA
ATOM     85  O   UNL     1     -11.188   7.918 -11.618  1.00  0.00    -0.744 OA
ENDBRANCH  78  82
ENDBRANCH  51  75
BRANCH  63  86
ATOM     86  C   UNL     1     -14.894  -0.712  -6.566  1.00  0.00     0.023 A 
ATOM     87  C   UNL     1     -13.686  -1.199  -7.120  1.00  0.00     0.031 A 
ATOM     88  C   UNL     1     -16.047  -1.501  -6.726  1.00  0.00     0.131 A 
ATOM     89  C   UNL     1     -13.672  -2.435  -7.800  1.00  0.00     0.055 A 
ATOM     90  C   UNL     1     -16.022  -2.733  -7.374  1.00  0.00     0.041 A 
ATOM     91  F   UNL     1     -17.218  -1.105  -6.200  1.00  0.00    -0.206 F 
ATOM     92  C   UNL     1     -14.834  -3.205  -7.917  1.00  0.00     0.022 A 
BRANCH  89  93
ATOM     93  S   UNL     1     -12.138  -3.070  -8.558  1.00  0.00     0.124 S 
ATOM     94  O   UNL     1     -11.643  -1.931  -9.321  1.00  0.00    -0.237 OA
ATOM     95  O   UNL     1     -11.346  -3.454  -7.393  1.00  0.00    -0.237 OA
ATOM     96  O   UNL     1     -12.602  -4.195  -9.374  1.00  0.00    -0.744 OA
ENDBRANCH  89  93
ENDBRANCH  63  86
ENDBRANCH  37  38
ENDBRANCH  30  32
ENDBRANCH  29  30
ENDBRANCH  28  29
ENDBRANCH  27  28
ENDBRANCH  26  27
ENDBRANCH  25  26
ENDBRANCH   1  25
TORSDOF 25
