REMARK SMILES CC(C)SCC(=O)N1Cc2ccccc2C[C@H]1C(=O)OCCOCCOCCOCCOC(=O)c1ccc(-c2c3nc(c(-c4cc(S(=O)(=O)[O-])ccc4F)c4ccc([nH]4)c(-c4cc(S(=O)(=O)[O-])ccc4F)c4nc(c(-c5cc(S(=O)(=O)[O-])ccc5F)c5ccc2[nH]5)C=C4)C=C3)cc1
REMARK SMILES IDX 25 1 24 2 23 3 22 4 21 5 20 6 18 7 19 8 17 9 8 10 9 11 10 12
REMARK SMILES IDX 16 13 11 14 15 15 12 16 14 17 13 18 6 19 7 20 5 21 4 22 2 23
REMARK SMILES IDX 1 24 3 25 26 26 27 27 28 28 29 29 30 30 31 31 32 32 33 33
REMARK SMILES IDX 34 34 35 35 36 36 97 37 37 38 96 39 38 40 39 41 40 42 90 43
REMARK SMILES IDX 41 44 95 45 89 46 91 47 42 48 94 49 88 50 87 51 43 53 75 54
REMARK SMILES IDX 55 55 74 56 56 57 59 58 73 59 92 60 57 61 58 62 72 64 93 65
REMARK SMILES IDX 60 66 44 67 45 68 53 69 46 70 52 71 54 72 51 73 47 74 48 75
REMARK SMILES IDX 49 76 50 77 76 78 77 79 85 80 78 81 84 82 86 83 83 84 79 85
REMARK SMILES IDX 80 86 81 87 82 88 61 89 62 90 70 91 63 92 69 93 71 94 68 95
REMARK SMILES IDX 64 96 65 97 66 98 67 99
REMARK H PARENT 91 52 59 63
REMARK Flexibility Score: inf
ROOT
ATOM      1  C   UNL     1      -1.859  -0.439  -0.959  1.00  0.00     0.188 C 
ENDROOT
BRANCH   1   2
ATOM      2  C   UNL     1      -1.924  -0.827  -2.439  1.00  0.00     0.188 C 
BRANCH   2   3
ATOM      3  O   UNL     1      -3.077  -0.476  -3.179  1.00  0.00    -0.376 OA
BRANCH   3   4
ATOM      4  C   UNL     1      -4.352  -0.798  -2.627  1.00  0.00     0.202 C 
BRANCH   4   5
ATOM      5  C   UNL     1      -4.642  -2.243  -2.153  1.00  0.00     0.261 C 
BRANCH   5   6
ATOM      6  O   UNL     1      -3.838  -2.786  -1.063  1.00  0.00    -0.462 OA
BRANCH   6   7
ATOM      7  C   UNL     1      -2.944  -3.737  -1.421  1.00  0.00     0.329 C 
ATOM      8  O   UNL     1      -2.753  -4.064  -2.595  1.00  0.00    -0.250 OA
BRANCH   7   9
ATOM      9  C   UNL     1      -2.222  -4.511  -0.289  1.00  0.00     0.199 C 
ATOM     10  N   UNL     1      -2.138  -4.125   1.165  1.00  0.00    -0.323 N 
ATOM     11  C   UNL     1      -2.639  -5.136   2.117  1.00  0.00     0.156 C 
ATOM     12  C   UNL     1      -2.083  -6.510   1.792  1.00  0.00    -0.025 A 
ATOM     13  C   UNL     1      -2.764  -5.949  -0.510  1.00  0.00     0.073 C 
ATOM     14  C   UNL     1      -1.480  -7.357   2.724  1.00  0.00     0.006 A 
ATOM     15  C   UNL     1      -2.152  -6.916   0.452  1.00  0.00    -0.040 A 
ATOM     16  C   UNL     1      -0.967  -8.594   2.313  1.00  0.00     0.000 A 
ATOM     17  C   UNL     1      -1.660  -8.156   0.045  1.00  0.00     0.004 A 
ATOM     18  C   UNL     1      -1.063  -8.995   0.979  1.00  0.00     0.000 A 
BRANCH  10  19
ATOM     19  C   UNL     1      -0.889  -3.627   1.603  1.00  0.00     0.233 C 
ATOM     20  O   UNL     1       0.090  -4.364   1.704  1.00  0.00    -0.274 OA
BRANCH  19  21
ATOM     21  C   UNL     1      -0.899  -2.197   2.102  1.00  0.00     0.169 C 
BRANCH  21  22
ATOM     22  S   UNL     1       0.772  -1.423   2.198  1.00  0.00    -0.149 SA
BRANCH  22  23
ATOM     23  C   UNL     1       1.383  -1.473   0.459  1.00  0.00     0.041 C 
ATOM     24  C   UNL     1       2.334  -0.297   0.214  1.00  0.00     0.019 C 
ATOM     25  C   UNL     1       2.040  -2.806   0.123  1.00  0.00     0.019 C 
ENDBRANCH  22  23
ENDBRANCH  21  22
ENDBRANCH  19  21
ENDBRANCH  10  19
ENDBRANCH   7   9
ENDBRANCH   6   7
ENDBRANCH   5   6
ENDBRANCH   4   5
ENDBRANCH   3   4
ENDBRANCH   2   3
ENDBRANCH   1   2
BRANCH   1  26
ATOM     26  O   UNL     1      -3.103  -0.393  -0.297  1.00  0.00    -0.377 OA
BRANCH  26  27
ATOM     27  C   UNL     1      -3.435   0.708   0.537  1.00  0.00     0.188 C 
BRANCH  27  28
ATOM     28  C   UNL     1      -2.827   2.068   0.176  1.00  0.00     0.188 C 
BRANCH  28  29
ATOM     29  O   UNL     1      -1.482   2.358   0.577  1.00  0.00    -0.376 OA
BRANCH  29  30
ATOM     30  C   UNL     1      -0.884   1.600   1.621  1.00  0.00     0.202 C 
BRANCH  30  31
ATOM     31  C   UNL     1      -1.123   2.065   3.056  1.00  0.00     0.261 C 
BRANCH  31  32
ATOM     32  O   UNL     1      -2.484   1.870   3.451  1.00  0.00    -0.460 OA
BRANCH  32  33
ATOM     33  C   UNL     1      -3.256   2.974   3.307  1.00  0.00     0.338 C 
ATOM     34  O   UNL     1      -2.903   4.079   2.951  1.00  0.00    -0.246 OA
BRANCH  33  35
ATOM     35  C   UNL     1      -4.667   2.581   3.455  1.00  0.00     0.060 A 
ATOM     36  C   UNL     1      -5.558   3.038   2.477  1.00  0.00     0.016 A 
ATOM     37  C   UNL     1      -5.113   1.839   4.551  1.00  0.00     0.016 A 
ATOM     38  C   UNL     1      -6.914   2.798   2.616  1.00  0.00     0.010 A 
ATOM     39  C   UNL     1      -6.481   1.620   4.705  1.00  0.00     0.010 A 
ATOM     40  C   UNL     1      -7.380   2.143   3.760  1.00  0.00    -0.014 A 
BRANCH  40  41
ATOM     41  C   UNL     1      -8.818   2.242   4.068  1.00  0.00     0.031 A 
ATOM     42  C   UNL     1      -9.261   3.332   5.000  1.00  0.00     0.074 A 
ATOM     43  C   UNL     1      -9.696   1.429   3.462  1.00  0.00     0.049 A 
ATOM     44  N   UNL     1     -10.457   3.617   5.437  1.00  0.00    -0.248 NA
ATOM     45  C   UNL     1      -8.201   4.217   5.509  1.00  0.00     0.031 C 
ATOM     46  C   UNL     1      -9.347   0.391   2.493  1.00  0.00     0.029 A 
ATOM     47  N   UNL     1     -11.056   1.349   3.576  1.00  0.00    -0.354 N 
ATOM     48  C   UNL     1     -10.294   4.713   6.279  1.00  0.00     0.074 A 
ATOM     49  C   UNL     1      -8.879   5.006   6.326  1.00  0.00     0.031 C 
ATOM     50  C   UNL     1     -10.470  -0.240   2.115  1.00  0.00     0.029 A 
ATOM     51  C   UNL     1     -11.602   0.321   2.849  1.00  0.00     0.049 A 
ATOM     52  H   UNL     1     -11.591   1.967   4.125  1.00  0.00     0.167 HD
ATOM     53  C   UNL     1     -11.248   5.410   6.944  1.00  0.00     0.034 A 
ATOM     54  C   UNL     1     -12.869  -0.135   2.819  1.00  0.00     0.034 A 
ATOM     55  C   UNL     1     -12.647   5.060   6.891  1.00  0.00     0.049 A 
ATOM     56  C   UNL     1     -13.905   0.587   3.641  1.00  0.00     0.074 A 
ATOM     57  C   UNL     1     -13.717   5.673   7.516  1.00  0.00     0.029 A 
ATOM     58  N   UNL     1     -13.166   3.980   6.181  1.00  0.00    -0.354 N 
ATOM     59  N   UNL     1     -13.752   1.624   4.436  1.00  0.00    -0.248 NA
ATOM     60  C   UNL     1     -15.281   0.091   3.553  1.00  0.00     0.031 C 
ATOM     61  C   UNL     1     -14.863   4.912   7.259  1.00  0.00     0.029 A 
ATOM     62  C   UNL     1     -14.533   3.882   6.390  1.00  0.00     0.049 A 
ATOM     63  H   UNL     1     -12.638   3.373   5.614  1.00  0.00     0.167 HD
ATOM     64  C   UNL     1     -15.020   1.919   4.928  1.00  0.00     0.074 A 
ATOM     65  C   UNL     1     -15.924   0.957   4.324  1.00  0.00     0.031 C 
ATOM     66  C   UNL     1     -15.406   2.895   5.791  1.00  0.00     0.034 A 
BRANCH  53  67
ATOM     67  C   UNL     1     -10.782   6.542   7.831  1.00  0.00     0.023 A 
ATOM     68  C   UNL     1     -10.063   7.640   7.321  1.00  0.00     0.031 A 
ATOM     69  C   UNL     1     -10.974   6.478   9.222  1.00  0.00     0.131 A 
ATOM     70  C   UNL     1      -9.473   8.562   8.200  1.00  0.00     0.055 A 
ATOM     71  C   UNL     1     -10.470   7.455  10.084  1.00  0.00     0.041 A 
ATOM     72  F   UNL     1     -11.625   5.443   9.776  1.00  0.00    -0.206 F 
ATOM     73  C   UNL     1      -9.695   8.493   9.577  1.00  0.00     0.022 A 
BRANCH  70  74
ATOM     74  S   UNL     1      -8.245   9.724   7.538  1.00  0.00     0.124 S 
ATOM     75  O   UNL     1      -7.285   8.814   6.917  1.00  0.00    -0.237 OA
ATOM     76  O   UNL     1      -9.040  10.536   6.625  1.00  0.00    -0.237 OA
ATOM     77  O   UNL     1      -7.754  10.418   8.727  1.00  0.00    -0.744 OA
ENDBRANCH  70  74
ENDBRANCH  53  67
BRANCH  54  78
ATOM     78  C   UNL     1     -13.192  -1.359   2.035  1.00  0.00     0.023 A 
ATOM     79  C   UNL     1     -14.043  -1.319   0.921  1.00  0.00     0.031 A 
ATOM     80  C   UNL     1     -12.630  -2.600   2.391  1.00  0.00     0.131 A 
ATOM     81  C   UNL     1     -14.322  -2.500   0.214  1.00  0.00     0.055 A 
ATOM     82  C   UNL     1     -12.871  -3.761   1.657  1.00  0.00     0.041 A 
ATOM     83  F   UNL     1     -11.806  -2.693   3.448  1.00  0.00    -0.206 F 
ATOM     84  C   UNL     1     -13.728  -3.716   0.564  1.00  0.00     0.022 A 
BRANCH  81  85
ATOM     85  S   UNL     1     -15.518  -2.438  -1.148  1.00  0.00     0.124 S 
ATOM     86  O   UNL     1     -16.717  -1.961  -0.469  1.00  0.00    -0.237 OA
ATOM     87  O   UNL     1     -14.882  -1.499  -2.066  1.00  0.00    -0.237 OA
ATOM     88  O   UNL     1     -15.572  -3.822  -1.615  1.00  0.00    -0.744 OA
ENDBRANCH  81  85
ENDBRANCH  54  78
BRANCH  66  89
ATOM     89  C   UNL     1     -16.881   2.987   6.100  1.00  0.00     0.023 A 
ATOM     90  C   UNL     1     -17.559   1.966   6.788  1.00  0.00     0.031 A 
ATOM     91  C   UNL     1     -17.619   4.114   5.696  1.00  0.00     0.131 A 
ATOM     92  C   UNL     1     -18.943   2.063   6.994  1.00  0.00     0.055 A 
ATOM     93  C   UNL     1     -18.980   4.240   5.971  1.00  0.00     0.041 A 
ATOM     94  F   UNL     1     -17.024   5.118   5.030  1.00  0.00    -0.206 F 
ATOM     95  C   UNL     1     -19.653   3.204   6.611  1.00  0.00     0.022 A 
BRANCH  92  96
ATOM     96  S   UNL     1     -19.824   0.628   7.665  1.00  0.00     0.124 S 
ATOM     97  O   UNL     1     -19.495  -0.409   6.691  1.00  0.00    -0.237 OA
ATOM     98  O   UNL     1     -19.219   0.479   8.984  1.00  0.00    -0.237 OA
ATOM     99  O   UNL     1     -21.222   1.055   7.668  1.00  0.00    -0.744 OA
ENDBRANCH  92  96
ENDBRANCH  66  89
ENDBRANCH  40  41
ENDBRANCH  33  35
ENDBRANCH  32  33
ENDBRANCH  31  32
ENDBRANCH  30  31
ENDBRANCH  29  30
ENDBRANCH  28  29
ENDBRANCH  27  28
ENDBRANCH  26  27
ENDBRANCH   1  26
TORSDOF 27
