REMARK SMILES CC(C)CCn1nc(C(=O)OCCOCCOCCOCCOC(=O)c2ccc(-c3c4nc(c(-c5cc(S(=O)(=O)[O-])ccc5F)c5ccc([nH]5)c(-c5cc(S(=O)(=O)[O-])ccc5F)c5nc(c(-c6cc(S(=O)(=O)[O-])ccc6F)c6ccc3[nH]6)C=C5)C=C4)cc2)c2c1CCN(C(=O)[C@@H]1CCc3nn(C)c(=O)n3C1)C2
REMARK SMILES IDX 17 1 16 2 15 3 14 4 13 5 12 6 11 7 9 8 10 9 8 10 6 11 7 12
REMARK SMILES IDX 90 13 89 14 91 15 107 16 92 17 93 18 5 19 4 20 2 21 1 22
REMARK SMILES IDX 3 23 94 24 95 25 96 26 97 27 106 28 98 29 105 30 99 31
REMARK SMILES IDX 103 32 100 33 101 34 104 35 102 36 18 37 19 38 20 39 21 40
REMARK SMILES IDX 22 41 23 42 24 43 25 44 26 45 27 46 88 47 28 48 87 49 29 50
REMARK SMILES IDX 30 51 31 52 81 53 32 54 86 55 80 56 82 57 33 58 85 59 79 60
REMARK SMILES IDX 78 61 34 63 66 64 46 65 65 66 47 67 50 68 64 69 83 70 48 71
REMARK SMILES IDX 49 72 63 74 84 75 51 76 35 77 36 78 44 79 37 80 43 81 45 82
REMARK SMILES IDX 42 83 38 84 39 85 40 86 41 87 67 88 68 89 76 90 69 91 75 92
REMARK SMILES IDX 77 93 74 94 70 95 71 96 72 97 73 98 52 99 53 100 61 101
REMARK SMILES IDX 54 102 60 103 62 104 59 105 55 106 56 107 57 108 58 109
REMARK H PARENT 82 62 50 73
REMARK Flexibility Score: inf
ROOT
ATOM      1  O   UNL     1      -1.275  -4.118  -7.233  1.00  0.00    -0.377 OA
ENDROOT
BRANCH   1   2
ATOM      2  C   UNL     1      -1.515  -2.868  -6.616  1.00  0.00     0.188 C 
BRANCH   2   3
ATOM      3  C   UNL     1      -0.413  -1.816  -6.883  1.00  0.00     0.188 C 
BRANCH   3   4
ATOM      4  O   UNL     1       0.611  -1.992  -7.863  1.00  0.00    -0.376 OA
BRANCH   4   5
ATOM      5  C   UNL     1       1.202  -3.244  -8.166  1.00  0.00     0.202 C 
BRANCH   5   6
ATOM      6  C   UNL     1       1.884  -4.088  -7.087  1.00  0.00     0.261 C 
BRANCH   6   7
ATOM      7  O   UNL     1       1.214  -4.103  -5.836  1.00  0.00    -0.458 OA
BRANCH   7   8
ATOM      8  C   UNL     1       1.588  -3.132  -4.957  1.00  0.00     0.359 C 
ATOM      9  O   UNL     1       2.551  -2.388  -5.108  1.00  0.00    -0.244 OA
BRANCH   8  10
ATOM     10  C   UNL     1       0.641  -3.064  -3.839  1.00  0.00     0.175 A 
ATOM     11  N   UNL     1      -0.448  -2.298  -2.172  1.00  0.00    -0.268 N 
ATOM     12  N   UNL     1       0.478  -1.951  -3.086  1.00  0.00    -0.165 NA
ATOM     13  C   UNL     1      -0.695  -3.629  -2.198  1.00  0.00     0.046 A 
ATOM     14  C   UNL     1      -0.250  -4.087  -3.418  1.00  0.00     0.028 A 
ATOM     15  C   UNL     1      -1.270  -4.503  -1.162  1.00  0.00     0.078 C 
ATOM     16  C   UNL     1      -0.551  -5.454  -3.969  1.00  0.00     0.159 C 
ATOM     17  C   UNL     1      -0.894  -5.936  -1.589  1.00  0.00     0.126 C 
ATOM     18  N   UNL     1      -1.320  -6.221  -2.955  1.00  0.00    -0.338 N 
BRANCH  11  19
ATOM     19  C   UNL     1      -1.088  -1.286  -1.351  1.00  0.00     0.145 C 
BRANCH  19  20
ATOM     20  C   UNL     1      -0.741  -1.369   0.135  1.00  0.00     0.027 C 
BRANCH  20  21
ATOM     21  C   UNL     1       0.770  -1.338   0.415  1.00  0.00    -0.016 C 
ATOM     22  C   UNL     1       1.346   0.057   0.178  1.00  0.00     0.007 C 
ATOM     23  C   UNL     1       1.052  -1.803   1.842  1.00  0.00     0.007 C 
ENDBRANCH  20  21
ENDBRANCH  19  20
ENDBRANCH  11  19
BRANCH  18  24
ATOM     24  C   UNL     1      -2.283  -7.110  -3.391  1.00  0.00     0.227 C 
ATOM     25  O   UNL     1      -2.445  -7.271  -4.610  1.00  0.00    -0.274 OA
BRANCH  24  26
ATOM     26  C   UNL     1      -3.216  -7.933  -2.466  1.00  0.00     0.099 C 
ATOM     27  C   UNL     1      -4.389  -7.187  -1.817  1.00  0.00     0.023 C 
ATOM     28  C   UNL     1      -2.564  -8.928  -1.514  1.00  0.00     0.142 C 
ATOM     29  C   UNL     1      -4.155  -6.654  -0.408  1.00  0.00     0.078 C 
ATOM     30  N   UNL     1      -2.424  -8.413  -0.171  1.00  0.00    -0.278 N 
ATOM     31  C   UNL     1      -3.054  -7.339   0.344  1.00  0.00     0.133 A 
ATOM     32  C   UNL     1      -1.342  -8.653   0.643  1.00  0.00     0.345 A 
ATOM     33  N   UNL     1      -2.514  -6.855   1.426  1.00  0.00    -0.155 NA
ATOM     34  N   UNL     1      -1.415  -7.665   1.633  1.00  0.00    -0.216 N 
ATOM     35  O   UNL     1      -0.430  -9.440   0.449  1.00  0.00    -0.246 OA
ATOM     36  C   UNL     1      -0.310  -7.266   2.464  1.00  0.00     0.179 C 
ENDBRANCH  24  26
ENDBRANCH  18  24
ENDBRANCH   8  10
ENDBRANCH   7   8
ENDBRANCH   6   7
ENDBRANCH   5   6
ENDBRANCH   4   5
ENDBRANCH   3   4
ENDBRANCH   2   3
ENDBRANCH   1   2
BRANCH   1  37
ATOM     37  C   UNL     1      -1.952  -4.329  -8.475  1.00  0.00     0.188 C 
BRANCH  37  38
ATOM     38  C   UNL     1      -1.981  -3.174  -9.515  1.00  0.00     0.188 C 
BRANCH  38  39
ATOM     39  O   UNL     1      -2.140  -1.874  -8.956  1.00  0.00    -0.376 OA
BRANCH  39  40
ATOM     40  C   UNL     1      -3.309  -1.105  -9.189  1.00  0.00     0.202 C 
BRANCH  40  41
ATOM     41  C   UNL     1      -4.553  -1.525  -8.409  1.00  0.00     0.261 C 
BRANCH  41  42
ATOM     42  O   UNL     1      -4.745  -2.925  -8.398  1.00  0.00    -0.460 OA
BRANCH  42  43
ATOM     43  C   UNL     1      -5.006  -3.461  -9.604  1.00  0.00     0.338 C 
ATOM     44  O   UNL     1      -4.981  -2.887 -10.685  1.00  0.00    -0.246 OA
BRANCH  43  45
ATOM     45  C   UNL     1      -5.405  -4.853  -9.408  1.00  0.00     0.060 A 
ATOM     46  C   UNL     1      -5.838  -5.505 -10.559  1.00  0.00     0.016 A 
ATOM     47  C   UNL     1      -5.756  -5.268  -8.112  1.00  0.00     0.016 A 
ATOM     48  C   UNL     1      -6.929  -6.317 -10.429  1.00  0.00     0.010 A 
ATOM     49  C   UNL     1      -6.857  -6.064  -7.986  1.00  0.00     0.010 A 
ATOM     50  C   UNL     1      -7.494  -6.455  -9.158  1.00  0.00    -0.014 A 
BRANCH  50  51
ATOM     51  C   UNL     1      -8.810  -7.026  -9.080  1.00  0.00     0.031 A 
ATOM     52  C   UNL     1      -8.779  -8.487  -9.204  1.00  0.00     0.074 A 
ATOM     53  C   UNL     1      -9.898  -6.271  -8.850  1.00  0.00     0.049 A 
ATOM     54  N   UNL     1      -9.127  -9.200 -10.219  1.00  0.00    -0.248 NA
ATOM     55  C   UNL     1      -8.042  -9.224  -8.165  1.00  0.00     0.031 C 
ATOM     56  C   UNL     1      -9.965  -4.860  -8.455  1.00  0.00     0.029 A 
ATOM     57  N   UNL     1     -11.196  -6.659  -8.824  1.00  0.00    -0.354 N 
ATOM     58  C   UNL     1      -8.899 -10.508  -9.823  1.00  0.00     0.074 A 
ATOM     59  C   UNL     1      -7.996 -10.438  -8.709  1.00  0.00     0.031 C 
ATOM     60  C   UNL     1     -11.213  -4.585  -8.008  1.00  0.00     0.029 A 
ATOM     61  C   UNL     1     -12.054  -5.753  -8.216  1.00  0.00     0.049 A 
ATOM     62  H   UNL     1     -11.505  -7.512  -9.206  1.00  0.00     0.167 HD
ATOM     63  C   UNL     1      -9.734 -11.502 -10.220  1.00  0.00     0.034 A 
ATOM     64  C   UNL     1     -13.334  -6.003  -7.831  1.00  0.00     0.034 A 
ATOM     65  C   UNL     1     -10.470 -11.117 -11.407  1.00  0.00     0.049 A 
ATOM     66  C   UNL     1     -13.797  -7.167  -8.633  1.00  0.00     0.074 A 
ATOM     67  C   UNL     1     -10.107 -10.710 -12.678  1.00  0.00     0.029 A 
ATOM     68  N   UNL     1     -11.784 -10.726 -11.259  1.00  0.00    -0.354 N 
ATOM     69  N   UNL     1     -13.923  -7.136  -9.934  1.00  0.00    -0.248 NA
ATOM     70  C   UNL     1     -13.647  -8.500  -8.066  1.00  0.00     0.031 C 
ATOM     71  C   UNL     1     -11.044  -9.691 -13.027  1.00  0.00     0.029 A 
ATOM     72  C   UNL     1     -11.967  -9.572 -11.985  1.00  0.00     0.049 A 
ATOM     73  H   UNL     1     -12.470 -11.191 -10.728  1.00  0.00     0.167 HD
ATOM     74  C   UNL     1     -13.447  -8.363 -10.377  1.00  0.00     0.074 A 
ATOM     75  C   UNL     1     -13.393  -9.198  -9.178  1.00  0.00     0.031 C 
ATOM     76  C   UNL     1     -12.873  -8.499 -11.610  1.00  0.00     0.034 A 
BRANCH  63  77
ATOM     77  C   UNL     1     -10.173 -12.620  -9.300  1.00  0.00     0.023 A 
ATOM     78  C   UNL     1     -11.047 -13.576  -9.841  1.00  0.00     0.031 A 
ATOM     79  C   UNL     1     -10.024 -12.656  -7.890  1.00  0.00     0.131 A 
ATOM     80  C   UNL     1     -11.794 -14.422  -9.006  1.00  0.00     0.055 A 
ATOM     81  C   UNL     1     -10.719 -13.546  -7.070  1.00  0.00     0.041 A 
ATOM     82  F   UNL     1      -9.277 -11.787  -7.202  1.00  0.00    -0.206 F 
ATOM     83  C   UNL     1     -11.639 -14.413  -7.623  1.00  0.00     0.022 A 
BRANCH  80  84
ATOM     84  S   UNL     1     -13.114 -15.405  -9.754  1.00  0.00     0.124 S 
ATOM     85  O   UNL     1     -13.841 -14.393 -10.512  1.00  0.00    -0.237 OA
ATOM     86  O   UNL     1     -12.353 -16.375 -10.534  1.00  0.00    -0.237 OA
ATOM     87  O   UNL     1     -13.823 -15.948  -8.598  1.00  0.00    -0.744 OA
ENDBRANCH  80  84
ENDBRANCH  63  77
BRANCH  64  88
ATOM     88  C   UNL     1     -13.949  -5.580  -6.541  1.00  0.00     0.023 A 
ATOM     89  C   UNL     1     -15.343  -5.530  -6.336  1.00  0.00     0.031 A 
ATOM     90  C   UNL     1     -13.135  -5.434  -5.393  1.00  0.00     0.131 A 
ATOM     91  C   UNL     1     -15.864  -5.335  -5.033  1.00  0.00     0.055 A 
ATOM     92  C   UNL     1     -13.654  -5.236  -4.113  1.00  0.00     0.041 A 
ATOM     93  F   UNL     1     -11.800  -5.563  -5.465  1.00  0.00    -0.206 F 
ATOM     94  C   UNL     1     -15.024  -5.193  -3.926  1.00  0.00     0.022 A 
BRANCH  91  95
ATOM     95  S   UNL     1     -17.664  -5.338  -4.747  1.00  0.00     0.124 S 
ATOM     96  O   UNL     1     -18.095  -4.149  -5.473  1.00  0.00    -0.237 OA
ATOM     97  O   UNL     1     -18.066  -6.622  -5.307  1.00  0.00    -0.237 OA
ATOM     98  O   UNL     1     -17.779  -5.242  -3.291  1.00  0.00    -0.744 OA
ENDBRANCH  91  95
ENDBRANCH  64  88
BRANCH  76  99
ATOM     99  C   UNL     1     -13.020  -7.351 -12.594  1.00  0.00     0.023 A 
ATOM    100  C   UNL     1     -12.505  -6.048 -12.399  1.00  0.00     0.031 A 
ATOM    101  C   UNL     1     -13.603  -7.640 -13.840  1.00  0.00     0.131 A 
ATOM    102  C   UNL     1     -12.594  -5.091 -13.432  1.00  0.00     0.055 A 
ATOM    103  C   UNL     1     -13.672  -6.697 -14.865  1.00  0.00     0.041 A 
ATOM    104  F   UNL     1     -14.082  -8.868 -14.097  1.00  0.00    -0.206 F 
ATOM    105  C   UNL     1     -13.171  -5.416 -14.664  1.00  0.00     0.022 A 
BRANCH 102 106
ATOM    106  S   UNL     1     -11.953  -3.399 -13.194  1.00  0.00     0.124 S 
ATOM    107  O   UNL     1     -12.591  -2.966 -11.957  1.00  0.00    -0.237 OA
ATOM    108  O   UNL     1     -10.509  -3.613 -13.131  1.00  0.00    -0.237 OA
ATOM    109  O   UNL     1     -12.407  -2.690 -14.393  1.00  0.00    -0.744 OA
ENDBRANCH 102 106
ENDBRANCH  76  99
ENDBRANCH  50  51
ENDBRANCH  43  45
ENDBRANCH  42  43
ENDBRANCH  41  42
ENDBRANCH  40  41
ENDBRANCH  39  40
ENDBRANCH  38  39
ENDBRANCH  37  38
ENDBRANCH   1  37
TORSDOF 28
