REMARK SMILES C/C(=N\Nc1nc(-c2ccc(Cl)cc2)cs1)c1nnn(-c2ccc(C(=O)OCCOCCOCCOCCOC(=O)c3ccc(-c4c5nc(c(-c6cc(S(=O)(=O)[O-])ccc6F)c6ccc([nH]6)c(-c6cc(S(=O)(=O)[O-])ccc6F)c6nc(c(-c7cc(S(=O)(=O)[O-])ccc7F)c7ccc4[nH]7)C=C6)C=C5)cc3)cc2)c1C
REMARK SMILES IDX 32 1 31 2 30 3 29 4 28 5 27 6 25 7 26 8 24 9 21 10 22 11
REMARK SMILES IDX 106 12 23 13 105 14 20 15 17 16 18 17 107 18 19 19 108 20
REMARK SMILES IDX 2 21 1 22 3 23 4 24 5 26 6 27 16 28 7 29 15 30 8 31 9 32
REMARK SMILES IDX 14 33 10 34 13 35 11 36 12 37 33 38 34 39 35 40 36 41 37 42
REMARK SMILES IDX 38 43 39 44 40 45 41 46 42 47 43 48 104 49 44 50 103 51
REMARK SMILES IDX 45 52 46 53 47 54 97 55 48 56 102 57 96 58 98 59 49 60
REMARK SMILES IDX 101 61 95 62 94 63 50 65 82 66 62 67 81 68 63 69 66 70 80 71
REMARK SMILES IDX 99 72 64 73 65 74 79 76 100 77 67 78 51 79 52 80 60 81 53 82
REMARK SMILES IDX 59 83 61 84 58 85 54 86 55 87 56 88 57 89 83 90 84 91 92 92
REMARK SMILES IDX 85 93 91 94 93 95 90 96 86 97 87 98 88 99 89 100 68 101
REMARK SMILES IDX 69 102 77 103 70 104 76 105 78 106 75 107 71 108 72 109
REMARK SMILES IDX 73 110 74 111
REMARK H PARENT 4 25 98 64 66 75
REMARK Flexibility Score: inf
ROOT
ATOM      1  C   UNL     1       7.160  -5.358  -6.572  1.00  0.00     0.188 C 
ENDROOT
BRANCH   1   2
ATOM      2  C   UNL     1       7.231  -4.253  -7.652  1.00  0.00     0.188 C 
BRANCH   2   3
ATOM      3  O   UNL     1       8.466  -3.756  -8.155  1.00  0.00    -0.376 OA
BRANCH   3   4
ATOM      4  C   UNL     1       9.597  -3.511  -7.336  1.00  0.00     0.202 C 
BRANCH   4   5
ATOM      5  C   UNL     1       9.512  -2.814  -5.971  1.00  0.00     0.261 C 
BRANCH   5   6
ATOM      6  O   UNL     1       8.284  -2.956  -5.268  1.00  0.00    -0.460 OA
BRANCH   6   7
ATOM      7  C   UNL     1       7.361  -2.001  -5.506  1.00  0.00     0.338 C 
ATOM      8  O   UNL     1       7.496  -0.987  -6.167  1.00  0.00    -0.246 OA
BRANCH   7   9
ATOM      9  C   UNL     1       6.069  -2.460  -4.947  1.00  0.00     0.060 A 
ATOM     10  C   UNL     1       3.620  -3.065  -3.831  1.00  0.00     0.067 A 
ATOM     11  C   UNL     1       3.647  -2.474  -5.097  1.00  0.00     0.029 A 
ATOM     12  C   UNL     1       4.792  -3.520  -3.212  1.00  0.00     0.029 A 
ATOM     13  C   UNL     1       4.888  -2.152  -5.643  1.00  0.00     0.018 A 
ATOM     14  C   UNL     1       6.024  -3.208  -3.767  1.00  0.00     0.018 A 
BRANCH  10  15
ATOM     15  N   UNL     1       2.489  -2.854  -3.018  1.00  0.00    -0.217 N 
ATOM     16  C   UNL     1       1.155  -1.942  -1.557  1.00  0.00     0.132 A 
ATOM     17  N   UNL     1       0.402  -2.615  -2.480  1.00  0.00    -0.128 NA
ATOM     18  C   UNL     1       2.494  -2.060  -1.883  1.00  0.00     0.071 A 
ATOM     19  N   UNL     1       1.221  -3.073  -3.424  1.00  0.00    -0.061 NA
ATOM     20  C   UNL     1       3.699  -1.372  -1.339  1.00  0.00     0.069 C 
BRANCH  16  21
ATOM     21  C   UNL     1       0.621  -1.094  -0.501  1.00  0.00     0.087 C 
ATOM     22  C   UNL     1       1.113   0.331  -0.521  1.00  0.00     0.071 C 
ATOM     23  N   UNL     1      -0.137  -1.688   0.378  1.00  0.00    -0.176 NA
BRANCH  23  24
ATOM     24  N   UNL     1      -0.574  -1.123   1.556  1.00  0.00    -0.252 N 
ATOM     25  H   UNL     1      -1.123  -1.717   2.117  1.00  0.00     0.193 HD
BRANCH  24  26
ATOM     26  C   UNL     1      -0.374   0.117   2.071  1.00  0.00     0.203 A 
ATOM     27  N   UNL     1      -0.554   1.255   1.442  1.00  0.00    -0.219 NA
ATOM     28  S   UNL     1       0.239   0.307   3.678  1.00  0.00    -0.103 S 
ATOM     29  C   UNL     1       0.107   2.277   2.090  1.00  0.00     0.084 A 
ATOM     30  C   UNL     1       0.604   1.952   3.333  1.00  0.00     0.097 A 
BRANCH  29  31
ATOM     31  C   UNL     1       0.312   3.544   1.410  1.00  0.00     0.001 A 
ATOM     32  C   UNL     1      -0.772   4.179   0.792  1.00  0.00     0.012 A 
ATOM     33  C   UNL     1       1.600   4.080   1.261  1.00  0.00     0.012 A 
ATOM     34  C   UNL     1      -0.580   5.356   0.063  1.00  0.00     0.021 A 
ATOM     35  C   UNL     1       1.793   5.251   0.521  1.00  0.00     0.021 A 
ATOM     36  C   UNL     1       0.702   5.887  -0.068  1.00  0.00     0.041 A 
ATOM     37  Cl  UNL     1       0.941   7.331  -0.973  1.00  0.00    -0.084 Cl
ENDBRANCH  29  31
ENDBRANCH  24  26
ENDBRANCH  23  24
ENDBRANCH  16  21
ENDBRANCH  10  15
ENDBRANCH   7   9
ENDBRANCH   6   7
ENDBRANCH   5   6
ENDBRANCH   4   5
ENDBRANCH   3   4
ENDBRANCH   2   3
ENDBRANCH   1   2
BRANCH   1  38
ATOM     38  O   UNL     1       8.403  -5.641  -5.958  1.00  0.00    -0.377 OA
BRANCH  38  39
ATOM     39  C   UNL     1       9.139  -6.723  -6.527  1.00  0.00     0.188 C 
BRANCH  39  40
ATOM     40  C   UNL     1       9.186  -6.879  -8.074  1.00  0.00     0.188 C 
BRANCH  40  41
ATOM     41  O   UNL     1       7.974  -6.564  -8.748  1.00  0.00    -0.376 OA
BRANCH  41  42
ATOM     42  C   UNL     1       7.131  -7.533  -9.348  1.00  0.00     0.202 C 
BRANCH  42  43
ATOM     43  C   UNL     1       6.405  -8.512  -8.429  1.00  0.00     0.261 C 
BRANCH  43  44
ATOM     44  O   UNL     1       7.223  -8.967  -7.375  1.00  0.00    -0.460 OA
BRANCH  44  45
ATOM     45  C   UNL     1       8.270  -9.714  -7.764  1.00  0.00     0.338 C 
ATOM     46  O   UNL     1       8.619  -9.957  -8.916  1.00  0.00    -0.246 OA
BRANCH  45  47
ATOM     47  C   UNL     1       8.915 -10.242  -6.563  1.00  0.00     0.060 A 
ATOM     48  C   UNL     1       9.995 -11.091  -6.803  1.00  0.00     0.016 A 
ATOM     49  C   UNL     1       8.112 -10.322  -5.418  1.00  0.00     0.016 A 
ATOM     50  C   UNL     1      10.001 -12.279  -6.125  1.00  0.00     0.010 A 
ATOM     51  C   UNL     1       8.076 -11.527  -4.794  1.00  0.00     0.010 A 
ATOM     52  C   UNL     1       8.947 -12.518  -5.244  1.00  0.00    -0.014 A 
BRANCH  52  53
ATOM     53  C   UNL     1       8.761 -13.845  -4.722  1.00  0.00     0.031 A 
ATOM     54  C   UNL     1       9.613 -14.060  -3.538  1.00  0.00     0.074 A 
ATOM     55  C   UNL     1       7.781 -14.631  -5.206  1.00  0.00     0.049 A 
ATOM     56  N   UNL     1      10.683 -14.778  -3.454  1.00  0.00    -0.248 NA
ATOM     57  C   UNL     1       9.436 -13.126  -2.405  1.00  0.00     0.031 C 
ATOM     58  C   UNL     1       6.759 -14.311  -6.210  1.00  0.00     0.029 A 
ATOM     59  N   UNL     1       7.416 -15.870  -4.803  1.00  0.00    -0.354 N 
ATOM     60  C   UNL     1      11.122 -14.588  -2.150  1.00  0.00     0.074 A 
ATOM     61  C   UNL     1      10.557 -13.346  -1.724  1.00  0.00     0.031 C 
ATOM     62  C   UNL     1       5.767 -15.232  -6.148  1.00  0.00     0.029 A 
ATOM     63  C   UNL     1       6.135 -16.257  -5.186  1.00  0.00     0.049 A 
ATOM     64  H   UNL     1       8.011 -16.453  -4.279  1.00  0.00     0.167 HD
ATOM     65  C   UNL     1      11.560 -15.637  -1.405  1.00  0.00     0.034 A 
ATOM     66  C   UNL     1       5.420 -17.282  -4.640  1.00  0.00     0.034 A 
ATOM     67  C   UNL     1      11.937 -16.741  -2.264  1.00  0.00     0.049 A 
ATOM     68  C   UNL     1       6.414 -18.151  -3.944  1.00  0.00     0.074 A 
ATOM     69  C   UNL     1      12.843 -16.884  -3.298  1.00  0.00     0.029 A 
ATOM     70  N   UNL     1      11.049 -17.788  -2.401  1.00  0.00    -0.354 N 
ATOM     71  N   UNL     1       7.360 -18.797  -4.578  1.00  0.00    -0.248 NA
ATOM     72  C   UNL     1       6.705 -17.862  -2.544  1.00  0.00     0.031 C 
ATOM     73  C   UNL     1      12.177 -17.693  -4.265  1.00  0.00     0.029 A 
ATOM     74  C   UNL     1      10.942 -18.084  -3.740  1.00  0.00     0.049 A 
ATOM     75  H   UNL     1      10.574 -18.244  -1.669  1.00  0.00     0.167 HD
ATOM     76  C   UNL     1       8.503 -18.632  -3.805  1.00  0.00     0.074 A 
ATOM     77  C   UNL     1       8.021 -18.106  -2.527  1.00  0.00     0.031 C 
ATOM     78  C   UNL     1       9.750 -18.631  -4.369  1.00  0.00     0.034 A 
BRANCH  65  79
ATOM     79  C   UNL     1      11.238 -15.811   0.068  1.00  0.00     0.023 A 
ATOM     80  C   UNL     1      11.713 -16.987   0.668  1.00  0.00     0.031 A 
ATOM     81  C   UNL     1      10.300 -15.075   0.837  1.00  0.00     0.131 A 
ATOM     82  C   UNL     1      11.177 -17.448   1.881  1.00  0.00     0.055 A 
ATOM     83  C   UNL     1       9.814 -15.508   2.073  1.00  0.00     0.041 A 
ATOM     84  F   UNL     1       9.731 -13.936   0.432  1.00  0.00    -0.206 F 
ATOM     85  C   UNL     1      10.223 -16.721   2.586  1.00  0.00     0.022 A 
BRANCH  82  86
ATOM     86  S   UNL     1      11.623 -19.111   2.424  1.00  0.00     0.124 S 
ATOM     87  O   UNL     1      11.311 -19.898   1.236  1.00  0.00    -0.237 OA
ATOM     88  O   UNL     1      13.038 -18.949   2.739  1.00  0.00    -0.237 OA
ATOM     89  O   UNL     1      10.748 -19.335   3.572  1.00  0.00    -0.744 OA
ENDBRANCH  82  86
ENDBRANCH  65  79
BRANCH  66  90
ATOM     90  C   UNL     1       3.953 -17.276  -4.338  1.00  0.00     0.023 A 
ATOM     91  C   UNL     1       3.192 -18.446  -4.111  1.00  0.00     0.031 A 
ATOM     92  C   UNL     1       3.307 -16.049  -4.052  1.00  0.00     0.131 A 
ATOM     93  C   UNL     1       1.855 -18.353  -3.640  1.00  0.00     0.055 A 
ATOM     94  C   UNL     1       1.990 -15.963  -3.593  1.00  0.00     0.041 A 
ATOM     95  F   UNL     1       3.963 -14.881  -4.131  1.00  0.00    -0.206 F 
ATOM     96  C   UNL     1       1.259 -17.118  -3.379  1.00  0.00     0.022 A 
BRANCH  93  97
ATOM     97  S   UNL     1       0.874 -19.854  -3.291  1.00  0.00     0.124 S 
ATOM     98  O   UNL     1       0.721 -20.442  -4.616  1.00  0.00    -0.237 OA
ATOM     99  O   UNL     1       1.726 -20.576  -2.354  1.00  0.00    -0.237 OA
ATOM    100  O   UNL     1      -0.363 -19.328  -2.709  1.00  0.00    -0.744 OA
ENDBRANCH  93  97
ENDBRANCH  66  90
BRANCH  78 101
ATOM    101  C   UNL     1       9.887 -19.050  -5.824  1.00  0.00     0.023 A 
ATOM    102  C   UNL     1       9.314 -18.371  -6.926  1.00  0.00     0.031 A 
ATOM    103  C   UNL     1      10.780 -20.099  -6.101  1.00  0.00     0.131 A 
ATOM    104  C   UNL     1       9.647 -18.755  -8.243  1.00  0.00     0.055 A 
ATOM    105  C   UNL     1      11.123 -20.460  -7.403  1.00  0.00     0.041 A 
ATOM    106  F   UNL     1      11.380 -20.762  -5.098  1.00  0.00    -0.206 F 
ATOM    107  C   UNL     1      10.556 -19.790  -8.480  1.00  0.00     0.022 A 
BRANCH 104 108
ATOM    108  S   UNL     1       8.906 -17.910  -9.682  1.00  0.00     0.124 S 
ATOM    109  O   UNL     1       7.475 -17.973  -9.408  1.00  0.00    -0.237 OA
ATOM    110  O   UNL     1       9.513 -16.584  -9.618  1.00  0.00    -0.237 OA
ATOM    111  O   UNL     1       9.344 -18.723 -10.819  1.00  0.00    -0.744 OA
ENDBRANCH 104 108
ENDBRANCH  78 101
ENDBRANCH  52  53
ENDBRANCH  45  47
ENDBRANCH  44  45
ENDBRANCH  43  44
ENDBRANCH  42  43
ENDBRANCH  41  42
ENDBRANCH  40  41
ENDBRANCH  39  40
ENDBRANCH  38  39
ENDBRANCH   1  38
TORSDOF 28
