REMARK SMILES O=C(N[C@H](C(=O)OCCOCCOCCOCCOC(=O)c1ccc(-c2c3nc(c(-c4cc(S(=O)(=O)[O-])ccc4F)c4ccc([nH]4)c(-c4cc(S(=O)(=O)[O-])ccc4F)c4nc(c(-c5cc(S(=O)(=O)[O-])ccc5F)c5ccc2[nH]5)C=C4)C=C3)cc1)c1ccccc1F)c1ccc(C[NH+]2CCCCC2)cc1
REMARK SMILES IDX 12 1 11 2 10 3 9 4 8 5 7 6 5 7 6 8 4 9 3 10 1 11 2 12 92 14
REMARK SMILES IDX 93 15 104 16 94 17 103 18 95 19 96 20 97 21 98 22 102 23
REMARK SMILES IDX 99 25 101 26 100 27 85 28 86 29 90 30 87 31 89 32 91 33
REMARK SMILES IDX 88 34 13 35 14 36 15 37 16 38 17 39 18 40 19 41 20 42 21 43
REMARK SMILES IDX 22 44 23 45 84 46 24 47 83 48 25 49 26 50 27 51 77 52 28 53
REMARK SMILES IDX 82 54 76 55 78 56 29 57 81 58 75 59 74 60 30 62 62 63 42 64
REMARK SMILES IDX 61 65 43 66 46 67 60 68 79 69 44 70 45 71 59 73 80 74 47 75
REMARK SMILES IDX 31 76 32 77 40 78 33 79 39 80 41 81 38 82 34 83 35 84 36 85
REMARK SMILES IDX 37 86 63 87 64 88 72 89 65 90 71 91 73 92 70 93 66 94 67 95
REMARK SMILES IDX 68 96 69 97 48 98 49 99 57 100 50 101 56 102 58 103 55 104
REMARK SMILES IDX 51 105 52 106 53 107 54 108
REMARK H PARENT 3 13 97 24 78 61 46 72
REMARK Flexibility Score: inf
ROOT
ATOM      1  C   UNL     1       2.732   0.446   2.028  1.00  0.00     0.188 C 
ENDROOT
BRANCH   1   2
ATOM      2  C   UNL     1       1.815   1.636   1.664  1.00  0.00     0.188 C 
BRANCH   2   3
ATOM      3  O   UNL     1       0.582   1.274   1.058  1.00  0.00    -0.376 OA
BRANCH   3   4
ATOM      4  C   UNL     1       0.484   1.393  -0.352  1.00  0.00     0.202 C 
BRANCH   4   5
ATOM      5  C   UNL     1       1.398   0.466  -1.169  1.00  0.00     0.261 C 
BRANCH   5   6
ATOM      6  O   UNL     1       2.809   0.571  -0.882  1.00  0.00    -0.461 OA
BRANCH   6   7
ATOM      7  C   UNL     1       3.394   1.774  -1.125  1.00  0.00     0.333 C 
ATOM      8  O   UNL     1       2.781   2.696  -1.645  1.00  0.00    -0.249 OA
BRANCH   7   9
ATOM      9  C   UNL     1       4.892   1.788  -0.739  1.00  0.00     0.226 C 
BRANCH   9  10
ATOM     10  N   UNL     1       5.601   2.699  -1.670  1.00  0.00    -0.335 N 
ATOM     11  O   UNL     1       6.030   4.498  -2.945  1.00  0.00    -0.269 OA
ATOM     12  C   UNL     1       5.520   4.055  -1.918  1.00  0.00     0.252 C 
ATOM     13  H   UNL     1       6.269   2.240  -2.229  1.00  0.00     0.165 HD
BRANCH  12  14
ATOM     14  C   UNL     1       4.910   5.012  -0.971  1.00  0.00     0.039 A 
ATOM     15  C   UNL     1       5.724   5.579   0.014  1.00  0.00     0.014 A 
ATOM     16  C   UNL     1       3.560   5.372  -1.032  1.00  0.00     0.014 A 
ATOM     17  C   UNL     1       5.147   6.335   1.047  1.00  0.00     0.010 A 
ATOM     18  C   UNL     1       2.982   6.117   0.011  1.00  0.00     0.010 A 
ATOM     19  C   UNL     1       3.755   6.549   1.101  1.00  0.00     0.006 A 
BRANCH  19  20
ATOM     20  C   UNL     1       3.122   7.239   2.299  1.00  0.00     0.299 C 
BRANCH  20  21
ATOM     21  N   UNL     1       2.456   6.432   3.341  1.00  0.00    -0.331 N 
ATOM     22  C   UNL     1       1.197   5.808   2.925  1.00  0.00     0.262 C 
ATOM     23  C   UNL     1       3.318   5.455   4.002  1.00  0.00     0.262 C 
ATOM     24  H   UNL     1       2.221   7.141   4.036  1.00  0.00     0.348 HD
ATOM     25  C   UNL     1       0.445   5.265   4.149  1.00  0.00     0.062 C 
ATOM     26  C   UNL     1       2.666   4.864   5.257  1.00  0.00     0.062 C 
ATOM     27  C   UNL     1       1.296   4.281   4.941  1.00  0.00     0.012 C 
ENDBRANCH  20  21
ENDBRANCH  19  20
ENDBRANCH  12  14
ENDBRANCH   9  10
BRANCH   9  28
ATOM     28  C   UNL     1       5.347   1.847   0.719  1.00  0.00     0.021 A 
ATOM     29  C   UNL     1       6.082   0.814   1.335  1.00  0.00     0.009 A 
ATOM     30  C   UNL     1       5.072   2.928   1.539  1.00  0.00     0.129 A 
ATOM     31  C   UNL     1       6.581   0.941   2.650  1.00  0.00     0.001 A 
ATOM     32  C   UNL     1       5.688   3.138   2.775  1.00  0.00     0.039 A 
ATOM     33  F   UNL     1       4.068   3.733   1.207  1.00  0.00    -0.207 F 
ATOM     34  C   UNL     1       6.441   2.134   3.347  1.00  0.00     0.003 A 
ENDBRANCH   9  28
ENDBRANCH   7   9
ENDBRANCH   6   7
ENDBRANCH   5   6
ENDBRANCH   4   5
ENDBRANCH   3   4
ENDBRANCH   2   3
ENDBRANCH   1   2
BRANCH   1  35
ATOM     35  O   UNL     1       2.237  -0.696   2.700  1.00  0.00    -0.377 OA
BRANCH  35  36
ATOM     36  C   UNL     1       0.863  -0.974   2.542  1.00  0.00     0.188 C 
BRANCH  36  37
ATOM     37  C   UNL     1      -0.009  -0.177   3.523  1.00  0.00     0.188 C 
BRANCH  37  38
ATOM     38  O   UNL     1       0.605   0.889   4.221  1.00  0.00    -0.376 OA
BRANCH  38  39
ATOM     39  C   UNL     1       1.627   0.731   5.191  1.00  0.00     0.202 C 
BRANCH  39  40
ATOM     40  C   UNL     1       2.335  -0.558   5.638  1.00  0.00     0.261 C 
BRANCH  40  41
ATOM     41  O   UNL     1       1.848  -1.809   5.191  1.00  0.00    -0.460 OA
BRANCH  41  42
ATOM     42  C   UNL     1       0.708  -2.269   5.753  1.00  0.00     0.338 C 
ATOM     43  O   UNL     1       0.021  -1.732   6.582  1.00  0.00    -0.246 OA
BRANCH  42  44
ATOM     44  C   UNL     1       0.393  -3.486   4.975  1.00  0.00     0.060 A 
ATOM     45  C   UNL     1      -0.796  -3.549   4.235  1.00  0.00     0.016 A 
ATOM     46  C   UNL     1       1.349  -4.502   4.894  1.00  0.00     0.016 A 
ATOM     47  C   UNL     1      -1.032  -4.639   3.401  1.00  0.00     0.010 A 
ATOM     48  C   UNL     1       1.092  -5.611   4.101  1.00  0.00     0.010 A 
ATOM     49  C   UNL     1      -0.111  -5.692   3.379  1.00  0.00    -0.014 A 
BRANCH  49  50
ATOM     50  C   UNL     1      -0.515  -7.018   2.879  1.00  0.00     0.031 A 
ATOM     51  C   UNL     1      -1.075  -7.967   3.897  1.00  0.00     0.074 A 
ATOM     52  C   UNL     1      -0.320  -7.382   1.602  1.00  0.00     0.049 A 
ATOM     53  N   UNL     1      -1.290  -9.250   3.808  1.00  0.00    -0.248 NA
ATOM     54  C   UNL     1      -1.411  -7.383   5.208  1.00  0.00     0.031 C 
ATOM     55  C   UNL     1       0.157  -6.508   0.533  1.00  0.00     0.029 A 
ATOM     56  N   UNL     1      -0.475  -8.603   1.001  1.00  0.00    -0.354 N 
ATOM     57  C   UNL     1      -1.772  -9.629   5.056  1.00  0.00     0.074 A 
ATOM     58  C   UNL     1      -1.782  -8.451   5.892  1.00  0.00     0.031 C 
ATOM     59  C   UNL     1       0.282  -7.232  -0.594  1.00  0.00     0.029 A 
ATOM     60  C   UNL     1      -0.048  -8.627  -0.306  1.00  0.00     0.049 A 
ATOM     61  H   UNL     1      -0.854  -9.387   1.459  1.00  0.00     0.167 HD
ATOM     62  C   UNL     1      -2.171 -10.857   5.461  1.00  0.00     0.034 A 
ATOM     63  C   UNL     1       0.098  -9.673  -1.144  1.00  0.00     0.034 A 
ATOM     64  C   UNL     1      -2.114 -12.016   4.611  1.00  0.00     0.049 A 
ATOM     65  C   UNL     1      -0.243 -11.058  -0.636  1.00  0.00     0.074 A 
ATOM     66  C   UNL     1      -2.467 -13.319   4.905  1.00  0.00     0.029 A 
ATOM     67  N   UNL     1      -1.661 -12.008   3.297  1.00  0.00    -0.354 N 
ATOM     68  N   UNL     1      -0.678 -11.421   0.550  1.00  0.00    -0.248 NA
ATOM     69  C   UNL     1      -0.074 -12.174  -1.577  1.00  0.00     0.031 C 
ATOM     70  C   UNL     1      -2.159 -14.110   3.796  1.00  0.00     0.029 A 
ATOM     71  C   UNL     1      -1.704 -13.287   2.776  1.00  0.00     0.049 A 
ATOM     72  H   UNL     1      -1.353 -11.209   2.811  1.00  0.00     0.167 HD
ATOM     73  C   UNL     1      -0.886 -12.797   0.477  1.00  0.00     0.074 A 
ATOM     74  C   UNL     1      -0.520 -13.199  -0.865  1.00  0.00     0.031 C 
ATOM     75  C   UNL     1      -1.351 -13.652   1.423  1.00  0.00     0.034 A 
BRANCH  62  76
ATOM     76  C   UNL     1      -2.634 -10.996   6.888  1.00  0.00     0.023 A 
ATOM     77  C   UNL     1      -3.761 -10.305   7.367  1.00  0.00     0.031 A 
ATOM     78  C   UNL     1      -1.910 -11.787   7.797  1.00  0.00     0.131 A 
ATOM     79  C   UNL     1      -4.087 -10.359   8.729  1.00  0.00     0.055 A 
ATOM     80  C   UNL     1      -2.293 -11.907   9.133  1.00  0.00     0.041 A 
ATOM     81  F   UNL     1      -0.804 -12.440   7.406  1.00  0.00    -0.206 F 
ATOM     82  C   UNL     1      -3.379 -11.179   9.610  1.00  0.00     0.022 A 
BRANCH  79  83
ATOM     83  S   UNL     1      -5.353  -9.223   9.360  1.00  0.00     0.124 S 
ATOM     84  O   UNL     1      -4.778  -7.924   9.019  1.00  0.00    -0.237 OA
ATOM     85  O   UNL     1      -6.535  -9.616   8.603  1.00  0.00    -0.237 OA
ATOM     86  O   UNL     1      -5.398  -9.521  10.790  1.00  0.00    -0.744 OA
ENDBRANCH  79  83
ENDBRANCH  62  76
BRANCH  63  87
ATOM     87  C   UNL     1       0.623  -9.477  -2.526  1.00  0.00     0.023 A 
ATOM     88  C   UNL     1      -0.156  -9.818  -3.643  1.00  0.00     0.031 A 
ATOM     89  C   UNL     1       1.931  -9.013  -2.755  1.00  0.00     0.131 A 
ATOM     90  C   UNL     1       0.397  -9.748  -4.931  1.00  0.00     0.055 A 
ATOM     91  C   UNL     1       2.455  -8.884  -4.044  1.00  0.00     0.041 A 
ATOM     92  F   UNL     1       2.724  -8.675  -1.726  1.00  0.00    -0.206 F 
ATOM     93  C   UNL     1       1.691  -9.269  -5.141  1.00  0.00     0.022 A 
BRANCH  90  94
ATOM     94  S   UNL     1      -0.566 -10.406  -6.320  1.00  0.00     0.124 S 
ATOM     95  O   UNL     1      -0.795 -11.782  -5.893  1.00  0.00    -0.237 OA
ATOM     96  O   UNL     1      -1.732  -9.530  -6.320  1.00  0.00    -0.237 OA
ATOM     97  O   UNL     1       0.333 -10.247  -7.461  1.00  0.00    -0.744 OA
ENDBRANCH  90  94
ENDBRANCH  63  87
BRANCH  75  98
ATOM     98  C   UNL     1      -1.587 -15.085   1.018  1.00  0.00     0.023 A 
ATOM     99  C   UNL     1      -0.534 -15.966   0.723  1.00  0.00     0.031 A 
ATOM    100  C   UNL     1      -2.902 -15.584   0.980  1.00  0.00     0.131 A 
ATOM    101  C   UNL     1      -0.818 -17.295   0.373  1.00  0.00     0.055 A 
ATOM    102  C   UNL     1      -3.174 -16.920   0.690  1.00  0.00     0.041 A 
ATOM    103  F   UNL     1      -3.945 -14.783   1.253  1.00  0.00    -0.206 F 
ATOM    104  C   UNL     1      -2.128 -17.782   0.377  1.00  0.00     0.022 A 
BRANCH 101 105
ATOM    105  S   UNL     1       0.546 -18.371  -0.148  1.00  0.00     0.124 S 
ATOM    106  O   UNL     1       1.064 -17.661  -1.313  1.00  0.00    -0.237 OA
ATOM    107  O   UNL     1       1.407 -18.378   1.029  1.00  0.00    -0.237 OA
ATOM    108  O   UNL     1      -0.114 -19.643  -0.440  1.00  0.00    -0.744 OA
ENDBRANCH 101 105
ENDBRANCH  75  98
ENDBRANCH  49  50
ENDBRANCH  42  44
ENDBRANCH  41  42
ENDBRANCH  40  41
ENDBRANCH  39  40
ENDBRANCH  38  39
ENDBRANCH  37  38
ENDBRANCH  36  37
ENDBRANCH  35  36
ENDBRANCH   1  35
TORSDOF 28
