REMARK SMILES Cc1nnc(SCC(=O)Nc2cccc(C(=O)OCCOCCOCCOCCOC(=O)c3ccc(-c4c5nc(c(-c6cc(S(=O)(=O)[O-])ccc6F)c6ccc([nH]6)c(-c6cc(S(=O)(=O)[O-])ccc6F)c6nc(c(-c7cc(S(=O)(=O)[O-])ccc7F)c7ccc4[nH]7)C=C6)C=C5)cc3)c2)n1-c1ccccc1
REMARK SMILES IDX 23 1 22 2 21 3 20 4 19 5 18 6 16 7 17 8 15 9 11 10 12 11
REMARK SMILES IDX 96 12 13 13 14 14 10 15 8 16 9 17 7 19 6 20 5 21 1 22 2 23
REMARK SMILES IDX 3 24 97 25 4 26 98 27 99 28 103 29 100 30 102 31 101 32
REMARK SMILES IDX 24 33 25 34 26 35 27 36 28 37 29 38 30 39 31 40 32 41 33 42
REMARK SMILES IDX 34 43 95 44 35 45 94 46 36 47 37 48 38 49 88 50 39 51 93 52
REMARK SMILES IDX 87 53 89 54 40 55 92 56 86 57 85 58 41 60 73 61 53 62 72 63
REMARK SMILES IDX 54 64 57 65 71 66 90 67 55 68 56 69 70 71 91 72 58 73 42 74
REMARK SMILES IDX 43 75 51 76 44 77 50 78 52 79 49 80 45 81 46 82 47 83 48 84
REMARK SMILES IDX 74 85 75 86 83 87 76 88 82 89 84 90 81 91 77 92 78 93 79 94
REMARK SMILES IDX 80 95 59 96 60 97 68 98 61 99 67 100 69 101 66 102 62 103
REMARK SMILES IDX 63 104 64 105 65 106
REMARK H PARENT 10 18 89 59 57 70
REMARK Flexibility Score: inf
ROOT
ATOM      1  C   UNL     1       1.789  -3.962   6.771  1.00  0.00     0.188 C 
ENDROOT
BRANCH   1   2
ATOM      2  C   UNL     1       1.308  -4.589   8.098  1.00  0.00     0.188 C 
BRANCH   2   3
ATOM      3  O   UNL     1       0.374  -5.662   8.147  1.00  0.00    -0.376 OA
BRANCH   3   4
ATOM      4  C   UNL     1      -0.758  -5.748   7.296  1.00  0.00     0.202 C 
BRANCH   4   5
ATOM      5  C   UNL     1      -1.665  -4.551   6.982  1.00  0.00     0.261 C 
BRANCH   5   6
ATOM      6  O   UNL     1      -1.109  -3.273   7.249  1.00  0.00    -0.460 OA
BRANCH   6   7
ATOM      7  C   UNL     1      -1.238  -2.763   8.486  1.00  0.00     0.338 C 
ATOM      8  O   UNL     1      -1.887  -3.218   9.422  1.00  0.00    -0.246 OA
BRANCH   7   9
ATOM      9  C   UNL     1      -0.307  -1.613   8.572  1.00  0.00     0.062 A 
ATOM     10  C   UNL     1       0.934   0.117   7.436  1.00  0.00     0.042 A 
ATOM     11  C   UNL     1       1.639   0.383   8.610  1.00  0.00     0.026 A 
ATOM     12  C   UNL     1       0.032  -0.923   7.409  1.00  0.00     0.041 A 
ATOM     13  C   UNL     1       1.335  -0.320   9.778  1.00  0.00     0.003 A 
ATOM     14  C   UNL     1       0.336  -1.296   9.769  1.00  0.00     0.016 A 
BRANCH  10  15
ATOM     15  N   UNL     1       1.122   0.960   6.344  1.00  0.00    -0.325 N 
ATOM     16  C   UNL     1       0.154   1.539   5.582  1.00  0.00     0.234 C 
ATOM     17  O   UNL     1       0.448   2.693   5.233  1.00  0.00    -0.274 OA
ATOM     18  H   UNL     1       2.054   1.159   6.097  1.00  0.00     0.169 HD
BRANCH  16  19
ATOM     19  C   UNL     1      -1.264   1.035   5.375  1.00  0.00     0.178 C 
BRANCH  19  20
ATOM     20  S   UNL     1      -1.629  -0.456   4.435  1.00  0.00    -0.076 SA
BRANCH  20  21
ATOM     21  C   UNL     1      -0.440  -0.742   3.216  1.00  0.00     0.196 A 
ATOM     22  C   UNL     1       1.090  -0.280  -0.050  1.00  0.00     0.090 C 
ATOM     23  C   UNL     1       0.582  -0.713   1.272  1.00  0.00     0.135 A 
ATOM     24  N   UNL     1       0.791  -1.889   1.831  1.00  0.00    -0.134 NA
ATOM     25  N   UNL     1      -0.196   0.051   2.116  1.00  0.00    -0.274 N 
ATOM     26  N   UNL     1       0.141  -1.910   3.042  1.00  0.00    -0.123 NA
BRANCH  25  27
ATOM     27  C   UNL     1      -0.620   1.370   1.926  1.00  0.00     0.049 A 
ATOM     28  C   UNL     1       0.150   2.386   2.484  1.00  0.00     0.027 A 
ATOM     29  C   UNL     1      -1.888   1.617   1.403  1.00  0.00     0.027 A 
ATOM     30  C   UNL     1      -0.407   3.653   2.629  1.00  0.00     0.002 A 
ATOM     31  C   UNL     1      -2.418   2.900   1.516  1.00  0.00     0.002 A 
ATOM     32  C   UNL     1      -1.696   3.905   2.164  1.00  0.00     0.000 A 
ENDBRANCH  25  27
ENDBRANCH  20  21
ENDBRANCH  19  20
ENDBRANCH  16  19
ENDBRANCH  10  15
ENDBRANCH   7   9
ENDBRANCH   6   7
ENDBRANCH   5   6
ENDBRANCH   4   5
ENDBRANCH   3   4
ENDBRANCH   2   3
ENDBRANCH   1   2
BRANCH   1  33
ATOM     33  O   UNL     1       1.043  -4.380   5.646  1.00  0.00    -0.377 OA
BRANCH  33  34
ATOM     34  C   UNL     1       1.637  -5.423   4.872  1.00  0.00     0.188 C 
BRANCH  34  35
ATOM     35  C   UNL     1       2.211  -6.652   5.629  1.00  0.00     0.188 C 
BRANCH  35  36
ATOM     36  O   UNL     1       2.882  -6.351   6.845  1.00  0.00    -0.376 OA
BRANCH  36  37
ATOM     37  C   UNL     1       4.290  -6.367   6.991  1.00  0.00     0.202 C 
BRANCH  37  38
ATOM     38  C   UNL     1       5.145  -5.435   6.142  1.00  0.00     0.261 C 
BRANCH  38  39
ATOM     39  O   UNL     1       4.665  -5.242   4.830  1.00  0.00    -0.460 OA
BRANCH  39  40
ATOM     40  C   UNL     1       4.829  -6.306   4.024  1.00  0.00     0.338 C 
ATOM     41  O   UNL     1       5.052  -7.457   4.365  1.00  0.00    -0.246 OA
BRANCH  40  42
ATOM     42  C   UNL     1       4.858  -5.822   2.646  1.00  0.00     0.060 A 
ATOM     43  C   UNL     1       5.011  -6.796   1.665  1.00  0.00     0.016 A 
ATOM     44  C   UNL     1       5.110  -4.460   2.407  1.00  0.00     0.016 A 
ATOM     45  C   UNL     1       5.688  -6.440   0.526  1.00  0.00     0.010 A 
ATOM     46  C   UNL     1       5.798  -4.111   1.274  1.00  0.00     0.010 A 
ATOM     47  C   UNL     1       6.166  -5.126   0.401  1.00  0.00    -0.014 A 
BRANCH  47  48
ATOM     48  C   UNL     1       6.933  -4.804  -0.779  1.00  0.00     0.031 A 
ATOM     49  C   UNL     1       6.080  -4.846  -1.980  1.00  0.00     0.074 A 
ATOM     50  C   UNL     1       8.239  -4.479  -0.769  1.00  0.00     0.049 A 
ATOM     51  N   UNL     1       6.049  -5.787  -2.861  1.00  0.00    -0.248 NA
ATOM     52  C   UNL     1       4.961  -3.894  -2.075  1.00  0.00     0.031 C 
ATOM     53  C   UNL     1       9.113  -4.222   0.376  1.00  0.00     0.029 A 
ATOM     54  N   UNL     1       9.056  -4.244  -1.830  1.00  0.00    -0.354 N 
ATOM     55  C   UNL     1       5.093  -5.390  -3.780  1.00  0.00     0.074 A 
ATOM     56  C   UNL     1       4.304  -4.382  -3.128  1.00  0.00     0.031 C 
ATOM     57  C   UNL     1      10.266  -3.656  -0.058  1.00  0.00     0.029 A 
ATOM     58  C   UNL     1      10.268  -3.635  -1.514  1.00  0.00     0.049 A 
ATOM     59  H   UNL     1       8.810  -4.487  -2.752  1.00  0.00     0.167 HD
ATOM     60  C   UNL     1       5.249  -5.704  -5.092  1.00  0.00     0.034 A 
ATOM     61  C   UNL     1      11.177  -3.121  -2.391  1.00  0.00     0.034 A 
ATOM     62  C   UNL     1       6.155  -6.825  -5.250  1.00  0.00     0.049 A 
ATOM     63  C   UNL     1      10.947  -3.812  -3.687  1.00  0.00     0.074 A 
ATOM     64  C   UNL     1       6.172  -8.121  -4.766  1.00  0.00     0.029 A 
ATOM     65  N   UNL     1       7.451  -6.565  -5.643  1.00  0.00    -0.354 N 
ATOM     66  N   UNL     1      11.168  -5.087  -3.857  1.00  0.00    -0.248 NA
ATOM     67  C   UNL     1       9.995  -3.222  -4.617  1.00  0.00     0.031 C 
ATOM     68  C   UNL     1       7.536  -8.376  -4.434  1.00  0.00     0.029 A 
ATOM     69  C   UNL     1       8.296  -7.269  -4.817  1.00  0.00     0.049 A 
ATOM     70  H   UNL     1       7.723  -5.978  -6.385  1.00  0.00     0.167 HD
ATOM     71  C   UNL     1      10.078  -5.546  -4.582  1.00  0.00     0.074 A 
ATOM     72  C   UNL     1       9.435  -4.337  -5.099  1.00  0.00     0.031 C 
ATOM     73  C   UNL     1       9.634  -6.833  -4.455  1.00  0.00     0.034 A 
BRANCH  60  74
ATOM     74  C   UNL     1       4.936  -4.735  -6.208  1.00  0.00     0.023 A 
ATOM     75  C   UNL     1       5.166  -5.182  -7.519  1.00  0.00     0.031 A 
ATOM     76  C   UNL     1       4.720  -3.342  -6.061  1.00  0.00     0.131 A 
ATOM     77  C   UNL     1       5.282  -4.268  -8.579  1.00  0.00     0.055 A 
ATOM     78  C   UNL     1       4.770  -2.446  -7.130  1.00  0.00     0.041 A 
ATOM     79  F   UNL     1       4.543  -2.746  -4.877  1.00  0.00    -0.206 F 
ATOM     80  C   UNL     1       5.086  -2.902  -8.394  1.00  0.00     0.022 A 
BRANCH  77  81
ATOM     81  S   UNL     1       5.875  -4.882 -10.172  1.00  0.00     0.124 S 
ATOM     82  O   UNL     1       7.133  -5.515  -9.789  1.00  0.00    -0.237 OA
ATOM     83  O   UNL     1       4.794  -5.779 -10.566  1.00  0.00    -0.237 OA
ATOM     84  O   UNL     1       6.003  -3.669 -10.975  1.00  0.00    -0.744 OA
ENDBRANCH  77  81
ENDBRANCH  60  74
BRANCH  61  85
ATOM     85  C   UNL     1      11.932  -1.835  -2.274  1.00  0.00     0.023 A 
ATOM     86  C   UNL     1      13.047  -1.510  -3.084  1.00  0.00     0.031 A 
ATOM     87  C   UNL     1      11.382  -0.778  -1.513  1.00  0.00     0.131 A 
ATOM     88  C   UNL     1      13.554  -0.185  -3.110  1.00  0.00     0.055 A 
ATOM     89  C   UNL     1      11.883   0.525  -1.548  1.00  0.00     0.041 A 
ATOM     90  F   UNL     1      10.276  -0.955  -0.774  1.00  0.00    -0.206 F 
ATOM     91  C   UNL     1      12.965   0.831  -2.354  1.00  0.00     0.022 A 
BRANCH  88  92
ATOM     92  S   UNL     1      14.953   0.271  -4.194  1.00  0.00     0.124 S 
ATOM     93  O   UNL     1      16.063  -0.460  -3.595  1.00  0.00    -0.237 OA
ATOM     94  O   UNL     1      14.502  -0.189  -5.502  1.00  0.00    -0.237 OA
ATOM     95  O   UNL     1      15.033   1.726  -4.056  1.00  0.00    -0.744 OA
ENDBRANCH  88  92
ENDBRANCH  61  85
BRANCH  73  96
ATOM     96  C   UNL     1      10.525  -7.834  -3.736  1.00  0.00     0.023 A 
ATOM     97  C   UNL     1      11.016  -7.697  -2.414  1.00  0.00     0.031 A 
ATOM     98  C   UNL     1      10.811  -9.034  -4.410  1.00  0.00     0.131 A 
ATOM     99  C   UNL     1      11.776  -8.734  -1.830  1.00  0.00     0.055 A 
ATOM    100  C   UNL     1      11.539 -10.067  -3.820  1.00  0.00     0.041 A 
ATOM    101  F   UNL     1      10.359  -9.238  -5.658  1.00  0.00    -0.206 F 
ATOM    102  C   UNL     1      12.031  -9.918  -2.530  1.00  0.00     0.022 A 
BRANCH  99 103
ATOM    103  S   UNL     1      12.480  -8.556  -0.156  1.00  0.00     0.124 S 
ATOM    104  O   UNL     1      13.093  -7.233  -0.181  1.00  0.00    -0.237 OA
ATOM    105  O   UNL     1      11.305  -8.701   0.699  1.00  0.00    -0.237 OA
ATOM    106  O   UNL     1      13.433  -9.665  -0.068  1.00  0.00    -0.744 OA
ENDBRANCH  99 103
ENDBRANCH  73  96
ENDBRANCH  47  48
ENDBRANCH  40  42
ENDBRANCH  39  40
ENDBRANCH  38  39
ENDBRANCH  37  38
ENDBRANCH  36  37
ENDBRANCH  35  36
ENDBRANCH  34  35
ENDBRANCH  33  34
ENDBRANCH   1  33
TORSDOF 28
