REMARK SMILES COc1ccccc1-c1ccc(C(=O)OCCOCCOCCOCCOC(=O)c2ccc(-c3c4nc(c(-c5cc(S(=O)(=O)[O-])ccc5F)c5ccc([nH]5)c(-c5cc(S(=O)(=O)[O-])ccc5F)c5nc(c(-c6cc(S(=O)(=O)[O-])ccc6F)c6ccc3[nH]6)C=C5)C=C4)cc2)c(O)c1
REMARK SMILES IDX 22 1 21 2 20 3 19 4 18 5 17 6 16 7 15 8 13 9 14 10 12 11
REMARK SMILES IDX 9 12 10 13 95 14 11 15 93 16 8 17 3 18 4 19 5 20 7 21 6 22
REMARK SMILES IDX 2 23 1 24 94 25 23 27 24 28 25 29 26 30 27 31 28 32 29 33
REMARK SMILES IDX 30 34 31 35 92 36 32 37 91 38 33 39 34 40 35 41 85 42 36 43
REMARK SMILES IDX 90 44 84 45 86 46 37 47 89 48 83 49 82 50 38 52 70 53 50 54
REMARK SMILES IDX 69 55 51 56 54 57 68 58 87 59 52 60 53 61 67 63 88 64 55 65
REMARK SMILES IDX 39 66 40 67 48 68 41 69 47 70 49 71 46 72 42 73 43 74 44 75
REMARK SMILES IDX 45 76 71 77 72 78 80 79 73 80 79 81 81 82 78 83 74 84 75 85
REMARK SMILES IDX 76 86 77 87 56 88 57 89 65 90 58 91 64 92 66 93 63 94 59 95
REMARK SMILES IDX 60 96 61 97 62 98
REMARK H PARENT 94 26 86 51 54 62
REMARK Flexibility Score: inf
ROOT
ATOM      1  C   UNL     1       9.390  -1.455   2.162  1.00  0.00     0.188 C 
ENDROOT
BRANCH   1   2
ATOM      2  O   UNL     1       8.171  -1.678   1.461  1.00  0.00    -0.377 OA
BRANCH   2   3
ATOM      3  C   UNL     1       7.892  -0.957   0.270  1.00  0.00     0.188 C 
BRANCH   3   4
ATOM      4  C   UNL     1       8.177   0.562   0.187  1.00  0.00     0.188 C 
BRANCH   4   5
ATOM      5  O   UNL     1       8.989   1.070   1.226  1.00  0.00    -0.376 OA
BRANCH   5   6
ATOM      6  C   UNL     1       8.432   1.875   2.249  1.00  0.00     0.202 C 
BRANCH   6   7
ATOM      7  C   UNL     1       7.180   1.426   3.014  1.00  0.00     0.261 C 
BRANCH   7   8
ATOM      8  O   UNL     1       6.263   0.628   2.270  1.00  0.00    -0.460 OA
BRANCH   8   9
ATOM      9  C   UNL     1       5.335   1.277   1.539  1.00  0.00     0.341 C 
ATOM     10  O   UNL     1       5.213   2.486   1.422  1.00  0.00    -0.246 OA
BRANCH   9  11
ATOM     11  C   UNL     1       4.640   0.298   0.676  1.00  0.00     0.101 A 
ATOM     12  C   UNL     1       3.201  -1.378  -1.048  1.00  0.00    -0.011 A 
ATOM     13  C   UNL     1       3.803  -0.210  -1.541  1.00  0.00     0.010 A 
ATOM     14  C   UNL     1       3.454  -1.770   0.279  1.00  0.00     0.056 A 
ATOM     15  C   UNL     1       4.504   0.632  -0.680  1.00  0.00     0.020 A 
ATOM     16  C   UNL     1       4.158  -0.928   1.140  1.00  0.00     0.130 A 
BRANCH  12  17
ATOM     17  C   UNL     1       2.147  -2.037  -1.830  1.00  0.00     0.024 A 
ATOM     18  C   UNL     1       0.804  -2.027  -1.391  1.00  0.00     0.126 A 
ATOM     19  C   UNL     1      -0.199  -2.648  -2.136  1.00  0.00     0.047 A 
ATOM     20  C   UNL     1       0.109  -3.255  -3.352  1.00  0.00     0.004 A 
ATOM     21  C   UNL     1       2.436  -2.655  -3.058  1.00  0.00     0.012 A 
ATOM     22  C   UNL     1       1.424  -3.258  -3.813  1.00  0.00     0.001 A 
BRANCH  18  23
ATOM     23  O   UNL     1       0.404  -1.506  -0.182  1.00  0.00    -0.496 OA
ATOM     24  C   UNL     1       0.489  -0.081  -0.125  1.00  0.00     0.278 C 
ENDBRANCH  18  23
ENDBRANCH  12  17
BRANCH  16  25
ATOM     25  O   UNL     1       4.295  -1.285   2.450  1.00  0.00    -0.507 OA
ATOM     26  H   UNL     1       4.766  -0.729   3.040  1.00  0.00     0.293 HD
ENDBRANCH  16  25
ENDBRANCH   9  11
ENDBRANCH   8   9
ENDBRANCH   7   8
ENDBRANCH   6   7
ENDBRANCH   5   6
ENDBRANCH   4   5
ENDBRANCH   3   4
ENDBRANCH   2   3
ENDBRANCH   1   2
BRANCH   1  27
ATOM     27  C   UNL     1      10.681  -1.051   1.409  1.00  0.00     0.188 C 
BRANCH  27  28
ATOM     28  O   UNL     1      10.553  -1.008  -0.003  1.00  0.00    -0.376 OA
BRANCH  28  29
ATOM     29  C   UNL     1      11.160  -2.048  -0.747  1.00  0.00     0.202 C 
BRANCH  29  30
ATOM     30  C   UNL     1      10.655  -3.478  -0.505  1.00  0.00     0.261 C 
BRANCH  30  31
ATOM     31  O   UNL     1      10.651  -3.933   0.856  1.00  0.00    -0.460 OA
BRANCH  31  32
ATOM     32  C   UNL     1      11.848  -4.060   1.468  1.00  0.00     0.338 C 
ATOM     33  O   UNL     1      12.945  -3.826   0.983  1.00  0.00    -0.246 OA
BRANCH  32  34
ATOM     34  C   UNL     1      11.592  -4.348   2.893  1.00  0.00     0.060 A 
ATOM     35  C   UNL     1      12.048  -3.451   3.869  1.00  0.00     0.016 A 
ATOM     36  C   UNL     1      10.889  -5.497   3.262  1.00  0.00     0.016 A 
ATOM     37  C   UNL     1      11.830  -3.721   5.221  1.00  0.00     0.010 A 
ATOM     38  C   UNL     1      10.690  -5.777   4.616  1.00  0.00     0.010 A 
ATOM     39  C   UNL     1      11.190  -4.908   5.603  1.00  0.00    -0.014 A 
BRANCH  39  40
ATOM     40  C   UNL     1      11.232  -5.343   7.021  1.00  0.00     0.031 A 
ATOM     41  C   UNL     1      12.274  -6.354   7.420  1.00  0.00     0.074 A 
ATOM     42  C   UNL     1      10.390  -4.838   7.940  1.00  0.00     0.049 A 
ATOM     43  N   UNL     1      12.479  -6.929   8.576  1.00  0.00    -0.248 NA
ATOM     44  C   UNL     1      13.208  -6.774   6.364  1.00  0.00     0.031 C 
ATOM     45  C   UNL     1       9.377  -3.815   7.686  1.00  0.00     0.029 A 
ATOM     46  N   UNL     1      10.254  -5.121   9.277  1.00  0.00    -0.354 N 
ATOM     47  C   UNL     1      13.563  -7.781   8.387  1.00  0.00     0.074 A 
ATOM     48  C   UNL     1      13.939  -7.680   6.993  1.00  0.00     0.031 C 
ATOM     49  C   UNL     1       8.719  -3.561   8.831  1.00  0.00     0.029 A 
ATOM     50  C   UNL     1       9.233  -4.431   9.887  1.00  0.00     0.049 A 
ATOM     51  H   UNL     1      10.833  -5.759   9.753  1.00  0.00     0.167 HD
ATOM     52  C   UNL     1      14.193  -8.566   9.295  1.00  0.00     0.034 A 
ATOM     53  C   UNL     1       8.755  -4.514  11.147  1.00  0.00     0.034 A 
ATOM     54  C   UNL     1      13.793  -8.669  10.677  1.00  0.00     0.049 A 
ATOM     55  C   UNL     1       9.407  -5.476  12.116  1.00  0.00     0.074 A 
ATOM     56  C   UNL     1      14.357  -9.435  11.682  1.00  0.00     0.029 A 
ATOM     57  N   UNL     1      12.720  -7.995  11.247  1.00  0.00    -0.354 N 
ATOM     58  N   UNL     1      10.428  -6.280  11.926  1.00  0.00    -0.248 NA
ATOM     59  C   UNL     1       8.846  -5.531  13.472  1.00  0.00     0.031 C 
ATOM     60  C   UNL     1      13.578  -9.288  12.834  1.00  0.00     0.029 A 
ATOM     61  C   UNL     1      12.587  -8.353  12.580  1.00  0.00     0.049 A 
ATOM     62  H   UNL     1      12.140  -7.355  10.774  1.00  0.00     0.167 HD
ATOM     63  C   UNL     1      10.658  -6.900  13.153  1.00  0.00     0.074 A 
ATOM     64  C   UNL     1       9.676  -6.369  14.075  1.00  0.00     0.031 C 
ATOM     65  C   UNL     1      11.601  -7.818  13.491  1.00  0.00     0.034 A 
BRANCH  52  66
ATOM     66  C   UNL     1      15.341  -9.413   8.800  1.00  0.00     0.023 A 
ATOM     67  C   UNL     1      16.514  -8.841   8.274  1.00  0.00     0.031 A 
ATOM     68  C   UNL     1      15.250 -10.816   8.824  1.00  0.00     0.131 A 
ATOM     69  C   UNL     1      17.512  -9.663   7.730  1.00  0.00     0.055 A 
ATOM     70  C   UNL     1      16.285 -11.631   8.361  1.00  0.00     0.041 A 
ATOM     71  F   UNL     1      14.144 -11.421   9.287  1.00  0.00    -0.206 F 
ATOM     72  C   UNL     1      17.418 -11.055   7.796  1.00  0.00     0.022 A 
BRANCH  69  73
ATOM     73  S   UNL     1      18.860  -8.888   6.796  1.00  0.00     0.124 S 
ATOM     74  O   UNL     1      18.125  -8.173   5.756  1.00  0.00    -0.237 OA
ATOM     75  O   UNL     1      19.508  -8.059   7.806  1.00  0.00    -0.237 OA
ATOM     76  O   UNL     1      19.646 -10.025   6.322  1.00  0.00    -0.744 OA
ENDBRANCH  69  73
ENDBRANCH  52  66
BRANCH  53  77
ATOM     77  C   UNL     1       7.577  -3.698  11.570  1.00  0.00     0.023 A 
ATOM     78  C   UNL     1       7.677  -2.765  12.615  1.00  0.00     0.031 A 
ATOM     79  C   UNL     1       6.313  -3.895  10.985  1.00  0.00     0.131 A 
ATOM     80  C   UNL     1       6.527  -2.107  13.081  1.00  0.00     0.055 A 
ATOM     81  C   UNL     1       5.185  -3.191  11.409  1.00  0.00     0.041 A 
ATOM     82  F   UNL     1       6.156  -4.781   9.989  1.00  0.00    -0.206 F 
ATOM     83  C   UNL     1       5.285  -2.301  12.473  1.00  0.00     0.022 A 
BRANCH  80  84
ATOM     84  S   UNL     1       6.658  -1.076  14.567  1.00  0.00     0.124 S 
ATOM     85  O   UNL     1       7.163  -2.031  15.546  1.00  0.00    -0.237 OA
ATOM     86  O   UNL     1       7.594  -0.042  14.137  1.00  0.00    -0.237 OA
ATOM     87  O   UNL     1       5.287  -0.620  14.787  1.00  0.00    -0.744 OA
ENDBRANCH  80  84
ENDBRANCH  53  77
BRANCH  65  88
ATOM     88  C   UNL     1      11.660  -8.253  14.939  1.00  0.00     0.023 A 
ATOM     89  C   UNL     1      10.606  -8.950  15.555  1.00  0.00     0.031 A 
ATOM     90  C   UNL     1      12.791  -7.948  15.719  1.00  0.00     0.131 A 
ATOM     91  C   UNL     1      10.676  -9.258  16.923  1.00  0.00     0.055 A 
ATOM     92  C   UNL     1      12.887  -8.323  17.059  1.00  0.00     0.041 A 
ATOM     93  F   UNL     1      13.829  -7.280  15.188  1.00  0.00    -0.206 F 
ATOM     94  C   UNL     1      11.818  -8.967  17.674  1.00  0.00     0.022 A 
BRANCH  91  95
ATOM     95  S   UNL     1       9.206  -9.938  17.740  1.00  0.00     0.124 S 
ATOM     96  O   UNL     1       8.200  -8.922  17.448  1.00  0.00    -0.237 OA
ATOM     97  O   UNL     1       9.035 -11.218  17.060  1.00  0.00    -0.237 OA
ATOM     98  O   UNL     1       9.605 -10.031  19.143  1.00  0.00    -0.744 OA
ENDBRANCH  91  95
ENDBRANCH  65  88
ENDBRANCH  39  40
ENDBRANCH  32  34
ENDBRANCH  31  32
ENDBRANCH  30  31
ENDBRANCH  29  30
ENDBRANCH  28  29
ENDBRANCH  27  28
ENDBRANCH   1  27
TORSDOF 26
