REMARK SMILES O=C(OCCOCCOCCOCCOC(=O)c1ccc(-c2c3nc(c(-c4cc(S(=O)(=O)[O-])ccc4F)c4ccc([nH]4)c(-c4cc(S(=O)(=O)[O-])ccc4F)c4nc(c(-c5cc(S(=O)(=O)[O-])ccc5F)c5ccc2[nH]5)C=C4)C=C3)cc1)C1=Cc2cc(S(F)(F)(F)(F)F)cc(Br)c2O[C@H]1C(F)(F)F
REMARK SMILES IDX 10 1 9 2 8 3 7 4 6 5 5 6 4 7 3 8 2 9 1 10 81 11 82 12 97 13
REMARK SMILES IDX 83 14 96 15 84 16 95 17 85 18 93 19 92 20 94 21 98 22 99 23
REMARK SMILES IDX 100 24 101 25 86 26 87 27 88 28 89 29 90 30 91 31 11 32
REMARK SMILES IDX 12 33 13 34 14 35 15 36 16 37 17 38 18 39 19 40 80 41 20 42
REMARK SMILES IDX 79 43 21 44 22 45 23 46 73 47 24 48 78 49 72 50 74 51 25 52
REMARK SMILES IDX 77 53 71 54 70 55 26 57 58 58 38 59 57 60 39 61 42 62 56 63
REMARK SMILES IDX 75 64 40 65 41 66 55 68 76 69 43 70 27 71 28 72 36 73 29 74
REMARK SMILES IDX 35 75 37 76 34 77 30 78 31 79 32 80 33 81 59 82 60 83 68 84
REMARK SMILES IDX 61 85 67 86 69 87 66 88 62 89 63 90 64 91 65 92 44 93 45 94
REMARK SMILES IDX 53 95 46 96 52 97 54 98 51 99 47 100 48 101 49 102 50 103
REMARK H PARENT 74 56 42 67
REMARK Flexibility Score: inf
ROOT
ATOM      1  C   UNL     1       4.342   0.560   2.770  1.00  0.00     0.188 C 
ENDROOT
BRANCH   1   2
ATOM      2  O   UNL     1       2.922   0.560   2.770  1.00  0.00    -0.377 OA
BRANCH   2   3
ATOM      3  C   UNL     1       2.449  -0.740   2.452  1.00  0.00     0.188 C 
BRANCH   3   4
ATOM      4  C   UNL     1       2.955  -1.142   1.076  1.00  0.00     0.188 C 
BRANCH   4   5
ATOM      5  O   UNL     1       4.375  -1.142   1.076  1.00  0.00    -0.376 OA
BRANCH   5   6
ATOM      6  C   UNL     1       4.848   0.159   1.394  1.00  0.00     0.202 C 
BRANCH   6   7
ATOM      7  C   UNL     1       4.342   1.149   0.358  1.00  0.00     0.261 C 
BRANCH   7   8
ATOM      8  O   UNL     1       2.922   1.149   0.358  1.00  0.00    -0.460 OA
BRANCH   8   9
ATOM      9  C   UNL     1       2.212  -0.045   0.067  1.00  0.00     0.338 C 
ATOM     10  O   UNL     1       0.941  -0.045   0.067  1.00  0.00    -0.246 OA
BRANCH   9  11
ATOM     11  C   UNL     1       2.972  -1.324  -0.246  1.00  0.00     0.087 C 
ATOM     12  C   UNL     1       4.332  -1.324  -0.246  1.00  0.00     0.027 C 
ATOM     13  C   UNL     1       2.212  -2.603  -0.558  1.00  0.00     0.316 C 
ATOM     14  C   UNL     1       5.092  -0.045   0.067  1.00  0.00     0.020 A 
ATOM     15  O   UNL     1       3.477   0.369   1.760  1.00  0.00    -0.474 OA
ATOM     16  C   UNL     1       6.185   0.326  -0.699  1.00  0.00     0.036 A 
ATOM     17  C   UNL     1       4.691   0.690   1.097  1.00  0.00     0.142 A 
ATOM     18  C   UNL     1       6.972   1.348  -0.118  1.00  0.00     0.109 A 
ATOM     19  C   UNL     1       5.441   1.758   1.528  1.00  0.00     0.062 A 
ATOM     20  C   UNL     1       6.565   2.146   0.854  1.00  0.00     0.044 A 
ATOM     21  Br  UNL     1       4.889   2.740   3.132  1.00  0.00    -0.047 Br
BRANCH  13  22
ATOM     22  C   UNL     1       0.717  -2.333  -0.492  1.00  0.00     0.430 C 
ATOM     23  F   UNL     1       0.336  -2.156   0.770  1.00  0.00    -0.167 F 
ATOM     24  F   UNL     1       0.392  -1.260  -1.208  1.00  0.00    -0.167 F 
ATOM     25  F   UNL     1       0.107  -3.403  -0.994  1.00  0.00    -0.167 F 
ENDBRANCH  13  22
BRANCH  18  26
ATOM     26  S   UNL     1       8.652   1.579  -0.748  1.00  0.00     0.310 S 
ATOM     27  F   UNL     1       9.268   1.612   0.713  1.00  0.00    -0.094 F 
ATOM     28  F   UNL     1       8.453   3.137  -0.625  1.00  0.00    -0.094 F 
ATOM     29  F   UNL     1      10.095   1.779  -1.294  1.00  0.00    -0.094 F 
ATOM     30  F   UNL     1       8.884   0.017  -0.732  1.00  0.00    -0.094 F 
ATOM     31  F   UNL     1       7.232   1.361  -0.089  1.00  0.00    -0.094 F 
ENDBRANCH  18  26
ENDBRANCH   9  11
ENDBRANCH   8   9
ENDBRANCH   7   8
ENDBRANCH   6   7
ENDBRANCH   5   6
ENDBRANCH   4   5
ENDBRANCH   3   4
ENDBRANCH   2   3
ENDBRANCH   1   2
BRANCH   1  32
ATOM     32  C   UNL     1       4.848  -0.430   3.805  1.00  0.00     0.188 C 
BRANCH  32  33
ATOM     33  O   UNL     1       4.375  -1.731   3.488  1.00  0.00    -0.376 OA
BRANCH  33  34
ATOM     34  C   UNL     1       2.955  -1.731   3.488  1.00  0.00     0.202 C 
BRANCH  34  35
ATOM     35  C   UNL     1       2.449  -1.329   4.863  1.00  0.00     0.261 C 
BRANCH  35  36
ATOM     36  O   UNL     1       2.922  -0.029   5.181  1.00  0.00    -0.460 OA
BRANCH  36  37
ATOM     37  C   UNL     1       4.318   0.223   5.242  1.00  0.00     0.338 C 
ATOM     38  O   UNL     1       5.144  -0.715   5.013  1.00  0.00    -0.246 OA
BRANCH  37  39
ATOM     39  C   UNL     1       4.825   1.616   5.583  1.00  0.00     0.060 A 
ATOM     40  C   UNL     1       5.881   2.176   4.883  1.00  0.00     0.016 A 
ATOM     41  C   UNL     1       4.250   2.257   6.593  1.00  0.00     0.016 A 
ATOM     42  C   UNL     1       6.453   3.305   5.516  1.00  0.00     0.010 A 
ATOM     43  C   UNL     1       4.786   3.428   7.073  1.00  0.00     0.010 A 
ATOM     44  C   UNL     1       5.865   4.008   6.467  1.00  0.00    -0.014 A 
BRANCH  44  45
ATOM     45  C   UNL     1       6.363   5.387   6.867  1.00  0.00     0.031 A 
ATOM     46  C   UNL     1       6.761   5.513   8.199  1.00  0.00     0.074 A 
ATOM     47  C   UNL     1       6.457   6.404   5.932  1.00  0.00     0.049 A 
ATOM     48  N   UNL     1       7.312   6.576   8.787  1.00  0.00    -0.248 NA
ATOM     49  C   UNL     1       6.630   4.445   9.202  1.00  0.00     0.031 C 
ATOM     50  C   UNL     1       6.066   6.283   4.584  1.00  0.00     0.029 A 
ATOM     51  N   UNL     1       6.929   7.684   6.120  1.00  0.00    -0.354 N 
ATOM     52  C   UNL     1       7.572   6.310  10.069  1.00  0.00     0.074 A 
ATOM     53  C   UNL     1       7.132   4.938  10.355  1.00  0.00     0.031 C 
ATOM     54  C   UNL     1       6.288   7.475   3.971  1.00  0.00     0.029 A 
ATOM     55  C   UNL     1       6.822   8.362   4.926  1.00  0.00     0.049 A 
ATOM     56  H   UNL     1       7.281   8.052   6.963  1.00  0.00     0.167 HD
ATOM     57  C   UNL     1       8.161   7.158  11.008  1.00  0.00     0.034 A 
ATOM     58  C   UNL     1       7.164   9.680   4.664  1.00  0.00     0.034 A 
ATOM     59  C   UNL     1       8.543   8.462  10.735  1.00  0.00     0.049 A 
ATOM     60  C   UNL     1       7.699  10.546   5.620  1.00  0.00     0.074 A 
ATOM     61  C   UNL     1       9.145   9.326  11.669  1.00  0.00     0.029 A 
ATOM     62  N   UNL     1       8.413   9.147   9.547  1.00  0.00    -0.354 N 
ATOM     63  N   UNL     1       7.996  10.268   6.890  1.00  0.00    -0.248 NA
ATOM     64  C   UNL     1       8.035  11.953   5.362  1.00  0.00     0.031 C 
ATOM     65  C   UNL     1       9.367  10.520  11.056  1.00  0.00     0.029 A 
ATOM     66  C   UNL     1       8.906  10.420   9.729  1.00  0.00     0.049 A 
ATOM     67  H   UNL     1       8.034   8.789   8.713  1.00  0.00     0.167 HD
ATOM     68  C   UNL     1       8.509  11.345   7.489  1.00  0.00     0.074 A 
ATOM     69  C   UNL     1       8.534  12.446   6.517  1.00  0.00     0.031 C 
ATOM     70  C   UNL     1       8.960  11.452   8.806  1.00  0.00     0.034 A 
BRANCH  57  71
ATOM     71  C   UNL     1       8.396   6.620  12.411  1.00  0.00     0.023 A 
ATOM     72  C   UNL     1       9.112   5.447  12.588  1.00  0.00     0.031 A 
ATOM     73  C   UNL     1       7.812   7.232  13.434  1.00  0.00     0.131 A 
ATOM     74  C   UNL     1       8.910   4.838  13.849  1.00  0.00     0.055 A 
ATOM     75  C   UNL     1       7.770   6.639  14.672  1.00  0.00     0.041 A 
ATOM     76  F   UNL     1       7.263   8.431  13.259  1.00  0.00    -0.206 F 
ATOM     77  C   UNL     1       8.405   5.450  14.905  1.00  0.00     0.022 A 
BRANCH  74  78
ATOM     78  S   UNL     1       9.375   3.098  14.027  1.00  0.00     0.124 S 
ATOM     79  O   UNL     1       8.571   2.251  13.038  1.00  0.00    -0.237 OA
ATOM     80  O   UNL     1      10.869   2.937  13.739  1.00  0.00    -0.237 OA
ATOM     81  O   UNL     1       9.044   2.580  15.623  1.00  0.00    -0.744 OA
ENDBRANCH  74  78
ENDBRANCH  57  71
BRANCH  58  82
ATOM     82  C   UNL     1       6.944  10.211   3.257  1.00  0.00     0.023 A 
ATOM     83  C   UNL     1       8.067  10.575   2.533  1.00  0.00     0.031 A 
ATOM     84  C   UNL     1       5.734  10.232   2.710  1.00  0.00     0.131 A 
ATOM     85  C   UNL     1       7.775  11.227   1.312  1.00  0.00     0.055 A 
ATOM     86  C   UNL     1       5.543  10.761   1.456  1.00  0.00     0.041 A 
ATOM     87  F   UNL     1       4.698   9.736   3.381  1.00  0.00    -0.206 F 
ATOM     88  C   UNL     1       6.601  11.194   0.707  1.00  0.00     0.022 A 
BRANCH  85  89
ATOM     89  S   UNL     1       9.102  12.173   0.523  1.00  0.00     0.124 S 
ATOM     90  O   UNL     1       9.569  13.282   1.469  1.00  0.00    -0.237 OA
ATOM     91  O   UNL     1      10.275  11.241   0.210  1.00  0.00    -0.237 OA
ATOM     92  O   UNL     1       8.523  12.868  -0.928  1.00  0.00    -0.744 OA
ENDBRANCH  85  89
ENDBRANCH  58  82
BRANCH  70  93
ATOM     93  C   UNL     1       9.546  12.781   9.253  1.00  0.00     0.023 A 
ATOM     94  C   UNL     1       8.819  13.957   9.162  1.00  0.00     0.031 A 
ATOM     95  C   UNL     1      10.804  12.780   9.678  1.00  0.00     0.131 A 
ATOM     96  C   UNL     1       9.608  15.128   9.270  1.00  0.00     0.055 A 
ATOM     97  C   UNL     1      11.471  13.961   9.892  1.00  0.00     0.041 A 
ATOM     98  F   UNL     1      11.424  11.624   9.897  1.00  0.00    -0.206 F 
ATOM     99  C   UNL     1      10.832  15.163   9.764  1.00  0.00     0.022 A 
BRANCH  96 100
ATOM    100  S   UNL     1       8.888  16.684   8.689  1.00  0.00     0.124 S 
ATOM    101  O   UNL     1       8.547  16.564   7.202  1.00  0.00    -0.237 OA
ATOM    102  O   UNL     1       7.614  16.984   9.482  1.00  0.00    -0.237 OA
ATOM    103  O   UNL     1      10.013  17.951   8.916  1.00  0.00    -0.744 OA
ENDBRANCH  96 100
ENDBRANCH  70  93
ENDBRANCH  44  45
ENDBRANCH  37  39
ENDBRANCH  36  37
ENDBRANCH  35  36
ENDBRANCH  34  35
ENDBRANCH  33  34
ENDBRANCH  32  33
ENDBRANCH   1  32
TORSDOF 25
