REMARK SMILES C[C@H](CC(=O)OCCOCCOCCOCCOC(=O)c1ccc(-c2c3nc(c(-c4cc(S(=O)(=O)[O-])ccc4F)c4ccc([nH]4)c(-c4cc(S(=O)(=O)[O-])ccc4F)c4nc(c(-c5cc(S(=O)(=O)[O-])ccc5F)c5ccc2[nH]5)C=C4)C=C3)cc1)NC(=O)Cn1nc2ccccn2c1=O
REMARK SMILES IDX 11 1 10 2 9 3 8 4 7 5 6 6 4 7 5 8 3 9 2 10 1 11 84 12 85 13
REMARK SMILES IDX 86 15 87 16 88 17 89 18 96 19 90 20 95 21 97 22 91 23 94 24
REMARK SMILES IDX 92 25 93 26 12 27 13 28 14 29 15 30 16 31 17 32 18 33 19 34
REMARK SMILES IDX 20 35 21 36 22 37 83 38 23 39 82 40 24 41 25 42 26 43 76 44
REMARK SMILES IDX 27 45 81 46 75 47 77 48 28 49 80 50 74 51 73 52 29 54 61 55
REMARK SMILES IDX 41 56 60 57 42 58 45 59 59 60 78 61 43 62 44 63 58 65 79 66
REMARK SMILES IDX 46 67 30 68 31 69 39 70 32 71 38 72 40 73 37 74 33 75 34 76
REMARK SMILES IDX 35 77 36 78 62 79 63 80 71 81 64 82 70 83 72 84 69 85 65 86
REMARK SMILES IDX 66 87 67 88 68 89 47 90 48 91 56 92 49 93 55 94 57 95 54 96
REMARK SMILES IDX 50 97 51 98 52 99 53 100
REMARK H PARENT 84 14 77 53 45 64
REMARK Flexibility Score: inf
ROOT
ATOM      1  C   UNL     1       2.668   2.766   2.233  1.00  0.00     0.188 C 
ENDROOT
BRANCH   1   2
ATOM      2  C   UNL     1       3.626   1.593   2.017  1.00  0.00     0.188 C 
BRANCH   2   3
ATOM      3  O   UNL     1       4.906   1.961   1.496  1.00  0.00    -0.376 OA
BRANCH   3   4
ATOM      4  C   UNL     1       4.930   2.549   0.189  1.00  0.00     0.202 C 
BRANCH   4   5
ATOM      5  C   UNL     1       4.436   1.638  -0.944  1.00  0.00     0.261 C 
BRANCH   5   6
ATOM      6  O   UNL     1       3.006   1.427  -0.902  1.00  0.00    -0.463 OA
BRANCH   6   7
ATOM      7  C   UNL     1       2.579   0.152  -1.078  1.00  0.00     0.307 C 
ATOM      8  O   UNL     1       3.317  -0.804  -1.295  1.00  0.00    -0.252 OA
BRANCH   7   9
ATOM      9  C   UNL     1       1.087  -0.036  -0.890  1.00  0.00     0.147 C 
BRANCH   9  10
ATOM     10  C   UNL     1       0.191   1.206  -0.807  1.00  0.00     0.090 C 
ATOM     11  C   UNL     1       0.141   1.949  -2.142  1.00  0.00     0.031 C 
BRANCH  10  12
ATOM     12  N   UNL     1      -1.192   0.809  -0.450  1.00  0.00    -0.351 N 
ATOM     13  C   UNL     1      -1.946   1.029   0.674  1.00  0.00     0.242 C 
ATOM     14  H   UNL     1      -1.655   0.294  -1.149  1.00  0.00     0.163 HD
ATOM     15  O   UNL     1      -3.055   0.495   0.752  1.00  0.00    -0.273 OA
BRANCH  13  16
ATOM     16  C   UNL     1      -1.389   1.876   1.811  1.00  0.00     0.249 C 
BRANCH  16  17
ATOM     17  N   UNL     1      -0.928   1.133   2.971  1.00  0.00    -0.203 N 
ATOM     18  N   UNL     1      -0.523   1.842   4.108  1.00  0.00    -0.149 NA
ATOM     19  C   UNL     1      -0.188  -0.063   2.880  1.00  0.00     0.350 A 
ATOM     20  C   UNL     1       0.414   1.106   4.622  1.00  0.00     0.161 A 
ATOM     21  N   UNL     1       0.669  -0.043   3.949  1.00  0.00    -0.250 N 
ATOM     22  O   UNL     1      -0.221  -0.901   1.991  1.00  0.00    -0.246 OA
ATOM     23  C   UNL     1       1.284   1.422   5.774  1.00  0.00     0.050 A 
ATOM     24  C   UNL     1       1.706  -0.892   4.216  1.00  0.00     0.098 A 
ATOM     25  C   UNL     1       2.318   0.598   6.019  1.00  0.00     0.005 A 
ATOM     26  C   UNL     1       2.546  -0.593   5.218  1.00  0.00     0.019 A 
ENDBRANCH  16  17
ENDBRANCH  13  16
ENDBRANCH  10  12
ENDBRANCH   9  10
ENDBRANCH   7   9
ENDBRANCH   6   7
ENDBRANCH   5   6
ENDBRANCH   4   5
ENDBRANCH   3   4
ENDBRANCH   2   3
ENDBRANCH   1   2
BRANCH   1  27
ATOM     27  O   UNL     1       2.345   3.382   0.996  1.00  0.00    -0.377 OA
BRANCH  27  28
ATOM     28  C   UNL     1       1.913   4.741   1.005  1.00  0.00     0.188 C 
BRANCH  28  29
ATOM     29  C   UNL     1       2.376   5.613   2.180  1.00  0.00     0.188 C 
BRANCH  29  30
ATOM     30  O   UNL     1       1.750   5.370   3.445  1.00  0.00    -0.376 OA
BRANCH  30  31
ATOM     31  C   UNL     1       0.353   5.081   3.463  1.00  0.00     0.202 C 
BRANCH  31  32
ATOM     32  C   UNL     1      -0.599   6.250   3.198  1.00  0.00     0.261 C 
BRANCH  32  33
ATOM     33  O   UNL     1      -0.485   6.749   1.855  1.00  0.00    -0.460 OA
BRANCH  33  34
ATOM     34  C   UNL     1       0.158   7.938   1.748  1.00  0.00     0.338 C 
ATOM     35  O   UNL     1       0.617   8.606   2.658  1.00  0.00    -0.246 OA
BRANCH  34  36
ATOM     36  C   UNL     1       0.414   8.234   0.325  1.00  0.00     0.060 A 
ATOM     37  C   UNL     1       1.702   8.654  -0.030  1.00  0.00     0.016 A 
ATOM     38  C   UNL     1      -0.605   8.173  -0.629  1.00  0.00     0.016 A 
ATOM     39  C   UNL     1       1.964   9.069  -1.331  1.00  0.00     0.010 A 
ATOM     40  C   UNL     1      -0.346   8.610  -1.931  1.00  0.00     0.010 A 
ATOM     41  C   UNL     1       0.927   9.099  -2.270  1.00  0.00    -0.014 A 
BRANCH  41  42
ATOM     42  C   UNL     1       1.128   9.859  -3.523  1.00  0.00     0.031 A 
ATOM     43  C   UNL     1       0.729  11.309  -3.541  1.00  0.00     0.074 A 
ATOM     44  C   UNL     1       1.699   9.283  -4.594  1.00  0.00     0.049 A 
ATOM     45  N   UNL     1       0.812  12.184  -4.507  1.00  0.00    -0.248 NA
ATOM     46  C   UNL     1       0.159  11.841  -2.292  1.00  0.00     0.031 C 
ATOM     47  C   UNL     1       2.166   7.899  -4.657  1.00  0.00     0.029 A 
ATOM     48  N   UNL     1       1.983   9.793  -5.834  1.00  0.00    -0.354 N 
ATOM     49  C   UNL     1       0.312  13.372  -3.983  1.00  0.00     0.074 A 
ATOM     50  C   UNL     1      -0.107  13.094  -2.627  1.00  0.00     0.031 C 
ATOM     51  C   UNL     1       2.669   7.665  -5.882  1.00  0.00     0.029 A 
ATOM     52  C   UNL     1       2.532   8.872  -6.695  1.00  0.00     0.049 A 
ATOM     53  H   UNL     1       1.811  10.729  -6.084  1.00  0.00     0.167 HD
ATOM     54  C   UNL     1       0.220  14.586  -4.579  1.00  0.00     0.034 A 
ATOM     55  C   UNL     1       2.862   8.992  -7.996  1.00  0.00     0.034 A 
ATOM     56  C   UNL     1       0.617  14.829  -5.943  1.00  0.00     0.049 A 
ATOM     57  C   UNL     1       2.667  10.330  -8.669  1.00  0.00     0.074 A 
ATOM     58  C   UNL     1       0.565  16.009  -6.663  1.00  0.00     0.029 A 
ATOM     59  N   UNL     1       1.124  13.861  -6.803  1.00  0.00    -0.354 N 
ATOM     60  N   UNL     1       2.204  11.451  -8.161  1.00  0.00    -0.248 NA
ATOM     61  C   UNL     1       3.050  10.422 -10.083  1.00  0.00     0.031 C 
ATOM     62  C   UNL     1       0.975  15.739  -7.974  1.00  0.00     0.029 A 
ATOM     63  C   UNL     1       1.356  14.409  -8.054  1.00  0.00     0.049 A 
ATOM     64  H   UNL     1       1.293  12.922  -6.559  1.00  0.00     0.167 HD
ATOM     65  C   UNL     1       2.265  12.388  -9.190  1.00  0.00     0.074 A 
ATOM     66  C   UNL     1       2.823  11.703 -10.339  1.00  0.00     0.031 C 
ATOM     67  C   UNL     1       1.900  13.697  -9.188  1.00  0.00     0.034 A 
BRANCH  54  68
ATOM     68  C   UNL     1      -0.390  15.706  -3.771  1.00  0.00     0.023 A 
ATOM     69  C   UNL     1       0.218  16.193  -2.600  1.00  0.00     0.031 A 
ATOM     70  C   UNL     1      -1.629  16.256  -4.146  1.00  0.00     0.131 A 
ATOM     71  C   UNL     1      -0.445  17.143  -1.809  1.00  0.00     0.055 A 
ATOM     72  C   UNL     1      -2.247  17.258  -3.395  1.00  0.00     0.041 A 
ATOM     73  F   UNL     1      -2.271  15.812  -5.238  1.00  0.00    -0.206 F 
ATOM     74  C   UNL     1      -1.663  17.696  -2.211  1.00  0.00     0.022 A 
BRANCH  71  75
ATOM     75  S   UNL     1       0.233  17.539  -0.173  1.00  0.00     0.124 S 
ATOM     76  O   UNL     1       0.233  16.228   0.471  1.00  0.00    -0.237 OA
ATOM     77  O   UNL     1       1.543  18.090  -0.500  1.00  0.00    -0.237 OA
ATOM     78  O   UNL     1      -0.728  18.494   0.375  1.00  0.00    -0.744 OA
ENDBRANCH  71  75
ENDBRANCH  54  68
BRANCH  55  79
ATOM     79  C   UNL     1       3.369   7.816  -8.758  1.00  0.00     0.023 A 
ATOM     80  C   UNL     1       4.665   7.793  -9.295  1.00  0.00     0.031 A 
ATOM     81  C   UNL     1       2.539   6.704  -8.994  1.00  0.00     0.131 A 
ATOM     82  C   UNL     1       5.082   6.700 -10.072  1.00  0.00     0.055 A 
ATOM     83  C   UNL     1       2.974   5.598  -9.727  1.00  0.00     0.041 A 
ATOM     84  F   UNL     1       1.290   6.672  -8.502  1.00  0.00    -0.206 F 
ATOM     85  C   UNL     1       4.250   5.598 -10.281  1.00  0.00     0.022 A 
BRANCH  82  86
ATOM     86  S   UNL     1       6.711   6.769 -10.868  1.00  0.00     0.124 S 
ATOM     87  O   UNL     1       6.597   7.977 -11.676  1.00  0.00    -0.237 OA
ATOM     88  O   UNL     1       7.605   6.848  -9.717  1.00  0.00    -0.237 OA
ATOM     89  O   UNL     1       6.775   5.517 -11.619  1.00  0.00    -0.744 OA
ENDBRANCH  82  86
ENDBRANCH  55  79
BRANCH  67  90
ATOM     90  C   UNL     1       2.133  14.471 -10.461  1.00  0.00     0.023 A 
ATOM     91  C   UNL     1       1.404  14.202 -11.633  1.00  0.00     0.031 A 
ATOM     92  C   UNL     1       3.103  15.488 -10.502  1.00  0.00     0.131 A 
ATOM     93  C   UNL     1       1.696  14.904 -12.811  1.00  0.00     0.055 A 
ATOM     94  C   UNL     1       3.347  16.224 -11.661  1.00  0.00     0.041 A 
ATOM     95  F   UNL     1       3.828  15.784  -9.411  1.00  0.00    -0.206 F 
ATOM     96  C   UNL     1       2.651  15.924 -12.829  1.00  0.00     0.022 A 
BRANCH  93  97
ATOM     97  S   UNL     1       0.873  14.404 -14.348  1.00  0.00     0.124 S 
ATOM     98  O   UNL     1       1.275  13.006 -14.466  1.00  0.00    -0.237 OA
ATOM     99  O   UNL     1      -0.534  14.639 -14.039  1.00  0.00    -0.237 OA
ATOM    100  O   UNL     1       1.445  15.300 -15.351  1.00  0.00    -0.744 OA
ENDBRANCH  93  97
ENDBRANCH  67  90
ENDBRANCH  41  42
ENDBRANCH  34  36
ENDBRANCH  33  34
ENDBRANCH  32  33
ENDBRANCH  31  32
ENDBRANCH  30  31
ENDBRANCH  29  30
ENDBRANCH  28  29
ENDBRANCH  27  28
ENDBRANCH   1  27
TORSDOF 27
