REMARK SMILES O=C(C[C@H](C1CCCCC1)N1Cc2ccccc2C1=O)OCCOCCOCCOCCOC(=O)c1ccc(-c2c3nc(c(-c4cc(S(=O)(=O)[O-])ccc4F)c4ccc([nH]4)c(-c4cc(S(=O)(=O)[O-])ccc4F)c4nc(c(-c5cc(S(=O)(=O)[O-])ccc5F)c5ccc2[nH]5)C=C4)C=C3)cc1
REMARK SMILES IDX 28 1 27 2 26 3 25 4 24 5 23 6 22 7 21 8 2 9 1 10 3 11 4 12
REMARK SMILES IDX 11 13 12 14 19 15 13 16 18 17 20 18 14 19 17 20 15 21 16 22
REMARK SMILES IDX 5 23 6 24 10 25 7 26 9 27 8 28 29 29 30 30 31 31 32 32 33 33
REMARK SMILES IDX 34 34 35 35 36 36 37 37 98 38 38 39 97 40 39 41 40 42 41 43
REMARK SMILES IDX 91 44 42 45 96 46 90 47 92 48 43 49 95 50 89 51 88 52 44 54
REMARK SMILES IDX 76 55 56 56 75 57 57 58 60 59 74 60 93 61 58 62 59 63 73 65
REMARK SMILES IDX 94 66 61 67 45 68 46 69 54 70 47 71 53 72 55 73 52 74 48 75
REMARK SMILES IDX 49 76 50 77 51 78 77 79 78 80 86 81 79 82 85 83 87 84 84 85
REMARK SMILES IDX 80 86 81 87 82 88 83 89 62 90 63 91 71 92 64 93 70 94 72 95
REMARK SMILES IDX 69 96 65 97 66 98 67 99 68 100
REMARK H PARENT 92 53 60 64
REMARK Flexibility Score: inf
ROOT
ATOM      1  C   UNL     1       4.069  -4.002  -3.018  1.00  0.00     0.188 C 
ENDROOT
BRANCH   1   2
ATOM      2  O   UNL     1       5.161  -3.186  -3.398  1.00  0.00    -0.377 OA
BRANCH   2   3
ATOM      3  C   UNL     1       5.466  -2.159  -2.470  1.00  0.00     0.188 C 
BRANCH   3   4
ATOM      4  C   UNL     1       5.712  -2.606  -1.015  1.00  0.00     0.188 C 
BRANCH   4   5
ATOM      5  O   UNL     1       4.744  -3.415  -0.362  1.00  0.00    -0.376 OA
BRANCH   5   6
ATOM      6  C   UNL     1       3.464  -3.082   0.137  1.00  0.00     0.202 C 
BRANCH   6   7
ATOM      7  C   UNL     1       2.618  -1.920  -0.371  1.00  0.00     0.261 C 
BRANCH   7   8
ATOM      8  O   UNL     1       3.316  -0.798  -0.904  1.00  0.00    -0.463 OA
BRANCH   8   9
ATOM      9  C   UNL     1       4.288  -0.093  -0.306  1.00  0.00     0.307 C 
ATOM     10  O   UNL     1       4.954   0.694  -0.977  1.00  0.00    -0.252 OA
BRANCH   9  11
ATOM     11  C   UNL     1       4.640  -0.372   1.129  1.00  0.00     0.148 C 
BRANCH  11  12
ATOM     12  C   UNL     1       3.622  -0.049   2.219  1.00  0.00     0.100 C 
BRANCH  12  13
ATOM     13  N   UNL     1       4.310  -0.228   3.534  1.00  0.00    -0.330 N 
ATOM     14  C   UNL     1       4.945  -1.502   3.927  1.00  0.00     0.156 C 
ATOM     15  C   UNL     1       4.597   0.767   4.456  1.00  0.00     0.254 C 
ATOM     16  C   UNL     1       5.756  -1.122   5.122  1.00  0.00    -0.016 A 
ATOM     17  C   UNL     1       5.569   0.227   5.396  1.00  0.00     0.045 A 
ATOM     18  O   UNL     1       4.186   1.911   4.547  1.00  0.00    -0.269 OA
ATOM     19  C   UNL     1       6.639  -1.859   5.893  1.00  0.00     0.006 A 
ATOM     20  C   UNL     1       6.268   0.912   6.369  1.00  0.00     0.014 A 
ATOM     21  C   UNL     1       7.343  -1.195   6.909  1.00  0.00     0.000 A 
ATOM     22  C   UNL     1       7.172   0.184   7.134  1.00  0.00     0.001 A 
ENDBRANCH  12  13
BRANCH  12  23
ATOM     23  C   UNL     1       2.938   1.340   2.010  1.00  0.00     0.012 C 
ATOM     24  C   UNL     1       3.958   2.442   1.639  1.00  0.00     0.006 C 
ATOM     25  C   UNL     1       1.778   1.298   0.985  1.00  0.00     0.006 C 
ATOM     26  C   UNL     1       3.291   3.789   1.445  1.00  0.00     0.000 C 
ATOM     27  C   UNL     1       1.173   2.670   0.705  1.00  0.00     0.000 C 
ATOM     28  C   UNL     1       2.245   3.693   0.344  1.00  0.00     0.000 C 
ENDBRANCH  12  23
ENDBRANCH  11  12
ENDBRANCH   9  11
ENDBRANCH   8   9
ENDBRANCH   7   8
ENDBRANCH   6   7
ENDBRANCH   5   6
ENDBRANCH   4   5
ENDBRANCH   3   4
ENDBRANCH   2   3
ENDBRANCH   1   2
BRANCH   1  29
ATOM     29  C   UNL     1       4.495  -5.329  -2.360  1.00  0.00     0.188 C 
BRANCH  29  30
ATOM     30  O   UNL     1       5.845  -5.560  -1.996  1.00  0.00    -0.376 OA
BRANCH  30  31
ATOM     31  C   UNL     1       6.921  -5.269  -2.871  1.00  0.00     0.202 C 
BRANCH  31  32
ATOM     32  C   UNL     1       6.882  -5.391  -4.406  1.00  0.00     0.261 C 
BRANCH  32  33
ATOM     33  O   UNL     1       5.619  -5.343  -5.063  1.00  0.00    -0.460 OA
BRANCH  33  34
ATOM     34  C   UNL     1       4.976  -6.525  -5.195  1.00  0.00     0.338 C 
ATOM     35  O   UNL     1       5.367  -7.616  -4.823  1.00  0.00    -0.246 OA
BRANCH  34  36
ATOM     36  C   UNL     1       3.601  -6.227  -5.655  1.00  0.00     0.060 A 
ATOM     37  C   UNL     1       2.518  -6.664  -4.875  1.00  0.00     0.016 A 
ATOM     38  C   UNL     1       3.384  -5.474  -6.811  1.00  0.00     0.016 A 
ATOM     39  C   UNL     1       1.214  -6.367  -5.257  1.00  0.00     0.010 A 
ATOM     40  C   UNL     1       2.075  -5.226  -7.225  1.00  0.00     0.010 A 
ATOM     41  C   UNL     1       0.990  -5.705  -6.468  1.00  0.00    -0.014 A 
BRANCH  41  42
ATOM     42  C   UNL     1      -0.351  -5.787  -7.086  1.00  0.00     0.031 A 
ATOM     43  C   UNL     1      -0.592  -6.918  -8.047  1.00  0.00     0.074 A 
ATOM     44  C   UNL     1      -1.327  -4.915  -6.786  1.00  0.00     0.049 A 
ATOM     45  N   UNL     1      -1.633  -7.169  -8.794  1.00  0.00    -0.248 NA
ATOM     46  C   UNL     1       0.502  -7.895  -8.186  1.00  0.00     0.031 C 
ATOM     47  C   UNL     1      -1.225  -3.832  -5.810  1.00  0.00     0.029 A 
ATOM     48  N   UNL     1      -2.599  -4.803  -7.286  1.00  0.00    -0.354 N 
ATOM     49  C   UNL     1      -1.316  -8.325  -9.499  1.00  0.00     0.074 A 
ATOM     50  C   UNL     1       0.025  -8.704  -9.117  1.00  0.00     0.031 C 
ATOM     51  C   UNL     1      -2.384  -3.150  -5.798  1.00  0.00     0.029 A 
ATOM     52  C   UNL     1      -3.288  -3.718  -6.798  1.00  0.00     0.049 A 
ATOM     53  H   UNL     1      -2.982  -5.438  -7.932  1.00  0.00     0.167 HD
ATOM     54  C   UNL     1      -2.080  -9.008 -10.384  1.00  0.00     0.034 A 
ATOM     55  C   UNL     1      -4.492  -3.225  -7.153  1.00  0.00     0.034 A 
ATOM     56  C   UNL     1      -3.406  -8.597 -10.766  1.00  0.00     0.049 A 
ATOM     57  C   UNL     1      -5.280  -3.935  -8.232  1.00  0.00     0.074 A 
ATOM     58  C   UNL     1      -4.274  -9.207 -11.653  1.00  0.00     0.029 A 
ATOM     59  N   UNL     1      -4.050  -7.459 -10.296  1.00  0.00    -0.354 N 
ATOM     60  N   UNL     1      -4.973  -5.023  -8.902  1.00  0.00    -0.248 NA
ATOM     61  C   UNL     1      -6.577  -3.351  -8.600  1.00  0.00     0.031 C 
ATOM     62  C   UNL     1      -5.403  -8.394 -11.785  1.00  0.00     0.029 A 
ATOM     63  C   UNL     1      -5.287  -7.329 -10.906  1.00  0.00     0.049 A 
ATOM     64  H   UNL     1      -3.682  -6.837  -9.628  1.00  0.00     0.167 HD
ATOM     65  C   UNL     1      -6.057  -5.272  -9.743  1.00  0.00     0.074 A 
ATOM     66  C   UNL     1      -7.027  -4.228  -9.486  1.00  0.00     0.031 C 
ATOM     67  C   UNL     1      -6.240  -6.276 -10.640  1.00  0.00     0.034 A 
BRANCH  54  68
ATOM     68  C   UNL     1      -1.465 -10.220 -11.039  1.00  0.00     0.023 A 
ATOM     69  C   UNL     1      -1.077 -11.350 -10.297  1.00  0.00     0.031 A 
ATOM     70  C   UNL     1      -1.227 -10.229 -12.425  1.00  0.00     0.131 A 
ATOM     71  C   UNL     1      -0.409 -12.407 -10.932  1.00  0.00     0.055 A 
ATOM     72  C   UNL     1      -0.641 -11.323 -13.064  1.00  0.00     0.041 A 
ATOM     73  F   UNL     1      -1.545  -9.166 -13.181  1.00  0.00    -0.206 F 
ATOM     74  C   UNL     1      -0.214 -12.415 -12.315  1.00  0.00     0.022 A 
BRANCH  71  75
ATOM     75  S   UNL     1       0.339 -13.701  -9.903  1.00  0.00     0.124 S 
ATOM     76  O   UNL     1       1.243 -12.921  -9.060  1.00  0.00    -0.237 OA
ATOM     77  O   UNL     1      -0.819 -14.279  -9.232  1.00  0.00    -0.237 OA
ATOM     78  O   UNL     1       0.999 -14.572 -10.873  1.00  0.00    -0.744 OA
ENDBRANCH  71  75
ENDBRANCH  54  68
BRANCH  55  79
ATOM     79  C   UNL     1      -5.013  -1.972  -6.531  1.00  0.00     0.023 A 
ATOM     80  C   UNL     1      -6.213  -1.969  -5.802  1.00  0.00     0.031 A 
ATOM     81  C   UNL     1      -4.351  -0.744  -6.712  1.00  0.00     0.131 A 
ATOM     82  C   UNL     1      -6.739  -0.758  -5.325  1.00  0.00     0.055 A 
ATOM     83  C   UNL     1      -4.846   0.449  -6.182  1.00  0.00     0.041 A 
ATOM     84  F   UNL     1      -3.204  -0.686  -7.408  1.00  0.00    -0.206 F 
ATOM     85  C   UNL     1      -6.056   0.448  -5.495  1.00  0.00     0.022 A 
BRANCH  82  86
ATOM     86  S   UNL     1      -8.386  -0.768  -4.564  1.00  0.00     0.124 S 
ATOM     87  O   UNL     1      -9.204  -1.316  -5.639  1.00  0.00    -0.237 OA
ATOM     88  O   UNL     1      -8.179  -1.635  -3.409  1.00  0.00    -0.237 OA
ATOM     89  O   UNL     1      -8.624   0.639  -4.251  1.00  0.00    -0.744 OA
ENDBRANCH  82  86
ENDBRANCH  55  79
BRANCH  67  90
ATOM     90  C   UNL     1      -7.563  -6.324 -11.368  1.00  0.00     0.023 A 
ATOM     91  C   UNL     1      -7.950  -5.327 -12.279  1.00  0.00     0.031 A 
ATOM     92  C   UNL     1      -8.445  -7.399 -11.151  1.00  0.00     0.131 A 
ATOM     93  C   UNL     1      -9.208  -5.397 -12.898  1.00  0.00     0.055 A 
ATOM     94  C   UNL     1      -9.663  -7.500 -11.824  1.00  0.00     0.041 A 
ATOM     95  F   UNL     1      -8.131  -8.379 -10.289  1.00  0.00    -0.206 F 
ATOM     96  C   UNL     1     -10.056  -6.488 -12.694  1.00  0.00     0.022 A 
BRANCH  93  97
ATOM     97  S   UNL     1      -9.764  -3.992 -13.901  1.00  0.00     0.124 S 
ATOM     98  O   UNL     1      -9.712  -2.896 -12.940  1.00  0.00    -0.237 OA
ATOM     99  O   UNL     1      -8.768  -3.954 -14.967  1.00  0.00    -0.237 OA
ATOM    100  O   UNL     1     -11.108  -4.383 -14.324  1.00  0.00    -0.744 OA
ENDBRANCH  93  97
ENDBRANCH  67  90
ENDBRANCH  41  42
ENDBRANCH  34  36
ENDBRANCH  33  34
ENDBRANCH  32  33
ENDBRANCH  31  32
ENDBRANCH  30  31
ENDBRANCH  29  30
ENDBRANCH   1  29
TORSDOF 26
