REMARK SMILES C[C@](NC(=O)Cc1csc(N)n1)(C(=O)OCCOCCOCCOCCOC(=O)c1ccc(-c2c3nc(c(-c4cc(S(=O)(=O)[O-])ccc4F)c4ccc([nH]4)c(-c4cc(S(=O)(=O)[O-])ccc4F)c4nc(c(-c5cc(S(=O)(=O)[O-])ccc5F)c5ccc2[nH]5)C=C4)C=C3)cc1)C(F)(F)F
REMARK SMILES IDX 20 1 19 2 18 3 17 4 16 5 15 6 13 7 14 8 2 9 1 10 93 11 94 12
REMARK SMILES IDX 95 13 96 14 3 15 4 16 5 18 6 19 7 20 8 21 12 22 9 23 10 24
REMARK SMILES IDX 11 25 21 28 22 29 23 30 24 31 25 32 26 33 27 34 28 35 29 36
REMARK SMILES IDX 30 37 31 38 92 39 32 40 91 41 33 42 34 43 35 44 85 45 36 46
REMARK SMILES IDX 90 47 84 48 86 49 37 50 89 51 83 52 82 53 38 55 70 56 50 57
REMARK SMILES IDX 69 58 51 59 54 60 68 61 87 62 52 63 53 64 67 66 88 67 55 68
REMARK SMILES IDX 39 69 40 70 48 71 41 72 47 73 49 74 46 75 42 76 43 77 44 78
REMARK SMILES IDX 45 79 71 80 72 81 80 82 73 83 79 84 81 85 78 86 74 87 75 88
REMARK SMILES IDX 76 89 77 90 56 91 57 92 65 93 58 94 64 95 66 96 63 97 59 98
REMARK SMILES IDX 60 99 61 100 62 101
REMARK H PARENT 3 17 11 26 11 27 86 54 54 65
REMARK Flexibility Score: inf
ROOT
ATOM      1  C   UNL     1      -1.481   0.203   1.214  1.00  0.00     0.188 C 
ENDROOT
BRANCH   1   2
ATOM      2  C   UNL     1      -2.120   1.595   1.105  1.00  0.00     0.188 C 
BRANCH   2   3
ATOM      3  O   UNL     1      -3.477   1.676   0.714  1.00  0.00    -0.376 OA
BRANCH   3   4
ATOM      4  C   UNL     1      -3.914   1.227  -0.563  1.00  0.00     0.202 C 
BRANCH   4   5
ATOM      5  C   UNL     1      -2.998   0.856  -1.750  1.00  0.00     0.261 C 
BRANCH   5   6
ATOM      6  O   UNL     1      -1.583   0.855  -1.505  1.00  0.00    -0.461 OA
BRANCH   6   7
ATOM      7  C   UNL     1      -0.849   1.786  -2.143  1.00  0.00     0.341 C 
ATOM      8  O   UNL     1      -1.325   2.561  -2.965  1.00  0.00    -0.249 OA
BRANCH   7   9
ATOM      9  C   UNL     1       0.641   1.762  -1.754  1.00  0.00     0.231 C 
ATOM     10  C   UNL     1       1.392   1.433  -3.053  1.00  0.00     0.058 C 
BRANCH   9  11
ATOM     11  C   UNL     1       0.892   3.214  -1.378  1.00  0.00     0.422 C 
ATOM     12  F   UNL     1       0.296   3.514  -0.207  1.00  0.00    -0.168 F 
ATOM     13  F   UNL     1       2.225   3.411  -1.285  1.00  0.00    -0.168 F 
ATOM     14  F   UNL     1       0.468   4.122  -2.281  1.00  0.00    -0.168 F 
ENDBRANCH   9  11
BRANCH   9  15
ATOM     15  N   UNL     1       1.105   0.704  -0.752  1.00  0.00    -0.333 N 
ATOM     16  C   UNL     1       2.015   0.680   0.277  1.00  0.00     0.227 C 
ATOM     17  H   UNL     1       0.646  -0.158  -0.872  1.00  0.00     0.164 HD
ATOM     18  O   UNL     1       2.728  -0.329   0.353  1.00  0.00    -0.275 OA
BRANCH  16  19
ATOM     19  C   UNL     1       2.021   1.669   1.441  1.00  0.00     0.157 C 
BRANCH  19  20
ATOM     20  C   UNL     1       2.821   2.904   1.244  1.00  0.00     0.063 A 
ATOM     21  C   UNL     1       4.152   3.046   0.902  1.00  0.00     0.093 A 
ATOM     22  N   UNL     1       2.145   4.105   1.386  1.00  0.00    -0.225 NA
ATOM     23  S   UNL     1       4.470   4.696   0.513  1.00  0.00    -0.106 S 
ATOM     24  C   UNL     1       2.826   5.071   0.831  1.00  0.00     0.180 A 
BRANCH  24  25
ATOM     25  N   UNL     1       2.234   6.203   0.431  1.00  0.00    -0.375 N 
ATOM     26  H   UNL     1       2.768   6.917   0.014  1.00  0.00     0.159 HD
ATOM     27  H   UNL     1       1.264   6.321   0.553  1.00  0.00     0.159 HD
ENDBRANCH  24  25
ENDBRANCH  19  20
ENDBRANCH  16  19
ENDBRANCH   9  15
ENDBRANCH   7   9
ENDBRANCH   6   7
ENDBRANCH   5   6
ENDBRANCH   4   5
ENDBRANCH   3   4
ENDBRANCH   2   3
ENDBRANCH   1   2
BRANCH   1  28
ATOM     28  O   UNL     1      -2.113  -0.781   0.425  1.00  0.00    -0.377 OA
BRANCH  28  29
ATOM     29  C   UNL     1      -3.075  -1.601   1.067  1.00  0.00     0.188 C 
BRANCH  29  30
ATOM     30  C   UNL     1      -3.900  -1.023   2.236  1.00  0.00     0.188 C 
BRANCH  30  31
ATOM     31  O   UNL     1      -3.136  -0.324   3.211  1.00  0.00    -0.376 OA
BRANCH  31  32
ATOM     32  C   UNL     1      -2.743  -1.004   4.393  1.00  0.00     0.202 C 
BRANCH  32  33
ATOM     33  C   UNL     1      -1.748  -2.170   4.267  1.00  0.00     0.261 C 
BRANCH  33  34
ATOM     34  O   UNL     1      -2.117  -3.255   3.406  1.00  0.00    -0.460 OA
BRANCH  34  35
ATOM     35  C   UNL     1      -3.288  -3.889   3.634  1.00  0.00     0.338 C 
ATOM     36  O   UNL     1      -4.074  -3.671   4.539  1.00  0.00    -0.246 OA
BRANCH  35  37
ATOM     37  C   UNL     1      -3.551  -4.747   2.457  1.00  0.00     0.060 A 
ATOM     38  C   UNL     1      -4.716  -4.546   1.701  1.00  0.00     0.016 A 
ATOM     39  C   UNL     1      -2.618  -5.714   2.076  1.00  0.00     0.016 A 
ATOM     40  C   UNL     1      -4.965  -5.335   0.576  1.00  0.00     0.010 A 
ATOM     41  C   UNL     1      -2.883  -6.521   0.970  1.00  0.00     0.010 A 
ATOM     42  C   UNL     1      -4.073  -6.359   0.236  1.00  0.00    -0.014 A 
BRANCH  42  43
ATOM     43  C   UNL     1      -4.476  -7.434  -0.701  1.00  0.00     0.031 A 
ATOM     44  C   UNL     1      -5.013  -8.703  -0.101  1.00  0.00     0.074 A 
ATOM     45  C   UNL     1      -4.321  -7.322  -2.030  1.00  0.00     0.049 A 
ATOM     46  N   UNL     1      -5.244  -9.861  -0.660  1.00  0.00    -0.248 NA
ATOM     47  C   UNL     1      -5.301  -8.656   1.340  1.00  0.00     0.031 C 
ATOM     48  C   UNL     1      -3.866  -6.123  -2.730  1.00  0.00     0.029 A 
ATOM     49  N   UNL     1      -4.500  -8.251  -3.026  1.00  0.00    -0.354 N 
ATOM     50  C   UNL     1      -5.680 -10.690   0.368  1.00  0.00     0.074 A 
ATOM     51  C   UNL     1      -5.646  -9.908   1.584  1.00  0.00     0.031 C 
ATOM     52  C   UNL     1      -3.766  -6.401  -4.042  1.00  0.00     0.029 A 
ATOM     53  C   UNL     1      -4.096  -7.810  -4.263  1.00  0.00     0.049 A 
ATOM     54  H   UNL     1      -4.881  -9.145  -2.868  1.00  0.00     0.167 HD
ATOM     55  C   UNL     1      -6.068 -11.988   0.300  1.00  0.00     0.034 A 
ATOM     56  C   UNL     1      -3.956  -8.482  -5.426  1.00  0.00     0.034 A 
ATOM     57  C   UNL     1      -6.065 -12.752  -0.923  1.00  0.00     0.049 A 
ATOM     58  C   UNL     1      -4.300  -9.953  -5.471  1.00  0.00     0.074 A 
ATOM     59  C   UNL     1      -6.451 -14.065  -1.119  1.00  0.00     0.029 A 
ATOM     60  N   UNL     1      -5.632 -12.276  -2.155  1.00  0.00    -0.354 N 
ATOM     61  N   UNL     1      -4.708 -10.738  -4.500  1.00  0.00    -0.248 NA
ATOM     62  C   UNL     1      -4.165 -10.629  -6.769  1.00  0.00     0.031 C 
ATOM     63  C   UNL     1      -6.165 -14.409  -2.445  1.00  0.00     0.029 A 
ATOM     64  C   UNL     1      -5.702 -13.282  -3.106  1.00  0.00     0.049 A 
ATOM     65  H   UNL     1      -5.321 -11.358  -2.328  1.00  0.00     0.167 HD
ATOM     66  C   UNL     1      -4.916 -11.989  -5.078  1.00  0.00     0.074 A 
ATOM     67  C   UNL     1      -4.581 -11.854  -6.482  1.00  0.00     0.031 C 
ATOM     68  C   UNL     1      -5.360 -13.137  -4.504  1.00  0.00     0.034 A 
BRANCH  55  69
ATOM     69  C   UNL     1      -6.441 -12.661   1.600  1.00  0.00     0.023 A 
ATOM     70  C   UNL     1      -7.495 -12.191   2.405  1.00  0.00     0.031 A 
ATOM     71  C   UNL     1      -5.678 -13.739   2.084  1.00  0.00     0.131 A 
ATOM     72  C   UNL     1      -7.682 -12.720   3.691  1.00  0.00     0.055 A 
ATOM     73  C   UNL     1      -5.938 -14.330   3.321  1.00  0.00     0.041 A 
ATOM     74  F   UNL     1      -4.642 -14.216   1.377  1.00  0.00    -0.206 F 
ATOM     75  C   UNL     1      -6.930 -13.806   4.144  1.00  0.00     0.022 A 
BRANCH  72  76
ATOM     76  S   UNL     1      -8.777 -11.834   4.835  1.00  0.00     0.124 S 
ATOM     77  O   UNL     1      -8.192 -10.495   4.825  1.00  0.00    -0.237 OA
ATOM     78  O   UNL     1     -10.079 -11.967   4.193  1.00  0.00    -0.237 OA
ATOM     79  O   UNL     1      -8.621 -12.563   6.092  1.00  0.00    -0.744 OA
ENDBRANCH  72  76
ENDBRANCH  55  69
BRANCH  56  80
ATOM     80  C   UNL     1      -3.411  -7.783  -6.625  1.00  0.00     0.023 A 
ATOM     81  C   UNL     1      -4.196  -7.570  -7.768  1.00  0.00     0.031 A 
ATOM     82  C   UNL     1      -2.081  -7.321  -6.643  1.00  0.00     0.131 A 
ATOM     83  C   UNL     1      -3.640  -6.932  -8.889  1.00  0.00     0.055 A 
ATOM     84  C   UNL     1      -1.548  -6.645  -7.741  1.00  0.00     0.041 A 
ATOM     85  F   UNL     1      -1.286  -7.502  -5.576  1.00  0.00    -0.206 F 
ATOM     86  C   UNL     1      -2.328  -6.453  -8.876  1.00  0.00     0.022 A 
BRANCH  83  87
ATOM     87  S   UNL     1      -4.643  -6.779 -10.393  1.00  0.00     0.124 S 
ATOM     88  O   UNL     1      -4.891  -8.177 -10.727  1.00  0.00    -0.237 OA
ATOM     89  O   UNL     1      -5.793  -6.020  -9.914  1.00  0.00    -0.237 OA
ATOM     90  O   UNL     1      -3.766  -6.062 -11.315  1.00  0.00    -0.744 OA
ENDBRANCH  83  87
ENDBRANCH  56  80
BRANCH  68  91
ATOM     91  C   UNL     1      -5.586 -14.331  -5.404  1.00  0.00     0.023 A 
ATOM     92  C   UNL     1      -4.531 -15.011  -6.035  1.00  0.00     0.031 A 
ATOM     93  C   UNL     1      -6.894 -14.816  -5.598  1.00  0.00     0.131 A 
ATOM     94  C   UNL     1      -4.806 -16.117  -6.857  1.00  0.00     0.055 A 
ATOM     95  C   UNL     1      -7.154 -15.951  -6.365  1.00  0.00     0.041 A 
ATOM     96  F   UNL     1      -7.941 -14.203  -5.024  1.00  0.00    -0.206 F 
ATOM     97  C   UNL     1      -6.107 -16.604  -7.008  1.00  0.00     0.022 A 
BRANCH  94  98
ATOM     98  S   UNL     1      -3.448 -16.871  -7.795  1.00  0.00     0.124 S 
ATOM     99  O   UNL     1      -2.970 -15.746  -8.593  1.00  0.00    -0.237 OA
ATOM    100  O   UNL     1      -2.553 -17.330  -6.738  1.00  0.00    -0.237 OA
ATOM    101  O   UNL     1      -4.104 -17.934  -8.555  1.00  0.00    -0.744 OA
ENDBRANCH  94  98
ENDBRANCH  68  91
ENDBRANCH  42  43
ENDBRANCH  35  37
ENDBRANCH  34  35
ENDBRANCH  33  34
ENDBRANCH  32  33
ENDBRANCH  31  32
ENDBRANCH  30  31
ENDBRANCH  29  30
ENDBRANCH  28  29
ENDBRANCH   1  28
TORSDOF 28
