REMARK SMILES Nc1cc(C(=O)OCCOCCOCCOCCOC(=O)c2ccc(-c3c4nc(c(-c5cc(S(=O)(=O)[O-])ccc5F)c5ccc([nH]5)c(-c5cc(S(=O)(=O)[O-])ccc5F)c5nc(c(-c6cc(S(=O)(=O)[O-])ccc6F)c6ccc3[nH]6)C=C5)C=C4)cc2)c(O)c([N+](=O)[O-])c1
REMARK SMILES IDX 14 1 13 2 12 3 11 4 10 5 9 6 8 7 7 8 5 9 6 10 4 11 2 12 3 13
REMARK SMILES IDX 91 14 87 15 85 16 1 17 88 20 89 21 90 22 86 23 15 25 16 26
REMARK SMILES IDX 17 27 18 28 19 29 20 30 21 31 22 32 23 33 84 34 24 35 83 36
REMARK SMILES IDX 25 37 26 38 27 39 77 40 28 41 82 42 76 43 78 44 29 45 81 46
REMARK SMILES IDX 75 47 74 48 30 50 62 51 42 52 61 53 43 54 46 55 60 56 79 57
REMARK SMILES IDX 44 58 45 59 59 61 80 62 47 63 31 64 32 65 40 66 33 67 39 68
REMARK SMILES IDX 41 69 38 70 34 71 35 72 36 73 37 74 63 75 64 76 72 77 65 78
REMARK SMILES IDX 71 79 73 80 70 81 66 82 67 83 68 84 69 85 48 86 49 87 57 88
REMARK SMILES IDX 50 89 56 90 58 91 55 92 51 93 52 94 53 95 54 96
REMARK H PARENT 1 18 1 19 86 24 78 49 46 60
REMARK Flexibility Score: inf
ROOT
ATOM      1  C   UNL     1       3.584   3.587  -2.596  1.00  0.00     0.188 C 
ENDROOT
BRANCH   1   2
ATOM      2  O   UNL     1       2.771   2.472  -2.237  1.00  0.00    -0.377 OA
BRANCH   2   3
ATOM      3  C   UNL     1       1.391   2.652  -1.956  1.00  0.00     0.188 C 
BRANCH   3   4
ATOM      4  C   UNL     1       0.920   3.831  -1.074  1.00  0.00     0.188 C 
BRANCH   4   5
ATOM      5  O   UNL     1       1.906   4.813  -0.831  1.00  0.00    -0.376 OA
BRANCH   5   6
ATOM      6  C   UNL     1       2.530   4.897   0.436  1.00  0.00     0.202 C 
BRANCH   6   7
ATOM      7  C   UNL     1       3.116   3.650   1.114  1.00  0.00     0.261 C 
BRANCH   7   8
ATOM      8  O   UNL     1       2.436   2.419   0.859  1.00  0.00    -0.460 OA
BRANCH   8   9
ATOM      9  C   UNL     1       1.402   2.100   1.665  1.00  0.00     0.342 C 
ATOM     10  O   UNL     1       0.927   2.789   2.551  1.00  0.00    -0.246 OA
BRANCH   9  11
ATOM     11  C   UNL     1       0.746   0.883   1.131  1.00  0.00     0.111 A 
ATOM     12  C   UNL     1      -1.350  -0.094   0.346  1.00  0.00     0.039 A 
ATOM     13  C   UNL     1      -0.640   0.972   0.897  1.00  0.00     0.045 A 
ATOM     14  C   UNL     1      -0.659  -1.260   0.023  1.00  0.00     0.115 A 
ATOM     15  C   UNL     1       0.725  -1.356   0.255  1.00  0.00     0.313 A 
ATOM     16  C   UNL     1       1.446  -0.282   0.795  1.00  0.00     0.209 A 
BRANCH  12  17
ATOM     17  N   UNL     1      -2.688   0.044   0.025  1.00  0.00    -0.398 N 
ATOM     18  H   UNL     1      -3.167   0.872   0.257  1.00  0.00     0.156 HD
ATOM     19  H   UNL     1      -3.161  -0.686  -0.437  1.00  0.00     0.156 HD
ENDBRANCH  12  17
BRANCH  15  20
ATOM     20  N   UNL     1       1.387  -2.617  -0.069  1.00  0.00     0.066 N 
ATOM     21  O   UNL     1       2.611  -2.584  -0.267  1.00  0.00    -0.258 OA
ATOM     22  O   UNL     1       0.689  -3.639  -0.124  1.00  0.00    -0.258 OA
ENDBRANCH  15  20
BRANCH  16  23
ATOM     23  O   UNL     1       2.792  -0.324   1.032  1.00  0.00    -0.501 OA
ATOM     24  H   UNL     1       3.228   0.422   1.394  1.00  0.00     0.293 HD
ENDBRANCH  16  23
ENDBRANCH   9  11
ENDBRANCH   8   9
ENDBRANCH   7   8
ENDBRANCH   6   7
ENDBRANCH   5   6
ENDBRANCH   4   5
ENDBRANCH   3   4
ENDBRANCH   2   3
ENDBRANCH   1   2
BRANCH   1  25
ATOM     25  C   UNL     1       2.991   4.808  -3.336  1.00  0.00     0.188 C 
BRANCH  25  26
ATOM     26  O   UNL     1       1.632   4.664  -3.714  1.00  0.00    -0.376 OA
BRANCH  26  27
ATOM     27  C   UNL     1       1.357   4.468  -5.090  1.00  0.00     0.202 C 
BRANCH  27  28
ATOM     28  C   UNL     1       1.913   3.191  -5.737  1.00  0.00     0.261 C 
BRANCH  28  29
ATOM     29  O   UNL     1       3.322   2.964  -5.595  1.00  0.00    -0.460 OA
BRANCH  29  30
ATOM     30  C   UNL     1       4.154   3.843  -6.205  1.00  0.00     0.338 C 
ATOM     31  O   UNL     1       3.835   4.812  -6.859  1.00  0.00    -0.246 OA
BRANCH  30  32
ATOM     32  C   UNL     1       5.531   3.518  -5.769  1.00  0.00     0.060 A 
ATOM     33  C   UNL     1       6.268   4.472  -5.054  1.00  0.00     0.016 A 
ATOM     34  C   UNL     1       6.082   2.268  -6.056  1.00  0.00     0.016 A 
ATOM     35  C   UNL     1       7.573   4.185  -4.649  1.00  0.00     0.010 A 
ATOM     36  C   UNL     1       7.396   1.991  -5.669  1.00  0.00     0.010 A 
ATOM     37  C   UNL     1       8.159   2.959  -4.991  1.00  0.00    -0.014 A 
BRANCH  37  38
ATOM     38  C   UNL     1       9.621   2.763  -4.821  1.00  0.00     0.031 A 
ATOM     39  C   UNL     1      10.505   2.957  -6.025  1.00  0.00     0.074 A 
ATOM     40  C   UNL     1      10.156   2.436  -3.631  1.00  0.00     0.049 A 
ATOM     41  N   UNL     1      11.793   2.773  -6.150  1.00  0.00    -0.248 NA
ATOM     42  C   UNL     1       9.840   3.417  -7.255  1.00  0.00     0.031 C 
ATOM     43  C   UNL     1       9.410   2.276  -2.384  1.00  0.00     0.029 A 
ATOM     44  N   UNL     1      11.458   2.172  -3.279  1.00  0.00    -0.354 N 
ATOM     45  C   UNL     1      12.092   3.084  -7.473  1.00  0.00     0.074 A 
ATOM     46  C   UNL     1      10.845   3.437  -8.116  1.00  0.00     0.031 C 
ATOM     47  C   UNL     1      10.266   1.932  -1.405  1.00  0.00     0.029 A 
ATOM     48  C   UNL     1      11.611   1.800  -1.962  1.00  0.00     0.049 A 
ATOM     49  H   UNL     1      12.210   2.242  -3.909  1.00  0.00     0.167 HD
ATOM     50  C   UNL     1      13.297   3.079  -8.092  1.00  0.00     0.034 A 
ATOM     51  C   UNL     1      12.706   1.373  -1.298  1.00  0.00     0.034 A 
ATOM     52  C   UNL     1      14.530   2.717  -7.438  1.00  0.00     0.049 A 
ATOM     53  C   UNL     1      14.023   1.280  -2.039  1.00  0.00     0.074 A 
ATOM     54  C   UNL     1      15.809   2.696  -7.967  1.00  0.00     0.029 A 
ATOM     55  N   UNL     1      14.640   2.298  -6.119  1.00  0.00    -0.354 N 
ATOM     56  N   UNL     1      14.295   1.587  -3.287  1.00  0.00    -0.248 NA
ATOM     57  C   UNL     1      15.181   0.790  -1.279  1.00  0.00     0.031 C 
ATOM     58  C   UNL     1      16.675   2.182  -6.998  1.00  0.00     0.029 A 
ATOM     59  C   UNL     1      15.957   1.977  -5.830  1.00  0.00     0.049 A 
ATOM     60  H   UNL     1      13.892   2.238  -5.482  1.00  0.00     0.167 HD
ATOM     61  C   UNL     1      15.663   1.367  -3.444  1.00  0.00     0.074 A 
ATOM     62  C   UNL     1      16.160   0.915  -2.162  1.00  0.00     0.031 C 
ATOM     63  C   UNL     1      16.441   1.528  -4.546  1.00  0.00     0.034 A 
BRANCH  50  64
ATOM     64  C   UNL     1      13.332   3.419  -9.562  1.00  0.00     0.023 A 
ATOM     65  C   UNL     1      12.982   4.693 -10.041  1.00  0.00     0.031 A 
ATOM     66  C   UNL     1      13.720   2.446 -10.500  1.00  0.00     0.131 A 
ATOM     67  C   UNL     1      12.975   4.943 -11.422  1.00  0.00     0.055 A 
ATOM     68  C   UNL     1      13.787   2.724 -11.866  1.00  0.00     0.041 A 
ATOM     69  F   UNL     1      14.037   1.203 -10.103  1.00  0.00    -0.206 F 
ATOM     70  C   UNL     1      13.403   3.976 -12.335  1.00  0.00     0.022 A 
BRANCH  67  71
ATOM     71  S   UNL     1      12.278   6.507 -12.019  1.00  0.00     0.124 S 
ATOM     72  O   UNL     1      10.915   6.441 -11.498  1.00  0.00    -0.237 OA
ATOM     73  O   UNL     1      13.151   7.498 -11.401  1.00  0.00    -0.237 OA
ATOM     74  O   UNL     1      12.387   6.399 -13.472  1.00  0.00    -0.744 OA
ENDBRANCH  67  71
ENDBRANCH  50  64
BRANCH  51  75
ATOM     75  C   UNL     1      12.619   0.948   0.133  1.00  0.00     0.023 A 
ATOM     76  C   UNL     1      13.382   1.582   1.127  1.00  0.00     0.031 A 
ATOM     77  C   UNL     1      11.842  -0.162   0.512  1.00  0.00     0.131 A 
ATOM     78  C   UNL     1      13.405   1.064   2.432  1.00  0.00     0.055 A 
ATOM     79  C   UNL     1      11.814  -0.631   1.827  1.00  0.00     0.041 A 
ATOM     80  F   UNL     1      11.100  -0.816  -0.396  1.00  0.00    -0.206 F 
ATOM     81  C   UNL     1      12.613  -0.028   2.793  1.00  0.00     0.022 A 
BRANCH  78  82
ATOM     82  S   UNL     1      14.585   1.760   3.621  1.00  0.00     0.124 S 
ATOM     83  O   UNL     1      15.852   1.571   2.925  1.00  0.00    -0.237 OA
ATOM     84  O   UNL     1      14.118   3.137   3.740  1.00  0.00    -0.237 OA
ATOM     85  O   UNL     1      14.396   0.934   4.811  1.00  0.00    -0.744 OA
ENDBRANCH  78  82
ENDBRANCH  51  75
BRANCH  63  86
ATOM     86  C   UNL     1      17.924   1.278  -4.394  1.00  0.00     0.023 A 
ATOM     87  C   UNL     1      18.441   0.003  -4.102  1.00  0.00     0.031 A 
ATOM     88  C   UNL     1      18.835   2.340  -4.543  1.00  0.00     0.131 A 
ATOM     89  C   UNL     1      19.821  -0.165  -3.910  1.00  0.00     0.055 A 
ATOM     90  C   UNL     1      20.213   2.152  -4.423  1.00  0.00     0.041 A 
ATOM     91  F   UNL     1      18.401   3.580  -4.819  1.00  0.00    -0.206 F 
ATOM     92  C   UNL     1      20.712   0.897  -4.090  1.00  0.00     0.022 A 
BRANCH  89  93
ATOM     93  S   UNL     1      20.431  -1.768  -3.321  1.00  0.00     0.124 S 
ATOM     94  O   UNL     1      19.695  -1.932  -2.072  1.00  0.00    -0.237 OA
ATOM     95  O   UNL     1      20.050  -2.666  -4.407  1.00  0.00    -0.237 OA
ATOM     96  O   UNL     1      21.869  -1.554  -3.170  1.00  0.00    -0.744 OA
ENDBRANCH  89  93
ENDBRANCH  63  86
ENDBRANCH  37  38
ENDBRANCH  30  32
ENDBRANCH  29  30
ENDBRANCH  28  29
ENDBRANCH  27  28
ENDBRANCH  26  27
ENDBRANCH  25  26
ENDBRANCH   1  25
TORSDOF 26
