REMARK SMILES Cc1cccc(CN(C)c2nc(C)c(C(=O)OCCOCCOCCOCCOC(=O)c3ccc(-c4c5nc(c(-c6cc(S(=O)(=O)[O-])ccc6F)c6ccc([nH]6)c(-c6cc(S(=O)(=O)[O-])ccc6F)c6nc(c(-c7cc(S(=O)(=O)[O-])ccc7F)c7ccc4[nH]7)C=C6)C=C5)cc3)s2)n1
REMARK SMILES IDX 23 1 22 2 21 3 20 4 19 5 18 6 17 7 15 8 16 9 14 10 10 11
REMARK SMILES IDX 11 12 95 13 12 14 13 15 8 16 9 17 7 18 6 19 1 20 2 21 3 22
REMARK SMILES IDX 96 23 4 24 5 25 24 26 25 27 26 28 27 29 28 30 29 31 30 32
REMARK SMILES IDX 31 33 32 34 33 35 94 36 34 37 93 38 35 39 36 40 37 41 87 42
REMARK SMILES IDX 38 43 92 44 86 45 88 46 39 47 91 48 85 49 84 50 40 52 72 53
REMARK SMILES IDX 52 54 71 55 53 56 56 57 70 58 89 59 54 60 55 61 69 63 90 64
REMARK SMILES IDX 57 65 41 66 42 67 50 68 43 69 49 70 51 71 48 72 44 73 45 74
REMARK SMILES IDX 46 75 47 76 73 77 74 78 82 79 75 80 81 81 83 82 80 83 76 84
REMARK SMILES IDX 77 85 78 86 79 87 58 88 59 89 67 90 60 91 66 92 68 93 65 94
REMARK SMILES IDX 61 95 62 96 63 97 64 98
REMARK H PARENT 88 51 56 62
REMARK Flexibility Score: inf
ROOT
ATOM      1  O   UNL     1      -3.671   0.118   6.910  1.00  0.00    -0.377 OA
ENDROOT
BRANCH   1   2
ATOM      2  C   UNL     1      -3.403  -0.072   5.525  1.00  0.00     0.188 C 
BRANCH   2   3
ATOM      3  C   UNL     1      -2.329  -1.148   5.295  1.00  0.00     0.188 C 
BRANCH   3   4
ATOM      4  O   UNL     1      -2.079  -1.932   6.452  1.00  0.00    -0.376 OA
BRANCH   4   5
ATOM      5  C   UNL     1      -1.067  -1.530   7.369  1.00  0.00     0.202 C 
BRANCH   5   6
ATOM      6  C   UNL     1      -0.863  -0.067   7.812  1.00  0.00     0.261 C 
BRANCH   6   7
ATOM      7  O   UNL     1      -0.968   0.940   6.799  1.00  0.00    -0.459 OA
BRANCH   7   8
ATOM      8  C   UNL     1       0.048   1.108   5.923  1.00  0.00     0.350 C 
ATOM      9  O   UNL     1       1.106   0.490   5.975  1.00  0.00    -0.245 OA
BRANCH   8  10
ATOM     10  C   UNL     1      -0.388   1.999   4.868  1.00  0.00     0.137 A 
ATOM     11  C   UNL     1      -0.796   2.988   2.668  1.00  0.00     0.186 A 
ATOM     12  N   UNL     1      -1.523   3.590   3.582  1.00  0.00    -0.225 NA
ATOM     13  S   UNL     1       0.238   1.760   3.291  1.00  0.00    -0.089 S 
ATOM     14  C   UNL     1      -1.319   3.030   4.840  1.00  0.00     0.065 A 
ATOM     15  C   UNL     1      -2.109   3.609   5.965  1.00  0.00     0.069 C 
BRANCH  11  16
ATOM     16  N   UNL     1      -0.774   3.354   1.358  1.00  0.00    -0.345 N 
ATOM     17  C   UNL     1      -0.640   4.772   1.087  1.00  0.00     0.146 C 
BRANCH  16  18
ATOM     18  C   UNL     1      -1.524   2.555   0.380  1.00  0.00     0.174 C 
BRANCH  18  19
ATOM     19  C   UNL     1      -0.932   1.176   0.138  1.00  0.00     0.060 A 
ATOM     20  C   UNL     1       2.470  -0.173  -0.172  1.00  0.00     0.067 C 
ATOM     21  C   UNL     1       0.974  -0.136  -0.134  1.00  0.00     0.038 A 
ATOM     22  C   UNL     1       0.220  -1.302  -0.129  1.00  0.00     0.023 A 
ATOM     23  N   UNL     1       0.412   1.090  -0.049  1.00  0.00    -0.256 NA
ATOM     24  C   UNL     1      -1.163  -1.203  -0.017  1.00  0.00     0.004 A 
ATOM     25  C   UNL     1      -1.751   0.050   0.127  1.00  0.00     0.026 A 
ENDBRANCH  18  19
ENDBRANCH  16  18
ENDBRANCH  11  16
ENDBRANCH   8  10
ENDBRANCH   7   8
ENDBRANCH   6   7
ENDBRANCH   5   6
ENDBRANCH   4   5
ENDBRANCH   3   4
ENDBRANCH   2   3
ENDBRANCH   1   2
BRANCH   1  26
ATOM     26  C   UNL     1      -4.821  -0.560   7.415  1.00  0.00     0.188 C 
BRANCH  26  27
ATOM     27  C   UNL     1      -5.016  -2.042   7.041  1.00  0.00     0.188 C 
BRANCH  27  28
ATOM     28  O   UNL     1      -5.189  -2.247   5.634  1.00  0.00    -0.376 OA
BRANCH  28  29
ATOM     29  C   UNL     1      -6.519  -2.529   5.206  1.00  0.00     0.202 C 
BRANCH  29  30
ATOM     30  C   UNL     1      -7.405  -1.281   5.083  1.00  0.00     0.261 C 
BRANCH  30  31
ATOM     31  O   UNL     1      -7.711  -0.637   6.331  1.00  0.00    -0.460 OA
BRANCH  31  32
ATOM     32  C   UNL     1      -8.371  -1.383   7.245  1.00  0.00     0.338 C 
ATOM     33  O   UNL     1      -8.812  -2.506   7.085  1.00  0.00    -0.246 OA
BRANCH  32  34
ATOM     34  C   UNL     1      -8.304  -0.691   8.547  1.00  0.00     0.060 A 
ATOM     35  C   UNL     1      -7.860  -1.416   9.659  1.00  0.00     0.016 A 
ATOM     36  C   UNL     1      -8.704   0.642   8.681  1.00  0.00     0.016 A 
ATOM     37  C   UNL     1      -7.877  -0.827  10.922  1.00  0.00     0.010 A 
ATOM     38  C   UNL     1      -8.730   1.228   9.950  1.00  0.00     0.010 A 
ATOM     39  C   UNL     1      -8.358   0.480  11.080  1.00  0.00    -0.014 A 
BRANCH  39  40
ATOM     40  C   UNL     1      -8.666   0.974  12.444  1.00  0.00     0.031 A 
ATOM     41  C   UNL     1     -10.073   0.818  12.958  1.00  0.00     0.074 A 
ATOM     42  C   UNL     1      -7.711   1.506  13.226  1.00  0.00     0.049 A 
ATOM     43  N   UNL     1     -10.572   1.124  14.127  1.00  0.00    -0.248 NA
ATOM     44  C   UNL     1     -11.047   0.238  12.020  1.00  0.00     0.031 C 
ATOM     45  C   UNL     1      -6.312   1.690  12.844  1.00  0.00     0.029 A 
ATOM     46  N   UNL     1      -7.776   1.987  14.509  1.00  0.00    -0.354 N 
ATOM     47  C   UNL     1     -11.913   0.761  14.072  1.00  0.00     0.074 A 
ATOM     48  C   UNL     1     -12.160   0.262  12.736  1.00  0.00     0.031 C 
ATOM     49  C   UNL     1      -5.650   2.248  13.873  1.00  0.00     0.029 A 
ATOM     50  C   UNL     1      -6.581   2.477  14.977  1.00  0.00     0.049 A 
ATOM     51  H   UNL     1      -8.602   1.981  15.044  1.00  0.00     0.167 HD
ATOM     52  C   UNL     1     -12.851   0.823  15.049  1.00  0.00     0.034 A 
ATOM     53  C   UNL     1      -6.279   3.052  16.159  1.00  0.00     0.034 A 
ATOM     54  C   UNL     1     -12.600   1.350  16.368  1.00  0.00     0.049 A 
ATOM     55  C   UNL     1      -7.356   3.176  17.210  1.00  0.00     0.074 A 
ATOM     56  C   UNL     1     -13.473   1.459  17.436  1.00  0.00     0.029 A 
ATOM     57  N   UNL     1     -11.386   1.874  16.794  1.00  0.00    -0.354 N 
ATOM     58  N   UNL     1      -8.614   2.800  17.157  1.00  0.00    -0.248 NA
ATOM     59  C   UNL     1      -6.966   3.788  18.487  1.00  0.00     0.031 C 
ATOM     60  C   UNL     1     -12.807   2.107  18.483  1.00  0.00     0.029 A 
ATOM     61  C   UNL     1     -11.496   2.335  18.097  1.00  0.00     0.049 A 
ATOM     62  H   UNL     1     -10.566   1.912  16.250  1.00  0.00     0.167 HD
ATOM     63  C   UNL     1      -9.155   3.102  18.405  1.00  0.00     0.074 A 
ATOM     64  C   UNL     1      -8.082   3.676  19.192  1.00  0.00     0.031 C 
ATOM     65  C   UNL     1     -10.420   2.919  18.864  1.00  0.00     0.034 A 
BRANCH  52  66
ATOM     66  C   UNL     1     -14.241   0.351  14.697  1.00  0.00     0.023 A 
ATOM     67  C   UNL     1     -14.502  -0.990  14.364  1.00  0.00     0.031 A 
ATOM     68  C   UNL     1     -15.309   1.263  14.646  1.00  0.00     0.131 A 
ATOM     69  C   UNL     1     -15.780  -1.367  13.925  1.00  0.00     0.055 A 
ATOM     70  C   UNL     1     -16.598   0.866  14.282  1.00  0.00     0.041 A 
ATOM     71  F   UNL     1     -15.115   2.561  14.928  1.00  0.00    -0.206 F 
ATOM     72  C   UNL     1     -16.836  -0.453  13.905  1.00  0.00     0.022 A 
BRANCH  69  73
ATOM     73  S   UNL     1     -16.009  -3.033  13.245  1.00  0.00     0.124 S 
ATOM     74  O   UNL     1     -15.056  -3.033  12.137  1.00  0.00    -0.237 OA
ATOM     75  O   UNL     1     -15.671  -3.886  14.378  1.00  0.00    -0.237 OA
ATOM     76  O   UNL     1     -17.415  -3.051  12.847  1.00  0.00    -0.744 OA
ENDBRANCH  69  73
ENDBRANCH  52  66
BRANCH  53  77
ATOM     77  C   UNL     1      -4.908   3.578  16.416  1.00  0.00     0.023 A 
ATOM     78  C   UNL     1      -4.090   3.027  17.416  1.00  0.00     0.031 A 
ATOM     79  C   UNL     1      -4.420   4.687  15.702  1.00  0.00     0.131 A 
ATOM     80  C   UNL     1      -2.849   3.614  17.706  1.00  0.00     0.055 A 
ATOM     81  C   UNL     1      -3.165   5.238  15.962  1.00  0.00     0.041 A 
ATOM     82  F   UNL     1      -5.162   5.251  14.735  1.00  0.00    -0.206 F 
ATOM     83  C   UNL     1      -2.376   4.710  16.979  1.00  0.00     0.022 A 
BRANCH  80  84
ATOM     84  S   UNL     1      -1.891   2.975  19.108  1.00  0.00     0.124 S 
ATOM     85  O   UNL     1      -2.824   3.157  20.214  1.00  0.00    -0.237 OA
ATOM     86  O   UNL     1      -1.641   1.597  18.699  1.00  0.00    -0.237 OA
ATOM     87  O   UNL     1      -0.712   3.838  19.136  1.00  0.00    -0.744 OA
ENDBRANCH  80  84
ENDBRANCH  53  77
BRANCH  65  88
ATOM     88  C   UNL     1     -10.691   3.309  20.297  1.00  0.00     0.023 A 
ATOM     89  C   UNL     1     -10.637   4.647  20.724  1.00  0.00     0.031 A 
ATOM     90  C   UNL     1     -10.985   2.321  21.255  1.00  0.00     0.131 A 
ATOM     91  C   UNL     1     -10.810   4.956  22.082  1.00  0.00     0.055 A 
ATOM     92  C   UNL     1     -11.216   2.641  22.593  1.00  0.00     0.041 A 
ATOM     93  F   UNL     1     -11.050   1.027  20.904  1.00  0.00    -0.206 F 
ATOM     94  C   UNL     1     -11.113   3.963  23.017  1.00  0.00     0.022 A 
BRANCH  91  95
ATOM     95  S   UNL     1     -10.526   6.662  22.630  1.00  0.00     0.124 S 
ATOM     96  O   UNL     1      -9.164   6.908  22.168  1.00  0.00    -0.237 OA
ATOM     97  O   UNL     1     -11.579   7.392  21.932  1.00  0.00    -0.237 OA
ATOM     98  O   UNL     1     -10.683   6.586  24.082  1.00  0.00    -0.744 OA
ENDBRANCH  91  95
ENDBRANCH  65  88
ENDBRANCH  39  40
ENDBRANCH  32  34
ENDBRANCH  31  32
ENDBRANCH  30  31
ENDBRANCH  29  30
ENDBRANCH  28  29
ENDBRANCH  27  28
ENDBRANCH  26  27
ENDBRANCH   1  26
TORSDOF 26
