REMARK SMILES O=C(COCC(=O)OCCOCCOCCOCCOC(=O)c1ccc(-c2c3nc(c(-c4cc(S(=O)(=O)[O-])ccc4F)c4ccc([nH]4)c(-c4cc(S(=O)(=O)[O-])ccc4F)c4nc(c(-c5cc(S(=O)(=O)[O-])ccc5F)c5ccc2[nH]5)C=C4)C=C3)cc1)/[NH+]=C1\S[C@@H]2CS(=O)(=O)C[C@H]2N1c1ccc(Cl)cc1
REMARK SMILES IDX 13 1 12 2 11 3 10 4 9 5 8 6 6 7 7 8 5 9 4 10 3 11 2 12 1 13
REMARK SMILES IDX 86 14 87 15 88 17 96 18 89 19 95 20 90 21 94 22 91 23 92 24
REMARK SMILES IDX 93 25 97 26 98 27 103 28 99 29 102 30 100 31 101 32 14 33
REMARK SMILES IDX 15 34 16 35 17 36 18 37 19 38 20 39 21 40 22 41 23 42 24 43
REMARK SMILES IDX 85 44 25 45 84 46 26 47 27 48 28 49 78 50 29 51 83 52 77 53
REMARK SMILES IDX 79 54 30 55 82 56 76 57 75 58 31 60 63 61 43 62 62 63 44 64
REMARK SMILES IDX 47 65 61 66 80 67 45 68 46 69 60 71 81 72 48 73 32 74 33 75
REMARK SMILES IDX 41 76 34 77 40 78 42 79 39 80 35 81 36 82 37 83 38 84 64 85
REMARK SMILES IDX 65 86 73 87 66 88 72 89 74 90 71 91 67 92 68 93 69 94 70 95
REMARK SMILES IDX 49 96 50 97 58 98 51 99 57 100 59 101 56 102 52 103 53 104
REMARK SMILES IDX 54 105 55 106
REMARK H PARENT 86 16 79 59 47 70
REMARK Flexibility Score: inf
ROOT
ATOM      1  C   UNL     1      -0.073   2.526  -1.196  1.00  0.00     0.188 C 
ENDROOT
BRANCH   1   2
ATOM      2  C   UNL     1      -0.344   2.926   0.257  1.00  0.00     0.188 C 
BRANCH   2   3
ATOM      3  O   UNL     1      -0.714   4.293   0.462  1.00  0.00    -0.376 OA
BRANCH   3   4
ATOM      4  C   UNL     1       0.103   5.290  -0.150  1.00  0.00     0.202 C 
BRANCH   4   5
ATOM      5  C   UNL     1       1.478   5.560   0.487  1.00  0.00     0.261 C 
BRANCH   5   6
ATOM      6  O   UNL     1       2.293   4.392   0.714  1.00  0.00    -0.462 OA
BRANCH   6   7
ATOM      7  C   UNL     1       2.442   4.009   2.011  1.00  0.00     0.332 C 
ATOM      8  O   UNL     1       1.943   4.585   2.973  1.00  0.00    -0.250 OA
BRANCH   7   9
ATOM      9  C   UNL     1       3.274   2.715   2.187  1.00  0.00     0.283 C 
BRANCH   9  10
ATOM     10  O   UNL     1       3.973   2.055   1.144  1.00  0.00    -0.358 OA
BRANCH  10  11
ATOM     11  C   UNL     1       3.118   1.445   0.195  1.00  0.00     0.288 C 
BRANCH  11  12
ATOM     12  C   UNL     1       2.585  -0.005   0.374  1.00  0.00     0.333 C 
ATOM     13  O   UNL     1       1.506  -0.331  -0.120  1.00  0.00    -0.244 OA
ATOM     14  N   UNL     1       3.318  -0.896   1.118  1.00  0.00    -0.202 N 
ATOM     15  C   UNL     1       4.492  -1.256   0.730  1.00  0.00     0.319 C 
ATOM     16  H   UNL     1       2.944  -1.261   1.952  1.00  0.00     0.316 HD
ATOM     17  S   UNL     1       5.340  -0.601  -0.707  1.00  0.00    -0.029 SA
ATOM     18  N   UNL     1       5.366  -2.120   1.400  1.00  0.00    -0.217 N 
ATOM     19  C   UNL     1       6.845  -0.661   0.269  1.00  0.00     0.120 C 
ATOM     20  C   UNL     1       6.733  -2.084   0.843  1.00  0.00     0.212 C 
ATOM     21  C   UNL     1       8.202  -0.497  -0.351  1.00  0.00     0.156 C 
ATOM     22  C   UNL     1       7.925  -2.175   1.762  1.00  0.00     0.188 C 
ATOM     23  S   UNL     1       9.235  -1.435   0.780  1.00  0.00     0.155 S 
ATOM     24  O   UNL     1       9.967  -0.522   1.630  1.00  0.00    -0.229 OA
ATOM     25  O   UNL     1       9.882  -2.490   0.031  1.00  0.00    -0.229 OA
BRANCH  18  26
ATOM     26  C   UNL     1       4.937  -3.236   2.136  1.00  0.00     0.128 A 
ATOM     27  C   UNL     1       5.545  -3.586   3.351  1.00  0.00     0.053 A 
ATOM     28  C   UNL     1       3.864  -4.035   1.700  1.00  0.00     0.053 A 
ATOM     29  C   UNL     1       5.115  -4.693   4.095  1.00  0.00     0.025 A 
ATOM     30  C   UNL     1       3.432  -5.148   2.436  1.00  0.00     0.025 A 
ATOM     31  C   UNL     1       4.062  -5.473   3.632  1.00  0.00     0.041 A 
ATOM     32  Cl  UNL     1       3.532  -6.828   4.548  1.00  0.00    -0.084 Cl
ENDBRANCH  18  26
ENDBRANCH  11  12
ENDBRANCH  10  11
ENDBRANCH   9  10
ENDBRANCH   7   9
ENDBRANCH   6   7
ENDBRANCH   5   6
ENDBRANCH   4   5
ENDBRANCH   3   4
ENDBRANCH   2   3
ENDBRANCH   1   2
BRANCH   1  33
ATOM     33  O   UNL     1       1.142   3.119  -1.653  1.00  0.00    -0.377 OA
BRANCH  33  34
ATOM     34  C   UNL     1       1.296   3.409  -3.041  1.00  0.00     0.188 C 
BRANCH  34  35
ATOM     35  C   UNL     1       0.098   3.167  -3.963  1.00  0.00     0.188 C 
BRANCH  35  36
ATOM     36  O   UNL     1      -0.353   1.822  -4.126  1.00  0.00    -0.376 OA
BRANCH  36  37
ATOM     37  C   UNL     1       0.585   0.759  -3.988  1.00  0.00     0.202 C 
BRANCH  37  38
ATOM     38  C   UNL     1       1.529   0.487  -5.162  1.00  0.00     0.261 C 
BRANCH  38  39
ATOM     39  O   UNL     1       2.360   1.607  -5.486  1.00  0.00    -0.460 OA
BRANCH  39  40
ATOM     40  C   UNL     1       1.889   2.390  -6.483  1.00  0.00     0.338 C 
ATOM     41  O   UNL     1       0.855   2.240  -7.120  1.00  0.00    -0.246 OA
BRANCH  40  42
ATOM     42  C   UNL     1       2.747   3.578  -6.591  1.00  0.00     0.060 A 
ATOM     43  C   UNL     1       2.156   4.849  -6.548  1.00  0.00     0.016 A 
ATOM     44  C   UNL     1       4.117   3.429  -6.809  1.00  0.00     0.016 A 
ATOM     45  C   UNL     1       2.931   5.982  -6.764  1.00  0.00     0.010 A 
ATOM     46  C   UNL     1       4.887   4.561  -7.057  1.00  0.00     0.010 A 
ATOM     47  C   UNL     1       4.285   5.832  -7.078  1.00  0.00    -0.014 A 
BRANCH  47  48
ATOM     48  C   UNL     1       5.019   6.956  -7.694  1.00  0.00     0.031 A 
ATOM     49  C   UNL     1       5.111   6.978  -9.194  1.00  0.00     0.074 A 
ATOM     50  C   UNL     1       5.593   7.905  -6.938  1.00  0.00     0.049 A 
ATOM     51  N   UNL     1       5.833   7.740  -9.968  1.00  0.00    -0.248 NA
ATOM     52  C   UNL     1       4.285   5.993  -9.916  1.00  0.00     0.031 C 
ATOM     53  C   UNL     1       5.490   8.004  -5.483  1.00  0.00     0.029 A 
ATOM     54  N   UNL     1       6.399   8.954  -7.293  1.00  0.00    -0.354 N 
ATOM     55  C   UNL     1       5.570   7.312 -11.265  1.00  0.00     0.074 A 
ATOM     56  C   UNL     1       4.636   6.213 -11.173  1.00  0.00     0.031 C 
ATOM     57  C   UNL     1       6.235   9.043  -5.066  1.00  0.00     0.029 A 
ATOM     58  C   UNL     1       6.908   9.641  -6.216  1.00  0.00     0.049 A 
ATOM     59  H   UNL     1       6.595   9.193  -8.228  1.00  0.00     0.167 HD
ATOM     60  C   UNL     1       6.075   7.795 -12.423  1.00  0.00     0.034 A 
ATOM     61  C   UNL     1       7.848  10.607  -6.175  1.00  0.00     0.034 A 
ATOM     62  C   UNL     1       7.007   8.891 -12.478  1.00  0.00     0.049 A 
ATOM     63  C   UNL     1       8.463  11.070  -7.479  1.00  0.00     0.074 A 
ATOM     64  C   UNL     1       7.576   9.480 -13.591  1.00  0.00     0.029 A 
ATOM     65  N   UNL     1       7.514   9.555 -11.368  1.00  0.00    -0.354 N 
ATOM     66  N   UNL     1       8.215  10.657  -8.703  1.00  0.00    -0.248 NA
ATOM     67  C   UNL     1       9.476  12.130  -7.400  1.00  0.00     0.031 C 
ATOM     68  C   UNL     1       8.490  10.442 -13.152  1.00  0.00     0.029 A 
ATOM     69  C   UNL     1       8.415  10.524 -11.770  1.00  0.00     0.049 A 
ATOM     70  H   UNL     1       7.268   9.364 -10.434  1.00  0.00     0.167 HD
ATOM     71  C   UNL     1       9.003  11.447  -9.537  1.00  0.00     0.074 A 
ATOM     72  C   UNL     1       9.732  12.357  -8.680  1.00  0.00     0.031 C 
ATOM     73  C   UNL     1       9.111  11.433 -10.890  1.00  0.00     0.034 A 
BRANCH  60  74
ATOM     74  C   UNL     1       5.687   7.106 -13.706  1.00  0.00     0.023 A 
ATOM     75  C   UNL     1       4.368   7.115 -14.191  1.00  0.00     0.031 A 
ATOM     76  C   UNL     1       6.664   6.433 -14.461  1.00  0.00     0.131 A 
ATOM     77  C   UNL     1       4.055   6.429 -15.374  1.00  0.00     0.055 A 
ATOM     78  C   UNL     1       6.361   5.816 -15.675  1.00  0.00     0.041 A 
ATOM     79  F   UNL     1       7.933   6.362 -14.028  1.00  0.00    -0.206 F 
ATOM     80  C   UNL     1       5.048   5.805 -16.134  1.00  0.00     0.022 A 
BRANCH  77  81
ATOM     81  S   UNL     1       2.314   6.271 -15.853  1.00  0.00     0.124 S 
ATOM     82  O   UNL     1       1.759   5.548 -14.710  1.00  0.00    -0.237 OA
ATOM     83  O   UNL     1       1.896   7.661 -15.993  1.00  0.00    -0.237 OA
ATOM     84  O   UNL     1       2.368   5.507 -17.098  1.00  0.00    -0.744 OA
ENDBRANCH  77  81
ENDBRANCH  60  74
BRANCH  61  85
ATOM     85  C   UNL     1       8.317  11.166  -4.873  1.00  0.00     0.023 A 
ATOM     86  C   UNL     1       8.207  12.537  -4.597  1.00  0.00     0.031 A 
ATOM     87  C   UNL     1       8.967  10.356  -3.923  1.00  0.00     0.131 A 
ATOM     88  C   UNL     1       8.805  13.070  -3.445  1.00  0.00     0.055 A 
ATOM     89  C   UNL     1       9.495  10.880  -2.742  1.00  0.00     0.041 A 
ATOM     90  F   UNL     1       9.105   9.037  -4.133  1.00  0.00    -0.206 F 
ATOM     91  C   UNL     1       9.434  12.249  -2.507  1.00  0.00     0.022 A 
BRANCH  88  92
ATOM     92  S   UNL     1       8.875  14.874  -3.267  1.00  0.00     0.124 S 
ATOM     93  O   UNL     1       9.529  15.265  -4.511  1.00  0.00    -0.237 OA
ATOM     94  O   UNL     1       7.463  15.219  -3.147  1.00  0.00    -0.237 OA
ATOM     95  O   UNL     1       9.669  15.064  -2.056  1.00  0.00    -0.744 OA
ENDBRANCH  88  92
ENDBRANCH  61  85
BRANCH  73  96
ATOM     96  C   UNL     1       9.975  12.490 -11.532  1.00  0.00     0.023 A 
ATOM     97  C   UNL     1      11.371  12.513 -11.378  1.00  0.00     0.031 A 
ATOM     98  C   UNL     1       9.380  13.473 -12.344  1.00  0.00     0.131 A 
ATOM     99  C   UNL     1      12.121  13.527 -11.992  1.00  0.00     0.055 A 
ATOM    100  C   UNL     1      10.137  14.438 -13.005  1.00  0.00     0.041 A 
ATOM    101  F   UNL     1       8.049  13.497 -12.523  1.00  0.00    -0.206 F 
ATOM    102  C   UNL     1      11.516  14.476 -12.822  1.00  0.00     0.022 A 
BRANCH  99 103
ATOM    103  S   UNL     1      13.894  13.640 -11.632  1.00  0.00     0.124 S 
ATOM    104  O   UNL     1      13.899  13.813 -10.183  1.00  0.00    -0.237 OA
ATOM    105  O   UNL     1      14.395  12.360 -12.122  1.00  0.00    -0.237 OA
ATOM    106  O   UNL     1      14.327  14.807 -12.397  1.00  0.00    -0.744 OA
ENDBRANCH  99 103
ENDBRANCH  73  96
ENDBRANCH  47  48
ENDBRANCH  40  42
ENDBRANCH  39  40
ENDBRANCH  38  39
ENDBRANCH  37  38
ENDBRANCH  36  37
ENDBRANCH  35  36
ENDBRANCH  34  35
ENDBRANCH  33  34
ENDBRANCH   1  33
TORSDOF 27
