REMARK SMILES C[C@H]1OCC[C@@H]1C(=O)Nc1sc2c(c1C(=O)OCCOCCOCCOCCOC(=O)c1ccc(-c3c4nc(c(-c5cc(S(=O)(=O)[O-])ccc5F)c5ccc([nH]5)c(-c5cc(S(=O)(=O)[O-])ccc5F)c5nc(c(-c6cc(S(=O)(=O)[O-])ccc6F)c6ccc3[nH]6)C=C5)C=C4)cc1)CCC2
REMARK SMILES IDX 24 1 23 2 22 3 21 4 20 5 19 6 18 7 17 8 15 9 16 10 14 11
REMARK SMILES IDX 10 12 11 13 12 14 13 15 97 16 95 17 96 18 9 19 7 20 8 21
REMARK SMILES IDX 6 23 1 24 2 25 3 26 4 27 5 28 25 29 26 30 27 31 28 32 29 33
REMARK SMILES IDX 30 34 31 35 32 36 33 37 94 38 34 39 93 40 35 41 36 42 37 43
REMARK SMILES IDX 87 44 38 45 92 46 86 47 88 48 39 49 91 50 85 51 84 52 40 54
REMARK SMILES IDX 72 55 52 56 71 57 53 58 56 59 70 60 89 61 54 62 55 63 69 65
REMARK SMILES IDX 90 66 57 67 41 68 42 69 50 70 43 71 49 72 51 73 48 74 44 75
REMARK SMILES IDX 45 76 46 77 47 78 73 79 74 80 82 81 75 82 81 83 83 84 80 85
REMARK SMILES IDX 76 86 77 87 78 88 79 89 58 90 59 91 67 92 60 93 66 94 68 95
REMARK SMILES IDX 65 96 61 97 62 98 63 99 64 100
REMARK H PARENT 9 22 88 53 56 64
REMARK Flexibility Score: inf
ROOT
ATOM      1  C   UNL     1      -1.601   1.328  -3.081  1.00  0.00     0.188 C 
ENDROOT
BRANCH   1   2
ATOM      2  O   UNL     1      -1.667   0.302  -2.092  1.00  0.00    -0.377 OA
BRANCH   2   3
ATOM      3  C   UNL     1      -1.785  -1.028  -2.587  1.00  0.00     0.188 C 
BRANCH   3   4
ATOM      4  C   UNL     1      -2.799  -1.807  -1.765  1.00  0.00     0.188 C 
BRANCH   4   5
ATOM      5  O   UNL     1      -4.136  -1.399  -2.050  1.00  0.00    -0.376 OA
BRANCH   5   6
ATOM      6  C   UNL     1      -4.578  -0.230  -1.347  1.00  0.00     0.202 C 
BRANCH   6   7
ATOM      7  C   UNL     1      -4.918  -0.509   0.125  1.00  0.00     0.261 C 
BRANCH   7   8
ATOM      8  O   UNL     1      -3.870  -0.107   1.043  1.00  0.00    -0.460 OA
BRANCH   8   9
ATOM      9  C   UNL     1      -3.665  -0.945   2.113  1.00  0.00     0.341 C 
ATOM     10  O   UNL     1      -4.208  -2.032   2.245  1.00  0.00    -0.246 OA
BRANCH   9  11
ATOM     11  C   UNL     1      -2.728  -0.420   3.111  1.00  0.00     0.098 A 
ATOM     12  C   UNL     1      -1.645  -1.137   3.617  1.00  0.00     0.110 A 
ATOM     13  S   UNL     1      -0.884  -0.403   4.969  1.00  0.00    -0.122 S 
ATOM     14  C   UNL     1      -1.728   0.998   4.668  1.00  0.00     0.011 A 
ATOM     15  C   UNL     1      -2.669   0.892   3.676  1.00  0.00    -0.017 A 
ATOM     16  C   UNL     1      -1.567   2.354   5.232  1.00  0.00     0.047 C 
ATOM     17  C   UNL     1      -3.302   2.215   3.431  1.00  0.00     0.038 C 
ATOM     18  C   UNL     1      -2.309   3.191   4.152  1.00  0.00     0.010 C 
BRANCH  12  19
ATOM     19  N   UNL     1      -1.082  -2.344   3.258  1.00  0.00    -0.317 N 
ATOM     20  C   UNL     1       0.176  -2.387   2.699  1.00  0.00     0.230 C 
ATOM     21  O   UNL     1       0.977  -3.207   3.169  1.00  0.00    -0.274 OA
ATOM     22  H   UNL     1      -1.583  -3.180   3.401  1.00  0.00     0.170 HD
BRANCH  20  23
ATOM     23  C   UNL     1       0.587  -1.564   1.474  1.00  0.00     0.110 C 
ATOM     24  C   UNL     1       2.758  -0.540   0.702  1.00  0.00     0.039 C 
ATOM     25  C   UNL     1       1.620  -0.472   1.720  1.00  0.00     0.127 C 
ATOM     26  O   UNL     1       0.987   0.803   1.512  1.00  0.00    -0.378 OA
ATOM     27  C   UNL     1      -0.319   0.606   0.985  1.00  0.00     0.161 C 
ATOM     28  C   UNL     1      -0.465  -0.862   0.671  1.00  0.00     0.044 C 
ENDBRANCH  20  23
ENDBRANCH  12  19
ENDBRANCH   9  11
ENDBRANCH   8   9
ENDBRANCH   7   8
ENDBRANCH   6   7
ENDBRANCH   5   6
ENDBRANCH   4   5
ENDBRANCH   3   4
ENDBRANCH   2   3
ENDBRANCH   1   2
BRANCH   1  29
ATOM     29  C   UNL     1      -0.967   0.960  -4.429  1.00  0.00     0.188 C 
BRANCH  29  30
ATOM     30  O   UNL     1       0.249   0.207  -4.438  1.00  0.00    -0.376 OA
BRANCH  30  31
ATOM     31  C   UNL     1       1.202   0.324  -3.380  1.00  0.00     0.202 C 
BRANCH  31  32
ATOM     32  C   UNL     1       2.156   1.507  -3.429  1.00  0.00     0.261 C 
BRANCH  32  33
ATOM     33  O   UNL     1       1.404   2.689  -3.232  1.00  0.00    -0.460 OA
BRANCH  33  34
ATOM     34  C   UNL     1       0.961   3.216  -4.394  1.00  0.00     0.338 C 
ATOM     35  O   UNL     1       1.176   2.805  -5.518  1.00  0.00    -0.246 OA
BRANCH  34  36
ATOM     36  C   UNL     1       0.160   4.423  -4.087  1.00  0.00     0.060 A 
ATOM     37  C   UNL     1      -0.082   5.131  -5.258  1.00  0.00     0.016 A 
ATOM     38  C   UNL     1       0.507   5.056  -2.884  1.00  0.00     0.016 A 
ATOM     39  C   UNL     1       0.592   6.314  -5.370  1.00  0.00     0.010 A 
ATOM     40  C   UNL     1       1.181   6.242  -2.990  1.00  0.00     0.010 A 
ATOM     41  C   UNL     1       1.304   6.796  -4.258  1.00  0.00    -0.014 A 
BRANCH  41  42
ATOM     42  C   UNL     1       1.964   8.059  -4.445  1.00  0.00     0.031 A 
ATOM     43  C   UNL     1       0.964   9.125  -4.617  1.00  0.00     0.074 A 
ATOM     44  C   UNL     1       3.287   8.261  -4.434  1.00  0.00     0.049 A 
ATOM     45  N   UNL     1       0.637   9.711  -5.717  1.00  0.00    -0.248 NA
ATOM     46  C   UNL     1       0.023   9.333  -3.506  1.00  0.00     0.031 C 
ATOM     47  C   UNL     1       4.359   7.366  -4.010  1.00  0.00     0.029 A 
ATOM     48  N   UNL     1       3.932   9.416  -4.728  1.00  0.00    -0.354 N 
ATOM     49  C   UNL     1      -0.421  10.537  -5.380  1.00  0.00     0.074 A 
ATOM     50  C   UNL     1      -0.904  10.070  -4.112  1.00  0.00     0.031 C 
ATOM     51  C   UNL     1       5.491   8.095  -3.855  1.00  0.00     0.029 A 
ATOM     52  C   UNL     1       5.240   9.466  -4.281  1.00  0.00     0.049 A 
ATOM     53  H   UNL     1       3.506  10.156  -5.218  1.00  0.00     0.167 HD
ATOM     54  C   UNL     1      -0.628  11.702  -6.043  1.00  0.00     0.034 A 
ATOM     55  C   UNL     1       5.991  10.592  -4.179  1.00  0.00     0.034 A 
ATOM     56  C   UNL     1       0.022  11.676  -7.339  1.00  0.00     0.049 A 
ATOM     57  C   UNL     1       5.391  11.604  -5.095  1.00  0.00     0.074 A 
ATOM     58  C   UNL     1      -0.083  10.846  -8.442  1.00  0.00     0.029 A 
ATOM     59  N   UNL     1       1.224  12.336  -7.492  1.00  0.00    -0.354 N 
ATOM     60  N   UNL     1       5.380  11.483  -6.394  1.00  0.00    -0.248 NA
ATOM     61  C   UNL     1       4.382  12.512  -4.561  1.00  0.00     0.031 C 
ATOM     62  C   UNL     1       1.250  10.693  -8.926  1.00  0.00     0.029 A 
ATOM     63  C   UNL     1       2.089  11.487  -8.142  1.00  0.00     0.049 A 
ATOM     64  H   UNL     1       1.426  13.251  -7.190  1.00  0.00     0.167 HD
ATOM     65  C   UNL     1       4.133  11.939  -6.798  1.00  0.00     0.074 A 
ATOM     66  C   UNL     1       3.605  12.657  -5.640  1.00  0.00     0.031 C 
ATOM     67  C   UNL     1       3.527  11.456  -7.924  1.00  0.00     0.034 A 
BRANCH  54  68
ATOM     68  C   UNL     1      -1.057  12.972  -5.342  1.00  0.00     0.023 A 
ATOM     69  C   UNL     1      -1.093  14.133  -6.128  1.00  0.00     0.031 A 
ATOM     70  C   UNL     1      -1.156  13.181  -3.943  1.00  0.00     0.131 A 
ATOM     71  C   UNL     1      -1.077  15.405  -5.536  1.00  0.00     0.055 A 
ATOM     72  C   UNL     1      -1.204  14.448  -3.361  1.00  0.00     0.041 A 
ATOM     73  F   UNL     1      -1.138  12.195  -3.041  1.00  0.00    -0.206 F 
ATOM     74  C   UNL     1      -1.124  15.573  -4.156  1.00  0.00     0.022 A 
BRANCH  71  75
ATOM     75  S   UNL     1      -0.804  16.831  -6.610  1.00  0.00     0.124 S 
ATOM     76  O   UNL     1       0.416  16.437  -7.307  1.00  0.00    -0.237 OA
ATOM     77  O   UNL     1      -2.028  16.840  -7.404  1.00  0.00    -0.237 OA
ATOM     78  O   UNL     1      -0.660  17.938  -5.669  1.00  0.00    -0.744 OA
ENDBRANCH  71  75
ENDBRANCH  54  68
BRANCH  55  79
ATOM     79  C   UNL     1       6.967  10.925  -3.108  1.00  0.00     0.023 A 
ATOM     80  C   UNL     1       7.880  11.990  -3.240  1.00  0.00     0.031 A 
ATOM     81  C   UNL     1       6.857  10.342  -1.825  1.00  0.00     0.131 A 
ATOM     82  C   UNL     1       8.631  12.428  -2.126  1.00  0.00     0.055 A 
ATOM     83  C   UNL     1       7.611  10.767  -0.731  1.00  0.00     0.041 A 
ATOM     84  F   UNL     1       5.943   9.396  -1.560  1.00  0.00    -0.206 F 
ATOM     85  C   UNL     1       8.496  11.822  -0.874  1.00  0.00     0.022 A 
BRANCH  82  86
ATOM     86  S   UNL     1       9.712  13.885  -2.261  1.00  0.00     0.124 S 
ATOM     87  O   UNL     1      10.858  13.351  -2.987  1.00  0.00    -0.237 OA
ATOM     88  O   UNL     1       8.873  14.837  -2.980  1.00  0.00    -0.237 OA
ATOM     89  O   UNL     1       9.977  14.240  -0.866  1.00  0.00    -0.744 OA
ENDBRANCH  82  86
ENDBRANCH  55  79
BRANCH  67  90
ATOM     90  C   UNL     1       4.361  10.643  -8.901  1.00  0.00     0.023 A 
ATOM     91  C   UNL     1       5.109   9.491  -8.563  1.00  0.00     0.031 A 
ATOM     92  C   UNL     1       4.308  11.003 -10.260  1.00  0.00     0.131 A 
ATOM     93  C   UNL     1       5.783   8.765  -9.565  1.00  0.00     0.055 A 
ATOM     94  C   UNL     1       4.957  10.268 -11.252  1.00  0.00     0.041 A 
ATOM     95  F   UNL     1       3.595  12.071 -10.656  1.00  0.00    -0.206 F 
ATOM     96  C   UNL     1       5.704   9.149 -10.907  1.00  0.00     0.022 A 
BRANCH  93  97
ATOM     97  S   UNL     1       6.804   7.316  -9.138  1.00  0.00     0.124 S 
ATOM     98  O   UNL     1       7.569   7.762  -7.981  1.00  0.00    -0.237 OA
ATOM     99  O   UNL     1       5.798   6.288  -8.884  1.00  0.00    -0.237 OA
ATOM    100  O   UNL     1       7.602   7.097 -10.347  1.00  0.00    -0.744 OA
ENDBRANCH  93  97
ENDBRANCH  67  90
ENDBRANCH  41  42
ENDBRANCH  34  36
ENDBRANCH  33  34
ENDBRANCH  32  33
ENDBRANCH  31  32
ENDBRANCH  30  31
ENDBRANCH  29  30
ENDBRANCH   1  29
TORSDOF 25
