REMARK SMILES CC[NH+]1CCN(c2ccc(NC(=O)C3CCCC3)c(C(=O)OCCOCCOCCOCCOC(=O)c3ccc(-c4c5nc(c(-c6cc(S(=O)(=O)[O-])ccc6F)c6ccc([nH]6)c(-c6cc(S(=O)(=O)[O-])ccc6F)c6nc(c(-c7cc(S(=O)(=O)[O-])ccc7F)c7ccc4[nH]7)C=C6)C=C5)cc3)c2)CC1
REMARK SMILES IDX 29 1 28 2 27 3 26 4 25 5 24 6 23 7 22 8 20 9 21 10 19 11
REMARK SMILES IDX 7 12 8 13 100 14 9 15 10 16 6 17 3 18 4 19 102 20 5 22
REMARK SMILES IDX 101 23 2 24 1 25 11 26 12 27 13 29 14 30 15 31 18 32 16 33
REMARK SMILES IDX 17 34 30 35 31 36 32 37 33 38 34 39 35 40 36 41 37 42 38 43
REMARK SMILES IDX 99 44 39 45 98 46 40 47 41 48 42 49 92 50 43 51 97 52 91 53
REMARK SMILES IDX 93 54 44 55 96 56 90 57 89 58 45 60 77 61 57 62 76 63 58 64
REMARK SMILES IDX 61 65 75 66 94 67 59 68 60 69 74 71 95 72 62 73 46 74 47 75
REMARK SMILES IDX 55 76 48 77 54 78 56 79 53 80 49 81 50 82 51 83 52 84 78 85
REMARK SMILES IDX 79 86 87 87 80 88 86 89 88 90 85 91 81 92 82 93 83 94 84 95
REMARK SMILES IDX 63 96 64 97 72 98 65 99 71 100 73 101 70 102 66 103 67 104
REMARK SMILES IDX 68 105 69 106
REMARK H PARENT 3 21 11 28 93 59 61 70
REMARK Flexibility Score: inf
ROOT
ATOM      1  C   UNL     1       6.177  -6.967  -3.272  1.00  0.00     0.188 C 
ENDROOT
BRANCH   1   2
ATOM      2  O   UNL     1       5.642  -6.057  -2.322  1.00  0.00    -0.377 OA
BRANCH   2   3
ATOM      3  C   UNL     1       6.193  -5.998  -1.020  1.00  0.00     0.188 C 
BRANCH   3   4
ATOM      4  C   UNL     1       6.488  -7.308  -0.268  1.00  0.00     0.188 C 
BRANCH   4   5
ATOM      5  O   UNL     1       6.052  -8.480  -0.946  1.00  0.00    -0.376 OA
BRANCH   5   6
ATOM      6  C   UNL     1       5.047  -9.239  -0.288  1.00  0.00     0.202 C 
BRANCH   6   7
ATOM      7  C   UNL     1       3.635  -8.683  -0.488  1.00  0.00     0.261 C 
BRANCH   7   8
ATOM      8  O   UNL     1       3.446  -7.339  -0.015  1.00  0.00    -0.460 OA
BRANCH   8   9
ATOM      9  C   UNL     1       3.538  -7.083   1.310  1.00  0.00     0.340 C 
ATOM     10  O   UNL     1       3.738  -7.891   2.201  1.00  0.00    -0.246 OA
BRANCH   9  11
ATOM     11  C   UNL     1       3.629  -5.606   1.460  1.00  0.00     0.085 A 
ATOM     12  C   UNL     1       3.043  -3.426   0.476  1.00  0.00     0.038 A 
ATOM     13  C   UNL     1       4.111  -2.903   1.202  1.00  0.00     0.028 A 
ATOM     14  C   UNL     1       2.817  -4.799   0.623  1.00  0.00     0.043 A 
ATOM     15  C   UNL     1       4.899  -3.691   2.039  1.00  0.00     0.029 A 
ATOM     16  C   UNL     1       4.647  -5.033   2.247  1.00  0.00     0.055 A 
BRANCH  12  17
ATOM     17  N   UNL     1       2.329  -2.645  -0.423  1.00  0.00    -0.360 N 
ATOM     18  N   UNL     1       0.785  -0.844  -2.192  1.00  0.00    -0.332 N 
ATOM     19  C   UNL     1       2.248  -0.799  -2.134  1.00  0.00     0.283 C 
ATOM     20  C   UNL     1       0.308  -2.185  -1.820  1.00  0.00     0.283 C 
ATOM     21  H   UNL     1       0.525  -0.689  -3.166  1.00  0.00     0.348 HD
ATOM     22  C   UNL     1       2.893  -1.350  -0.849  1.00  0.00     0.178 C 
ATOM     23  C   UNL     1       0.867  -2.784  -0.511  1.00  0.00     0.178 C 
BRANCH  18  24
ATOM     24  C   UNL     1       0.077   0.276  -1.581  1.00  0.00     0.258 C 
ATOM     25  C   UNL     1       0.457   0.716  -0.173  1.00  0.00     0.071 C 
ENDBRANCH  18  24
ENDBRANCH  12  17
BRANCH  16  26
ATOM     26  N   UNL     1       5.464  -5.809   3.096  1.00  0.00    -0.325 N 
ATOM     27  C   UNL     1       6.380  -5.532   4.066  1.00  0.00     0.227 C 
ATOM     28  H   UNL     1       5.344  -6.776   2.955  1.00  0.00     0.169 HD
ATOM     29  O   UNL     1       7.116  -6.473   4.403  1.00  0.00    -0.274 OA
BRANCH  27  30
ATOM     30  C   UNL     1       6.564  -4.196   4.799  1.00  0.00     0.079 C 
ATOM     31  C   UNL     1       7.587  -3.237   4.189  1.00  0.00     0.013 C 
ATOM     32  C   UNL     1       5.323  -3.375   5.166  1.00  0.00     0.013 C 
ATOM     33  C   UNL     1       7.141  -1.850   4.641  1.00  0.00     0.001 C 
ATOM     34  C   UNL     1       5.628  -1.927   4.784  1.00  0.00     0.001 C 
ENDBRANCH  27  30
ENDBRANCH  16  26
ENDBRANCH   9  11
ENDBRANCH   8   9
ENDBRANCH   7   8
ENDBRANCH   6   7
ENDBRANCH   5   6
ENDBRANCH   4   5
ENDBRANCH   3   4
ENDBRANCH   2   3
ENDBRANCH   1   2
BRANCH   1  35
ATOM     35  C   UNL     1       7.651  -7.417  -3.191  1.00  0.00     0.188 C 
BRANCH  35  36
ATOM     36  O   UNL     1       8.482  -6.615  -2.358  1.00  0.00    -0.376 OA
BRANCH  36  37
ATOM     37  C   UNL     1       9.437  -5.802  -3.026  1.00  0.00     0.202 C 
BRANCH  37  38
ATOM     38  C   UNL     1       8.837  -4.536  -3.647  1.00  0.00     0.261 C 
BRANCH  38  39
ATOM     39  O   UNL     1       7.897  -4.774  -4.705  1.00  0.00    -0.460 OA
BRANCH  39  40
ATOM     40  C   UNL     1       8.360  -5.429  -5.794  1.00  0.00     0.338 C 
ATOM     41  O   UNL     1       9.498  -5.809  -5.996  1.00  0.00    -0.246 OA
BRANCH  40  42
ATOM     42  C   UNL     1       7.197  -5.769  -6.633  1.00  0.00     0.060 A 
ATOM     43  C   UNL     1       6.955  -7.112  -6.948  1.00  0.00     0.016 A 
ATOM     44  C   UNL     1       6.344  -4.762  -7.091  1.00  0.00     0.016 A 
ATOM     45  C   UNL     1       5.867  -7.449  -7.753  1.00  0.00     0.010 A 
ATOM     46  C   UNL     1       5.270  -5.098  -7.914  1.00  0.00     0.010 A 
ATOM     47  C   UNL     1       5.046  -6.439  -8.272  1.00  0.00    -0.014 A 
BRANCH  47  48
ATOM     48  C   UNL     1       4.091  -6.749  -9.361  1.00  0.00     0.031 A 
ATOM     49  C   UNL     1       4.559  -6.562 -10.778  1.00  0.00     0.074 A 
ATOM     50  C   UNL     1       2.843  -7.175  -9.102  1.00  0.00     0.049 A 
ATOM     51  N   UNL     1       3.899  -6.695 -11.898  1.00  0.00    -0.248 NA
ATOM     52  C   UNL     1       5.966  -6.162 -10.949  1.00  0.00     0.031 C 
ATOM     53  C   UNL     1       2.294  -7.426  -7.771  1.00  0.00     0.029 A 
ATOM     54  N   UNL     1       1.805  -7.460  -9.954  1.00  0.00    -0.354 N 
ATOM     55  C   UNL     1       4.808  -6.397 -12.907  1.00  0.00     0.074 A 
ATOM     56  C   UNL     1       6.054  -6.040 -12.263  1.00  0.00     0.031 C 
ATOM     57  C   UNL     1       1.012  -7.812  -7.895  1.00  0.00     0.029 A 
ATOM     58  C   UNL     1       0.639  -7.800  -9.309  1.00  0.00     0.049 A 
ATOM     59  H   UNL     1       1.888  -7.423 -10.934  1.00  0.00     0.167 HD
ATOM     60  C   UNL     1       4.622  -6.424 -14.249  1.00  0.00     0.034 A 
ATOM     61  C   UNL     1      -0.591  -8.043  -9.808  1.00  0.00     0.034 A 
ATOM     62  C   UNL     1       3.366  -6.755 -14.873  1.00  0.00     0.049 A 
ATOM     63  C   UNL     1      -0.800  -7.976 -11.304  1.00  0.00     0.074 A 
ATOM     64  C   UNL     1       3.064  -6.819 -16.222  1.00  0.00     0.029 A 
ATOM     65  N   UNL     1       2.196  -7.060 -14.189  1.00  0.00    -0.354 N 
ATOM     66  N   UNL     1       0.070  -7.710 -12.252  1.00  0.00    -0.248 NA
ATOM     67  C   UNL     1      -2.157  -8.250 -11.797  1.00  0.00     0.031 C 
ATOM     68  C   UNL     1       1.698  -7.095 -16.351  1.00  0.00     0.029 A 
ATOM     69  C   UNL     1       1.164  -7.280 -15.086  1.00  0.00     0.049 A 
ATOM     70  H   UNL     1       2.113  -7.112 -13.209  1.00  0.00     0.167 HD
ATOM     71  C   UNL     1      -0.628  -7.817 -13.453  1.00  0.00     0.074 A 
ATOM     72  C   UNL     1      -1.987  -8.183 -13.110  1.00  0.00     0.031 C 
ATOM     73  C   UNL     1      -0.188  -7.638 -14.725  1.00  0.00     0.034 A 
BRANCH  60  74
ATOM     74  C   UNL     1       5.792  -6.029 -15.114  1.00  0.00     0.023 A 
ATOM     75  C   UNL     1       6.975  -6.789 -15.150  1.00  0.00     0.031 A 
ATOM     76  C   UNL     1       5.740  -4.853 -15.882  1.00  0.00     0.131 A 
ATOM     77  C   UNL     1       8.079  -6.330 -15.882  1.00  0.00     0.055 A 
ATOM     78  C   UNL     1       6.816  -4.441 -16.670  1.00  0.00     0.041 A 
ATOM     79  F   UNL     1       4.647  -4.074 -15.866  1.00  0.00    -0.206 F 
ATOM     80  C   UNL     1       8.000  -5.173 -16.662  1.00  0.00     0.022 A 
BRANCH  77  81
ATOM     81  S   UNL     1       9.665  -7.189 -15.693  1.00  0.00     0.124 S 
ATOM     82  O   UNL     1       9.906  -7.050 -14.258  1.00  0.00    -0.237 OA
ATOM     83  O   UNL     1       9.354  -8.534 -16.161  1.00  0.00    -0.237 OA
ATOM     84  O   UNL     1      10.573  -6.425 -16.546  1.00  0.00    -0.744 OA
ENDBRANCH  77  81
ENDBRANCH  60  74
BRANCH  61  85
ATOM     85  C   UNL     1      -1.739  -8.323  -8.897  1.00  0.00     0.023 A 
ATOM     86  C   UNL     1      -2.417  -9.552  -8.937  1.00  0.00     0.031 A 
ATOM     87  C   UNL     1      -2.220  -7.333  -8.021  1.00  0.00     0.131 A 
ATOM     88  C   UNL     1      -3.568  -9.742  -8.154  1.00  0.00     0.055 A 
ATOM     89  C   UNL     1      -3.333  -7.546  -7.205  1.00  0.00     0.041 A 
ATOM     90  F   UNL     1      -1.613  -6.139  -7.946  1.00  0.00    -0.206 F 
ATOM     91  C   UNL     1      -4.023  -8.752  -7.280  1.00  0.00     0.022 A 
BRANCH  88  92
ATOM     92  S   UNL     1      -4.520 -11.272  -8.364  1.00  0.00     0.124 S 
ATOM     93  O   UNL     1      -4.847 -11.226  -9.784  1.00  0.00    -0.237 OA
ATOM     94  O   UNL     1      -3.553 -12.287  -7.961  1.00  0.00    -0.237 OA
ATOM     95  O   UNL     1      -5.651 -11.096  -7.456  1.00  0.00    -0.744 OA
ENDBRANCH  88  92
ENDBRANCH  61  85
BRANCH  73  96
ATOM     96  C   UNL     1      -1.175  -7.889 -15.839  1.00  0.00     0.023 A 
ATOM     97  C   UNL     1      -2.288  -7.056 -16.048  1.00  0.00     0.031 A 
ATOM     98  C   UNL     1      -0.994  -8.982 -16.706  1.00  0.00     0.131 A 
ATOM     99  C   UNL     1      -3.204  -7.358 -17.068  1.00  0.00     0.055 A 
ATOM    100  C   UNL     1      -1.876  -9.242 -17.755  1.00  0.00     0.041 A 
ATOM    101  F   UNL     1       0.052  -9.810 -16.553  1.00  0.00    -0.206 F 
ATOM    102  C   UNL     1      -2.996  -8.435 -17.933  1.00  0.00     0.022 A 
BRANCH  99 103
ATOM    103  S   UNL     1      -4.720  -6.369 -17.201  1.00  0.00     0.124 S 
ATOM    104  O   UNL     1      -5.329  -6.570 -15.890  1.00  0.00    -0.237 OA
ATOM    105  O   UNL     1      -4.199  -5.032 -17.464  1.00  0.00    -0.237 OA
ATOM    106  O   UNL     1      -5.434  -6.985 -18.317  1.00  0.00    -0.744 OA
ENDBRANCH  99 103
ENDBRANCH  73  96
ENDBRANCH  47  48
ENDBRANCH  40  42
ENDBRANCH  39  40
ENDBRANCH  38  39
ENDBRANCH  37  38
ENDBRANCH  36  37
ENDBRANCH  35  36
ENDBRANCH   1  35
TORSDOF 27
