REMARK SMILES O=C(OCCOCCOCCOCCOC(=O)c1cc(-c2ccc[nH]c2=O)ccc1Cl)c1ccc(-c2c3nc(c(-c4cc(S(=O)(=O)[O-])ccc4F)c4ccc([nH]4)c(-c4cc(S(=O)(=O)[O-])ccc4F)c4nc(c(-c5cc(S(=O)(=O)[O-])ccc5F)c5ccc2[nH]5)C=C4)C=C3)cc1
REMARK SMILES IDX 8 1 7 2 6 3 5 4 4 5 3 6 2 7 1 8 32 9 33 10 94 11 34 12 93 13
REMARK SMILES IDX 35 14 36 15 37 16 87 17 38 18 92 19 86 20 88 21 39 22 91 23
REMARK SMILES IDX 85 24 84 25 40 27 72 28 52 29 71 30 53 31 56 32 70 33 89 34
REMARK SMILES IDX 54 35 55 36 69 38 90 39 57 40 41 41 42 42 50 43 43 44 49 45
REMARK SMILES IDX 51 46 48 47 44 48 45 49 46 50 47 51 73 52 74 53 82 54 75 55
REMARK SMILES IDX 81 56 83 57 80 58 76 59 77 60 78 61 79 62 58 63 59 64 67 65
REMARK SMILES IDX 60 66 66 67 68 68 65 69 61 70 62 71 63 72 64 73 9 74 10 75
REMARK SMILES IDX 11 76 12 77 13 78 14 79 15 80 16 81 17 82 18 83 19 84 30 85
REMARK SMILES IDX 20 86 29 87 31 88 28 89 21 90 22 91 26 92 23 93 25 94 27 95
REMARK SMILES IDX 24 96
REMARK H PARENT 88 26 56 37 25 97
REMARK Flexibility Score: inf
ROOT
ATOM      1  C   UNL     1       1.870   1.546  -2.348  1.00  0.00     0.188 C 
ENDROOT
BRANCH   1   2
ATOM      2  C   UNL     1       2.324   0.247  -1.684  1.00  0.00     0.188 C 
BRANCH   2   3
ATOM      3  O   UNL     1       3.625   0.416  -1.131  1.00  0.00    -0.376 OA
BRANCH   3   4
ATOM      4  C   UNL     1       4.461  -0.727  -1.010  1.00  0.00     0.202 C 
BRANCH   4   5
ATOM      5  C   UNL     1       3.976  -1.837  -0.074  1.00  0.00     0.261 C 
BRANCH   5   6
ATOM      6  O   UNL     1       2.582  -1.761   0.266  1.00  0.00    -0.460 OA
BRANCH   6   7
ATOM      7  C   UNL     1       2.011  -1.124   1.321  1.00  0.00     0.338 C 
ATOM      8  O   UNL     1       0.809  -1.278   1.530  1.00  0.00    -0.246 OA
BRANCH   7   9
ATOM      9  C   UNL     1       2.781  -0.257   2.252  1.00  0.00     0.060 A 
ATOM     10  C   UNL     1       3.793   0.613   1.855  1.00  0.00     0.016 A 
ATOM     11  C   UNL     1       2.401  -0.249   3.599  1.00  0.00     0.016 A 
ATOM     12  C   UNL     1       4.547   1.321   2.773  1.00  0.00     0.010 A 
ATOM     13  C   UNL     1       3.092   0.539   4.525  1.00  0.00     0.010 A 
ATOM     14  C   UNL     1       4.216   1.274   4.121  1.00  0.00    -0.014 A 
BRANCH  14  15
ATOM     15  C   UNL     1       5.185   1.824   5.091  1.00  0.00     0.031 A 
ATOM     16  C   UNL     1       5.913   0.846   5.968  1.00  0.00     0.074 A 
ATOM     17  C   UNL     1       5.512   3.130   5.071  1.00  0.00     0.049 A 
ATOM     18  N   UNL     1       6.714   1.061   6.973  1.00  0.00    -0.248 NA
ATOM     19  C   UNL     1       5.696  -0.580   5.667  1.00  0.00     0.031 C 
ATOM     20  C   UNL     1       4.971   4.123   4.138  1.00  0.00     0.029 A 
ATOM     21  N   UNL     1       6.410   3.839   5.822  1.00  0.00    -0.354 N 
ATOM     22  C   UNL     1       7.038  -0.198   7.469  1.00  0.00     0.074 A 
ATOM     23  C   UNL     1       6.340  -1.169   6.659  1.00  0.00     0.031 C 
ATOM     24  C   UNL     1       5.589   5.298   4.340  1.00  0.00     0.029 A 
ATOM     25  C   UNL     1       6.485   5.170   5.481  1.00  0.00     0.049 A 
ATOM     26  H   UNL     1       6.950   3.435   6.539  1.00  0.00     0.167 HD
ATOM     27  C   UNL     1       7.842  -0.502   8.515  1.00  0.00     0.034 A 
ATOM     28  C   UNL     1       7.172   6.172   6.064  1.00  0.00     0.034 A 
ATOM     29  C   UNL     1       8.536   0.509   9.271  1.00  0.00     0.049 A 
ATOM     30  C   UNL     1       7.990   5.826   7.284  1.00  0.00     0.074 A 
ATOM     31  C   UNL     1       9.322   0.369  10.398  1.00  0.00     0.029 A 
ATOM     32  N   UNL     1       8.525   1.866   8.956  1.00  0.00    -0.354 N 
ATOM     33  N   UNL     1       8.196   4.648   7.834  1.00  0.00    -0.248 NA
ATOM     34  C   UNL     1       8.650   6.938   7.973  1.00  0.00     0.031 C 
ATOM     35  C   UNL     1       9.736   1.646  10.797  1.00  0.00     0.029 A 
ATOM     36  C   UNL     1       9.273   2.577   9.877  1.00  0.00     0.049 A 
ATOM     37  H   UNL     1       8.053   2.262   8.188  1.00  0.00     0.167 HD
ATOM     38  C   UNL     1       9.025   4.877   8.926  1.00  0.00     0.074 A 
ATOM     39  C   UNL     1       9.300   6.302   8.937  1.00  0.00     0.031 C 
ATOM     40  C   UNL     1       9.514   4.002   9.844  1.00  0.00     0.034 A 
BRANCH  27  41
ATOM     41  C   UNL     1       7.889  -1.952   8.938  1.00  0.00     0.023 A 
ATOM     42  C   UNL     1       8.371  -2.968   8.092  1.00  0.00     0.031 A 
ATOM     43  C   UNL     1       7.312  -2.339  10.162  1.00  0.00     0.131 A 
ATOM     44  C   UNL     1       8.166  -4.316   8.429  1.00  0.00     0.055 A 
ATOM     45  C   UNL     1       7.198  -3.680  10.534  1.00  0.00     0.041 A 
ATOM     46  F   UNL     1       6.804  -1.420  10.998  1.00  0.00    -0.206 F 
ATOM     47  C   UNL     1       7.606  -4.679   9.656  1.00  0.00     0.022 A 
BRANCH  44  48
ATOM     48  S   UNL     1       8.460  -5.583   7.161  1.00  0.00     0.124 S 
ATOM     49  O   UNL     1       7.543  -5.160   6.104  1.00  0.00    -0.237 OA
ATOM     50  O   UNL     1       9.880  -5.422   6.874  1.00  0.00    -0.237 OA
ATOM     51  O   UNL     1       8.094  -6.831   7.829  1.00  0.00    -0.744 OA
ENDBRANCH  44  48
ENDBRANCH  27  41
BRANCH  28  52
ATOM     52  C   UNL     1       7.060   7.578   5.569  1.00  0.00     0.023 A 
ATOM     53  C   UNL     1       8.191   8.297   5.148  1.00  0.00     0.031 A 
ATOM     54  C   UNL     1       5.820   8.247   5.552  1.00  0.00     0.131 A 
ATOM     55  C   UNL     1       8.066   9.644   4.765  1.00  0.00     0.055 A 
ATOM     56  C   UNL     1       5.692   9.566   5.113  1.00  0.00     0.041 A 
ATOM     57  F   UNL     1       4.703   7.620   5.954  1.00  0.00    -0.206 F 
ATOM     58  C   UNL     1       6.822  10.277   4.729  1.00  0.00     0.022 A 
BRANCH  55  59
ATOM     59  S   UNL     1       9.571  10.591   4.400  1.00  0.00     0.124 S 
ATOM     60  O   UNL     1      10.327  10.436   5.638  1.00  0.00    -0.237 OA
ATOM     61  O   UNL     1      10.096   9.887   3.235  1.00  0.00    -0.237 OA
ATOM     62  O   UNL     1       9.070  11.939   4.140  1.00  0.00    -0.744 OA
ENDBRANCH  55  59
ENDBRANCH  28  52
BRANCH  40  63
ATOM     63  C   UNL     1      10.429   4.577  10.892  1.00  0.00     0.023 A 
ATOM     64  C   UNL     1       9.958   5.464  11.873  1.00  0.00     0.031 A 
ATOM     65  C   UNL     1      11.794   4.243  10.891  1.00  0.00     0.131 A 
ATOM     66  C   UNL     1      10.860   6.041  12.777  1.00  0.00     0.055 A 
ATOM     67  C   UNL     1      12.675   4.769  11.835  1.00  0.00     0.041 A 
ATOM     68  F   UNL     1      12.292   3.400   9.973  1.00  0.00    -0.206 F 
ATOM     69  C   UNL     1      12.212   5.685  12.776  1.00  0.00     0.022 A 
BRANCH  66  70
ATOM     70  S   UNL     1      10.261   7.345  13.884  1.00  0.00     0.124 S 
ATOM     71  O   UNL     1       9.748   8.332  12.939  1.00  0.00    -0.237 OA
ATOM     72  O   UNL     1       9.259   6.643  14.679  1.00  0.00    -0.237 OA
ATOM     73  O   UNL     1      11.460   7.750  14.615  1.00  0.00    -0.744 OA
ENDBRANCH  66  70
ENDBRANCH  40  63
ENDBRANCH  14  15
ENDBRANCH   7   9
ENDBRANCH   6   7
ENDBRANCH   5   6
ENDBRANCH   4   5
ENDBRANCH   3   4
ENDBRANCH   2   3
ENDBRANCH   1   2
BRANCH   1  74
ATOM     74  O   UNL     1       2.581   1.876  -3.539  1.00  0.00    -0.377 OA
BRANCH  74  75
ATOM     75  C   UNL     1       4.000   1.802  -3.454  1.00  0.00     0.188 C 
BRANCH  75  76
ATOM     76  C   UNL     1       4.742   2.716  -2.453  1.00  0.00     0.188 C 
BRANCH  76  77
ATOM     77  O   UNL     1       3.879   3.513  -1.655  1.00  0.00    -0.376 OA
BRANCH  77  78
ATOM     78  C   UNL     1       3.924   4.909  -1.929  1.00  0.00     0.202 C 
BRANCH  78  79
ATOM     79  C   UNL     1       3.318   5.334  -3.274  1.00  0.00     0.261 C 
BRANCH  79  80
ATOM     80  O   UNL     1       3.799   4.608  -4.421  1.00  0.00    -0.460 OA
BRANCH  80  81
ATOM     81  C   UNL     1       4.994   4.923  -4.970  1.00  0.00     0.339 C 
ATOM     82  O   UNL     1       5.781   5.769  -4.588  1.00  0.00    -0.246 OA
BRANCH  81  83
ATOM     83  C   UNL     1       5.271   3.886  -5.994  1.00  0.00     0.079 A 
ATOM     84  C   UNL     1       6.306   2.958  -5.738  1.00  0.00     0.026 A 
ATOM     85  C   UNL     1       4.399   3.681  -7.070  1.00  0.00     0.055 A 
ATOM     86  C   UNL     1       6.399   1.779  -6.496  1.00  0.00    -0.012 A 
ATOM     87  C   UNL     1       4.535   2.538  -7.861  1.00  0.00     0.022 A 
ATOM     88  Cl  UNL     1       3.128   4.782  -7.464  1.00  0.00    -0.083 Cl
ATOM     89  C   UNL     1       5.514   1.586  -7.565  1.00  0.00     0.010 A 
BRANCH  86  90
ATOM     90  C   UNL     1       7.301   0.674  -6.124  1.00  0.00     0.047 A 
ATOM     91  C   UNL     1       6.907  -0.250  -5.224  1.00  0.00     0.016 A 
ATOM     92  C   UNL     1       8.614   0.464  -6.823  1.00  0.00     0.255 A 
ATOM     93  C   UNL     1       7.722  -1.403  -4.910  1.00  0.00     0.019 A 
ATOM     94  N   UNL     1       9.315  -0.668  -6.466  1.00  0.00    -0.329 N 
ATOM     95  O   UNL     1       9.033   1.234  -7.681  1.00  0.00    -0.269 OA
ATOM     96  C   UNL     1       8.889  -1.581  -5.538  1.00  0.00     0.086 A 
ATOM     97  H   UNL     1      10.180  -0.832  -6.908  1.00  0.00     0.169 HD
ENDBRANCH  86  90
ENDBRANCH  81  83
ENDBRANCH  80  81
ENDBRANCH  79  80
ENDBRANCH  78  79
ENDBRANCH  77  78
ENDBRANCH  76  77
ENDBRANCH  75  76
ENDBRANCH  74  75
ENDBRANCH   1  74
TORSDOF 24
