REMARK SMILES O=C(OCCOCCOCCOCCOC(=O)[C@@H](NC(=O)[C@H]1CC[C@@H]2CCCC[C@H]2[NH2+]1)C1CC1)c1ccc(-c2c3nc(c(-c4cc(S(=O)(=O)[O-])ccc4F)c4ccc([nH]4)c(-c4cc(S(=O)(=O)[O-])ccc4F)c4nc(c(-c5cc(S(=O)(=O)[O-])ccc5F)c5ccc2[nH]5)C=C4)C=C3)cc1
REMARK SMILES IDX 8 1 7 2 6 3 5 4 4 5 3 6 2 7 1 8 35 9 36 10 97 11 37 12 96 13
REMARK SMILES IDX 38 14 39 15 40 16 90 17 41 18 95 19 89 20 91 21 42 22 94 23
REMARK SMILES IDX 88 24 87 25 43 27 75 28 55 29 74 30 56 31 59 32 73 33 92 34
REMARK SMILES IDX 57 35 58 36 72 38 93 39 60 40 44 41 45 42 53 43 46 44 52 45
REMARK SMILES IDX 54 46 51 47 47 48 48 49 49 50 50 51 76 52 77 53 85 54 78 55
REMARK SMILES IDX 84 56 86 57 83 58 79 59 80 60 81 61 82 62 61 63 62 64 70 65
REMARK SMILES IDX 63 66 69 67 71 68 68 69 64 70 65 71 66 72 67 73 9 74 10 75
REMARK SMILES IDX 11 76 12 77 13 78 14 79 15 80 16 81 17 82 18 83 19 84 20 85
REMARK SMILES IDX 21 87 22 88 23 89 31 90 24 91 30 92 25 95 29 96 26 97 28 98
REMARK SMILES IDX 27 99 32 100 33 101 34 102
REMARK H PARENT 91 26 59 37 19 86 31 93 31 94
REMARK Flexibility Score: inf
ROOT
ATOM      1  C   UNL     1       2.454   2.740  -0.629  1.00  0.00     0.188 C 
ENDROOT
BRANCH   1   2
ATOM      2  C   UNL     1       2.587   1.253  -0.892  1.00  0.00     0.188 C 
BRANCH   2   3
ATOM      3  O   UNL     1       3.843   0.811  -0.422  1.00  0.00    -0.376 OA
BRANCH   3   4
ATOM      4  C   UNL     1       4.636   0.036  -1.308  1.00  0.00     0.202 C 
BRANCH   4   5
ATOM      5  C   UNL     1       4.134  -1.390  -1.499  1.00  0.00     0.261 C 
BRANCH   5   6
ATOM      6  O   UNL     1       2.763  -1.586  -1.109  1.00  0.00    -0.460 OA
BRANCH   6   7
ATOM      7  C   UNL     1       2.234  -1.806   0.120  1.00  0.00     0.338 C 
ATOM      8  O   UNL     1       1.020  -1.995   0.202  1.00  0.00    -0.246 OA
BRANCH   7   9
ATOM      9  C   UNL     1       3.019  -1.847   1.390  1.00  0.00     0.060 A 
ATOM     10  C   UNL     1       4.132  -1.063   1.672  1.00  0.00     0.016 A 
ATOM     11  C   UNL     1       2.526  -2.660   2.423  1.00  0.00     0.016 A 
ATOM     12  C   UNL     1       4.789  -1.113   2.882  1.00  0.00     0.010 A 
ATOM     13  C   UNL     1       3.164  -2.704   3.669  1.00  0.00     0.010 A 
ATOM     14  C   UNL     1       4.320  -1.945   3.883  1.00  0.00    -0.014 A 
BRANCH  14  15
ATOM     15  C   UNL     1       5.228  -2.149   5.019  1.00  0.00     0.031 A 
ATOM     16  C   UNL     1       6.004  -3.430   5.039  1.00  0.00     0.074 A 
ATOM     17  C   UNL     1       5.512  -1.122   5.841  1.00  0.00     0.049 A 
ATOM     18  N   UNL     1       6.822  -3.889   5.941  1.00  0.00    -0.248 NA
ATOM     19  C   UNL     1       5.845  -4.307   3.864  1.00  0.00     0.031 C 
ATOM     20  C   UNL     1       4.944   0.228   5.734  1.00  0.00     0.029 A 
ATOM     21  N   UNL     1       6.380  -1.031   6.893  1.00  0.00    -0.354 N 
ATOM     22  C   UNL     1       7.251  -5.120   5.458  1.00  0.00     0.074 A 
ATOM     23  C   UNL     1       6.587  -5.348   4.197  1.00  0.00     0.031 C 
ATOM     24  C   UNL     1       5.492   1.011   6.677  1.00  0.00     0.029 A 
ATOM     25  C   UNL     1       6.366   0.198   7.511  1.00  0.00     0.049 A 
ATOM     26  H   UNL     1       6.959  -1.774   7.180  1.00  0.00     0.167 HD
ATOM     27  C   UNL     1       8.126  -5.976   6.034  1.00  0.00     0.034 A 
ATOM     28  C   UNL     1       6.953   0.584   8.659  1.00  0.00     0.034 A 
ATOM     29  C   UNL     1       8.744  -5.695   7.302  1.00  0.00     0.049 A 
ATOM     30  C   UNL     1       7.789  -0.452   9.374  1.00  0.00     0.074 A 
ATOM     31  C   UNL     1       9.541  -6.507   8.083  1.00  0.00     0.029 A 
ATOM     32  N   UNL     1       8.625  -4.480   7.974  1.00  0.00    -0.354 N 
ATOM     33  N   UNL     1       8.085  -1.677   8.994  1.00  0.00    -0.248 NA
ATOM     34  C   UNL     1       8.361  -0.065  10.665  1.00  0.00     0.031 C 
ATOM     35  C   UNL     1       9.850  -5.806   9.254  1.00  0.00     0.029 A 
ATOM     36  C   UNL     1       9.319  -4.526   9.168  1.00  0.00     0.049 A 
ATOM     37  H   UNL     1       8.119  -3.702   7.646  1.00  0.00     0.167 HD
ATOM     38  C   UNL     1       8.900  -2.199   9.992  1.00  0.00     0.074 A 
ATOM     39  C   UNL     1       9.070  -1.141  10.971  1.00  0.00     0.031 C 
ATOM     40  C   UNL     1       9.455  -3.434  10.105  1.00  0.00     0.034 A 
BRANCH  27  41
ATOM     41  C   UNL     1       8.342  -7.296   5.340  1.00  0.00     0.023 A 
ATOM     42  C   UNL     1       8.924  -7.377   4.061  1.00  0.00     0.031 A 
ATOM     43  C   UNL     1       7.847  -8.480   5.914  1.00  0.00     0.131 A 
ATOM     44  C   UNL     1       8.918  -8.597   3.366  1.00  0.00     0.055 A 
ATOM     45  C   UNL     1       7.923  -9.707   5.252  1.00  0.00     0.041 A 
ATOM     46  F   UNL     1       7.244  -8.458   7.113  1.00  0.00    -0.206 F 
ATOM     47  C   UNL     1       8.445  -9.768   3.963  1.00  0.00     0.022 A 
BRANCH  44  48
ATOM     48  S   UNL     1       9.382  -8.596   1.612  1.00  0.00     0.124 S 
ATOM     49  O   UNL     1       8.359  -7.725   1.037  1.00  0.00    -0.237 OA
ATOM     50  O   UNL     1      10.734  -8.062   1.639  1.00  0.00    -0.237 OA
ATOM     51  O   UNL     1       9.274 -10.007   1.229  1.00  0.00    -0.744 OA
ENDBRANCH  44  48
ENDBRANCH  27  41
BRANCH  28  52
ATOM     52  C   UNL     1       6.692   1.931   9.253  1.00  0.00     0.023 A 
ATOM     53  C   UNL     1       7.739   2.805   9.585  1.00  0.00     0.031 A 
ATOM     54  C   UNL     1       5.381   2.334   9.582  1.00  0.00     0.131 A 
ATOM     55  C   UNL     1       7.467   3.996  10.280  1.00  0.00     0.055 A 
ATOM     56  C   UNL     1       5.110   3.552  10.208  1.00  0.00     0.041 A 
ATOM     57  F   UNL     1       4.334   1.541   9.305  1.00  0.00    -0.206 F 
ATOM     58  C   UNL     1       6.160   4.382  10.580  1.00  0.00     0.022 A 
BRANCH  55  59
ATOM     59  S   UNL     1       8.864   4.971  10.907  1.00  0.00     0.124 S 
ATOM     60  O   UNL     1       9.597   3.978  11.678  1.00  0.00    -0.237 OA
ATOM     61  O   UNL     1       9.494   5.424   9.673  1.00  0.00    -0.237 OA
ATOM     62  O   UNL     1       8.216   6.022  11.696  1.00  0.00    -0.744 OA
ENDBRANCH  55  59
ENDBRANCH  28  52
BRANCH  40  63
ATOM     63  C   UNL     1      10.335  -3.663  11.304  1.00  0.00     0.023 A 
ATOM     64  C   UNL     1       9.815  -3.666  12.608  1.00  0.00     0.031 A 
ATOM     65  C   UNL     1      11.715  -3.871  11.133  1.00  0.00     0.131 A 
ATOM     66  C   UNL     1      10.683  -3.801  13.698  1.00  0.00     0.055 A 
ATOM     67  C   UNL     1      12.561  -4.084  12.219  1.00  0.00     0.041 A 
ATOM     68  F   UNL     1      12.259  -3.875   9.905  1.00  0.00    -0.206 F 
ATOM     69  C   UNL     1      12.049  -4.033  13.512  1.00  0.00     0.022 A 
BRANCH  66  70
ATOM     70  S   UNL     1      10.018  -3.552  15.365  1.00  0.00     0.124 S 
ATOM     71  O   UNL     1       9.473  -2.201  15.273  1.00  0.00    -0.237 OA
ATOM     72  O   UNL     1       9.038  -4.628  15.474  1.00  0.00    -0.237 OA
ATOM     73  O   UNL     1      11.191  -3.691  16.225  1.00  0.00    -0.744 OA
ENDBRANCH  66  70
ENDBRANCH  40  63
ENDBRANCH  14  15
ENDBRANCH   7   9
ENDBRANCH   6   7
ENDBRANCH   5   6
ENDBRANCH   4   5
ENDBRANCH   3   4
ENDBRANCH   2   3
ENDBRANCH   1   2
BRANCH   1  74
ATOM     74  O   UNL     1       3.590   3.523  -0.993  1.00  0.00    -0.377 OA
BRANCH  74  75
ATOM     75  C   UNL     1       4.868   3.236  -0.429  1.00  0.00     0.188 C 
BRANCH  75  76
ATOM     76  C   UNL     1       5.045   3.136   1.096  1.00  0.00     0.188 C 
BRANCH  76  77
ATOM     77  O   UNL     1       3.845   3.090   1.856  1.00  0.00    -0.376 OA
BRANCH  77  78
ATOM     78  C   UNL     1       3.603   4.247   2.654  1.00  0.00     0.202 C 
BRANCH  78  79
ATOM     79  C   UNL     1       2.757   5.319   1.952  1.00  0.00     0.261 C 
BRANCH  79  80
ATOM     80  O   UNL     1       3.169   5.670   0.623  1.00  0.00    -0.462 OA
BRANCH  80  81
ATOM     81  C   UNL     1       4.386   6.254   0.480  1.00  0.00     0.329 C 
ATOM     82  O   UNL     1       5.124   6.521   1.421  1.00  0.00    -0.250 OA
BRANCH  81  83
ATOM     83  C   UNL     1       4.700   6.591  -1.016  1.00  0.00     0.195 C 
BRANCH  83  84
ATOM     84  N   UNL     1       3.691   5.927  -1.904  1.00  0.00    -0.337 N 
ATOM     85  C   UNL     1       3.273   5.944  -3.205  1.00  0.00     0.278 C 
ATOM     86  H   UNL     1       3.163   5.275  -1.388  1.00  0.00     0.164 HD
ATOM     87  O   UNL     1       2.750   4.942  -3.693  1.00  0.00    -0.268 OA
BRANCH  85  88
ATOM     88  C   UNL     1       3.410   7.234  -3.977  1.00  0.00     0.272 C 
ATOM     89  C   UNL     1       2.990   7.257  -5.444  1.00  0.00     0.076 C 
ATOM     90  N   UNL     1       2.542   8.260  -3.354  1.00  0.00    -0.333 N 
ATOM     91  C   UNL     1       3.390   8.624  -6.041  1.00  0.00     0.016 C 
ATOM     92  C   UNL     1       3.190   9.522  -3.644  1.00  0.00     0.186 C 
ATOM     93  H   UNL     1       2.479   8.112  -2.346  1.00  0.00     0.347 HD
ATOM     94  H   UNL     1       1.589   8.226  -3.714  1.00  0.00     0.347 HD
ATOM     95  C   UNL     1       3.022   9.837  -5.136  1.00  0.00     0.048 C 
ATOM     96  C   UNL     1       2.731  10.665  -2.748  1.00  0.00     0.065 C 
ATOM     97  C   UNL     1       3.902  11.058  -5.447  1.00  0.00     0.010 C 
ATOM     98  C   UNL     1       3.652  11.851  -3.017  1.00  0.00     0.006 C 
ATOM     99  C   UNL     1       3.635  12.236  -4.498  1.00  0.00     0.001 C 
ENDBRANCH  85  88
ENDBRANCH  83  84
BRANCH  83 100
ATOM    100  C   UNL     1       4.844   8.077  -1.152  1.00  0.00     0.023 C 
ATOM    101  C   UNL     1       5.744   8.890  -0.239  1.00  0.00     0.007 C 
ATOM    102  C   UNL     1       6.127   8.701  -1.669  1.00  0.00     0.007 C 
ENDBRANCH  83 100
ENDBRANCH  81  83
ENDBRANCH  80  81
ENDBRANCH  79  80
ENDBRANCH  78  79
ENDBRANCH  77  78
ENDBRANCH  76  77
ENDBRANCH  75  76
ENDBRANCH  74  75
ENDBRANCH   1  74
TORSDOF 26
