REMARK SMILES C[NH2+][C@@]1(C(=O)OCCOCCOCCOCCOC(=O)c2ccc(-c3c4nc(c(-c5cc(S(=O)(=O)[O-])ccc5F)c5ccc([nH]5)c(-c5cc(S(=O)(=O)[O-])ccc5F)c5nc(c(-c6cc(S(=O)(=O)[O-])ccc6F)c6ccc3[nH]6)C=C5)C=C4)cc2)CCC[C@H]1CCSc1nccc(=O)[nH]1
REMARK SMILES IDX 11 1 10 2 9 3 8 4 7 5 6 6 4 7 5 8 3 9 84 10 87 11 85 12
REMARK SMILES IDX 86 13 2 14 1 15 88 18 89 19 90 20 91 21 92 22 97 23 93 24
REMARK SMILES IDX 95 25 94 27 96 28 12 29 13 30 14 31 15 32 16 33 17 34 18 35
REMARK SMILES IDX 19 36 20 37 21 38 22 39 83 40 23 41 82 42 24 43 25 44 26 45
REMARK SMILES IDX 76 46 27 47 81 48 75 49 77 50 28 51 80 52 74 53 73 54 29 56
REMARK SMILES IDX 61 57 41 58 60 59 42 60 45 61 59 62 78 63 43 64 44 65 58 67
REMARK SMILES IDX 79 68 46 69 30 70 31 71 39 72 32 73 38 74 40 75 37 76 33 77
REMARK SMILES IDX 34 78 35 79 36 80 62 81 63 82 71 83 64 84 70 85 72 86 69 87
REMARK SMILES IDX 65 88 66 89 67 90 68 91 47 92 48 93 56 94 49 95 55 96 57 97
REMARK SMILES IDX 54 98 50 99 51 100 52 101 53 102
REMARK H PARENT 2 16 2 17 97 26 77 55 45 66
REMARK Flexibility Score: inf
ROOT
ATOM      1  C   UNL     1      -1.313  -4.345   1.852  1.00  0.00     0.188 C 
ENDROOT
BRANCH   1   2
ATOM      2  C   UNL     1       0.236  -3.122   2.892  1.00  0.00     0.188 C 
BRANCH   2   3
ATOM      3  O   UNL     1       0.094  -1.466   3.430  1.00  0.00    -0.376 OA
BRANCH   3   4
ATOM      4  C   UNL     1      -0.979  -0.831   4.264  1.00  0.00     0.202 C 
BRANCH   4   5
ATOM      5  C   UNL     1      -2.063   0.192   3.565  1.00  0.00     0.261 C 
BRANCH   5   6
ATOM      6  O   UNL     1      -2.341   0.032   2.122  1.00  0.00    -0.459 OA
BRANCH   6   7
ATOM      7  C   UNL     1      -1.556   0.711   1.262  1.00  0.00     0.368 C 
ATOM      8  O   UNL     1      -1.003   1.749   1.631  1.00  0.00    -0.245 OA
BRANCH   7   9
ATOM      9  C   UNL     1      -1.300   0.064  -0.226  1.00  0.00     0.197 C 
ATOM     10  C   UNL     1      -1.975   0.991  -1.248  1.00  0.00     0.081 C 
ATOM     11  C   UNL     1      -1.845  -1.335  -0.767  1.00  0.00     0.063 C 
ATOM     12  C   UNL     1      -3.395   0.434  -1.363  1.00  0.00     0.008 C 
ATOM     13  C   UNL     1      -3.224  -1.066  -1.401  1.00  0.00     0.011 C 
BRANCH   9  14
ATOM     14  N   UNL     1       0.173  -0.043  -0.301  1.00  0.00    -0.334 N 
ATOM     15  C   UNL     1       0.959   1.158  -0.451  1.00  0.00     0.331 C 
ATOM     16  H   UNL     1       0.484  -0.498   0.557  1.00  0.00     0.347 HD
ATOM     17  H   UNL     1       0.336  -0.549  -1.172  1.00  0.00     0.347 HD
ENDBRANCH   9  14
BRANCH  11  18
ATOM     18  C   UNL     1      -0.970  -2.122  -1.853  1.00  0.00     0.022 C 
BRANCH  18  19
ATOM     19  C   UNL     1       0.536  -2.478  -1.731  1.00  0.00     0.079 C 
BRANCH  19  20
ATOM     20  S   UNL     1       1.126  -3.841  -0.714  1.00  0.00    -0.088 SA
BRANCH  20  21
ATOM     21  C   UNL     1       0.352  -3.560   0.793  1.00  0.00     0.168 A 
ATOM     22  N   UNL     1      -0.593  -2.528   1.138  1.00  0.00    -0.233 NA
ATOM     23  N   UNL     1       0.689  -4.812   1.830  1.00  0.00    -0.301 N 
ATOM     24  C   UNL     1      -1.651  -2.566   2.572  1.00  0.00     0.120 A 
ATOM     25  C   UNL     1      -0.139  -5.123   3.297  1.00  0.00     0.251 A 
ATOM     26  H   UNL     1       1.421  -5.422   1.583  1.00  0.00     0.172 HD
ATOM     27  C   UNL     1      -1.418  -3.659   3.734  1.00  0.00     0.091 A 
ATOM     28  O   UNL     1      -0.016  -6.280   3.643  1.00  0.00    -0.269 OA
ENDBRANCH  20  21
ENDBRANCH  19  20
ENDBRANCH  18  19
ENDBRANCH  11  18
ENDBRANCH   7   9
ENDBRANCH   6   7
ENDBRANCH   5   6
ENDBRANCH   4   5
ENDBRANCH   3   4
ENDBRANCH   2   3
ENDBRANCH   1   2
BRANCH   1  29
ATOM     29  O   UNL     1      -2.344  -5.433   2.507  1.00  0.00    -0.377 OA
BRANCH  29  30
ATOM     30  C   UNL     1      -3.343  -5.223   3.548  1.00  0.00     0.188 C 
BRANCH  30  31
ATOM     31  C   UNL     1      -2.974  -5.743   5.011  1.00  0.00     0.188 C 
BRANCH  31  32
ATOM     32  O   UNL     1      -1.679  -6.245   5.271  1.00  0.00    -0.376 OA
BRANCH  32  33
ATOM     33  C   UNL     1      -1.421  -7.664   5.220  1.00  0.00     0.202 C 
BRANCH  33  34
ATOM     34  C   UNL     1      -1.820  -8.496   3.971  1.00  0.00     0.261 C 
BRANCH  34  35
ATOM     35  O   UNL     1      -3.176  -8.315   3.560  1.00  0.00    -0.460 OA
BRANCH  35  36
ATOM     36  C   UNL     1      -4.074  -8.736   4.475  1.00  0.00     0.338 C 
ATOM     37  O   UNL     1      -3.839  -9.363   5.493  1.00  0.00    -0.246 OA
BRANCH  36  38
ATOM     38  C   UNL     1      -5.340  -8.029   4.217  1.00  0.00     0.060 A 
ATOM     39  C   UNL     1      -5.908  -7.360   5.311  1.00  0.00     0.016 A 
ATOM     40  C   UNL     1      -5.919  -7.953   2.947  1.00  0.00     0.016 A 
ATOM     41  C   UNL     1      -7.085  -6.654   5.158  1.00  0.00     0.010 A 
ATOM     42  C   UNL     1      -7.150  -7.310   2.808  1.00  0.00     0.010 A 
ATOM     43  C   UNL     1      -7.757  -6.721   3.933  1.00  0.00    -0.014 A 
BRANCH  43  44
ATOM     44  C   UNL     1      -9.224  -6.566   4.007  1.00  0.00     0.031 A 
ATOM     45  C   UNL     1     -10.005  -7.798   4.386  1.00  0.00     0.074 A 
ATOM     46  C   UNL     1      -9.817  -5.366   3.907  1.00  0.00     0.049 A 
ATOM     47  N   UNL     1     -11.284  -7.942   4.597  1.00  0.00    -0.248 NA
ATOM     48  C   UNL     1      -9.222  -9.034   4.574  1.00  0.00     0.031 C 
ATOM     49  C   UNL     1      -9.134  -4.099   3.657  1.00  0.00     0.029 A 
ATOM     50  N   UNL     1     -11.138  -5.024   4.026  1.00  0.00    -0.354 N 
ATOM     51  C   UNL     1     -11.455  -9.277   4.951  1.00  0.00     0.074 A 
ATOM     52  C   UNL     1     -10.158  -9.908   4.896  1.00  0.00     0.031 C 
ATOM     53  C   UNL     1     -10.050  -3.114   3.629  1.00  0.00     0.029 A 
ATOM     54  C   UNL     1     -11.381  -3.688   3.822  1.00  0.00     0.049 A 
ATOM     55  H   UNL     1     -11.846  -5.674   4.237  1.00  0.00     0.167 HD
ATOM     56  C   UNL     1     -12.594  -9.920   5.294  1.00  0.00     0.034 A 
ATOM     57  C   UNL     1     -12.553  -3.022   3.770  1.00  0.00     0.034 A 
ATOM     58  C   UNL     1     -13.883  -9.281   5.304  1.00  0.00     0.049 A 
ATOM     59  C   UNL     1     -13.833  -3.793   4.011  1.00  0.00     0.074 A 
ATOM     60  C   UNL     1     -15.115  -9.834   5.594  1.00  0.00     0.029 A 
ATOM     61  N   UNL     1     -14.106  -7.947   4.987  1.00  0.00    -0.354 N 
ATOM     62  N   UNL     1     -13.992  -5.062   4.319  1.00  0.00    -0.248 NA
ATOM     63  C   UNL     1     -15.089  -3.042   3.902  1.00  0.00     0.031 C 
ATOM     64  C   UNL     1     -16.091  -8.859   5.368  1.00  0.00     0.029 A 
ATOM     65  C   UNL     1     -15.461  -7.669   5.036  1.00  0.00     0.049 A 
ATOM     66  H   UNL     1     -13.403  -7.295   4.761  1.00  0.00     0.167 HD
ATOM     67  C   UNL     1     -15.365  -5.248   4.475  1.00  0.00     0.074 A 
ATOM     68  C   UNL     1     -15.983  -3.959   4.240  1.00  0.00     0.031 C 
ATOM     69  C   UNL     1     -16.055  -6.375   4.790  1.00  0.00     0.034 A 
BRANCH  56  70
ATOM     70  C   UNL     1     -12.491 -11.395   5.589  1.00  0.00     0.023 A 
ATOM     71  C   UNL     1     -11.748 -11.889   6.677  1.00  0.00     0.031 A 
ATOM     72  C   UNL     1     -13.097 -12.326   4.728  1.00  0.00     0.131 A 
ATOM     73  C   UNL     1     -11.575 -13.273   6.834  1.00  0.00     0.055 A 
ATOM     74  C   UNL     1     -12.991 -13.701   4.939  1.00  0.00     0.041 A 
ATOM     75  F   UNL     1     -13.784 -11.914   3.651  1.00  0.00    -0.206 F 
ATOM     76  C   UNL     1     -12.215 -14.182   5.989  1.00  0.00     0.022 A 
BRANCH  73  77
ATOM     77  S   UNL     1     -10.377 -13.866   8.061  1.00  0.00     0.124 S 
ATOM     78  O   UNL     1      -9.146 -13.229   7.602  1.00  0.00    -0.237 OA
ATOM     79  O   UNL     1     -10.931 -13.360   9.312  1.00  0.00    -0.237 OA
ATOM     80  O   UNL     1     -10.415 -15.318   7.903  1.00  0.00    -0.744 OA
ENDBRANCH  73  77
ENDBRANCH  56  70
BRANCH  57  81
ATOM     81  C   UNL     1     -12.590  -1.573   3.416  1.00  0.00     0.023 A 
ATOM     82  C   UNL     1     -13.131  -0.617   4.289  1.00  0.00     0.031 A 
ATOM     83  C   UNL     1     -12.149  -1.134   2.153  1.00  0.00     0.131 A 
ATOM     84  C   UNL     1     -13.264   0.717   3.870  1.00  0.00     0.055 A 
ATOM     85  C   UNL     1     -12.229   0.204   1.764  1.00  0.00     0.041 A 
ATOM     86  F   UNL     1     -11.632  -2.006   1.272  1.00  0.00    -0.206 F 
ATOM     87  C   UNL     1     -12.803   1.136   2.620  1.00  0.00     0.022 A 
BRANCH  84  88
ATOM     88  S   UNL     1     -14.148   1.883   4.944  1.00  0.00     0.124 S 
ATOM     89  O   UNL     1     -15.447   1.233   5.080  1.00  0.00    -0.237 OA
ATOM     90  O   UNL     1     -13.306   1.892   6.136  1.00  0.00    -0.237 OA
ATOM     91  O   UNL     1     -14.146   3.124   4.173  1.00  0.00    -0.744 OA
ENDBRANCH  84  88
ENDBRANCH  57  81
BRANCH  69  92
ATOM     92  C   UNL     1     -17.551  -6.250   4.952  1.00  0.00     0.023 A 
ATOM     93  C   UNL     1     -18.392  -5.929   3.873  1.00  0.00     0.031 A 
ATOM     94  C   UNL     1     -18.144  -6.466   6.210  1.00  0.00     0.131 A 
ATOM     95  C   UNL     1     -19.770  -5.775   4.084  1.00  0.00     0.055 A 
ATOM     96  C   UNL     1     -19.523  -6.382   6.398  1.00  0.00     0.041 A 
ATOM     97  F   UNL     1     -17.389  -6.774   7.277  1.00  0.00    -0.206 F 
ATOM     98  C   UNL     1     -20.344  -6.021   5.335  1.00  0.00     0.022 A 
BRANCH  95  99
ATOM     99  S   UNL     1     -20.794  -5.146   2.726  1.00  0.00     0.124 S 
ATOM    100  O   UNL     1     -20.150  -3.870   2.428  1.00  0.00    -0.237 OA
ATOM    101  O   UNL     1     -20.645  -6.187   1.714  1.00  0.00    -0.237 OA
ATOM    102  O   UNL     1     -22.126  -5.044   3.319  1.00  0.00    -0.744 OA
ENDBRANCH  95  99
ENDBRANCH  69  92
ENDBRANCH  43  44
ENDBRANCH  36  38
ENDBRANCH  35  36
ENDBRANCH  34  35
ENDBRANCH  33  34
ENDBRANCH  32  33
ENDBRANCH  31  32
ENDBRANCH  30  31
ENDBRANCH  29  30
ENDBRANCH   1  29
TORSDOF 28
