REMARK SMILES COC(=O)C1=C(C)N(c2ccccc2)C(=S)N[C@@H]1c1ccc(C(=O)OCCOCCOCCOCCOC(=O)c2ccc(-c3c4nc(c(-c5cc(S(=O)(=O)[O-])ccc5F)c5ccc([nH]5)c(-c5cc(S(=O)(=O)[O-])ccc5F)c5nc(c(-c6cc(S(=O)(=O)[O-])ccc6F)c6ccc3[nH]6)C=C5)C=C4)cc2)cc1
REMARK SMILES IDX 31 1 30 2 29 3 28 4 27 5 26 6 25 7 23 8 24 9 22 10 19 11
REMARK SMILES IDX 20 12 104 13 21 14 103 15 18 16 5 17 6 18 7 19 8 20 17 21
REMARK SMILES IDX 15 22 16 24 3 25 4 26 2 27 1 28 9 29 10 30 14 31 11 32 13 33
REMARK SMILES IDX 12 34 32 35 33 36 34 37 35 38 36 39 37 40 38 41 39 42 40 43
REMARK SMILES IDX 41 44 102 45 42 46 101 47 43 48 44 49 45 50 95 51 46 52
REMARK SMILES IDX 100 53 94 54 96 55 47 56 99 57 93 58 92 59 48 61 80 62 60 63
REMARK SMILES IDX 79 64 61 65 64 66 78 67 97 68 62 69 63 70 77 72 98 73 65 74
REMARK SMILES IDX 49 75 50 76 58 77 51 78 57 79 59 80 56 81 52 82 53 83 54 84
REMARK SMILES IDX 55 85 81 86 82 87 90 88 83 89 89 90 91 91 88 92 84 93 85 94
REMARK SMILES IDX 86 95 87 96 66 97 67 98 75 99 68 100 74 101 76 102 73 103
REMARK SMILES IDX 69 104 70 105 71 106 72 107
REMARK H PARENT 17 23 96 60 64 71
REMARK Flexibility Score: inf
ROOT
ATOM      1  O   UNL     1      -6.293  -3.057   3.961  1.00  0.00    -0.377 OA
ENDROOT
BRANCH   1   2
ATOM      2  C   UNL     1      -4.922  -3.416   3.977  1.00  0.00     0.188 C 
BRANCH   2   3
ATOM      3  C   UNL     1      -4.447  -4.347   5.111  1.00  0.00     0.188 C 
BRANCH   3   4
ATOM      4  O   UNL     1      -5.501  -5.018   5.776  1.00  0.00    -0.376 OA
BRANCH   4   5
ATOM      5  C   UNL     1      -5.938  -4.573   7.047  1.00  0.00     0.202 C 
BRANCH   5   6
ATOM      6  C   UNL     1      -6.302  -3.100   7.299  1.00  0.00     0.261 C 
BRANCH   6   7
ATOM      7  O   UNL     1      -5.487  -2.118   6.654  1.00  0.00    -0.460 OA
BRANCH   7   8
ATOM      8  C   UNL     1      -4.268  -1.891   7.184  1.00  0.00     0.338 C 
ATOM      9  O   UNL     1      -3.789  -2.422   8.171  1.00  0.00    -0.246 OA
BRANCH   8  10
ATOM     10  C   UNL     1      -3.502  -1.047   6.236  1.00  0.00     0.060 A 
ATOM     11  C   UNL     1      -1.930   0.519   4.497  1.00  0.00    -0.021 A 
ATOM     12  C   UNL     1      -1.395  -0.619   5.127  1.00  0.00     0.007 A 
ATOM     13  C   UNL     1      -3.301   0.795   4.682  1.00  0.00     0.007 A 
ATOM     14  C   UNL     1      -2.169  -1.386   5.998  1.00  0.00     0.016 A 
ATOM     15  C   UNL     1      -4.083   0.019   5.545  1.00  0.00     0.016 A 
BRANCH  11  16
ATOM     16  C   UNL     1      -1.062   1.519   3.722  1.00  0.00     0.151 C 
ATOM     17  C   UNL     1       0.388   1.165   3.627  1.00  0.00     0.083 C 
ATOM     18  C   UNL     1       1.281   1.550   4.567  1.00  0.00     0.035 C 
ATOM     19  C   UNL     1       2.707   1.046   4.585  1.00  0.00     0.065 C 
ATOM     20  N   UNL     1       0.840   2.405   5.612  1.00  0.00    -0.291 N 
ATOM     21  N   UNL     1      -1.143   2.801   4.390  1.00  0.00    -0.351 N 
ATOM     22  C   UNL     1      -0.367   3.132   5.471  1.00  0.00     0.178 C 
ATOM     23  H   UNL     1      -1.786   3.466   4.053  1.00  0.00     0.163 HD
ATOM     24  S   UNL     1      -0.918   4.419   6.400  1.00  0.00    -0.040 S 
BRANCH  17  25
ATOM     25  C   UNL     1       0.740   0.249   2.527  1.00  0.00     0.337 C 
ATOM     26  O   UNL     1       1.190  -0.875   2.685  1.00  0.00    -0.246 OA
BRANCH  25  27
ATOM     27  O   UNL     1       0.509   0.863   1.342  1.00  0.00    -0.466 OA
ATOM     28  C   UNL     1       0.877   0.076   0.207  1.00  0.00     0.282 C 
ENDBRANCH  25  27
ENDBRANCH  17  25
BRANCH  20  29
ATOM     29  C   UNL     1       1.575   2.526   6.843  1.00  0.00     0.048 A 
ATOM     30  C   UNL     1       2.873   3.046   6.879  1.00  0.00     0.027 A 
ATOM     31  C   UNL     1       0.993   2.064   8.034  1.00  0.00     0.027 A 
ATOM     32  C   UNL     1       3.594   3.066   8.076  1.00  0.00     0.002 A 
ATOM     33  C   UNL     1       1.709   2.098   9.232  1.00  0.00     0.002 A 
ATOM     34  C   UNL     1       3.014   2.587   9.250  1.00  0.00     0.000 A 
ENDBRANCH  20  29
ENDBRANCH  11  16
ENDBRANCH   8  10
ENDBRANCH   7   8
ENDBRANCH   6   7
ENDBRANCH   5   6
ENDBRANCH   4   5
ENDBRANCH   3   4
ENDBRANCH   2   3
ENDBRANCH   1   2
BRANCH   1  35
ATOM     35  C   UNL     1      -7.295  -4.071   3.865  1.00  0.00     0.188 C 
BRANCH  35  36
ATOM     36  C   UNL     1      -6.968  -5.547   3.526  1.00  0.00     0.188 C 
BRANCH  36  37
ATOM     37  O   UNL     1      -5.689  -5.761   2.951  1.00  0.00    -0.376 OA
BRANCH  37  38
ATOM     38  C   UNL     1      -5.635  -6.087   1.574  1.00  0.00     0.202 C 
BRANCH  38  39
ATOM     39  C   UNL     1      -6.092  -4.996   0.597  1.00  0.00     0.261 C 
BRANCH  39  40
ATOM     40  O   UNL     1      -7.411  -4.472   0.807  1.00  0.00    -0.460 OA
BRANCH  40  41
ATOM     41  C   UNL     1      -8.446  -5.331   0.633  1.00  0.00     0.338 C 
ATOM     42  O   UNL     1      -8.379  -6.495   0.314  1.00  0.00    -0.246 OA
BRANCH  41  43
ATOM     43  C   UNL     1      -9.674  -4.638   1.088  1.00  0.00     0.060 A 
ATOM     44  C   UNL     1     -10.408  -5.176   2.154  1.00  0.00     0.016 A 
ATOM     45  C   UNL     1     -10.089  -3.458   0.468  1.00  0.00     0.016 A 
ATOM     46  C   UNL     1     -11.579  -4.548   2.582  1.00  0.00     0.010 A 
ATOM     47  C   UNL     1     -11.273  -2.843   0.884  1.00  0.00     0.010 A 
ATOM     48  C   UNL     1     -12.041  -3.401   1.922  1.00  0.00    -0.014 A 
BRANCH  48  49
ATOM     49  C   UNL     1     -13.416  -2.899   2.178  1.00  0.00     0.031 A 
ATOM     50  C   UNL     1     -14.503  -3.284   1.209  1.00  0.00     0.074 A 
ATOM     51  C   UNL     1     -13.698  -2.131   3.247  1.00  0.00     0.049 A 
ATOM     52  N   UNL     1     -15.755  -2.912   1.173  1.00  0.00    -0.248 NA
ATOM     53  C   UNL     1     -14.120  -4.213   0.131  1.00  0.00     0.031 C 
ATOM     54  C   UNL     1     -12.742  -1.736   4.281  1.00  0.00     0.029 A 
ATOM     55  N   UNL     1     -14.874  -1.534   3.634  1.00  0.00    -0.354 N 
ATOM     56  C   UNL     1     -16.306  -3.545   0.064  1.00  0.00     0.074 A 
ATOM     57  C   UNL     1     -15.247  -4.308  -0.559  1.00  0.00     0.031 C 
ATOM     58  C   UNL     1     -13.368  -0.950   5.176  1.00  0.00     0.029 A 
ATOM     59  C   UNL     1     -14.754  -0.746   4.756  1.00  0.00     0.049 A 
ATOM     60  H   UNL     1     -15.724  -1.659   3.154  1.00  0.00     0.167 HD
ATOM     61  C   UNL     1     -17.581  -3.493  -0.392  1.00  0.00     0.034 A 
ATOM     62  C   UNL     1     -15.649   0.072   5.351  1.00  0.00     0.034 A 
ATOM     63  C   UNL     1     -18.627  -2.730   0.242  1.00  0.00     0.049 A 
ATOM     64  C   UNL     1     -17.044   0.175   4.769  1.00  0.00     0.074 A 
ATOM     65  C   UNL     1     -19.959  -2.638  -0.120  1.00  0.00     0.029 A 
ATOM     66  N   UNL     1     -18.459  -1.916   1.354  1.00  0.00    -0.354 N 
ATOM     67  N   UNL     1     -17.559  -0.451   3.734  1.00  0.00    -0.248 NA
ATOM     68  C   UNL     1     -17.982   1.088   5.440  1.00  0.00     0.031 C 
ATOM     69  C   UNL     1     -20.575  -1.702   0.715  1.00  0.00     0.029 A 
ATOM     70  C   UNL     1     -19.654  -1.286   1.663  1.00  0.00     0.049 A 
ATOM     71  H   UNL     1     -17.616  -1.804   1.850  1.00  0.00     0.167 HD
ATOM     72  C   UNL     1     -18.890  -0.038   3.663  1.00  0.00     0.074 A 
ATOM     73  C   UNL     1     -19.101   0.874   4.766  1.00  0.00     0.031 C 
ATOM     74  C   UNL     1     -19.853  -0.383   2.771  1.00  0.00     0.034 A 
BRANCH  61  75
ATOM     75  C   UNL     1     -17.908  -4.230  -1.666  1.00  0.00     0.023 A 
ATOM     76  C   UNL     1     -17.880  -5.632  -1.748  1.00  0.00     0.031 A 
ATOM     77  C   UNL     1     -18.285  -3.507  -2.812  1.00  0.00     0.131 A 
ATOM     78  C   UNL     1     -18.189  -6.265  -2.963  1.00  0.00     0.055 A 
ATOM     79  C   UNL     1     -18.660  -4.144  -3.995  1.00  0.00     0.041 A 
ATOM     80  F   UNL     1     -18.301  -2.164  -2.798  1.00  0.00    -0.206 F 
ATOM     81  C   UNL     1     -18.607  -5.532  -4.077  1.00  0.00     0.022 A 
BRANCH  78  82
ATOM     82  S   UNL     1     -17.944  -8.056  -3.099  1.00  0.00     0.124 S 
ATOM     83  O   UNL     1     -16.513  -8.180  -2.831  1.00  0.00    -0.237 OA
ATOM     84  O   UNL     1     -18.833  -8.577  -2.067  1.00  0.00    -0.237 OA
ATOM     85  O   UNL     1     -18.341  -8.354  -4.473  1.00  0.00    -0.744 OA
ENDBRANCH  78  82
ENDBRANCH  61  75
BRANCH  62  86
ATOM     86  C   UNL     1     -15.265   0.916   6.525  1.00  0.00     0.023 A 
ATOM     87  C   UNL     1     -15.955   0.821   7.745  1.00  0.00     0.031 A 
ATOM     88  C   UNL     1     -14.280   1.913   6.408  1.00  0.00     0.131 A 
ATOM     89  C   UNL     1     -15.710   1.756   8.765  1.00  0.00     0.055 A 
ATOM     90  C   UNL     1     -13.987   2.792   7.453  1.00  0.00     0.041 A 
ATOM     91  F   UNL     1     -13.594   2.061   5.263  1.00  0.00    -0.206 F 
ATOM     92  C   UNL     1     -14.720   2.730   8.633  1.00  0.00     0.022 A 
BRANCH  89  93
ATOM     93  S   UNL     1     -16.815   1.776  10.205  1.00  0.00     0.124 S 
ATOM     94  O   UNL     1     -18.121   1.920   9.572  1.00  0.00    -0.237 OA
ATOM     95  O   UNL     1     -16.537   0.480  10.816  1.00  0.00    -0.237 OA
ATOM     96  O   UNL     1     -16.358   2.935  10.967  1.00  0.00    -0.744 OA
ENDBRANCH  89  93
ENDBRANCH  62  86
BRANCH  74  97
ATOM     97  C   UNL     1     -21.241   0.173   2.992  1.00  0.00     0.023 A 
ATOM     98  C   UNL     1     -21.518   1.548   2.900  1.00  0.00     0.031 A 
ATOM     99  C   UNL     1     -22.304  -0.695   3.302  1.00  0.00     0.131 A 
ATOM    100  C   UNL     1     -22.811   2.020   3.174  1.00  0.00     0.055 A 
ATOM    101  C   UNL     1     -23.603  -0.227   3.503  1.00  0.00     0.041 A 
ATOM    102  F   UNL     1     -22.099  -2.018   3.407  1.00  0.00    -0.206 F 
ATOM    103  C   UNL     1     -23.860   1.139   3.454  1.00  0.00     0.022 A 
BRANCH 100 104
ATOM    104  S   UNL     1     -23.085   3.811   3.260  1.00  0.00     0.124 S 
ATOM    105  O   UNL     1     -22.140   4.212   4.296  1.00  0.00    -0.237 OA
ATOM    106  O   UNL     1     -22.764   4.242   1.903  1.00  0.00    -0.237 OA
ATOM    107  O   UNL     1     -24.495   3.925   3.628  1.00  0.00    -0.744 OA
ENDBRANCH 100 104
ENDBRANCH  74  97
ENDBRANCH  48  49
ENDBRANCH  41  43
ENDBRANCH  40  41
ENDBRANCH  39  40
ENDBRANCH  38  39
ENDBRANCH  37  38
ENDBRANCH  36  37
ENDBRANCH  35  36
ENDBRANCH   1  35
TORSDOF 27
