REMARK SMILES Cc1c(CC(=O)N[C@H](CO)C(=O)OCCOCCOCCOCCOC(=O)c2ccc(-c3c4nc(c(-c5cc(S(=O)(=O)[O-])ccc5F)c5ccc([nH]5)c(-c5cc(S(=O)(=O)[O-])ccc5F)c5nc(c(-c6cc(S(=O)(=O)[O-])ccc6F)c6ccc3[nH]6)C=C5)C=C4)cc2)cc(-c2ccc(S(C)(=O)=O)cc2)n1-c1cccc(F)c1
REMARK SMILES IDX 18 1 17 2 16 3 15 4 14 5 13 6 11 7 12 8 8 9 7 10 5 11 6 12
REMARK SMILES IDX 4 14 3 15 1 16 2 17 103 18 91 19 92 20 104 21 105 22 110 23
REMARK SMILES IDX 106 24 108 25 107 26 109 27 93 28 94 29 102 30 95 31 101 32
REMARK SMILES IDX 96 33 97 34 98 35 99 36 100 37 9 38 10 39 19 41 20 42 21 43
REMARK SMILES IDX 22 44 23 45 24 46 25 47 26 48 27 49 28 50 29 51 90 52 30 53
REMARK SMILES IDX 89 54 31 55 32 56 33 57 83 58 34 59 88 60 82 61 84 62 35 63
REMARK SMILES IDX 87 64 81 65 80 66 36 68 68 69 48 70 67 71 49 72 52 73 66 74
REMARK SMILES IDX 85 75 50 76 51 77 65 79 86 80 53 81 37 82 38 83 46 84 39 85
REMARK SMILES IDX 45 86 47 87 44 88 40 89 41 90 42 91 43 92 69 93 70 94 78 95
REMARK SMILES IDX 71 96 77 97 79 98 76 99 72 100 73 101 74 102 75 103 54 104
REMARK SMILES IDX 55 105 63 106 56 107 62 108 64 109 61 110 57 111 58 112
REMARK SMILES IDX 59 113 60 114
REMARK H PARENT 7 13 10 40 84 67 52 78
REMARK Flexibility Score: inf
ROOT
ATOM      1  C   UNL     1       5.707  -3.636   1.465  1.00  0.00     0.188 C 
ENDROOT
BRANCH   1   2
ATOM      2  C   UNL     1       5.716  -4.997   0.782  1.00  0.00     0.188 C 
BRANCH   2   3
ATOM      3  O   UNL     1       6.398  -5.118  -0.457  1.00  0.00    -0.376 OA
BRANCH   3   4
ATOM      4  C   UNL     1       6.979  -3.984  -1.071  1.00  0.00     0.202 C 
BRANCH   4   5
ATOM      5  C   UNL     1       6.062  -3.243  -1.998  1.00  0.00     0.261 C 
BRANCH   5   6
ATOM      6  O   UNL     1       4.886  -2.813  -1.340  1.00  0.00    -0.462 OA
BRANCH   6   7
ATOM      7  C   UNL     1       3.803  -3.604  -1.563  1.00  0.00     0.331 C 
ATOM      8  O   UNL     1       3.720  -4.811  -1.384  1.00  0.00    -0.250 OA
BRANCH   7   9
ATOM      9  C   UNL     1       2.793  -2.845  -2.370  1.00  0.00     0.218 C 
BRANCH   9  10
ATOM     10  N   UNL     1       3.284  -2.854  -3.769  1.00  0.00    -0.341 N 
ATOM     11  C   UNL     1       3.678  -3.839  -4.639  1.00  0.00     0.225 C 
ATOM     12  O   UNL     1       3.877  -3.436  -5.795  1.00  0.00    -0.275 OA
ATOM     13  H   UNL     1       3.339  -1.953  -4.161  1.00  0.00     0.164 HD
BRANCH  11  14
ATOM     14  C   UNL     1       3.871  -5.343  -4.309  1.00  0.00     0.137 C 
BRANCH  14  15
ATOM     15  C   UNL     1       5.297  -5.863  -4.016  1.00  0.00    -0.017 A 
ATOM     16  C   UNL     1       6.747  -4.510  -5.673  1.00  0.00     0.065 C 
ATOM     17  C   UNL     1       6.523  -5.477  -4.553  1.00  0.00     0.024 A 
ATOM     18  N   UNL     1       7.572  -6.065  -3.812  1.00  0.00    -0.313 N 
ATOM     19  C   UNL     1       5.630  -6.872  -3.052  1.00  0.00     0.033 A 
ATOM     20  C   UNL     1       7.016  -6.949  -2.855  1.00  0.00     0.053 A 
BRANCH  18  21
ATOM     21  C   UNL     1       8.948  -5.648  -3.863  1.00  0.00     0.049 A 
ATOM     22  C   UNL     1       9.990  -6.574  -3.719  1.00  0.00     0.027 A 
ATOM     23  C   UNL     1       9.241  -4.274  -3.819  1.00  0.00     0.065 A 
ATOM     24  C   UNL     1      11.290  -6.128  -3.435  1.00  0.00     0.005 A 
ATOM     25  C   UNL     1      10.531  -3.850  -3.522  1.00  0.00     0.125 A 
ATOM     26  C   UNL     1      11.554  -4.763  -3.310  1.00  0.00     0.039 A 
ATOM     27  F   UNL     1      10.768  -2.540  -3.369  1.00  0.00    -0.207 F 
ENDBRANCH  18  21
BRANCH  20  28
ATOM     28  C   UNL     1       7.689  -7.558  -1.635  1.00  0.00    -0.001 A 
ATOM     29  C   UNL     1       8.761  -6.939  -0.955  1.00  0.00     0.011 A 
ATOM     30  C   UNL     1       7.137  -8.679  -0.990  1.00  0.00     0.011 A 
ATOM     31  C   UNL     1       9.262  -7.381   0.282  1.00  0.00     0.021 A 
ATOM     32  C   UNL     1       7.612  -9.125   0.266  1.00  0.00     0.021 A 
ATOM     33  C   UNL     1       8.664  -8.462   0.907  1.00  0.00     0.067 A 
BRANCH  33  34
ATOM     34  S   UNL     1       9.162  -8.993   2.534  1.00  0.00     0.175 S 
ATOM     35  C   UNL     1      10.809  -8.398   2.821  1.00  0.00     0.163 C 
ATOM     36  O   UNL     1       8.275  -8.316   3.472  1.00  0.00    -0.224 OA
ATOM     37  O   UNL     1       9.228 -10.436   2.494  1.00  0.00    -0.224 OA
ENDBRANCH  33  34
ENDBRANCH  20  28
ENDBRANCH  14  15
ENDBRANCH  11  14
ENDBRANCH   9  10
BRANCH   9  38
ATOM     38  C   UNL     1       2.686  -1.428  -1.740  1.00  0.00     0.193 C 
BRANCH  38  39
ATOM     39  O   UNL     1       2.322  -1.485  -0.358  1.00  0.00    -0.394 OA
ATOM     40  H   UNL     1       1.453  -1.906  -0.269  1.00  0.00     0.210 HD
ENDBRANCH  38  39
ENDBRANCH   9  38
ENDBRANCH   7   9
ENDBRANCH   6   7
ENDBRANCH   5   6
ENDBRANCH   4   5
ENDBRANCH   3   4
ENDBRANCH   2   3
ENDBRANCH   1   2
BRANCH   1  41
ATOM     41  O   UNL     1       6.963  -3.013   1.746  1.00  0.00    -0.377 OA
BRANCH  41  42
ATOM     42  C   UNL     1       8.106  -3.848   1.920  1.00  0.00     0.188 C 
BRANCH  42  43
ATOM     43  C   UNL     1       8.195  -4.577   3.247  1.00  0.00     0.188 C 
BRANCH  43  44
ATOM     44  O   UNL     1       6.995  -4.592   3.984  1.00  0.00    -0.376 OA
BRANCH  44  45
ATOM     45  C   UNL     1       6.563  -3.370   4.584  1.00  0.00     0.202 C 
BRANCH  45  46
ATOM     46  C   UNL     1       7.505  -2.182   4.952  1.00  0.00     0.261 C 
BRANCH  46  47
ATOM     47  O   UNL     1       7.894  -1.111   4.022  1.00  0.00    -0.460 OA
BRANCH  47  48
ATOM     48  C   UNL     1       9.247  -0.869   3.907  1.00  0.00     0.338 C 
ATOM     49  O   UNL     1      10.078  -1.766   3.982  1.00  0.00    -0.246 OA
BRANCH  48  50
ATOM     50  C   UNL     1       9.684   0.599   3.707  1.00  0.00     0.060 A 
ATOM     51  C   UNL     1      10.367   0.991   2.555  1.00  0.00     0.016 A 
ATOM     52  C   UNL     1       9.724   1.548   4.752  1.00  0.00     0.016 A 
ATOM     53  C   UNL     1      11.002   2.290   2.448  1.00  0.00     0.010 A 
ATOM     54  C   UNL     1      10.417   2.846   4.656  1.00  0.00     0.010 A 
ATOM     55  C   UNL     1      11.083   3.282   3.493  1.00  0.00    -0.014 A 
BRANCH  55  56
ATOM     56  C   UNL     1      12.267   4.408   3.397  1.00  0.00     0.031 A 
ATOM     57  C   UNL     1      13.460   3.595   3.002  1.00  0.00     0.074 A 
ATOM     58  C   UNL     1      12.532   5.770   3.630  1.00  0.00     0.049 A 
ATOM     59  N   UNL     1      13.820   2.548   3.695  1.00  0.00    -0.248 NA
ATOM     60  C   UNL     1      14.056   3.671   1.666  1.00  0.00     0.031 C 
ATOM     61  C   UNL     1      11.606   6.777   4.177  1.00  0.00     0.029 A 
ATOM     62  N   UNL     1      13.695   6.614   3.442  1.00  0.00    -0.354 N 
ATOM     63  C   UNL     1      14.920   2.030   3.054  1.00  0.00     0.074 A 
ATOM     64  C   UNL     1      14.856   2.600   1.714  1.00  0.00     0.031 C 
ATOM     65  C   UNL     1      12.136   8.038   4.156  1.00  0.00     0.029 A 
ATOM     66  C   UNL     1      13.511   8.044   3.652  1.00  0.00     0.049 A 
ATOM     67  H   UNL     1      14.568   6.238   3.185  1.00  0.00     0.167 HD
ATOM     68  C   UNL     1      16.038   1.860   3.820  1.00  0.00     0.034 A 
ATOM     69  C   UNL     1      14.370   9.150   3.517  1.00  0.00     0.034 A 
ATOM     70  C   UNL     1      16.982   2.932   3.636  1.00  0.00     0.049 A 
ATOM     71  C   UNL     1      15.743   8.659   3.641  1.00  0.00     0.074 A 
ATOM     72  C   UNL     1      17.535   3.515   2.515  1.00  0.00     0.029 A 
ATOM     73  N   UNL     1      17.119   3.839   4.669  1.00  0.00    -0.354 N 
ATOM     74  N   UNL     1      16.259   8.350   4.787  1.00  0.00    -0.248 NA
ATOM     75  C   UNL     1      16.634   8.523   2.496  1.00  0.00     0.031 C 
ATOM     76  C   UNL     1      17.567   4.899   2.798  1.00  0.00     0.029 A 
ATOM     77  C   UNL     1      17.373   5.097   4.161  1.00  0.00     0.049 A 
ATOM     78  H   UNL     1      17.047   3.620   5.626  1.00  0.00     0.167 HD
ATOM     79  C   UNL     1      17.240   7.473   4.442  1.00  0.00     0.074 A 
ATOM     80  C   UNL     1      17.614   7.838   3.088  1.00  0.00     0.031 C 
ATOM     81  C   UNL     1      17.199   6.249   5.028  1.00  0.00     0.034 A 
BRANCH  68  82
ATOM     82  C   UNL     1      15.795   1.164   5.127  1.00  0.00     0.023 A 
ATOM     83  C   UNL     1      16.206  -0.167   5.274  1.00  0.00     0.031 A 
ATOM     84  C   UNL     1      15.062   1.749   6.180  1.00  0.00     0.131 A 
ATOM     85  C   UNL     1      15.829  -0.891   6.418  1.00  0.00     0.055 A 
ATOM     86  C   UNL     1      14.651   1.016   7.291  1.00  0.00     0.041 A 
ATOM     87  F   UNL     1      14.734   3.051   6.144  1.00  0.00    -0.206 F 
ATOM     88  C   UNL     1      15.027  -0.318   7.410  1.00  0.00     0.022 A 
BRANCH  85  89
ATOM     89  S   UNL     1      16.410  -2.599   6.593  1.00  0.00     0.124 S 
ATOM     90  O   UNL     1      15.800  -3.260   5.442  1.00  0.00    -0.237 OA
ATOM     91  O   UNL     1      17.861  -2.442   6.530  1.00  0.00    -0.237 OA
ATOM     92  O   UNL     1      15.889  -3.014   7.894  1.00  0.00    -0.744 OA
ENDBRANCH  85  89
ENDBRANCH  68  82
BRANCH  69  93
ATOM     93  C   UNL     1      14.391  10.717   3.434  1.00  0.00     0.023 A 
ATOM     94  C   UNL     1      15.581  11.512   3.719  1.00  0.00     0.031 A 
ATOM     95  C   UNL     1      13.390  11.418   2.753  1.00  0.00     0.131 A 
ATOM     96  C   UNL     1      15.729  12.871   3.298  1.00  0.00     0.055 A 
ATOM     97  C   UNL     1      13.539  12.769   2.346  1.00  0.00     0.041 A 
ATOM     98  F   UNL     1      12.270  10.791   2.369  1.00  0.00    -0.206 F 
ATOM     99  C   UNL     1      14.705  13.492   2.597  1.00  0.00     0.022 A 
BRANCH  96 100
ATOM    100  S   UNL     1      17.315  13.814   3.472  1.00  0.00     0.124 S 
ATOM    101  O   UNL     1      17.301  14.227   4.870  1.00  0.00    -0.237 OA
ATOM    102  O   UNL     1      18.325  12.831   3.092  1.00  0.00    -0.237 OA
ATOM    103  O   UNL     1      17.167  14.914   2.515  1.00  0.00    -0.744 OA
ENDBRANCH  96 100
ENDBRANCH  69  93
BRANCH  81 104
ATOM    104  C   UNL     1      16.799   6.200   6.507  1.00  0.00     0.023 A 
ATOM    105  C   UNL     1      15.740   6.925   7.120  1.00  0.00     0.031 A 
ATOM    106  C   UNL     1      17.603   5.437   7.369  1.00  0.00     0.131 A 
ATOM    107  C   UNL     1      15.559   6.914   8.519  1.00  0.00     0.055 A 
ATOM    108  C   UNL     1      17.393   5.385   8.749  1.00  0.00     0.041 A 
ATOM    109  F   UNL     1      18.633   4.727   6.880  1.00  0.00    -0.206 F 
ATOM    110  C   UNL     1      16.382   6.139   9.333  1.00  0.00     0.022 A 
BRANCH 107 111
ATOM    111  S   UNL     1      14.301   7.984   9.302  1.00  0.00     0.124 S 
ATOM    112  O   UNL     1      14.545   9.289   8.701  1.00  0.00    -0.237 OA
ATOM    113  O   UNL     1      13.049   7.333   8.926  1.00  0.00    -0.237 OA
ATOM    114  O   UNL     1      14.626   7.902  10.728  1.00  0.00    -0.744 OA
ENDBRANCH 107 111
ENDBRANCH  81 104
ENDBRANCH  55  56
ENDBRANCH  48  50
ENDBRANCH  47  48
ENDBRANCH  46  47
ENDBRANCH  45  46
ENDBRANCH  44  45
ENDBRANCH  43  44
ENDBRANCH  42  43
ENDBRANCH  41  42
ENDBRANCH   1  41
TORSDOF 31
