REMARK SMILES CC(C)C[N@@H+](C1CC1)[C@@H](C)c1ccc(C(=O)OCCOCCOCCOCCOC(=O)c2ccc(-c3c4nc(c(-c5cc(S(=O)(=O)[O-])ccc5F)c5ccc([nH]5)c(-c5cc(S(=O)(=O)[O-])ccc5F)c5nc(c(-c6cc(S(=O)(=O)[O-])ccc6F)c6ccc3[nH]6)C=C5)C=C4)cc2)o1
REMARK SMILES IDX 22 1 21 2 20 3 19 4 18 5 17 6 15 7 16 8 14 9 11 10 12 11
REMARK SMILES IDX 95 12 13 13 9 14 10 15 5 16 4 18 2 19 1 20 3 21 6 22 7 23
REMARK SMILES IDX 8 24 23 25 24 26 25 27 26 28 27 29 28 30 29 31 30 32 31 33
REMARK SMILES IDX 32 34 33 35 94 36 34 37 93 38 35 39 36 40 37 41 87 42 38 43
REMARK SMILES IDX 92 44 86 45 88 46 39 47 91 48 85 49 84 50 40 52 72 53 52 54
REMARK SMILES IDX 71 55 53 56 56 57 70 58 89 59 54 60 55 61 69 63 90 64 57 65
REMARK SMILES IDX 41 66 42 67 50 68 43 69 49 70 51 71 48 72 44 73 45 74 46 75
REMARK SMILES IDX 47 76 73 77 74 78 82 79 75 80 81 81 83 82 80 83 76 84 77 85
REMARK SMILES IDX 78 86 79 87 58 88 59 89 67 90 60 91 66 92 68 93 65 94 61 95
REMARK SMILES IDX 62 96 63 97 64 98
REMARK H PARENT 5 17 88 51 56 62
REMARK Flexibility Score: inf
ROOT
ATOM      1  C   UNL     1       4.414  -0.678   0.782  1.00  0.00     0.188 C 
ENDROOT
BRANCH   1   2
ATOM      2  C   UNL     1       4.309  -1.996  -0.006  1.00  0.00     0.188 C 
BRANCH   2   3
ATOM      3  O   UNL     1       5.538  -2.425  -0.577  1.00  0.00    -0.376 OA
BRANCH   3   4
ATOM      4  C   UNL     1       5.619  -2.376  -1.995  1.00  0.00     0.202 C 
BRANCH   4   5
ATOM      5  C   UNL     1       5.802  -0.959  -2.546  1.00  0.00     0.261 C 
BRANCH   5   6
ATOM      6  O   UNL     1       4.681  -0.083  -2.341  1.00  0.00    -0.457 OA
BRANCH   6   7
ATOM      7  C   UNL     1       3.478  -0.415  -2.890  1.00  0.00     0.374 C 
ATOM      8  O   UNL     1       3.291  -1.376  -3.626  1.00  0.00    -0.242 OA
BRANCH   7   9
ATOM      9  C   UNL     1       2.481   0.490  -2.364  1.00  0.00     0.212 A 
ATOM     10  C   UNL     1       0.477   1.073  -1.610  1.00  0.00     0.162 A 
ATOM     11  C   UNL     1       1.333   2.126  -1.342  1.00  0.00     0.053 A 
ATOM     12  O   UNL     1       1.167   0.096  -2.286  1.00  0.00    -0.448 OA
ATOM     13  C   UNL     1       2.610   1.750  -1.809  1.00  0.00     0.059 A 
BRANCH  10  14
ATOM     14  C   UNL     1      -1.007   0.888  -1.389  1.00  0.00     0.248 C 
ATOM     15  C   UNL     1      -1.581   1.848  -0.332  1.00  0.00     0.084 C 
BRANCH  14  16
ATOM     16  N   UNL     1      -1.488  -0.511  -1.238  1.00  0.00    -0.324 N 
ATOM     17  H   UNL     1      -0.939  -0.987  -1.954  1.00  0.00     0.348 HD
BRANCH  16  18
ATOM     18  C   UNL     1      -1.171  -1.251   0.006  1.00  0.00     0.265 C 
BRANCH  18  19
ATOM     19  C   UNL     1       0.293  -1.518   0.425  1.00  0.00     0.038 C 
ATOM     20  C   UNL     1       0.898  -0.379   1.251  1.00  0.00     0.013 C 
ATOM     21  C   UNL     1       0.368  -2.809   1.259  1.00  0.00     0.013 C 
ENDBRANCH  18  19
ENDBRANCH  16  18
BRANCH  16  22
ATOM     22  C   UNL     1      -2.962  -0.585  -1.461  1.00  0.00     0.185 C 
ATOM     23  C   UNL     1      -3.563  -0.303  -2.811  1.00  0.00     0.071 C 
ATOM     24  C   UNL     1      -3.529  -1.707  -2.287  1.00  0.00     0.071 C 
ENDBRANCH  16  22
ENDBRANCH  14  16
ENDBRANCH  10  14
ENDBRANCH   7   9
ENDBRANCH   6   7
ENDBRANCH   5   6
ENDBRANCH   4   5
ENDBRANCH   3   4
ENDBRANCH   2   3
ENDBRANCH   1   2
BRANCH   1  25
ATOM     25  O   UNL     1       5.655  -0.228   1.300  1.00  0.00    -0.377 OA
BRANCH  25  26
ATOM     26  C   UNL     1       6.657  -1.170   1.640  1.00  0.00     0.188 C 
BRANCH  26  27
ATOM     27  C   UNL     1       6.274  -2.431   2.436  1.00  0.00     0.188 C 
BRANCH  27  28
ATOM     28  O   UNL     1       4.903  -2.504   2.820  1.00  0.00    -0.376 OA
BRANCH  28  29
ATOM     29  C   UNL     1       4.662  -2.566   4.219  1.00  0.00     0.202 C 
BRANCH  29  30
ATOM     30  C   UNL     1       4.528  -1.172   4.838  1.00  0.00     0.261 C 
BRANCH  30  31
ATOM     31  O   UNL     1       5.705  -0.362   4.716  1.00  0.00    -0.460 OA
BRANCH  31  32
ATOM     32  C   UNL     1       6.808  -0.812   5.355  1.00  0.00     0.338 C 
ATOM     33  O   UNL     1       6.898  -1.808   6.050  1.00  0.00    -0.246 OA
BRANCH  32  34
ATOM     34  C   UNL     1       7.947   0.017   4.922  1.00  0.00     0.060 A 
ATOM     35  C   UNL     1       9.085  -0.619   4.411  1.00  0.00     0.016 A 
ATOM     36  C   UNL     1       7.882   1.411   5.004  1.00  0.00     0.016 A 
ATOM     37  C   UNL     1      10.171   0.144   3.987  1.00  0.00     0.010 A 
ATOM     38  C   UNL     1       8.980   2.172   4.605  1.00  0.00     0.010 A 
ATOM     39  C   UNL     1      10.137   1.540   4.119  1.00  0.00    -0.014 A 
BRANCH  39  40
ATOM     40  C   UNL     1      11.382   2.323   3.954  1.00  0.00     0.031 A 
ATOM     41  C   UNL     1      12.229   2.557   5.173  1.00  0.00     0.074 A 
ATOM     42  C   UNL     1      11.747   2.815   2.758  1.00  0.00     0.049 A 
ATOM     43  N   UNL     1      13.342   3.229   5.297  1.00  0.00    -0.248 NA
ATOM     44  C   UNL     1      11.743   1.952   6.423  1.00  0.00     0.031 C 
ATOM     45  C   UNL     1      11.017   2.626   1.507  1.00  0.00     0.029 A 
ATOM     46  N   UNL     1      12.826   3.585   2.408  1.00  0.00    -0.354 N 
ATOM     47  C   UNL     1      13.698   3.118   6.637  1.00  0.00     0.074 A 
ATOM     48  C   UNL     1      12.657   2.355   7.290  1.00  0.00     0.031 C 
ATOM     49  C   UNL     1      11.665   3.277   0.524  1.00  0.00     0.029 A 
ATOM     50  C   UNL     1      12.837   3.950   1.083  1.00  0.00     0.049 A 
ATOM     51  H   UNL     1      13.527   3.852   3.046  1.00  0.00     0.167 HD
ATOM     52  C   UNL     1      14.799   3.602   7.263  1.00  0.00     0.034 A 
ATOM     53  C   UNL     1      13.686   4.752   0.410  1.00  0.00     0.034 A 
ATOM     54  C   UNL     1      15.804   4.399   6.606  1.00  0.00     0.049 A 
ATOM     55  C   UNL     1      14.851   5.368   1.149  1.00  0.00     0.074 A 
ATOM     56  C   UNL     1      16.960   4.942   7.137  1.00  0.00     0.029 A 
ATOM     57  N   UNL     1      15.758   4.790   5.273  1.00  0.00    -0.354 N 
ATOM     58  N   UNL     1      15.196   5.236   2.410  1.00  0.00    -0.248 NA
ATOM     59  C   UNL     1      15.745   6.236   0.371  1.00  0.00     0.031 C 
ATOM     60  C   UNL     1      17.574   5.717   6.146  1.00  0.00     0.029 A 
ATOM     61  C   UNL     1      16.844   5.596   4.974  1.00  0.00     0.049 A 
ATOM     62  H   UNL     1      15.055   4.531   4.633  1.00  0.00     0.167 HD
ATOM     63  C   UNL     1      16.363   5.981   2.567  1.00  0.00     0.074 A 
ATOM     64  C   UNL     1      16.666   6.551   1.269  1.00  0.00     0.031 C 
ATOM     65  C   UNL     1      17.122   6.170   3.677  1.00  0.00     0.034 A 
BRANCH  52  66
ATOM     66  C   UNL     1      14.919   3.322   8.740  1.00  0.00     0.023 A 
ATOM     67  C   UNL     1      15.038   2.010   9.233  1.00  0.00     0.031 A 
ATOM     68  C   UNL     1      14.841   4.371   9.671  1.00  0.00     0.131 A 
ATOM     69  C   UNL     1      14.990   1.775  10.616  1.00  0.00     0.055 A 
ATOM     70  C   UNL     1      14.877   4.137  11.047  1.00  0.00     0.041 A 
ATOM     71  F   UNL     1      14.699   5.641   9.260  1.00  0.00    -0.206 F 
ATOM     72  C   UNL     1      14.933   2.832  11.527  1.00  0.00     0.022 A 
BRANCH  69  73
ATOM     73  S   UNL     1      14.834   0.063  11.198  1.00  0.00     0.124 S 
ATOM     74  O   UNL     1      13.612  -0.369  10.525  1.00  0.00    -0.237 OA
ATOM     75  O   UNL     1      16.073  -0.544  10.727  1.00  0.00    -0.237 OA
ATOM     76  O   UNL     1      14.720   0.204  12.649  1.00  0.00    -0.744 OA
ENDBRANCH  69  73
ENDBRANCH  52  66
BRANCH  53  77
ATOM     77  C   UNL     1      13.457   5.058  -1.031  1.00  0.00     0.023 A 
ATOM     78  C   UNL     1      14.365   4.640  -2.016  1.00  0.00     0.031 A 
ATOM     79  C   UNL     1      12.347   5.820  -1.436  1.00  0.00     0.131 A 
ATOM     80  C   UNL     1      14.169   5.021  -3.354  1.00  0.00     0.055 A 
ATOM     81  C   UNL     1      12.132   6.158  -2.773  1.00  0.00     0.041 A 
ATOM     82  F   UNL     1      11.449   6.245  -0.533  1.00  0.00    -0.206 F 
ATOM     83  C   UNL     1      13.053   5.767  -3.740  1.00  0.00     0.022 A 
BRANCH  80  84
ATOM     84  S   UNL     1      15.435   4.584  -4.578  1.00  0.00     0.124 S 
ATOM     85  O   UNL     1      16.610   5.265  -4.046  1.00  0.00    -0.237 OA
ATOM     86  O   UNL     1      15.444   3.127  -4.497  1.00  0.00    -0.237 OA
ATOM     87  O   UNL     1      14.905   5.133  -5.825  1.00  0.00    -0.744 OA
ENDBRANCH  80  84
ENDBRANCH  53  77
BRANCH  65  88
ATOM     88  C   UNL     1      18.376   6.995   3.520  1.00  0.00     0.023 A 
ATOM     89  C   UNL     1      18.330   8.374   3.250  1.00  0.00     0.031 A 
ATOM     90  C   UNL     1      19.639   6.387   3.643  1.00  0.00     0.131 A 
ATOM     91  C   UNL     1      19.522   9.089   3.062  1.00  0.00     0.055 A 
ATOM     92  C   UNL     1      20.822   7.115   3.511  1.00  0.00     0.041 A 
ATOM     93  F   UNL     1      19.742   5.073   3.899  1.00  0.00    -0.206 F 
ATOM     94  C   UNL     1      20.768   8.472   3.207  1.00  0.00     0.022 A 
BRANCH  91  95
ATOM     95  S   UNL     1      19.427  10.825   2.543  1.00  0.00     0.124 S 
ATOM     96  O   UNL     1      18.684  10.727   1.291  1.00  0.00    -0.237 OA
ATOM     97  O   UNL     1      18.719  11.446   3.657  1.00  0.00    -0.237 OA
ATOM     98  O   UNL     1      20.828  11.219   2.403  1.00  0.00    -0.744 OA
ENDBRANCH  91  95
ENDBRANCH  65  88
ENDBRANCH  39  40
ENDBRANCH  32  34
ENDBRANCH  31  32
ENDBRANCH  30  31
ENDBRANCH  29  30
ENDBRANCH  28  29
ENDBRANCH  27  28
ENDBRANCH  26  27
ENDBRANCH  25  26
ENDBRANCH   1  25
TORSDOF 28
