REMARK SMILES O=C(OCCOCCOCCOCCOC(=O)c1ccccc1C(=O)OC[C@@H]1C[C@H]2CC[C@@H]1C2)c1ccc(-c2c3nc(c(-c4cc(S(=O)(=O)[O-])ccc4F)c4ccc([nH]4)c(-c4cc(S(=O)(=O)[O-])ccc4F)c4nc(c(-c5cc(S(=O)(=O)[O-])ccc5F)c5ccc2[nH]5)C=C4)C=C3)cc1
REMARK SMILES IDX 10 1 9 2 8 3 7 4 6 5 5 6 4 7 3 8 2 9 1 10 35 11 36 12 97 13
REMARK SMILES IDX 37 14 96 15 38 16 39 17 40 18 90 19 41 20 95 21 89 22 91 23
REMARK SMILES IDX 42 24 94 25 88 26 87 27 43 29 75 30 55 31 74 32 56 33 59 34
REMARK SMILES IDX 73 35 92 36 57 37 58 38 72 40 93 41 60 42 44 43 45 44 53 45
REMARK SMILES IDX 46 46 52 47 54 48 51 49 47 50 48 51 49 52 50 53 76 54 77 55
REMARK SMILES IDX 85 56 78 57 84 58 86 59 83 60 79 61 80 62 81 63 82 64 61 65
REMARK SMILES IDX 62 66 70 67 63 68 69 69 71 70 68 71 64 72 65 73 66 74 67 75
REMARK SMILES IDX 11 76 12 77 13 78 14 79 15 80 16 81 17 82 18 83 19 84 23 85
REMARK SMILES IDX 20 86 22 87 21 88 24 89 25 90 26 91 27 92 28 93 29 94 33 95
REMARK SMILES IDX 30 96 32 97 34 98 31 99
REMARK H PARENT 91 28 59 39
REMARK Flexibility Score: inf
ROOT
ATOM      1  C   UNL     1       4.154  -0.119  -3.799  1.00  0.00     0.188 C 
ENDROOT
BRANCH   1   2
ATOM      2  O   UNL     1       2.738  -0.029  -3.937  1.00  0.00    -0.377 OA
BRANCH   2   3
ATOM      3  C   UNL     1       2.010   0.329  -2.763  1.00  0.00     0.188 C 
BRANCH   3   4
ATOM      4  C   UNL     1       2.408  -0.409  -1.484  1.00  0.00     0.188 C 
BRANCH   4   5
ATOM      5  O   UNL     1       3.744  -0.099  -1.088  1.00  0.00    -0.376 OA
BRANCH   5   6
ATOM      6  C   UNL     1       4.550  -1.196  -0.656  1.00  0.00     0.202 C 
BRANCH   6   7
ATOM      7  C   UNL     1       4.277  -1.670   0.772  1.00  0.00     0.261 C 
BRANCH   7   8
ATOM      8  O   UNL     1       2.902  -1.514   1.150  1.00  0.00    -0.460 OA
BRANCH   8   9
ATOM      9  C   UNL     1       2.310  -0.423   1.699  1.00  0.00     0.338 C 
ATOM     10  O   UNL     1       1.109  -0.493   1.961  1.00  0.00    -0.246 OA
BRANCH   9  11
ATOM     11  C   UNL     1       3.011   0.869   1.995  1.00  0.00     0.060 A 
ATOM     12  C   UNL     1       4.193   1.313   1.400  1.00  0.00     0.016 A 
ATOM     13  C   UNL     1       2.395   1.725   2.925  1.00  0.00     0.016 A 
ATOM     14  C   UNL     1       4.797   2.504   1.759  1.00  0.00     0.010 A 
ATOM     15  C   UNL     1       2.991   2.935   3.299  1.00  0.00     0.010 A 
ATOM     16  C   UNL     1       4.226   3.292   2.749  1.00  0.00    -0.014 A 
BRANCH  16  17
ATOM     17  C   UNL     1       5.119   4.280   3.377  1.00  0.00     0.031 A 
ATOM     18  C   UNL     1       5.779   3.869   4.661  1.00  0.00     0.074 A 
ATOM     19  C   UNL     1       5.492   5.378   2.699  1.00  0.00     0.049 A 
ATOM     20  N   UNL     1       6.603   4.529   5.425  1.00  0.00    -0.248 NA
ATOM     21  C   UNL     1       5.479   2.506   5.138  1.00  0.00     0.031 C 
ATOM     22  C   UNL     1       5.040   5.729   1.350  1.00  0.00     0.029 A 
ATOM     23  N   UNL     1       6.373   6.371   3.025  1.00  0.00    -0.354 N 
ATOM     24  C   UNL     1       6.883   3.680   6.492  1.00  0.00     0.074 A 
ATOM     25  C   UNL     1       6.139   2.462   6.281  1.00  0.00     0.031 C 
ATOM     26  C   UNL     1       5.670   6.848   0.955  1.00  0.00     0.029 A 
ATOM     27  C   UNL     1       6.503   7.332   2.050  1.00  0.00     0.049 A 
ATOM     28  H   UNL     1       6.868   6.395   3.876  1.00  0.00     0.167 HD
ATOM     29  C   UNL     1       7.686   3.916   7.556  1.00  0.00     0.034 A 
ATOM     30  C   UNL     1       7.193   8.488   2.076  1.00  0.00     0.034 A 
ATOM     31  C   UNL     1       8.402   5.155   7.713  1.00  0.00     0.049 A 
ATOM     32  C   UNL     1       7.975   8.792   3.332  1.00  0.00     0.074 A 
ATOM     33  C   UNL     1       9.175   5.586   8.773  1.00  0.00     0.029 A 
ATOM     34  N   UNL     1       8.421   6.172   6.761  1.00  0.00    -0.354 N 
ATOM     35  N   UNL     1       8.143   8.044   4.402  1.00  0.00    -0.248 NA
ATOM     36  C   UNL     1       8.651  10.090   3.390  1.00  0.00     0.031 C 
ATOM     37  C   UNL     1       9.598   6.891   8.494  1.00  0.00     0.029 A 
ATOM     38  C   UNL     1       9.170   7.240   7.220  1.00  0.00     0.049 A 
ATOM     39  H   UNL     1       7.968   6.136   5.888  1.00  0.00     0.167 HD
ATOM     40  C   UNL     1       8.975   8.769   5.248  1.00  0.00     0.074 A 
ATOM     41  C   UNL     1       9.282  10.006   4.551  1.00  0.00     0.031 C 
ATOM     42  C   UNL     1       9.448   8.453   6.482  1.00  0.00     0.034 A 
BRANCH  29  43
ATOM     43  C   UNL     1       7.691   2.873   8.650  1.00  0.00     0.023 A 
ATOM     44  C   UNL     1       8.142   1.557   8.436  1.00  0.00     0.031 A 
ATOM     45  C   UNL     1       7.106   3.171   9.894  1.00  0.00     0.131 A 
ATOM     46  C   UNL     1       7.906   0.570   9.408  1.00  0.00     0.055 A 
ATOM     47  C   UNL     1       6.960   2.206  10.892  1.00  0.00     0.041 A 
ATOM     48  F   UNL     1       6.623   4.398  10.145  1.00  0.00    -0.206 F 
ATOM     49  C   UNL     1       7.341   0.891  10.644  1.00  0.00     0.022 A 
BRANCH  46  50
ATOM     50  S   UNL     1       8.167  -1.171   8.962  1.00  0.00     0.124 S 
ATOM     51  O   UNL     1       7.256  -1.326   7.830  1.00  0.00    -0.237 OA
ATOM     52  O   UNL     1       9.589  -1.208   8.644  1.00  0.00    -0.237 OA
ATOM     53  O   UNL     1       7.778  -1.898  10.169  1.00  0.00    -0.744 OA
ENDBRANCH  46  50
ENDBRANCH  29  43
BRANCH  30  54
ATOM     54  C   UNL     1       7.125   9.454   0.939  1.00  0.00     0.023 A 
ATOM     55  C   UNL     1       8.280   9.872   0.260  1.00  0.00     0.031 A 
ATOM     56  C   UNL     1       5.897  10.023   0.548  1.00  0.00     0.131 A 
ATOM     57  C   UNL     1       8.191  10.858  -0.738  1.00  0.00     0.055 A 
ATOM     58  C   UNL     1       5.805  10.958  -0.486  1.00  0.00     0.041 A 
ATOM     59  F   UNL     1       4.756   9.674   1.165  1.00  0.00    -0.206 F 
ATOM     60  C   UNL     1       6.960  11.392  -1.126  1.00  0.00     0.022 A 
BRANCH  57  61
ATOM     61  S   UNL     1       9.723  11.508  -1.461  1.00  0.00     0.124 S 
ATOM     62  O   UNL     1      10.431  11.982  -0.277  1.00  0.00    -0.237 OA
ATOM     63  O   UNL     1      10.277  10.324  -2.109  1.00  0.00    -0.237 OA
ATOM     64  O   UNL     1       9.255  12.553  -2.369  1.00  0.00    -0.744 OA
ENDBRANCH  57  61
ENDBRANCH  30  54
BRANCH  42  65
ATOM     65  C   UNL     1      10.399   9.438   7.110  1.00  0.00     0.023 A 
ATOM     66  C   UNL     1       9.988  10.725   7.492  1.00  0.00     0.031 A 
ATOM     67  C   UNL     1      11.742   9.078   7.316  1.00  0.00     0.131 A 
ATOM     68  C   UNL     1      10.929  11.633   7.994  1.00  0.00     0.055 A 
ATOM     69  C   UNL     1      12.657   9.960   7.889  1.00  0.00     0.041 A 
ATOM     70  F   UNL     1      12.185   7.859   6.967  1.00  0.00    -0.206 F 
ATOM     71  C   UNL     1      12.256  11.252   8.216  1.00  0.00     0.022 A 
BRANCH  68  72
ATOM     72  S   UNL     1      10.423  13.356   8.239  1.00  0.00     0.124 S 
ATOM     73  O   UNL     1       9.947  13.723   6.909  1.00  0.00    -0.237 OA
ATOM     74  O   UNL     1       9.399  13.236   9.272  1.00  0.00    -0.237 OA
ATOM     75  O   UNL     1      11.656  14.017   8.661  1.00  0.00    -0.744 OA
ENDBRANCH  68  72
ENDBRANCH  42  65
ENDBRANCH  16  17
ENDBRANCH   9  11
ENDBRANCH   8   9
ENDBRANCH   7   8
ENDBRANCH   6   7
ENDBRANCH   5   6
ENDBRANCH   4   5
ENDBRANCH   3   4
ENDBRANCH   2   3
ENDBRANCH   1   2
BRANCH   1  76
ATOM     76  C   UNL     1       4.958   1.136  -3.364  1.00  0.00     0.188 C 
BRANCH  76  77
ATOM     77  O   UNL     1       4.148   2.183  -2.860  1.00  0.00    -0.376 OA
BRANCH  77  78
ATOM     78  C   UNL     1       3.891   3.301  -3.699  1.00  0.00     0.202 C 
BRANCH  78  79
ATOM     79  C   UNL     1       3.547   3.104  -5.187  1.00  0.00     0.261 C 
BRANCH  79  80
ATOM     80  O   UNL     1       4.037   1.877  -5.738  1.00  0.00    -0.460 OA
BRANCH  80  81
ATOM     81  C   UNL     1       4.932   1.858  -6.742  1.00  0.00     0.339 C 
ATOM     82  O   UNL     1       5.501   2.804  -7.254  1.00  0.00    -0.246 OA
BRANCH  81  83
ATOM     83  C   UNL     1       5.236   0.432  -7.017  1.00  0.00     0.074 A 
ATOM     84  C   UNL     1       6.456  -0.060  -6.516  1.00  0.00     0.016 A 
ATOM     85  C   UNL     1       4.339  -0.451  -7.644  1.00  0.00     0.074 A 
ATOM     86  C   UNL     1       6.767  -1.418  -6.619  1.00  0.00     0.001 A 
ATOM     87  C   UNL     1       4.696  -1.803  -7.798  1.00  0.00     0.016 A 
ATOM     88  C   UNL     1       5.895  -2.286  -7.273  1.00  0.00     0.001 A 
BRANCH  85  89
ATOM     89  C   UNL     1       3.016  -0.064  -8.182  1.00  0.00     0.339 C 
ATOM     90  O   UNL     1       2.496  -0.608  -9.144  1.00  0.00    -0.246 OA
BRANCH  89  91
ATOM     91  O   UNL     1       2.505   0.956  -7.468  1.00  0.00    -0.462 OA
BRANCH  91  92
ATOM     92  C   UNL     1       1.371   1.644  -8.005  1.00  0.00     0.237 C 
BRANCH  92  93
ATOM     93  C   UNL     1       1.793   2.354  -9.292  1.00  0.00     0.030 C 
ATOM     94  C   UNL     1       1.945   3.887  -9.164  1.00  0.00     0.011 C 
ATOM     95  C   UNL     1       0.718   2.205 -10.389  1.00  0.00    -0.004 C 
ATOM     96  C   UNL     1       1.061   4.401 -10.313  1.00  0.00    -0.010 C 
ATOM     97  C   UNL     1       1.396   2.480 -11.737  1.00  0.00     0.004 C 
ATOM     98  C   UNL     1      -0.135   3.458 -10.203  1.00  0.00     0.007 C 
ATOM     99  C   UNL     1       1.679   3.986 -11.664  1.00  0.00     0.004 C 
ENDBRANCH  92  93
ENDBRANCH  91  92
ENDBRANCH  89  91
ENDBRANCH  85  89
ENDBRANCH  81  83
ENDBRANCH  80  81
ENDBRANCH  79  80
ENDBRANCH  78  79
ENDBRANCH  77  78
ENDBRANCH  76  77
ENDBRANCH   1  76
TORSDOF 27
