REMARK SMILES O=C(Cc1ccccc1Nc1c(Cl)cccc1Cl)OCCOCCOCCOCCOC(=O)c1ccc(-c2c3nc(c(-c4cc(S(=O)(=O)[O-])ccc4F)c4ccc([nH]4)c(-c4cc(S(=O)(=O)[O-])ccc4F)c4nc(c(-c5cc(S(=O)(=O)[O-])ccc5F)c5ccc2[nH]5)C=C4)C=C3)cc1
REMARK SMILES IDX 25 1 24 2 23 3 22 4 21 5 20 6 19 7 2 8 1 9 3 10 4 11 5 12
REMARK SMILES IDX 9 13 6 14 8 15 7 16 10 17 11 19 12 20 17 21 13 22 14 23
REMARK SMILES IDX 16 24 18 25 15 26 26 27 27 28 28 29 29 30 30 31 31 32 32 33
REMARK SMILES IDX 33 34 34 35 35 36 96 37 36 38 95 39 37 40 38 41 39 42 89 43
REMARK SMILES IDX 40 44 94 45 88 46 90 47 41 48 93 49 87 50 86 51 42 53 74 54
REMARK SMILES IDX 54 55 73 56 55 57 58 58 72 59 91 60 56 61 57 62 71 64 92 65
REMARK SMILES IDX 59 66 43 67 44 68 52 69 45 70 51 71 53 72 50 73 46 74 47 75
REMARK SMILES IDX 48 76 49 77 75 78 76 79 84 80 77 81 83 82 85 83 82 84 78 85
REMARK SMILES IDX 79 86 80 87 81 88 60 89 61 90 69 91 62 92 68 93 70 94 67 95
REMARK SMILES IDX 63 96 64 97 65 98 66 99
REMARK H PARENT 10 18 90 52 58 63
REMARK Flexibility Score: inf
ROOT
ATOM      1  O   UNL     1       2.720  -2.492  -2.949  1.00  0.00    -0.377 OA
ENDROOT
BRANCH   1   2
ATOM      2  C   UNL     1       2.083  -1.686  -1.969  1.00  0.00     0.188 C 
BRANCH   2   3
ATOM      3  C   UNL     1       2.644  -0.270  -1.833  1.00  0.00     0.188 C 
BRANCH   3   4
ATOM      4  O   UNL     1       4.034  -0.160  -1.568  1.00  0.00    -0.376 OA
BRANCH   4   5
ATOM      5  C   UNL     1       4.631  -0.344  -0.296  1.00  0.00     0.202 C 
BRANCH   5   6
ATOM      6  C   UNL     1       3.945  -1.187   0.766  1.00  0.00     0.261 C 
BRANCH   6   7
ATOM      7  O   UNL     1       2.615  -0.822   1.197  1.00  0.00    -0.463 OA
BRANCH   7   8
ATOM      8  C   UNL     1       2.065   0.366   1.504  1.00  0.00     0.310 C 
ATOM      9  O   UNL     1       0.978   0.386   2.082  1.00  0.00    -0.252 OA
BRANCH   8  10
ATOM     10  C   UNL     1       2.690   1.650   1.038  1.00  0.00     0.160 C 
BRANCH  10  11
ATOM     11  C   UNL     1       3.708   2.335   1.913  1.00  0.00    -0.013 A 
ATOM     12  C   UNL     1       4.423   1.619   2.890  1.00  0.00     0.006 A 
ATOM     13  C   UNL     1       3.967   3.718   1.726  1.00  0.00     0.042 A 
ATOM     14  C   UNL     1       5.340   2.261   3.716  1.00  0.00     0.000 A 
ATOM     15  C   UNL     1       4.832   4.350   2.630  1.00  0.00     0.026 A 
ATOM     16  C   UNL     1       5.519   3.632   3.608  1.00  0.00     0.002 A 
BRANCH  13  17
ATOM     17  N   UNL     1       3.400   4.412   0.630  1.00  0.00    -0.353 N 
ATOM     18  H   UNL     1       2.909   3.842  -0.006  1.00  0.00     0.167 HD
BRANCH  17  19
ATOM     19  C   UNL     1       3.419   5.788   0.296  1.00  0.00     0.076 A 
ATOM     20  C   UNL     1       2.188   6.476   0.214  1.00  0.00     0.066 A 
ATOM     21  C   UNL     1       4.593   6.541   0.118  1.00  0.00     0.066 A 
ATOM     22  Cl  UNL     1       0.685   5.615   0.310  1.00  0.00    -0.082 Cl
ATOM     23  C   UNL     1       2.132   7.862   0.055  1.00  0.00     0.023 A 
ATOM     24  C   UNL     1       4.537   7.934  -0.029  1.00  0.00     0.023 A 
ATOM     25  Cl  UNL     1       6.152   5.803  -0.049  1.00  0.00    -0.082 Cl
ATOM     26  C   UNL     1       3.311   8.595  -0.039  1.00  0.00     0.003 A 
ENDBRANCH  17  19
ENDBRANCH  13  17
ENDBRANCH  10  11
ENDBRANCH   8  10
ENDBRANCH   7   8
ENDBRANCH   6   7
ENDBRANCH   5   6
ENDBRANCH   4   5
ENDBRANCH   3   4
ENDBRANCH   2   3
ENDBRANCH   1   2
BRANCH   1  27
ATOM     27  C   UNL     1       4.106  -2.711  -2.724  1.00  0.00     0.188 C 
BRANCH  27  28
ATOM     28  C   UNL     1       5.032  -1.904  -3.654  1.00  0.00     0.188 C 
BRANCH  28  29
ATOM     29  O   UNL     1       4.492  -0.881  -4.467  1.00  0.00    -0.376 OA
BRANCH  29  30
ATOM     30  C   UNL     1       3.413  -1.123  -5.353  1.00  0.00     0.202 C 
BRANCH  30  31
ATOM     31  C   UNL     1       3.037  -2.483  -5.981  1.00  0.00     0.261 C 
BRANCH  31  32
ATOM     32  O   UNL     1       3.496  -3.679  -5.353  1.00  0.00    -0.460 OA
BRANCH  32  33
ATOM     33  C   UNL     1       4.644  -4.205  -5.838  1.00  0.00     0.338 C 
ATOM     34  O   UNL     1       5.313  -3.772  -6.760  1.00  0.00    -0.246 OA
BRANCH  33  35
ATOM     35  C   UNL     1       5.086  -5.267  -4.904  1.00  0.00     0.060 A 
ATOM     36  C   UNL     1       6.370  -5.167  -4.353  1.00  0.00     0.016 A 
ATOM     37  C   UNL     1       4.233  -6.308  -4.523  1.00  0.00     0.016 A 
ATOM     38  C   UNL     1       6.818  -6.122  -3.443  1.00  0.00     0.010 A 
ATOM     39  C   UNL     1       4.696  -7.287  -3.635  1.00  0.00     0.010 A 
ATOM     40  C   UNL     1       6.002  -7.214  -3.119  1.00  0.00    -0.014 A 
BRANCH  40  41
ATOM     41  C   UNL     1       6.621  -8.389  -2.456  1.00  0.00     0.031 A 
ATOM     42  C   UNL     1       7.166  -9.479  -3.341  1.00  0.00     0.074 A 
ATOM     43  C   UNL     1       6.764  -8.459  -1.120  1.00  0.00     0.049 A 
ATOM     44  N   UNL     1       7.766 -10.593  -3.017  1.00  0.00    -0.248 NA
ATOM     45  C   UNL     1       7.016  -9.274  -4.792  1.00  0.00     0.031 C 
ATOM     46  C   UNL     1       6.324  -7.443  -0.166  1.00  0.00     0.029 A 
ATOM     47  N   UNL     1       7.326  -9.435  -0.335  1.00  0.00    -0.354 N 
ATOM     48  C   UNL     1       8.078 -11.216  -4.221  1.00  0.00     0.074 A 
ATOM     49  C   UNL     1       7.560 -10.377  -5.280  1.00  0.00     0.031 C 
ATOM     50  C   UNL     1       6.625  -7.855   1.079  1.00  0.00     0.029 A 
ATOM     51  C   UNL     1       7.251  -9.176   1.014  1.00  0.00     0.049 A 
ATOM     52  H   UNL     1       7.745 -10.247  -0.703  1.00  0.00     0.167 HD
ATOM     53  C   UNL     1       8.748 -12.375  -4.428  1.00  0.00     0.034 A 
ATOM     54  C   UNL     1       7.625  -9.930   2.070  1.00  0.00     0.034 A 
ATOM     55  C   UNL     1       9.235 -13.217  -3.366  1.00  0.00     0.049 A 
ATOM     56  C   UNL     1       8.278 -11.272   1.813  1.00  0.00     0.074 A 
ATOM     57  C   UNL     1       9.909 -14.422  -3.462  1.00  0.00     0.029 A 
ATOM     58  N   UNL     1       9.090 -12.951  -2.011  1.00  0.00    -0.354 N 
ATOM     59  N   UNL     1       8.574 -11.846   0.668  1.00  0.00    -0.248 NA
ATOM     60  C   UNL     1       8.660 -12.060   2.993  1.00  0.00     0.031 C 
ATOM     61  C   UNL     1      10.109 -14.916  -2.169  1.00  0.00     0.029 A 
ATOM     62  C   UNL     1       9.635 -13.982  -1.262  1.00  0.00     0.049 A 
ATOM     63  H   UNL     1       8.662 -12.147  -1.637  1.00  0.00     0.167 HD
ATOM     64  C   UNL     1       9.204 -13.046   0.995  1.00  0.00     0.074 A 
ATOM     65  C   UNL     1       9.270 -13.097   2.440  1.00  0.00     0.031 C 
ATOM     66  C   UNL     1       9.684 -14.021   0.180  1.00  0.00     0.034 A 
BRANCH  53  67
ATOM     67  C   UNL     1       8.944 -12.814  -5.857  1.00  0.00     0.023 A 
ATOM     68  C   UNL     1       9.746 -12.082  -6.751  1.00  0.00     0.031 A 
ATOM     69  C   UNL     1       8.306 -13.971  -6.337  1.00  0.00     0.131 A 
ATOM     70  C   UNL     1       9.847 -12.486  -8.091  1.00  0.00     0.055 A 
ATOM     71  C   UNL     1       8.469 -14.408  -7.653  1.00  0.00     0.041 A 
ATOM     72  F   UNL     1       7.505 -14.691  -5.537  1.00  0.00    -0.206 F 
ATOM     73  C   UNL     1       9.235 -13.658  -8.541  1.00  0.00     0.022 A 
BRANCH  70  74
ATOM     74  S   UNL     1      10.694 -11.395  -9.266  1.00  0.00     0.124 S 
ATOM     75  O   UNL     1       9.880 -10.185  -9.184  1.00  0.00    -0.237 OA
ATOM     76  O   UNL     1      12.036 -11.304  -8.702  1.00  0.00    -0.237 OA
ATOM     77  O   UNL     1      10.598 -12.117 -10.533  1.00  0.00    -0.744 OA
ENDBRANCH  70  74
ENDBRANCH  53  67
BRANCH  54  78
ATOM     78  C   UNL     1       7.356  -9.483   3.470  1.00  0.00     0.023 A 
ATOM     79  C   UNL     1       8.397  -9.304   4.396  1.00  0.00     0.031 A 
ATOM     80  C   UNL     1       6.036  -9.331   3.933  1.00  0.00     0.131 A 
ATOM     81  C   UNL     1       8.101  -9.051   5.746  1.00  0.00     0.055 A 
ATOM     82  C   UNL     1       5.749  -9.016   5.263  1.00  0.00     0.041 A 
ATOM     83  F   UNL     1       4.999  -9.496   3.097  1.00  0.00    -0.206 F 
ATOM     84  C   UNL     1       6.785  -8.894   6.183  1.00  0.00     0.022 A 
BRANCH  81  85
ATOM     85  S   UNL     1       9.460  -9.056   6.949  1.00  0.00     0.124 S 
ATOM     86  O   UNL     1      10.046 -10.373   6.731  1.00  0.00    -0.237 OA
ATOM     87  O   UNL     1      10.257  -7.916   6.507  1.00  0.00    -0.237 OA
ATOM     88  O   UNL     1       8.780  -8.878   8.230  1.00  0.00    -0.744 OA
ENDBRANCH  81  85
ENDBRANCH  54  78
BRANCH  66  89
ATOM     89  C   UNL     1      10.359 -15.200   0.843  1.00  0.00     0.023 A 
ATOM     90  C   UNL     1       9.653 -16.082   1.680  1.00  0.00     0.031 A 
ATOM     91  C   UNL     1      11.734 -15.428   0.656  1.00  0.00     0.131 A 
ATOM     92  C   UNL     1      10.338 -17.101   2.359  1.00  0.00     0.055 A 
ATOM     93  C   UNL     1      12.396 -16.488   1.277  1.00  0.00     0.041 A 
ATOM     94  F   UNL     1      12.461 -14.619  -0.133  1.00  0.00    -0.206 F 
ATOM     95  C   UNL     1      11.702 -17.321   2.149  1.00  0.00     0.022 A 
BRANCH  92  96
ATOM     96  S   UNL     1       9.447 -18.059   3.615  1.00  0.00     0.124 S 
ATOM     97  O   UNL     1       8.968 -17.012   4.512  1.00  0.00    -0.237 OA
ATOM     98  O   UNL     1       8.425 -18.736   2.824  1.00  0.00    -0.237 OA
ATOM     99  O   UNL     1      10.477 -18.932   4.176  1.00  0.00    -0.744 OA
ENDBRANCH  92  96
ENDBRANCH  66  89
ENDBRANCH  40  41
ENDBRANCH  33  35
ENDBRANCH  32  33
ENDBRANCH  31  32
ENDBRANCH  30  31
ENDBRANCH  29  30
ENDBRANCH  28  29
ENDBRANCH  27  28
ENDBRANCH   1  27
TORSDOF 26
