REMARK SMILES O=C(NCC(=O)OCCOCCOCCOCCOC(=O)c1ccc(-c2c3nc(c(-c4cc(S(=O)(=O)[O-])ccc4F)c4ccc([nH]4)c(-c4cc(S(=O)(=O)[O-])ccc4F)c4nc(c(-c5cc(S(=O)(=O)[O-])ccc5F)c5ccc2[nH]5)C=C4)C=C3)cc1)Nc1cccc2c1CCCC2
REMARK SMILES IDX 14 1 13 2 12 3 11 4 10 5 9 6 8 7 7 8 5 9 6 10 4 11 3 12 1 13
REMARK SMILES IDX 2 14 85 15 86 18 87 19 91 20 88 21 90 22 92 23 89 24 95 25
REMARK SMILES IDX 93 26 94 27 15 28 16 29 17 30 18 31 19 32 20 33 21 34 22 35
REMARK SMILES IDX 23 36 84 37 24 38 83 39 25 40 26 41 27 42 77 43 28 44 82 45
REMARK SMILES IDX 76 46 78 47 29 48 81 49 75 50 74 51 30 53 62 54 42 55 61 56
REMARK SMILES IDX 43 57 46 58 60 59 79 60 44 61 45 62 59 64 80 65 47 66 31 67
REMARK SMILES IDX 32 68 40 69 33 70 39 71 41 72 38 73 34 74 35 75 36 76 37 77
REMARK SMILES IDX 63 78 64 79 72 80 65 81 71 82 73 83 70 84 66 85 67 86 68 87
REMARK SMILES IDX 69 88 48 89 49 90 57 91 50 92 56 93 58 94 55 95 51 96 52 97
REMARK SMILES IDX 53 98 54 99
REMARK H PARENT 3 16 85 17 78 52 46 63
REMARK Flexibility Score: inf
ROOT
ATOM      1  C   UNL     1       2.599   2.738  -4.216  1.00  0.00     0.188 C 
ENDROOT
BRANCH   1   2
ATOM      2  O   UNL     1       3.251   2.146  -3.093  1.00  0.00    -0.377 OA
BRANCH   2   3
ATOM      3  C   UNL     1       3.586   2.997  -2.018  1.00  0.00     0.188 C 
BRANCH   3   4
ATOM      4  C   UNL     1       5.064   3.424  -2.001  1.00  0.00     0.188 C 
BRANCH   4   5
ATOM      5  O   UNL     1       5.836   3.449  -3.193  1.00  0.00    -0.376 OA
BRANCH   5   6
ATOM      6  C   UNL     1       5.913   2.312  -4.048  1.00  0.00     0.202 C 
BRANCH   6   7
ATOM      7  C   UNL     1       6.141   0.895  -3.499  1.00  0.00     0.261 C 
BRANCH   7   8
ATOM      8  O   UNL     1       5.240   0.493  -2.460  1.00  0.00    -0.462 OA
BRANCH   8   9
ATOM      9  C   UNL     1       5.785   0.249  -1.243  1.00  0.00     0.325 C 
ATOM     10  O   UNL     1       6.979   0.336  -0.975  1.00  0.00    -0.250 OA
BRANCH   9  11
ATOM     11  C   UNL     1       4.732   0.043  -0.160  1.00  0.00     0.240 C 
BRANCH  11  12
ATOM     12  N   UNL     1       3.393  -0.310  -0.597  1.00  0.00    -0.327 N 
ATOM     13  O   UNL     1       1.488  -1.391  -0.809  1.00  0.00    -0.248 OA
ATOM     14  C   UNL     1       2.660  -1.445  -0.445  1.00  0.00     0.319 C 
ATOM     15  N   UNL     1       3.279  -2.508   0.180  1.00  0.00    -0.308 N 
ATOM     16  H   UNL     1       2.932   0.403  -1.094  1.00  0.00     0.166 HD
ATOM     17  H   UNL     1       4.259  -2.512   0.265  1.00  0.00     0.171 HD
BRANCH  15  18
ATOM     18  C   UNL     1       2.531  -3.596   0.706  1.00  0.00     0.046 A 
ATOM     19  C   UNL     1       2.414  -3.584   2.092  1.00  0.00     0.026 A 
ATOM     20  C   UNL     1       1.505  -4.187  -0.029  1.00  0.00    -0.021 A 
ATOM     21  C   UNL     1       1.147  -3.767   2.650  1.00  0.00     0.002 A 
ATOM     22  C   UNL     1       0.196  -4.094   0.450  1.00  0.00    -0.043 A 
ATOM     23  C   UNL     1       1.752  -5.582  -0.623  1.00  0.00     0.038 C 
ATOM     24  C   UNL     1       0.024  -3.904   1.819  1.00  0.00     0.004 A 
ATOM     25  C   UNL     1      -0.926  -4.362  -0.517  1.00  0.00     0.036 C 
ATOM     26  C   UNL     1       0.669  -6.033  -1.609  1.00  0.00     0.005 C 
ATOM     27  C   UNL     1      -0.422  -4.986  -1.831  1.00  0.00     0.005 C 
ENDBRANCH  15  18
ENDBRANCH  11  12
ENDBRANCH   9  11
ENDBRANCH   8   9
ENDBRANCH   7   8
ENDBRANCH   6   7
ENDBRANCH   5   6
ENDBRANCH   4   5
ENDBRANCH   3   4
ENDBRANCH   2   3
ENDBRANCH   1   2
BRANCH   1  28
ATOM     28  C   UNL     1       2.990   4.173  -4.640  1.00  0.00     0.188 C 
BRANCH  28  29
ATOM     29  O   UNL     1       2.932   5.124  -3.581  1.00  0.00    -0.376 OA
BRANCH  29  30
ATOM     30  C   UNL     1       1.786   5.962  -3.513  1.00  0.00     0.202 C 
BRANCH  30  31
ATOM     31  C   UNL     1       0.458   5.286  -3.139  1.00  0.00     0.261 C 
BRANCH  31  32
ATOM     32  O   UNL     1      -0.016   4.263  -4.026  1.00  0.00    -0.460 OA
BRANCH  32  33
ATOM     33  C   UNL     1      -0.195   4.576  -5.333  1.00  0.00     0.338 C 
ATOM     34  O   UNL     1      -0.041   5.655  -5.850  1.00  0.00    -0.246 OA
BRANCH  33  35
ATOM     35  C   UNL     1      -0.426   3.300  -6.053  1.00  0.00     0.060 A 
ATOM     36  C   UNL     1       0.430   2.935  -7.102  1.00  0.00     0.016 A 
ATOM     37  C   UNL     1      -1.481   2.467  -5.679  1.00  0.00     0.016 A 
ATOM     38  C   UNL     1       0.208   1.746  -7.805  1.00  0.00     0.010 A 
ATOM     39  C   UNL     1      -1.712   1.291  -6.394  1.00  0.00     0.010 A 
ATOM     40  C   UNL     1      -0.892   0.940  -7.481  1.00  0.00    -0.014 A 
BRANCH  40  41
ATOM     41  C   UNL     1      -1.355  -0.135  -8.396  1.00  0.00     0.031 A 
ATOM     42  C   UNL     1      -2.485   0.194  -9.334  1.00  0.00     0.074 A 
ATOM     43  C   UNL     1      -0.835  -1.375  -8.371  1.00  0.00     0.049 A 
ATOM     44  N   UNL     1      -3.216  -0.598 -10.072  1.00  0.00    -0.248 NA
ATOM     45  C   UNL     1      -2.845   1.618  -9.435  1.00  0.00     0.031 C 
ATOM     46  C   UNL     1       0.306  -1.799  -7.564  1.00  0.00     0.029 A 
ATOM     47  N   UNL     1      -1.224  -2.515  -9.031  1.00  0.00    -0.354 N 
ATOM     48  C   UNL     1      -4.134   0.227 -10.713  1.00  0.00     0.074 A 
ATOM     49  C   UNL     1      -3.887   1.575 -10.249  1.00  0.00     0.031 C 
ATOM     50  C   UNL     1       0.511  -3.114  -7.760  1.00  0.00     0.029 A 
ATOM     51  C   UNL     1      -0.519  -3.637  -8.658  1.00  0.00     0.049 A 
ATOM     52  H   UNL     1      -1.939  -2.529  -9.708  1.00  0.00     0.167 HD
ATOM     53  C   UNL     1      -5.093  -0.109 -11.609  1.00  0.00     0.034 A 
ATOM     54  C   UNL     1      -0.717  -4.936  -8.970  1.00  0.00     0.034 A 
ATOM     55  C   UNL     1      -5.340  -1.461 -12.043  1.00  0.00     0.049 A 
ATOM     56  C   UNL     1      -1.876  -5.308  -9.873  1.00  0.00     0.074 A 
ATOM     57  C   UNL     1      -6.299  -1.921 -12.928  1.00  0.00     0.029 A 
ATOM     58  N   UNL     1      -4.627  -2.573 -11.615  1.00  0.00    -0.354 N 
ATOM     59  N   UNL     1      -2.762  -4.527 -10.449  1.00  0.00    -0.248 NA
ATOM     60  C   UNL     1      -2.062  -6.737 -10.168  1.00  0.00     0.031 C 
ATOM     61  C   UNL     1      -6.214  -3.315 -12.978  1.00  0.00     0.029 A 
ATOM     62  C   UNL     1      -5.140  -3.718 -12.201  1.00  0.00     0.049 A 
ATOM     63  H   UNL     1      -3.869  -2.551 -10.987  1.00  0.00     0.167 HD
ATOM     64  C   UNL     1      -3.570  -5.367 -11.216  1.00  0.00     0.074 A 
ATOM     65  C   UNL     1      -3.074  -6.712 -11.024  1.00  0.00     0.031 C 
ATOM     66  C   UNL     1      -4.619  -5.052 -12.018  1.00  0.00     0.034 A 
BRANCH  53  67
ATOM     67  C   UNL     1      -5.974   0.999 -12.130  1.00  0.00     0.023 A 
ATOM     68  C   UNL     1      -5.452   2.062 -12.886  1.00  0.00     0.031 A 
ATOM     69  C   UNL     1      -7.350   1.011 -11.840  1.00  0.00     0.131 A 
ATOM     70  C   UNL     1      -6.283   3.127 -13.263  1.00  0.00     0.055 A 
ATOM     71  C   UNL     1      -8.189   2.030 -12.294  1.00  0.00     0.041 A 
ATOM     72  F   UNL     1      -7.901   0.037 -11.098  1.00  0.00    -0.206 F 
ATOM     73  C   UNL     1      -7.654   3.104 -12.998  1.00  0.00     0.022 A 
BRANCH  70  74
ATOM     74  S   UNL     1      -5.518   4.610 -13.973  1.00  0.00     0.124 S 
ATOM     75  O   UNL     1      -4.606   5.012 -12.905  1.00  0.00    -0.237 OA
ATOM     76  O   UNL     1      -4.894   4.095 -15.186  1.00  0.00    -0.237 OA
ATOM     77  O   UNL     1      -6.650   5.510 -14.187  1.00  0.00    -0.744 OA
ENDBRANCH  70  74
ENDBRANCH  53  67
BRANCH  54  78
ATOM     78  C   UNL     1       0.158  -6.004  -8.398  1.00  0.00     0.023 A 
ATOM     79  C   UNL     1       0.907  -6.846  -9.237  1.00  0.00     0.031 A 
ATOM     80  C   UNL     1       0.193  -6.259  -7.015  1.00  0.00     0.131 A 
ATOM     81  C   UNL     1       1.603  -7.938  -8.695  1.00  0.00     0.055 A 
ATOM     82  C   UNL     1       0.943  -7.305  -6.474  1.00  0.00     0.041 A 
ATOM     83  F   UNL     1      -0.513  -5.496  -6.165  1.00  0.00    -0.206 F 
ATOM     84  C   UNL     1       1.641  -8.164  -7.317  1.00  0.00     0.022 A 
BRANCH  81  85
ATOM     85  S   UNL     1       2.357  -9.136  -9.831  1.00  0.00     0.124 S 
ATOM     86  O   UNL     1       1.204  -9.559 -10.619  1.00  0.00    -0.237 OA
ATOM     87  O   UNL     1       3.343  -8.316 -10.526  1.00  0.00    -0.237 OA
ATOM     88  O   UNL     1       2.909 -10.151  -8.938  1.00  0.00    -0.744 OA
ENDBRANCH  81  85
ENDBRANCH  54  78
BRANCH  66  89
ATOM     89  C   UNL     1      -5.241  -6.160 -12.835  1.00  0.00     0.023 A 
ATOM     90  C   UNL     1      -5.976  -7.207 -12.253  1.00  0.00     0.031 A 
ATOM     91  C   UNL     1      -5.126  -6.133 -14.238  1.00  0.00     0.131 A 
ATOM     92  C   UNL     1      -6.540  -8.201 -13.070  1.00  0.00     0.055 A 
ATOM     93  C   UNL     1      -5.737  -7.090 -15.047  1.00  0.00     0.041 A 
ATOM     94  F   UNL     1      -4.432  -5.157 -14.847  1.00  0.00    -0.206 F 
ATOM     95  C   UNL     1      -6.442  -8.137 -14.463  1.00  0.00     0.022 A 
BRANCH  92  96
ATOM     96  S   UNL     1      -7.354  -9.621 -12.288  1.00  0.00     0.124 S 
ATOM     97  O   UNL     1      -6.273 -10.193 -11.493  1.00  0.00    -0.237 OA
ATOM     98  O   UNL     1      -8.433  -8.989 -11.536  1.00  0.00    -0.237 OA
ATOM     99  O   UNL     1      -7.788 -10.436 -13.422  1.00  0.00    -0.744 OA
ENDBRANCH  92  96
ENDBRANCH  66  89
ENDBRANCH  40  41
ENDBRANCH  33  35
ENDBRANCH  32  33
ENDBRANCH  31  32
ENDBRANCH  30  31
ENDBRANCH  29  30
ENDBRANCH  28  29
ENDBRANCH   1  28
TORSDOF 25
