REMARK SMILES C[C@H](C(=O)OCCOCCOCCOCCOC(=O)c1ccc(-c2c3nc(c(-c4cc(S(=O)(=O)[O-])ccc4F)c4ccc([nH]4)c(-c4cc(S(=O)(=O)[O-])ccc4F)c4nc(c(-c5cc(S(=O)(=O)[O-])ccc5F)c5ccc2[nH]5)C=C4)C=C3)cc1)N1C(=O)C[C@@H](N2C(=O)/C(=C/c3ccccc3)SC2=S)C1=O
REMARK SMILES IDX 11 1 10 2 9 3 8 4 7 5 6 6 5 7 3 8 4 9 2 10 1 11 83 12 84 13
REMARK SMILES IDX 102 14 85 15 86 16 87 17 103 18 88 19 89 20 100 21 90 22
REMARK SMILES IDX 91 23 99 24 101 25 92 26 93 27 94 28 98 29 95 30 97 31 96 32
REMARK SMILES IDX 12 33 13 34 14 35 15 36 16 37 17 38 18 39 19 40 20 41 21 42
REMARK SMILES IDX 82 43 22 44 81 45 23 46 24 47 25 48 75 49 26 50 80 51 74 52
REMARK SMILES IDX 76 53 27 54 79 55 73 56 72 57 28 59 60 60 40 61 59 62 41 63
REMARK SMILES IDX 44 64 58 65 77 66 42 67 43 68 57 70 78 71 45 72 29 73 30 74
REMARK SMILES IDX 38 75 31 76 37 77 39 78 36 79 32 80 33 81 34 82 35 83 61 84
REMARK SMILES IDX 62 85 70 86 63 87 69 88 71 89 68 90 64 91 65 92 66 93 67 94
REMARK SMILES IDX 46 95 47 96 55 97 48 98 54 99 56 100 53 101 49 102 50 103
REMARK SMILES IDX 51 104 52 105
REMARK H PARENT 76 58 44 69
REMARK Flexibility Score: inf
ROOT
ATOM      1  O   UNL     1      -0.372   0.192  -1.416  1.00  0.00    -0.377 OA
ENDROOT
BRANCH   1   2
ATOM      2  C   UNL     1       0.433   1.356  -1.502  1.00  0.00     0.188 C 
BRANCH   2   3
ATOM      3  C   UNL     1       1.941   1.231  -1.750  1.00  0.00     0.188 C 
BRANCH   3   4
ATOM      4  O   UNL     1       2.336   0.235  -2.668  1.00  0.00    -0.376 OA
BRANCH   4   5
ATOM      5  C   UNL     1       2.756  -1.039  -2.191  1.00  0.00     0.202 C 
BRANCH   5   6
ATOM      6  C   UNL     1       2.563  -1.461  -0.719  1.00  0.00     0.261 C 
BRANCH   6   7
ATOM      7  O   UNL     1       1.313  -1.061  -0.108  1.00  0.00    -0.462 OA
BRANCH   7   8
ATOM      8  C   UNL     1       1.385  -0.733   1.199  1.00  0.00     0.329 C 
ATOM      9  O   UNL     1       2.424  -0.890   1.848  1.00  0.00    -0.250 OA
BRANCH   8  10
ATOM     10  C   UNL     1       0.148  -0.042   1.864  1.00  0.00     0.200 C 
ATOM     11  C   UNL     1       0.760   1.272   2.437  1.00  0.00     0.044 C 
BRANCH  10  12
ATOM     12  N   UNL     1      -1.252   0.165   1.331  1.00  0.00    -0.267 N 
ATOM     13  C   UNL     1      -1.938   1.350   1.405  1.00  0.00     0.232 C 
ATOM     14  C   UNL     1      -2.119  -0.859   1.002  1.00  0.00     0.253 C 
ATOM     15  O   UNL     1      -1.482   2.475   1.569  1.00  0.00    -0.274 OA
ATOM     16  C   UNL     1      -3.422   1.128   1.354  1.00  0.00     0.136 C 
ATOM     17  C   UNL     1      -3.591  -0.354   1.081  1.00  0.00     0.191 C 
ATOM     18  O   UNL     1      -1.803  -2.030   0.837  1.00  0.00    -0.272 OA
BRANCH  17  19
ATOM     19  N   UNL     1      -4.700  -0.753   0.135  1.00  0.00    -0.280 N 
ATOM     20  C   UNL     1      -5.002  -0.030  -1.020  1.00  0.00     0.266 C 
ATOM     21  C   UNL     1      -5.552  -1.825   0.365  1.00  0.00     0.149 C 
ATOM     22  O   UNL     1      -4.470   1.006  -1.365  1.00  0.00    -0.268 OA
ATOM     23  C   UNL     1      -6.091  -0.704  -1.845  1.00  0.00     0.081 C 
ATOM     24  S   UNL     1      -6.714  -2.024  -0.964  1.00  0.00    -0.054 SA
ATOM     25  S   UNL     1      -5.615  -2.824   1.703  1.00  0.00    -0.052 S 
ATOM     26  C   UNL     1      -6.325  -0.324  -3.119  1.00  0.00     0.029 C 
BRANCH  26  27
ATOM     27  C   UNL     1      -6.826  -1.013  -4.346  1.00  0.00    -0.024 A 
ATOM     28  C   UNL     1      -5.868  -1.301  -5.338  1.00  0.00     0.008 A 
ATOM     29  C   UNL     1      -8.146  -1.243  -4.705  1.00  0.00     0.008 A 
ATOM     30  C   UNL     1      -6.147  -1.845  -6.590  1.00  0.00     0.001 A 
ATOM     31  C   UNL     1      -8.456  -1.754  -5.990  1.00  0.00     0.001 A 
ATOM     32  C   UNL     1      -7.462  -2.066  -6.925  1.00  0.00     0.000 A 
ENDBRANCH  26  27
ENDBRANCH  17  19
ENDBRANCH  10  12
ENDBRANCH   8  10
ENDBRANCH   7   8
ENDBRANCH   6   7
ENDBRANCH   5   6
ENDBRANCH   4   5
ENDBRANCH   3   4
ENDBRANCH   2   3
ENDBRANCH   1   2
BRANCH   1  33
ATOM     33  C   UNL     1      -0.393  -0.738  -2.494  1.00  0.00     0.188 C 
BRANCH  33  34
ATOM     34  C   UNL     1      -0.285  -0.190  -3.922  1.00  0.00     0.188 C 
BRANCH  34  35
ATOM     35  O   UNL     1      -0.863   1.092  -4.131  1.00  0.00    -0.376 OA
BRANCH  35  36
ATOM     36  C   UNL     1      -2.164   1.265  -3.587  1.00  0.00     0.202 C 
BRANCH  36  37
ATOM     37  C   UNL     1      -3.164   0.284  -4.155  1.00  0.00     0.261 C 
BRANCH  37  38
ATOM     38  O   UNL     1      -3.237  -1.007  -3.469  1.00  0.00    -0.460 OA
BRANCH  38  39
ATOM     39  C   UNL     1      -2.935  -2.087  -4.247  1.00  0.00     0.338 C 
ATOM     40  O   UNL     1      -2.559  -2.007  -5.411  1.00  0.00    -0.246 OA
BRANCH  39  41
ATOM     41  C   UNL     1      -3.092  -3.433  -3.644  1.00  0.00     0.060 A 
ATOM     42  C   UNL     1      -2.244  -4.410  -4.161  1.00  0.00     0.016 A 
ATOM     43  C   UNL     1      -4.149  -3.825  -2.822  1.00  0.00     0.016 A 
ATOM     44  C   UNL     1      -2.523  -5.756  -3.965  1.00  0.00     0.010 A 
ATOM     45  C   UNL     1      -4.399  -5.187  -2.564  1.00  0.00     0.010 A 
ATOM     46  C   UNL     1      -3.611  -6.168  -3.178  1.00  0.00    -0.014 A 
BRANCH  46  47
ATOM     47  C   UNL     1      -3.847  -7.632  -3.044  1.00  0.00     0.031 A 
ATOM     48  C   UNL     1      -5.011  -8.309  -3.718  1.00  0.00     0.074 A 
ATOM     49  C   UNL     1      -2.891  -8.362  -2.437  1.00  0.00     0.049 A 
ATOM     50  N   UNL     1      -5.255  -9.590  -3.853  1.00  0.00    -0.248 NA
ATOM     51  C   UNL     1      -6.035  -7.442  -4.318  1.00  0.00     0.031 C 
ATOM     52  C   UNL     1      -1.713  -7.795  -1.774  1.00  0.00     0.029 A 
ATOM     53  N   UNL     1      -2.714  -9.716  -2.326  1.00  0.00    -0.354 N 
ATOM     54  C   UNL     1      -6.458  -9.686  -4.548  1.00  0.00     0.074 A 
ATOM     55  C   UNL     1      -6.908  -8.329  -4.779  1.00  0.00     0.031 C 
ATOM     56  C   UNL     1      -0.900  -8.791  -1.397  1.00  0.00     0.029 A 
ATOM     57  C   UNL     1      -1.531 -10.066  -1.715  1.00  0.00     0.049 A 
ATOM     58  H   UNL     1      -3.369 -10.375  -2.652  1.00  0.00     0.167 HD
ATOM     59  C   UNL     1      -7.115 -10.804  -4.953  1.00  0.00     0.034 A 
ATOM     60  C   UNL     1      -1.015 -11.277  -1.429  1.00  0.00     0.034 A 
ATOM     61  C   UNL     1      -6.638 -12.148  -4.701  1.00  0.00     0.049 A 
ATOM     62  C   UNL     1      -1.788 -12.497  -1.847  1.00  0.00     0.074 A 
ATOM     63  C   UNL     1      -7.209 -13.353  -5.076  1.00  0.00     0.029 A 
ATOM     64  N   UNL     1      -5.481 -12.466  -3.998  1.00  0.00    -0.354 N 
ATOM     65  N   UNL     1      -2.918 -12.568  -2.514  1.00  0.00    -0.248 NA
ATOM     66  C   UNL     1      -1.220 -13.797  -1.478  1.00  0.00     0.031 C 
ATOM     67  C   UNL     1      -6.446 -14.392  -4.532  1.00  0.00     0.029 A 
ATOM     68  C   UNL     1      -5.345 -13.844  -3.893  1.00  0.00     0.049 A 
ATOM     69  H   UNL     1      -4.848 -11.808  -3.627  1.00  0.00     0.167 HD
ATOM     70  C   UNL     1      -3.188 -13.924  -2.657  1.00  0.00     0.074 A 
ATOM     71  C   UNL     1      -2.086 -14.631  -2.034  1.00  0.00     0.031 C 
ATOM     72  C   UNL     1      -4.249 -14.531  -3.247  1.00  0.00     0.034 A 
BRANCH  59  73
ATOM     73  C   UNL     1      -8.448 -10.629  -5.652  1.00  0.00     0.023 A 
ATOM     74  C   UNL     1      -8.568  -9.983  -6.897  1.00  0.00     0.031 A 
ATOM     75  C   UNL     1      -9.627 -11.120  -5.058  1.00  0.00     0.131 A 
ATOM     76  C   UNL     1      -9.836  -9.791  -7.472  1.00  0.00     0.055 A 
ATOM     77  C   UNL     1     -10.876 -10.994  -5.671  1.00  0.00     0.041 A 
ATOM     78  F   UNL     1      -9.586 -11.730  -3.863  1.00  0.00    -0.206 F 
ATOM     79  C   UNL     1     -10.988 -10.314  -6.879  1.00  0.00     0.022 A 
BRANCH  76  80
ATOM     80  S   UNL     1      -9.980  -8.735  -8.941  1.00  0.00     0.124 S 
ATOM     81  O   UNL     1      -9.409  -7.478  -8.461  1.00  0.00    -0.237 OA
ATOM     82  O   UNL     1      -9.190  -9.459  -9.930  1.00  0.00    -0.237 OA
ATOM     83  O   UNL     1     -11.418  -8.696  -9.198  1.00  0.00    -0.744 OA
ENDBRANCH  76  80
ENDBRANCH  59  73
BRANCH  60  84
ATOM     84  C   UNL     1       0.269 -11.387  -0.677  1.00  0.00     0.023 A 
ATOM     85  C   UNL     1       1.391 -12.024  -1.227  1.00  0.00     0.031 A 
ATOM     86  C   UNL     1       0.382 -10.869   0.628  1.00  0.00     0.131 A 
ATOM     87  C   UNL     1       2.562 -12.160  -0.463  1.00  0.00     0.055 A 
ATOM     88  C   UNL     1       1.568 -10.948   1.358  1.00  0.00     0.041 A 
ATOM     89  F   UNL     1      -0.661 -10.252   1.207  1.00  0.00    -0.206 F 
ATOM     90  C   UNL     1       2.664 -11.610   0.817  1.00  0.00     0.022 A 
BRANCH  87  91
ATOM     91  S   UNL     1       3.927 -13.150  -1.131  1.00  0.00     0.124 S 
ATOM     92  O   UNL     1       3.269 -14.425  -1.393  1.00  0.00    -0.237 OA
ATOM     93  O   UNL     1       4.318 -12.375  -2.303  1.00  0.00    -0.237 OA
ATOM     94  O   UNL     1       4.902 -13.164  -0.041  1.00  0.00    -0.744 OA
ENDBRANCH  87  91
ENDBRANCH  60  84
BRANCH  72  95
ATOM     95  C   UNL     1      -4.238 -16.041  -3.265  1.00  0.00     0.023 A 
ATOM     96  C   UNL     1      -4.326 -16.794  -2.081  1.00  0.00     0.031 A 
ATOM     97  C   UNL     1      -4.101 -16.733  -4.481  1.00  0.00     0.131 A 
ATOM     98  C   UNL     1      -4.208 -18.191  -2.132  1.00  0.00     0.055 A 
ATOM     99  C   UNL     1      -4.054 -18.127  -4.532  1.00  0.00     0.041 A 
ATOM    100  F   UNL     1      -4.006 -16.065  -5.642  1.00  0.00    -0.206 F 
ATOM    101  C   UNL     1      -4.091 -18.863  -3.351  1.00  0.00     0.022 A 
BRANCH  98 102
ATOM    102  S   UNL     1      -4.094 -19.110  -0.572  1.00  0.00     0.124 S 
ATOM    103  O   UNL     1      -2.916 -18.512   0.047  1.00  0.00    -0.237 OA
ATOM    104  O   UNL     1      -5.372 -18.808   0.063  1.00  0.00    -0.237 OA
ATOM    105  O   UNL     1      -3.931 -20.498  -1.004  1.00  0.00    -0.744 OA
ENDBRANCH  98 102
ENDBRANCH  72  95
ENDBRANCH  46  47
ENDBRANCH  39  41
ENDBRANCH  38  39
ENDBRANCH  37  38
ENDBRANCH  36  37
ENDBRANCH  35  36
ENDBRANCH  34  35
ENDBRANCH  33  34
ENDBRANCH   1  33
TORSDOF 26
