REMARK SMILES Cc1c(Cl)cc2c(c1C)O[C@H](C(F)(F)F)C(C(=O)OCCOCCOCCOCCOC(=O)c1ccc(-c3c4nc(c(-c5cc(S(=O)(=O)[O-])ccc5F)c5ccc([nH]5)c(-c5cc(S(=O)(=O)[O-])ccc5F)c5nc(c(-c6cc(S(=O)(=O)[O-])ccc6F)c6ccc3[nH]6)C=C5)C=C4)cc1)=C2
REMARK SMILES IDX 26 1 25 2 24 3 23 4 22 5 21 6 20 7 19 8 17 9 18 10 16 11
REMARK SMILES IDX 1 12 2 13 3 14 8 15 4 16 5 17 7 18 9 19 6 20 10 21 97 22
REMARK SMILES IDX 11 23 12 24 13 25 14 26 15 27 27 28 28 29 29 30 30 31 31 32
REMARK SMILES IDX 32 33 33 34 34 35 35 36 96 37 36 38 95 39 37 40 38 41 39 42
REMARK SMILES IDX 89 43 40 44 94 45 88 46 90 47 41 48 93 49 87 50 86 51 42 53
REMARK SMILES IDX 74 54 54 55 73 56 55 57 58 58 72 59 91 60 56 61 57 62 71 64
REMARK SMILES IDX 92 65 59 66 43 67 44 68 52 69 45 70 51 71 53 72 50 73 46 74
REMARK SMILES IDX 47 75 48 76 49 77 75 78 76 79 84 80 77 81 83 82 85 83 82 84
REMARK SMILES IDX 78 85 79 86 80 87 81 88 60 89 61 90 69 91 62 92 68 93 70 94
REMARK SMILES IDX 67 95 63 96 64 97 65 98 66 99
REMARK H PARENT 90 52 58 63
REMARK Flexibility Score: inf
ROOT
ATOM      1  C   UNL     1      -1.127   7.574   6.939  1.00  0.00     0.188 C 
ENDROOT
BRANCH   1   2
ATOM      2  O   UNL     1      -1.407   6.821   5.758  1.00  0.00    -0.377 OA
BRANCH   2   3
ATOM      3  C   UNL     1      -0.356   6.663   4.820  1.00  0.00     0.188 C 
BRANCH   3   4
ATOM      4  C   UNL     1      -0.276   7.826   3.814  1.00  0.00     0.188 C 
BRANCH   4   5
ATOM      5  O   UNL     1      -0.943   9.005   4.220  1.00  0.00    -0.376 OA
BRANCH   5   6
ATOM      6  C   UNL     1      -2.338   9.192   4.039  1.00  0.00     0.202 C 
BRANCH   6   7
ATOM      7  C   UNL     1      -3.401   8.079   3.916  1.00  0.00     0.261 C 
BRANCH   7   8
ATOM      8  O   UNL     1      -2.963   6.777   3.535  1.00  0.00    -0.460 OA
BRANCH   8   9
ATOM      9  C   UNL     1      -2.769   6.540   2.227  1.00  0.00     0.338 C 
ATOM     10  O   UNL     1      -2.939   7.316   1.304  1.00  0.00    -0.246 OA
BRANCH   9  11
ATOM     11  C   UNL     1      -2.125   5.214   2.112  1.00  0.00     0.087 C 
ATOM     12  C   UNL     1       1.183  -0.061   0.207  1.00  0.00     0.046 C 
ATOM     13  C   UNL     1       0.670   1.293   0.630  1.00  0.00    -0.026 A 
ATOM     14  C   UNL     1       1.230   2.458   0.065  1.00  0.00     0.045 A 
ATOM     15  C   UNL     1      -0.437   1.432   1.507  1.00  0.00    -0.004 A 
ATOM     16  Cl  UNL     1       2.557   2.397  -1.048  1.00  0.00    -0.084 Cl
ATOM     17  C   UNL     1       0.706   3.721   0.341  1.00  0.00     0.032 A 
ATOM     18  C   UNL     1      -0.934   2.722   1.799  1.00  0.00     0.131 A 
ATOM     19  C   UNL     1      -1.123   0.252   2.155  1.00  0.00     0.049 C 
ATOM     20  C   UNL     1      -0.400   3.851   1.178  1.00  0.00     0.019 A 
ATOM     21  O   UNL     1      -1.968   2.795   2.693  1.00  0.00    -0.475 OA
ATOM     22  C   UNL     1      -1.045   5.142   1.326  1.00  0.00     0.027 C 
ATOM     23  C   UNL     1      -2.646   4.059   2.926  1.00  0.00     0.316 C 
BRANCH  23  24
ATOM     24  C   UNL     1      -4.149   3.829   2.717  1.00  0.00     0.430 C 
ATOM     25  F   UNL     1      -4.578   2.739   3.398  1.00  0.00    -0.167 F 
ATOM     26  F   UNL     1      -4.891   4.875   3.142  1.00  0.00    -0.167 F 
ATOM     27  F   UNL     1      -4.442   3.629   1.411  1.00  0.00    -0.167 F 
ENDBRANCH  23  24
ENDBRANCH   9  11
ENDBRANCH   8   9
ENDBRANCH   7   8
ENDBRANCH   6   7
ENDBRANCH   5   6
ENDBRANCH   4   5
ENDBRANCH   3   4
ENDBRANCH   2   3
ENDBRANCH   1   2
BRANCH   1  28
ATOM     28  C   UNL     1      -0.057   8.692   6.934  1.00  0.00     0.188 C 
BRANCH  28  29
ATOM     29  O   UNL     1       1.167   8.322   6.306  1.00  0.00    -0.376 OA
BRANCH  29  30
ATOM     30  C   UNL     1       2.284   8.065   7.143  1.00  0.00     0.202 C 
BRANCH  30  31
ATOM     31  C   UNL     1       2.223   6.749   7.931  1.00  0.00     0.261 C 
BRANCH  31  32
ATOM     32  O   UNL     1       1.117   6.618   8.836  1.00  0.00    -0.460 OA
BRANCH  32  33
ATOM     33  C   UNL     1       1.022   7.526   9.833  1.00  0.00     0.338 C 
ATOM     34  O   UNL     1       1.807   8.424  10.082  1.00  0.00    -0.246 OA
BRANCH  33  35
ATOM     35  C   UNL     1      -0.310   7.364  10.451  1.00  0.00     0.060 A 
ATOM     36  C   UNL     1      -1.198   8.447  10.447  1.00  0.00     0.016 A 
ATOM     37  C   UNL     1      -0.682   6.142  11.015  1.00  0.00     0.016 A 
ATOM     38  C   UNL     1      -2.457   8.316  11.037  1.00  0.00     0.010 A 
ATOM     39  C   UNL     1      -1.932   6.020  11.627  1.00  0.00     0.010 A 
ATOM     40  C   UNL     1      -2.812   7.116  11.668  1.00  0.00    -0.014 A 
BRANCH  40  41
ATOM     41  C   UNL     1      -3.997   7.079  12.559  1.00  0.00     0.031 A 
ATOM     42  C   UNL     1      -3.779   7.324  14.028  1.00  0.00     0.074 A 
ATOM     43  C   UNL     1      -5.237   6.875  12.079  1.00  0.00     0.049 A 
ATOM     44  N   UNL     1      -4.641   7.298  15.010  1.00  0.00    -0.248 NA
ATOM     45  C   UNL     1      -2.403   7.646  14.441  1.00  0.00     0.031 C 
ATOM     46  C   UNL     1      -5.580   6.696  10.670  1.00  0.00     0.029 A 
ATOM     47  N   UNL     1      -6.441   6.792  12.732  1.00  0.00    -0.354 N 
ATOM     48  C   UNL     1      -3.915   7.609  16.154  1.00  0.00     0.074 A 
ATOM     49  C   UNL     1      -2.537   7.781  15.752  1.00  0.00     0.031 C 
ATOM     50  C   UNL     1      -6.911   6.529  10.565  1.00  0.00     0.029 A 
ATOM     51  C   UNL     1      -7.509   6.549  11.899  1.00  0.00     0.049 A 
ATOM     52  H   UNL     1      -6.533   6.896  13.707  1.00  0.00     0.167 HD
ATOM     53  C   UNL     1      -4.361   7.754  17.424  1.00  0.00     0.034 A 
ATOM     54  C   UNL     1      -8.812   6.349  12.187  1.00  0.00     0.034 A 
ATOM     55  C   UNL     1      -5.732   7.571  17.819  1.00  0.00     0.049 A 
ATOM     56  C   UNL     1      -9.264   6.392  13.627  1.00  0.00     0.074 A 
ATOM     57  C   UNL     1      -6.282   7.679  19.083  1.00  0.00     0.029 A 
ATOM     58  N   UNL     1      -6.768   7.238  16.958  1.00  0.00    -0.354 N 
ATOM     59  N   UNL     1      -8.561   6.651  14.706  1.00  0.00    -0.248 NA
ATOM     60  C   UNL     1     -10.683   6.110  13.891  1.00  0.00     0.031 C 
ATOM     61  C   UNL     1      -7.637   7.348  18.998  1.00  0.00     0.029 A 
ATOM     62  C   UNL     1      -7.948   7.106  17.669  1.00  0.00     0.049 A 
ATOM     63  H   UNL     1      -6.677   7.114  15.985  1.00  0.00     0.167 HD
ATOM     64  C   UNL     1      -9.457   6.587  15.770  1.00  0.00     0.074 A 
ATOM     65  C   UNL     1     -10.753   6.271  15.205  1.00  0.00     0.031 C 
ATOM     66  C   UNL     1      -9.230   6.780  17.094  1.00  0.00     0.034 A 
BRANCH  53  67
ATOM     67  C   UNL     1      -3.348   8.096  18.482  1.00  0.00     0.023 A 
ATOM     68  C   UNL     1      -2.729   9.356  18.523  1.00  0.00     0.031 A 
ATOM     69  C   UNL     1      -3.016   7.158  19.475  1.00  0.00     0.131 A 
ATOM     70  C   UNL     1      -1.783   9.635  19.520  1.00  0.00     0.055 A 
ATOM     71  C   UNL     1      -2.119   7.463  20.500  1.00  0.00     0.041 A 
ATOM     72  F   UNL     1      -3.562   5.932  19.466  1.00  0.00    -0.206 F 
ATOM     73  C   UNL     1      -1.493   8.706  20.523  1.00  0.00     0.022 A 
BRANCH  70  74
ATOM     74  S   UNL     1      -0.880  11.205  19.447  1.00  0.00     0.124 S 
ATOM     75  O   UNL     1      -0.135  11.058  18.199  1.00  0.00    -0.237 OA
ATOM     76  O   UNL     1      -1.956  12.190  19.436  1.00  0.00    -0.237 OA
ATOM     77  O   UNL     1      -0.064  11.187  20.660  1.00  0.00    -0.744 OA
ENDBRANCH  70  74
ENDBRANCH  53  67
BRANCH  54  78
ATOM     78  C   UNL     1      -9.787   6.058  11.097  1.00  0.00     0.023 A 
ATOM     79  C   UNL     1     -10.820   6.957  10.791  1.00  0.00     0.031 A 
ATOM     80  C   UNL     1      -9.716   4.859  10.366  1.00  0.00     0.131 A 
ATOM     81  C   UNL     1     -11.758   6.633   9.797  1.00  0.00     0.055 A 
ATOM     82  C   UNL     1     -10.626   4.560   9.349  1.00  0.00     0.041 A 
ATOM     83  F   UNL     1      -8.750   3.963  10.622  1.00  0.00    -0.206 F 
ATOM     84  C   UNL     1     -11.659   5.447   9.065  1.00  0.00     0.022 A 
BRANCH  81  85
ATOM     85  S   UNL     1     -13.140   7.769   9.498  1.00  0.00     0.124 S 
ATOM     86  O   UNL     1     -13.846   7.718  10.773  1.00  0.00    -0.237 OA
ATOM     87  O   UNL     1     -12.447   9.018   9.196  1.00  0.00    -0.237 OA
ATOM     88  O   UNL     1     -13.842   7.162   8.370  1.00  0.00    -0.744 OA
ENDBRANCH  81  85
ENDBRANCH  54  78
BRANCH  66  89
ATOM     89  C   UNL     1     -10.407   6.683  18.030  1.00  0.00     0.023 A 
ATOM     90  C   UNL     1     -11.016   5.451  18.319  1.00  0.00     0.031 A 
ATOM     91  C   UNL     1     -10.881   7.831  18.691  1.00  0.00     0.131 A 
ATOM     92  C   UNL     1     -12.083   5.398  19.228  1.00  0.00     0.055 A 
ATOM     93  C   UNL     1     -11.910   7.765  19.630  1.00  0.00     0.041 A 
ATOM     94  F   UNL     1     -10.328   9.032  18.454  1.00  0.00    -0.206 F 
ATOM     95  C   UNL     1     -12.521   6.543  19.899  1.00  0.00     0.022 A 
BRANCH  92  96
ATOM     96  S   UNL     1     -12.918   3.812  19.500  1.00  0.00     0.124 S 
ATOM     97  O   UNL     1     -13.478   3.534  18.182  1.00  0.00    -0.237 OA
ATOM     98  O   UNL     1     -11.820   2.946  19.921  1.00  0.00    -0.237 OA
ATOM     99  O   UNL     1     -13.899   4.114  20.541  1.00  0.00    -0.744 OA
ENDBRANCH  92  96
ENDBRANCH  66  89
ENDBRANCH  40  41
ENDBRANCH  33  35
ENDBRANCH  32  33
ENDBRANCH  31  32
ENDBRANCH  30  31
ENDBRANCH  29  30
ENDBRANCH  28  29
ENDBRANCH   1  28
TORSDOF 24
