REMARK SMILES O=C(OCCOCCOCCOCCOC(=O)[C@@H]1CCCN(c2ccc3cc(S(=O)(=O)N4CCCCC4)ccc3n2)C1)c1ccc(-c2c3nc(c(-c4cc(S(=O)(=O)[O-])ccc4F)c4ccc([nH]4)c(-c4cc(S(=O)(=O)[O-])ccc4F)c4nc(c(-c5cc(S(=O)(=O)[O-])ccc5F)c5ccc2[nH]5)C=C4)C=C3)cc1
REMARK SMILES IDX 9 1 8 2 7 3 6 4 5 5 4 6 3 7 2 8 1 9 43 10 44 11 105 12 45 13
REMARK SMILES IDX 104 14 46 15 47 16 48 17 98 18 49 19 103 20 97 21 99 22
REMARK SMILES IDX 50 23 102 24 96 25 95 26 51 28 83 29 63 30 82 31 64 32 67 33
REMARK SMILES IDX 81 34 100 35 65 36 66 37 80 39 101 40 68 41 52 42 53 43
REMARK SMILES IDX 61 44 54 45 60 46 62 47 59 48 55 49 56 50 57 51 58 52 84 53
REMARK SMILES IDX 85 54 93 55 86 56 92 57 94 58 91 59 87 60 88 61 89 62 90 63
REMARK SMILES IDX 69 64 70 65 78 66 71 67 77 68 79 69 76 70 72 71 73 72 74 73
REMARK SMILES IDX 75 74 10 75 11 76 12 77 13 78 14 79 15 80 16 81 17 82 18 83
REMARK SMILES IDX 19 84 42 85 20 86 22 87 21 88 23 89 24 90 41 91 25 92 40 93
REMARK SMILES IDX 26 94 39 95 27 96 38 97 28 98 29 99 30 100 31 101 32 102
REMARK SMILES IDX 33 103 37 104 34 105 36 106 35 107
REMARK H PARENT 99 27 67 38
REMARK Flexibility Score: inf
ROOT
ATOM      1  O   UNL     1       2.649   2.578   2.702  1.00  0.00    -0.377 OA
ENDROOT
BRANCH   1   2
ATOM      2  C   UNL     1       1.825   1.621   2.038  1.00  0.00     0.188 C 
BRANCH   2   3
ATOM      3  C   UNL     1       2.280   1.203   0.640  1.00  0.00     0.188 C 
BRANCH   3   4
ATOM      4  O   UNL     1       3.606   0.692   0.645  1.00  0.00    -0.376 OA
BRANCH   4   5
ATOM      5  C   UNL     1       4.508   1.097  -0.381  1.00  0.00     0.202 C 
BRANCH   5   6
ATOM      6  C   UNL     1       4.157   0.641  -1.791  1.00  0.00     0.261 C 
BRANCH   6   7
ATOM      7  O   UNL     1       2.800   0.201  -1.953  1.00  0.00    -0.460 OA
BRANCH   7   8
ATOM      8  C   UNL     1       2.226  -0.979  -1.618  1.00  0.00     0.338 C 
ATOM      9  O   UNL     1       1.020  -1.113  -1.831  1.00  0.00    -0.246 OA
BRANCH   8  10
ATOM     10  C   UNL     1       2.949  -2.133  -1.009  1.00  0.00     0.060 A 
ATOM     11  C   UNL     1       4.022  -2.044  -0.125  1.00  0.00     0.016 A 
ATOM     12  C   UNL     1       2.431  -3.410  -1.272  1.00  0.00     0.016 A 
ATOM     13  C   UNL     1       4.631  -3.160   0.412  1.00  0.00     0.010 A 
ATOM     14  C   UNL     1       3.011  -4.549  -0.709  1.00  0.00     0.010 A 
ATOM     15  C   UNL     1       4.140  -4.418   0.107  1.00  0.00    -0.014 A 
BRANCH  15  16
ATOM     16  C   UNL     1       4.986  -5.556   0.484  1.00  0.00     0.031 A 
ATOM     17  C   UNL     1       5.783  -6.197  -0.608  1.00  0.00     0.074 A 
ATOM     18  C   UNL     1       5.173  -5.849   1.783  1.00  0.00     0.049 A 
ATOM     19  N   UNL     1       6.543  -7.253  -0.570  1.00  0.00    -0.248 NA
ATOM     20  C   UNL     1       5.723  -5.543  -1.929  1.00  0.00     0.031 C 
ATOM     21  C   UNL     1       4.577  -5.118   2.908  1.00  0.00     0.029 A 
ATOM     22  N   UNL     1       5.944  -6.805   2.380  1.00  0.00    -0.354 N 
ATOM     23  C   UNL     1       7.015  -7.416  -1.867  1.00  0.00     0.074 A 
ATOM     24  C   UNL     1       6.451  -6.358  -2.671  1.00  0.00     0.031 C 
ATOM     25  C   UNL     1       5.019  -5.649   4.059  1.00  0.00     0.029 A 
ATOM     26  C   UNL     1       5.843  -6.811   3.752  1.00  0.00     0.049 A 
ATOM     27  H   UNL     1       6.518  -7.428   1.878  1.00  0.00     0.167 HD
ATOM     28  C   UNL     1       7.839  -8.383  -2.330  1.00  0.00     0.034 A 
ATOM     29  C   UNL     1       6.318  -7.704   4.639  1.00  0.00     0.034 A 
ATOM     30  C   UNL     1       8.360  -9.415  -1.472  1.00  0.00     0.049 A 
ATOM     31  C   UNL     1       7.108  -8.862   4.079  1.00  0.00     0.074 A 
ATOM     32  C   UNL     1       9.127 -10.514  -1.802  1.00  0.00     0.029 A 
ATOM     33  N   UNL     1       8.150  -9.467  -0.096  1.00  0.00    -0.354 N 
ATOM     34  N   UNL     1       7.461  -9.093   2.832  1.00  0.00    -0.248 NA
ATOM     35  C   UNL     1       7.552  -9.882   5.032  1.00  0.00     0.031 C 
ATOM     36  C   UNL     1       9.315 -11.269  -0.639  1.00  0.00     0.029 A 
ATOM     37  C   UNL     1       8.747 -10.595   0.434  1.00  0.00     0.049 A 
ATOM     38  H   UNL     1       7.650  -8.797   0.424  1.00  0.00     0.167 HD
ATOM     39  C   UNL     1       8.192 -10.275   2.855  1.00  0.00     0.074 A 
ATOM     40  C   UNL     1       8.246 -10.691   4.245  1.00  0.00     0.031 C 
ATOM     41  C   UNL     1       8.767 -10.962   1.833  1.00  0.00     0.034 A 
BRANCH  28  42
ATOM     42  C   UNL     1       8.094  -8.412  -3.815  1.00  0.00     0.023 A 
ATOM     43  C   UNL     1       8.755  -7.364  -4.483  1.00  0.00     0.031 A 
ATOM     44  C   UNL     1       7.564  -9.456  -4.593  1.00  0.00     0.131 A 
ATOM     45  C   UNL     1       8.791  -7.344  -5.887  1.00  0.00     0.055 A 
ATOM     46  C   UNL     1       7.681  -9.474  -5.984  1.00  0.00     0.041 A 
ATOM     47  F   UNL     1       6.886 -10.461  -4.016  1.00  0.00    -0.206 F 
ATOM     48  C   UNL     1       8.283  -8.405  -6.640  1.00  0.00     0.022 A 
BRANCH  45  49
ATOM     49  S   UNL     1       9.356  -5.833  -6.720  1.00  0.00     0.124 S 
ATOM     50  O   UNL     1       8.386  -4.851  -6.238  1.00  0.00    -0.237 OA
ATOM     51  O   UNL     1      10.717  -5.683  -6.218  1.00  0.00    -0.237 OA
ATOM     52  O   UNL     1       9.246  -6.161  -8.139  1.00  0.00    -0.744 OA
ENDBRANCH  45  49
ENDBRANCH  28  42
BRANCH  29  53
ATOM     53  C   UNL     1       5.988  -7.603   6.092  1.00  0.00     0.023 A 
ATOM     54  C   UNL     1       6.994  -7.542   7.068  1.00  0.00     0.031 A 
ATOM     55  C   UNL     1       4.651  -7.634   6.535  1.00  0.00     0.131 A 
ATOM     56  C   UNL     1       6.652  -7.567   8.431  1.00  0.00     0.055 A 
ATOM     57  C   UNL     1       4.314  -7.592   7.889  1.00  0.00     0.041 A 
ATOM     58  F   UNL     1       3.641  -7.705   5.653  1.00  0.00    -0.206 F 
ATOM     59  C   UNL     1       5.319  -7.575   8.848  1.00  0.00     0.022 A 
BRANCH  56  60
ATOM     60  S   UNL     1       7.983  -7.708   9.656  1.00  0.00     0.124 S 
ATOM     61  O   UNL     1       8.666  -8.918   9.212  1.00  0.00    -0.237 OA
ATOM     62  O   UNL     1       8.705  -6.455   9.464  1.00  0.00    -0.237 OA
ATOM     63  O   UNL     1       7.267  -7.826  10.925  1.00  0.00    -0.744 OA
ENDBRANCH  56  60
ENDBRANCH  29  53
BRANCH  41  64
ATOM     64  C   UNL     1       9.540 -12.197   2.208  1.00  0.00     0.023 A 
ATOM     65  C   UNL     1       8.905 -13.332   2.736  1.00  0.00     0.031 A 
ATOM     66  C   UNL     1      10.934 -12.233   2.028  1.00  0.00     0.131 A 
ATOM     67  C   UNL     1       9.673 -14.435   3.128  1.00  0.00     0.055 A 
ATOM     68  C   UNL     1      11.683 -13.364   2.347  1.00  0.00     0.041 A 
ATOM     69  F   UNL     1      11.587 -11.172   1.528  1.00  0.00    -0.206 F 
ATOM     70  C   UNL     1      11.054 -14.468   2.915  1.00  0.00     0.022 A 
BRANCH  67  71
ATOM     71  S   UNL     1       8.856 -15.781   4.024  1.00  0.00     0.124 S 
ATOM     72  O   UNL     1       8.303 -15.083   5.180  1.00  0.00    -0.237 OA
ATOM     73  O   UNL     1       7.885 -16.263   3.046  1.00  0.00    -0.237 OA
ATOM     74  O   UNL     1       9.948 -16.706   4.321  1.00  0.00    -0.744 OA
ENDBRANCH  67  71
ENDBRANCH  41  64
ENDBRANCH  15  16
ENDBRANCH   8  10
ENDBRANCH   7   8
ENDBRANCH   6   7
ENDBRANCH   5   6
ENDBRANCH   4   5
ENDBRANCH   3   4
ENDBRANCH   2   3
ENDBRANCH   1   2
BRANCH   1  75
ATOM     75  C   UNL     1       4.048   2.314   2.674  1.00  0.00     0.188 C 
BRANCH  75  76
ATOM     76  C   UNL     1       4.599   0.971   3.229  1.00  0.00     0.188 C 
BRANCH  76  77
ATOM     77  O   UNL     1       3.628  -0.030   3.509  1.00  0.00    -0.376 OA
BRANCH  77  78
ATOM     78  C   UNL     1       3.368  -0.260   4.896  1.00  0.00     0.202 C 
BRANCH  78  79
ATOM     79  C   UNL     1       2.579   0.867   5.580  1.00  0.00     0.261 C 
BRANCH  79  80
ATOM     80  O   UNL     1       3.254   2.135   5.501  1.00  0.00    -0.463 OA
BRANCH  80  81
ATOM     81  C   UNL     1       4.395   2.269   6.226  1.00  0.00     0.310 C 
ATOM     82  O   UNL     1       4.751   1.478   7.090  1.00  0.00    -0.252 OA
BRANCH  81  83
ATOM     83  C   UNL     1       5.270   3.389   5.665  1.00  0.00     0.118 C 
ATOM     84  C   UNL     1       6.415   3.754   6.601  1.00  0.00     0.019 C 
ATOM     85  C   UNL     1       4.460   4.624   5.283  1.00  0.00     0.133 C 
ATOM     86  C   UNL     1       5.897   4.499   7.822  1.00  0.00     0.022 C 
ATOM     87  N   UNL     1       4.003   5.286   6.489  1.00  0.00    -0.356 N 
ATOM     88  C   UNL     1       5.044   5.707   7.427  1.00  0.00     0.118 C 
BRANCH  87  89
ATOM     89  C   UNL     1       2.832   6.014   6.434  1.00  0.00     0.129 A 
ATOM     90  C   UNL     1       1.672   5.500   5.850  1.00  0.00     0.047 A 
ATOM     91  N   UNL     1       2.826   7.221   7.023  1.00  0.00    -0.231 NA
ATOM     92  C   UNL     1       0.479   6.217   5.913  1.00  0.00     0.014 A 
ATOM     93  C   UNL     1       1.688   7.906   7.091  1.00  0.00     0.073 A 
ATOM     94  C   UNL     1       0.465   7.444   6.571  1.00  0.00     0.002 A 
ATOM     95  C   UNL     1       1.729   9.122   7.733  1.00  0.00     0.030 A 
ATOM     96  C   UNL     1      -0.708   8.198   6.749  1.00  0.00     0.032 A 
ATOM     97  C   UNL     1       0.576   9.877   7.915  1.00  0.00     0.024 A 
ATOM     98  C   UNL     1      -0.650   9.410   7.444  1.00  0.00     0.083 A 
BRANCH  98  99
ATOM     99  S   UNL     1      -2.187  10.276   7.700  1.00  0.00     0.243 S 
ATOM    100  O   UNL     1      -2.688  10.608   6.388  1.00  0.00    -0.207 OA
ATOM    101  O   UNL     1      -2.959   9.464   8.623  1.00  0.00    -0.207 OA
BRANCH  99 102
ATOM    102  N   UNL     1      -1.805  11.743   8.498  1.00  0.00    -0.198 NA
ATOM    103  C   UNL     1      -1.435  11.619   9.932  1.00  0.00     0.102 C 
ATOM    104  C   UNL     1      -1.106  12.751   7.661  1.00  0.00     0.102 C 
ATOM    105  C   UNL     1      -1.187  12.967  10.591  1.00  0.00     0.017 C 
ATOM    106  C   UNL     1      -0.882  14.063   8.395  1.00  0.00     0.017 C 
ATOM    107  C   UNL     1      -0.256  13.835   9.760  1.00  0.00     0.003 C 
ENDBRANCH  99 102
ENDBRANCH  98  99
ENDBRANCH  87  89
ENDBRANCH  81  83
ENDBRANCH  80  81
ENDBRANCH  79  80
ENDBRANCH  78  79
ENDBRANCH  77  78
ENDBRANCH  76  77
ENDBRANCH  75  76
ENDBRANCH   1  75
TORSDOF 26
