REMARK SMILES C[C@H]1[C@H](C)CC[C@@]2(C(=O)OCCOCCOCCOCCOC(=O)c3ccc(-c4c5nc(c(-c6cc(S(=O)(=O)[O-])ccc6F)c6ccc([nH]6)c(-c6cc(S(=O)(=O)[O-])ccc6F)c6nc(c(-c7cc(S(=O)(=O)[O-])ccc7F)c7ccc4[nH]7)C=C6)C=C5)cc3)CC[C@@]3(C)C(=CC[C@@H]4[C@@]5(C)CC[C@H](O)C(C)(C)[C@@H]5CC[C@]43C)[C@H]12
REMARK SMILES IDX 17 1 16 2 15 3 14 4 13 5 12 6 11 7 10 8 8 9 9 10 7 11 1 12
REMARK SMILES IDX 2 13 3 14 110 15 4 16 5 17 92 18 6 19 88 20 90 21 93 22
REMARK SMILES IDX 89 23 91 24 108 25 94 26 95 27 107 28 109 29 96 30 106 31
REMARK SMILES IDX 97 32 98 33 105 34 99 35 102 36 100 37 103 38 104 39 101 40
REMARK SMILES IDX 18 42 19 43 20 44 21 45 22 46 23 47 24 48 25 49 26 50 87 51
REMARK SMILES IDX 27 52 86 53 28 54 29 55 30 56 80 57 31 58 85 59 79 60 81 61
REMARK SMILES IDX 32 62 84 63 78 64 77 65 33 67 65 68 45 69 64 70 46 71 49 72
REMARK SMILES IDX 63 73 82 74 47 75 48 76 62 78 83 79 50 80 34 81 35 82 43 83
REMARK SMILES IDX 36 84 42 85 44 86 41 87 37 88 38 89 39 90 40 91 66 92 67 93
REMARK SMILES IDX 75 94 68 95 74 96 76 97 73 98 69 99 70 100 71 101 72 102
REMARK SMILES IDX 51 103 52 104 60 105 53 106 59 107 61 108 58 109 54 110
REMARK SMILES IDX 55 111 56 112 57 113
REMARK H PARENT 101 41 81 66 49 77
REMARK Flexibility Score: inf
ROOT
ATOM      1  C   UNL     1       0.651  -1.227  -5.474  1.00  0.00     0.188 C 
ENDROOT
BRANCH   1   2
ATOM      2  O   UNL     1       0.427  -2.001  -4.318  1.00  0.00    -0.377 OA
BRANCH   2   3
ATOM      3  C   UNL     1      -0.860  -2.498  -4.045  1.00  0.00     0.188 C 
BRANCH   3   4
ATOM      4  C   UNL     1      -1.936  -1.434  -3.785  1.00  0.00     0.188 C 
BRANCH   4   5
ATOM      5  O   UNL     1      -1.540  -0.079  -3.926  1.00  0.00    -0.376 OA
BRANCH   5   6
ATOM      6  C   UNL     1      -0.554   0.411  -3.047  1.00  0.00     0.202 C 
BRANCH   6   7
ATOM      7  C   UNL     1       0.143  -0.512  -2.056  1.00  0.00     0.261 C 
BRANCH   7   8
ATOM      8  O   UNL     1      -0.619  -1.265  -1.053  1.00  0.00    -0.463 OA
BRANCH   8   9
ATOM      9  C   UNL     1      -1.378  -2.342  -0.759  1.00  0.00     0.312 C 
ATOM     10  O   UNL     1      -1.948  -3.123  -1.508  1.00  0.00    -0.252 OA
BRANCH   9  11
ATOM     11  C   UNL     1      -1.359  -2.582   0.765  1.00  0.00     0.075 C 
ATOM     12  C   UNL     1       0.987   0.240   2.258  1.00  0.00     0.008 C 
ATOM     13  C   UNL     1       0.519  -0.866   1.313  1.00  0.00    -0.003 C 
ATOM     14  C   UNL     1       1.539  -2.077   1.307  1.00  0.00    -0.011 C 
ATOM     15  C   UNL     1      -1.047  -1.243   1.505  1.00  0.00     0.036 C 
ATOM     16  C   UNL     1       2.900  -1.740   0.658  1.00  0.00     0.008 C 
ATOM     17  C   UNL     1       1.050  -3.323   0.565  1.00  0.00     0.005 C 
ATOM     18  C   UNL     1      -2.254  -0.283   1.032  1.00  0.00    -0.063 C 
ATOM     19  C   UNL     1      -0.338  -3.706   1.004  1.00  0.00     0.020 C 
ATOM     20  C   UNL     1      -2.709  -3.141   1.261  1.00  0.00     0.020 C 
ATOM     21  C   UNL     1      -3.740  -0.757   1.318  1.00  0.00    -0.006 C 
ATOM     22  C   UNL     1      -2.057   0.742   0.174  1.00  0.00    -0.027 C 
ATOM     23  C   UNL     1      -3.899  -2.255   0.939  1.00  0.00     0.013 C 
ATOM     24  C   UNL     1      -3.964  -0.633   2.843  1.00  0.00     0.017 C 
ATOM     25  C   UNL     1      -4.886   0.124   0.496  1.00  0.00    -0.020 C 
ATOM     26  C   UNL     1      -3.106   1.249  -0.802  1.00  0.00     0.032 C 
ATOM     27  C   UNL     1      -4.326   0.307  -0.956  1.00  0.00     0.006 C 
ATOM     28  C   UNL     1      -6.288  -0.539   0.431  1.00  0.00     0.008 C 
ATOM     29  C   UNL     1      -5.111   1.498   1.200  1.00  0.00     0.012 C 
ATOM     30  C   UNL     1      -5.332   0.637  -2.182  1.00  0.00    -0.025 C 
ATOM     31  C   UNL     1      -7.252   0.156  -0.556  1.00  0.00     0.005 C 
ATOM     32  C   UNL     1      -5.354   2.157  -2.435  1.00  0.00     0.012 C 
ATOM     33  C   UNL     1      -4.796  -0.032  -3.489  1.00  0.00     0.010 C 
ATOM     34  C   UNL     1      -6.737  -0.037  -1.986  1.00  0.00     0.003 C 
ATOM     35  C   UNL     1      -5.708   0.021  -4.720  1.00  0.00     0.033 C 
ATOM     36  C   UNL     1      -7.776   0.176  -3.168  1.00  0.00    -0.006 C 
ATOM     37  C   UNL     1      -7.140  -0.444  -4.451  1.00  0.00     0.120 C 
ATOM     38  C   UNL     1      -8.210   1.637  -3.417  1.00  0.00     0.014 C 
ATOM     39  C   UNL     1      -9.092  -0.596  -2.889  1.00  0.00     0.014 C 
BRANCH  37  40
ATOM     40  O   UNL     1      -7.949  -0.203  -5.605  1.00  0.00    -0.393 OA
ATOM     41  H   UNL     1      -7.988   0.751  -5.779  1.00  0.00     0.210 HD
ENDBRANCH  37  40
ENDBRANCH   9  11
ENDBRANCH   8   9
ENDBRANCH   7   8
ENDBRANCH   6   7
ENDBRANCH   5   6
ENDBRANCH   4   5
ENDBRANCH   3   4
ENDBRANCH   2   3
ENDBRANCH   1   2
BRANCH   1  42
ATOM     42  C   UNL     1      -0.475  -0.844  -6.453  1.00  0.00     0.188 C 
BRANCH  42  43
ATOM     43  O   UNL     1      -1.576  -1.736  -6.486  1.00  0.00    -0.376 OA
BRANCH  43  44
ATOM     44  C   UNL     1      -1.627  -2.734  -7.487  1.00  0.00     0.202 C 
BRANCH  44  45
ATOM     45  C   UNL     1      -0.579  -3.857  -7.436  1.00  0.00     0.261 C 
BRANCH  45  46
ATOM     46  O   UNL     1       0.798  -3.456  -7.449  1.00  0.00    -0.460 OA
BRANCH  46  47
ATOM     47  C   UNL     1       1.236  -2.669  -8.459  1.00  0.00     0.338 C 
ATOM     48  O   UNL     1       0.603  -2.344  -9.449  1.00  0.00    -0.246 OA
BRANCH  47  49
ATOM     49  C   UNL     1       2.498  -2.032  -7.993  1.00  0.00     0.060 A 
ATOM     50  C   UNL     1       2.583  -0.628  -8.011  1.00  0.00     0.016 A 
ATOM     51  C   UNL     1       3.487  -2.784  -7.342  1.00  0.00     0.016 A 
ATOM     52  C   UNL     1       3.656   0.021  -7.396  1.00  0.00     0.010 A 
ATOM     53  C   UNL     1       4.594  -2.139  -6.783  1.00  0.00     0.010 A 
ATOM     54  C   UNL     1       4.704  -0.738  -6.853  1.00  0.00    -0.014 A 
BRANCH  54  55
ATOM     55  C   UNL     1       6.057  -0.129  -6.813  1.00  0.00     0.031 A 
ATOM     56  C   UNL     1       6.796  -0.119  -8.129  1.00  0.00     0.074 A 
ATOM     57  C   UNL     1       6.612   0.386  -5.702  1.00  0.00     0.049 A 
ATOM     58  N   UNL     1       7.999   0.298  -8.414  1.00  0.00    -0.248 NA
ATOM     59  C   UNL     1       6.061  -0.659  -9.289  1.00  0.00     0.031 C 
ATOM     60  C   UNL     1       5.975   0.481  -4.390  1.00  0.00     0.029 A 
ATOM     61  N   UNL     1       7.861   0.925  -5.507  1.00  0.00    -0.354 N 
ATOM     62  C   UNL     1       8.153   0.081  -9.780  1.00  0.00     0.074 A 
ATOM     63  C   UNL     1       6.940  -0.528 -10.263  1.00  0.00     0.031 C 
ATOM     64  C   UNL     1       6.846   1.030  -3.522  1.00  0.00     0.029 A 
ATOM     65  C   UNL     1       8.113   1.292  -4.205  1.00  0.00     0.049 A 
ATOM     66  H   UNL     1       8.515   1.038  -6.234  1.00  0.00     0.167 HD
ATOM     67  C   UNL     1       9.215   0.358 -10.569  1.00  0.00     0.034 A 
ATOM     68  C   UNL     1       9.249   1.755  -3.640  1.00  0.00     0.034 A 
ATOM     69  C   UNL     1      10.444   0.900 -10.064  1.00  0.00     0.049 A 
ATOM     70  C   UNL     1      10.471   1.942  -4.518  1.00  0.00     0.074 A 
ATOM     71  C   UNL     1      11.604   1.192 -10.754  1.00  0.00     0.029 A 
ATOM     72  N   UNL     1      10.678   1.206  -8.730  1.00  0.00    -0.354 N 
ATOM     73  N   UNL     1      10.603   1.741  -5.811  1.00  0.00    -0.248 NA
ATOM     74  C   UNL     1      11.695   2.419  -3.860  1.00  0.00     0.031 C 
ATOM     75  C   UNL     1      12.564   1.607  -9.825  1.00  0.00     0.029 A 
ATOM     76  C   UNL     1      11.976   1.654  -8.569  1.00  0.00     0.049 A 
ATOM     77  H   UNL     1      10.017   1.116  -8.005  1.00  0.00     0.167 HD
ATOM     78  C   UNL     1      11.913   2.103  -6.123  1.00  0.00     0.074 A 
ATOM     79  C   UNL     1      12.525   2.543  -4.886  1.00  0.00     0.031 C 
ATOM     80  C   UNL     1      12.556   2.084  -7.319  1.00  0.00     0.034 A 
BRANCH  67  81
ATOM     81  C   UNL     1       9.095  -0.013 -12.024  1.00  0.00     0.023 A 
ATOM     82  C   UNL     1       8.155   0.607 -12.868  1.00  0.00     0.031 A 
ATOM     83  C   UNL     1       9.871  -1.058 -12.552  1.00  0.00     0.131 A 
ATOM     84  C   UNL     1       7.967   0.128 -14.173  1.00  0.00     0.055 A 
ATOM     85  C   UNL     1       9.735  -1.476 -13.876  1.00  0.00     0.041 A 
ATOM     86  F   UNL     1      10.752  -1.712 -11.779  1.00  0.00    -0.206 F 
ATOM     87  C   UNL     1       8.769  -0.892 -14.691  1.00  0.00     0.022 A 
BRANCH  84  88
ATOM     88  S   UNL     1       6.561   0.753 -15.134  1.00  0.00     0.124 S 
ATOM     89  O   UNL     1       5.432   0.358 -14.295  1.00  0.00    -0.237 OA
ATOM     90  O   UNL     1       6.836   2.183 -15.201  1.00  0.00    -0.237 OA
ATOM     91  O   UNL     1       6.667   0.036 -16.403  1.00  0.00    -0.744 OA
ENDBRANCH  84  88
ENDBRANCH  67  81
BRANCH  68  92
ATOM     92  C   UNL     1       9.329   2.027  -2.172  1.00  0.00     0.023 A 
ATOM     93  C   UNL     1       9.616   3.312  -1.681  1.00  0.00     0.031 A 
ATOM     94  C   UNL     1       9.206   0.983  -1.237  1.00  0.00     0.131 A 
ATOM     95  C   UNL     1       9.820   3.510  -0.305  1.00  0.00     0.055 A 
ATOM     96  C   UNL     1       9.358   1.195   0.135  1.00  0.00     0.041 A 
ATOM     97  F   UNL     1       8.943  -0.268  -1.647  1.00  0.00    -0.206 F 
ATOM     98  C   UNL     1       9.681   2.463   0.608  1.00  0.00     0.022 A 
BRANCH  95  99
ATOM     99  S   UNL     1      10.367   5.143   0.270  1.00  0.00     0.124 S 
ATOM    100  O   UNL     1      11.608   5.321  -0.475  1.00  0.00    -0.237 OA
ATOM    101  O   UNL     1       9.250   5.993  -0.129  1.00  0.00    -0.237 OA
ATOM    102  O   UNL     1      10.524   4.962   1.712  1.00  0.00    -0.744 OA
ENDBRANCH  95  99
ENDBRANCH  68  92
BRANCH  80 103
ATOM    103  C   UNL     1      13.971   2.605  -7.354  1.00  0.00     0.023 A 
ATOM    104  C   UNL     1      15.026   1.934  -6.713  1.00  0.00     0.031 A 
ATOM    105  C   UNL     1      14.266   3.785  -8.060  1.00  0.00     0.131 A 
ATOM    106  C   UNL     1      16.318   2.477  -6.747  1.00  0.00     0.055 A 
ATOM    107  C   UNL     1      15.565   4.286  -8.143  1.00  0.00     0.041 A 
ATOM    108  F   UNL     1      13.296   4.463  -8.694  1.00  0.00    -0.206 F 
ATOM    109  C   UNL     1      16.598   3.638  -7.473  1.00  0.00     0.022 A 
BRANCH 106 110
ATOM    110  S   UNL     1      17.618   1.692  -5.755  1.00  0.00     0.124 S 
ATOM    111  O   UNL     1      17.054   1.758  -4.410  1.00  0.00    -0.237 OA
ATOM    112  O   UNL     1      17.701   0.361  -6.346  1.00  0.00    -0.237 OA
ATOM    113  O   UNL     1      18.784   2.545  -5.981  1.00  0.00    -0.744 OA
ENDBRANCH 106 110
ENDBRANCH  80 103
ENDBRANCH  54  55
ENDBRANCH  47  49
ENDBRANCH  46  47
ENDBRANCH  45  46
ENDBRANCH  44  45
ENDBRANCH  43  44
ENDBRANCH  42  43
ENDBRANCH   1  42
TORSDOF 24
