REMARK SMILES Cc1ccccc1NC(=O)CSc1nc(C(=O)OCCOCCOCCOCCOC(=O)c2ccc(-c3c4nc(c(-c5cc(S(=O)(=O)[O-])ccc5F)c5ccc([nH]5)c(-c5cc(S(=O)(=O)[O-])ccc5F)c5nc(c(-c6cc(S(=O)(=O)[O-])ccc6F)c6ccc3[nH]6)C=C5)C=C4)cc2)c2ccccc2n1
REMARK SMILES IDX 23 1 22 2 21 3 20 4 19 5 18 6 16 7 17 8 15 9 13 10 14 11
REMARK SMILES IDX 102 12 101 13 96 14 100 15 97 16 99 17 98 18 12 19 11 20
REMARK SMILES IDX 9 21 8 22 10 24 7 25 1 26 2 27 3 28 4 29 6 30 5 31 24 32
REMARK SMILES IDX 25 33 26 34 27 35 28 36 29 37 30 38 31 39 32 40 33 41 34 42
REMARK SMILES IDX 95 43 35 44 94 45 36 46 37 47 38 48 88 49 39 50 93 51 87 52
REMARK SMILES IDX 89 53 40 54 92 55 86 56 85 57 41 59 73 60 53 61 72 62 54 63
REMARK SMILES IDX 57 64 71 65 90 66 55 67 56 68 70 70 91 71 58 72 42 73 43 74
REMARK SMILES IDX 51 75 44 76 50 77 52 78 49 79 45 80 46 81 47 82 48 83 74 84
REMARK SMILES IDX 75 85 83 86 76 87 82 88 84 89 81 90 77 91 78 92 79 93 80 94
REMARK SMILES IDX 59 95 60 96 68 97 61 98 67 99 69 100 66 101 62 102 63 103
REMARK SMILES IDX 64 104 65 105
REMARK H PARENT 8 23 89 58 57 69
REMARK Flexibility Score: inf
ROOT
ATOM      1  C   UNL     1      -4.012   4.883  -4.825  1.00  0.00     0.188 C 
ENDROOT
BRANCH   1   2
ATOM      2  C   UNL     1      -3.904   5.122  -3.314  1.00  0.00     0.188 C 
BRANCH   2   3
ATOM      3  O   UNL     1      -4.270   6.418  -2.843  1.00  0.00    -0.376 OA
BRANCH   3   4
ATOM      4  C   UNL     1      -3.273   7.439  -2.995  1.00  0.00     0.202 C 
BRANCH   4   5
ATOM      5  C   UNL     1      -1.909   7.094  -2.398  1.00  0.00     0.261 C 
BRANCH   5   6
ATOM      6  O   UNL     1      -1.196   6.271  -3.341  1.00  0.00    -0.458 OA
BRANCH   6   7
ATOM      7  C   UNL     1      -0.110   5.658  -2.830  1.00  0.00     0.357 C 
ATOM      8  O   UNL     1       0.490   5.957  -1.813  1.00  0.00    -0.244 OA
BRANCH   7   9
ATOM      9  C   UNL     1      -0.074   4.277  -3.340  1.00  0.00     0.160 A 
ATOM     10  C   UNL     1      -0.702   2.277  -2.533  1.00  0.00     0.189 A 
ATOM     11  N   UNL     1      -0.188   3.454  -2.294  1.00  0.00    -0.215 NA
ATOM     12  N   UNL     1      -0.689   1.692  -3.733  1.00  0.00    -0.222 NA
ATOM     13  C   UNL     1      -0.336   2.465  -4.776  1.00  0.00     0.076 A 
ATOM     14  C   UNL     1      -0.151   3.845  -4.654  1.00  0.00     0.034 A 
ATOM     15  C   UNL     1      -0.237   1.903  -6.043  1.00  0.00     0.029 A 
ATOM     16  C   UNL     1      -0.080   4.647  -5.810  1.00  0.00     0.013 A 
ATOM     17  C   UNL     1      -0.075   2.690  -7.187  1.00  0.00     0.002 A 
ATOM     18  C   UNL     1      -0.053   4.072  -7.074  1.00  0.00     0.001 A 
BRANCH  10  19
ATOM     19  S   UNL     1      -1.960   1.850  -1.361  1.00  0.00    -0.076 SA
BRANCH  19  20
ATOM     20  C   UNL     1      -1.569   3.072  -0.011  1.00  0.00     0.178 C 
BRANCH  20  21
ATOM     21  C   UNL     1      -0.131   3.057   0.511  1.00  0.00     0.234 C 
ATOM     22  N   UNL     1       0.587   1.915   0.731  1.00  0.00    -0.325 N 
ATOM     23  H   UNL     1       1.538   2.059   0.943  1.00  0.00     0.169 HD
ATOM     24  O   UNL     1       0.448   4.115   0.772  1.00  0.00    -0.274 OA
BRANCH  22  25
ATOM     25  C   UNL     1       0.190   0.575   0.704  1.00  0.00     0.044 A 
ATOM     26  C   UNL     1       2.510  -0.156  -0.119  1.00  0.00     0.046 C 
ATOM     27  C   UNL     1       1.064  -0.407   0.211  1.00  0.00    -0.027 A 
ATOM     28  C   UNL     1       0.559  -1.702  -0.002  1.00  0.00     0.005 A 
ATOM     29  C   UNL     1      -0.771  -2.016   0.284  1.00  0.00     0.000 A 
ATOM     30  C   UNL     1      -1.098   0.211   1.117  1.00  0.00     0.026 A 
ATOM     31  C   UNL     1      -1.594  -1.065   0.870  1.00  0.00     0.002 A 
ENDBRANCH  22  25
ENDBRANCH  20  21
ENDBRANCH  19  20
ENDBRANCH  10  19
ENDBRANCH   7   9
ENDBRANCH   6   7
ENDBRANCH   5   6
ENDBRANCH   4   5
ENDBRANCH   3   4
ENDBRANCH   2   3
ENDBRANCH   1   2
BRANCH   1  32
ATOM     32  O   UNL     1      -3.143   5.675  -5.609  1.00  0.00    -0.377 OA
BRANCH  32  33
ATOM     33  C   UNL     1      -3.680   6.624  -6.538  1.00  0.00     0.188 C 
BRANCH  33  34
ATOM     34  C   UNL     1      -5.195   6.715  -6.751  1.00  0.00     0.188 C 
BRANCH  34  35
ATOM     35  O   UNL     1      -5.806   7.231  -5.564  1.00  0.00    -0.376 OA
BRANCH  35  36
ATOM     36  C   UNL     1      -7.147   6.813  -5.329  1.00  0.00     0.202 C 
BRANCH  36  37
ATOM     37  C   UNL     1      -8.158   7.351  -6.349  1.00  0.00     0.261 C 
BRANCH  37  38
ATOM     38  O   UNL     1      -8.315   8.774  -6.199  1.00  0.00    -0.460 OA
BRANCH  38  39
ATOM     39  C   UNL     1      -7.702   9.514  -7.161  1.00  0.00     0.338 C 
ATOM     40  O   UNL     1      -8.023   9.520  -8.340  1.00  0.00    -0.246 OA
BRANCH  39  41
ATOM     41  C   UNL     1      -6.521  10.215  -6.591  1.00  0.00     0.060 A 
ATOM     42  C   UNL     1      -5.527  10.736  -7.435  1.00  0.00     0.016 A 
ATOM     43  C   UNL     1      -6.290  10.132  -5.222  1.00  0.00     0.016 A 
ATOM     44  C   UNL     1      -4.253  11.034  -6.922  1.00  0.00     0.010 A 
ATOM     45  C   UNL     1      -5.010  10.332  -4.747  1.00  0.00     0.010 A 
ATOM     46  C   UNL     1      -3.963  10.755  -5.583  1.00  0.00    -0.014 A 
BRANCH  46  47
ATOM     47  C   UNL     1      -2.614  10.630  -4.991  1.00  0.00     0.031 A 
ATOM     48  C   UNL     1      -2.358  11.052  -3.563  1.00  0.00     0.074 A 
ATOM     49  C   UNL     1      -1.732   9.784  -5.577  1.00  0.00     0.049 A 
ATOM     50  N   UNL     1      -1.306  10.749  -2.878  1.00  0.00    -0.248 NA
ATOM     51  C   UNL     1      -3.277  11.871  -2.772  1.00  0.00     0.031 C 
ATOM     52  C   UNL     1      -0.760   8.967  -4.859  1.00  0.00     0.029 A 
ATOM     53  N   UNL     1      -1.526   9.398  -6.894  1.00  0.00    -0.354 N 
ATOM     54  C   UNL     1      -1.540  10.988  -1.543  1.00  0.00     0.074 A 
ATOM     55  C   UNL     1      -2.736  11.791  -1.548  1.00  0.00     0.031 C 
ATOM     56  C   UNL     1      -0.028   8.241  -5.702  1.00  0.00     0.029 A 
ATOM     57  C   UNL     1      -0.280   8.767  -7.010  1.00  0.00     0.049 A 
ATOM     58  H   UNL     1      -2.158   9.545  -7.634  1.00  0.00     0.167 HD
ATOM     59  C   UNL     1      -0.753  10.373  -0.606  1.00  0.00     0.034 A 
ATOM     60  C   UNL     1       0.744   9.281  -7.754  1.00  0.00     0.034 A 
ATOM     61  C   UNL     1       0.464   9.784  -1.207  1.00  0.00     0.049 A 
ATOM     62  C   UNL     1       1.910   9.724  -6.882  1.00  0.00     0.074 A 
ATOM     63  C   UNL     1       1.123   8.577  -1.077  1.00  0.00     0.029 A 
ATOM     64  N   UNL     1       1.159  10.470  -2.215  1.00  0.00    -0.354 N 
ATOM     65  N   UNL     1       1.770  10.045  -5.615  1.00  0.00    -0.248 NA
ATOM     66  C   UNL     1       3.313   9.690  -7.279  1.00  0.00     0.031 C 
ATOM     67  C   UNL     1       2.111   8.487  -2.102  1.00  0.00     0.029 A 
ATOM     68  C   UNL     1       2.151   9.695  -2.778  1.00  0.00     0.049 A 
ATOM     69  H   UNL     1       0.962  11.395  -2.488  1.00  0.00     0.167 HD
ATOM     70  C   UNL     1       2.994  10.127  -5.010  1.00  0.00     0.074 A 
ATOM     71  C   UNL     1       3.932   9.951  -6.110  1.00  0.00     0.031 C 
ATOM     72  C   UNL     1       3.164  10.267  -3.657  1.00  0.00     0.034 A 
BRANCH  59  73
ATOM     73  C   UNL     1      -1.138  10.132   0.871  1.00  0.00     0.023 A 
ATOM     74  C   UNL     1      -0.237   9.480   1.759  1.00  0.00     0.031 A 
ATOM     75  C   UNL     1      -2.406  10.401   1.439  1.00  0.00     0.131 A 
ATOM     76  C   UNL     1      -0.608   9.120   3.080  1.00  0.00     0.055 A 
ATOM     77  C   UNL     1      -2.744  10.116   2.772  1.00  0.00     0.041 A 
ATOM     78  F   UNL     1      -3.421  10.902   0.728  1.00  0.00    -0.206 F 
ATOM     79  C   UNL     1      -1.850   9.463   3.598  1.00  0.00     0.022 A 
BRANCH  76  80
ATOM     80  S   UNL     1       0.526   8.178   4.152  1.00  0.00     0.124 S 
ATOM     81  O   UNL     1       0.349   6.816   3.663  1.00  0.00    -0.237 OA
ATOM     82  O   UNL     1       1.817   8.805   3.896  1.00  0.00    -0.237 OA
ATOM     83  O   UNL     1      -0.010   8.415   5.494  1.00  0.00    -0.744 OA
ENDBRANCH  76  80
ENDBRANCH  59  73
BRANCH  60  84
ATOM     84  C   UNL     1       0.289   9.655  -9.121  1.00  0.00     0.023 A 
ATOM     85  C   UNL     1      -0.134   8.535  -9.877  1.00  0.00     0.031 A 
ATOM     86  C   UNL     1      -0.384  10.871  -9.322  1.00  0.00     0.131 A 
ATOM     87  C   UNL     1      -1.372   8.566 -10.534  1.00  0.00     0.055 A 
ATOM     88  C   UNL     1      -1.582  10.917 -10.053  1.00  0.00     0.041 A 
ATOM     89  F   UNL     1      -0.016  11.972  -8.651  1.00  0.00    -0.206 F 
ATOM     90  C   UNL     1      -2.115   9.748 -10.601  1.00  0.00     0.022 A 
BRANCH  87  91
ATOM     91  S   UNL     1      -2.167   6.980 -10.962  1.00  0.00     0.124 S 
ATOM     92  O   UNL     1      -1.718   6.777 -12.334  1.00  0.00    -0.237 OA
ATOM     93  O   UNL     1      -1.617   6.059  -9.971  1.00  0.00    -0.237 OA
ATOM     94  O   UNL     1      -3.590   7.271 -10.792  1.00  0.00    -0.744 OA
ENDBRANCH  87  91
ENDBRANCH  60  84
BRANCH  72  95
ATOM     95  C   UNL     1       4.374  10.883  -2.980  1.00  0.00     0.023 A 
ATOM     96  C   UNL     1       5.416  11.482  -3.692  1.00  0.00     0.031 A 
ATOM     97  C   UNL     1       4.433  11.043  -1.567  1.00  0.00     0.131 A 
ATOM     98  C   UNL     1       6.463  12.145  -3.031  1.00  0.00     0.055 A 
ATOM     99  C   UNL     1       5.447  11.745  -0.914  1.00  0.00     0.041 A 
ATOM    100  F   UNL     1       3.483  10.576  -0.746  1.00  0.00    -0.206 F 
ATOM    101  C   UNL     1       6.478  12.300  -1.647  1.00  0.00     0.022 A 
BRANCH  98 102
ATOM    102  S   UNL     1       7.810  12.803  -4.039  1.00  0.00     0.124 S 
ATOM    103  O   UNL     1       8.408  11.582  -4.571  1.00  0.00    -0.237 OA
ATOM    104  O   UNL     1       7.100  13.632  -5.008  1.00  0.00    -0.237 OA
ATOM    105  O   UNL     1       8.633  13.536  -3.080  1.00  0.00    -0.744 OA
ENDBRANCH  98 102
ENDBRANCH  72  95
ENDBRANCH  46  47
ENDBRANCH  39  41
ENDBRANCH  38  39
ENDBRANCH  37  38
ENDBRANCH  36  37
ENDBRANCH  35  36
ENDBRANCH  34  35
ENDBRANCH  33  34
ENDBRANCH  32  33
ENDBRANCH   1  32
TORSDOF 27
