REMARK SMILES O=C(Cc1ccccc1C(=O)OCCOCCOCCOCCOC(=O)c1ccc(-c2c3nc(c(-c4cc(S(=O)(=O)[O-])ccc4F)c4ccc([nH]4)c(-c4cc(S(=O)(=O)[O-])ccc4F)c4nc(c(-c5cc(S(=O)(=O)[O-])ccc5F)c5ccc2[nH]5)C=C4)C=C3)cc1)Nc1ccc(S(=O)(=O)N2CCCC2)cc1
REMARK SMILES IDX 17 1 16 2 15 3 14 4 13 5 12 6 10 7 11 8 9 9 4 10 5 11 6 12
REMARK SMILES IDX 8 13 7 14 3 15 2 16 1 17 90 18 91 20 92 21 104 22 93 23
REMARK SMILES IDX 103 24 94 25 95 26 96 27 97 28 98 29 99 30 102 31 100 32
REMARK SMILES IDX 101 33 18 34 19 35 20 36 21 37 22 38 23 39 24 40 25 41 26 42
REMARK SMILES IDX 27 43 28 44 89 45 29 46 88 47 30 48 31 49 32 50 82 51 33 52
REMARK SMILES IDX 87 53 81 54 83 55 34 56 86 57 80 58 79 59 35 61 67 62 47 63
REMARK SMILES IDX 66 64 48 65 51 66 65 67 84 68 49 69 50 70 64 72 85 73 52 74
REMARK SMILES IDX 36 75 37 76 45 77 38 78 44 79 46 80 43 81 39 82 40 83 41 84
REMARK SMILES IDX 42 85 68 86 69 87 77 88 70 89 76 90 78 91 75 92 71 93 72 94
REMARK SMILES IDX 73 95 74 96 53 97 54 98 62 99 55 100 61 101 63 102 60 103
REMARK SMILES IDX 56 104 57 105 58 106 59 107
REMARK H PARENT 90 19 83 60 51 71
REMARK Flexibility Score: inf
ROOT
ATOM      1  C   UNL     1       4.239   3.506   0.131  1.00  0.00     0.188 C 
ENDROOT
BRANCH   1   2
ATOM      2  C   UNL     1       3.269   3.692  -1.057  1.00  0.00     0.188 C 
BRANCH   2   3
ATOM      3  O   UNL     1       1.992   4.194  -0.635  1.00  0.00    -0.376 OA
BRANCH   3   4
ATOM      4  C   UNL     1       0.940   4.125  -1.613  1.00  0.00     0.202 C 
BRANCH   4   5
ATOM      5  C   UNL     1       0.136   2.810  -1.620  1.00  0.00     0.261 C 
BRANCH   5   6
ATOM      6  O   UNL     1       0.987   1.678  -1.827  1.00  0.00    -0.460 OA
BRANCH   6   7
ATOM      7  C   UNL     1       1.408   1.440  -3.083  1.00  0.00     0.338 C 
ATOM      8  O   UNL     1       0.980   1.946  -4.096  1.00  0.00    -0.246 OA
BRANCH   7   9
ATOM      9  C   UNL     1       2.739   0.778  -2.954  1.00  0.00     0.063 A 
ATOM     10  C   UNL     1       3.119  -0.173  -1.978  1.00  0.00    -0.024 A 
ATOM     11  C   UNL     1       4.488  -0.547  -1.964  1.00  0.00     0.005 A 
ATOM     12  C   UNL     1       5.436   0.022  -2.826  1.00  0.00     0.000 A 
ATOM     13  C   UNL     1       3.709   1.342  -3.822  1.00  0.00     0.016 A 
ATOM     14  C   UNL     1       5.049   0.976  -3.752  1.00  0.00     0.001 A 
BRANCH  10  15
ATOM     15  C   UNL     1       2.194  -0.991  -1.072  1.00  0.00     0.136 C 
BRANCH  15  16
ATOM     16  C   UNL     1       1.150  -0.405  -0.114  1.00  0.00     0.228 C 
ATOM     17  O   UNL     1       0.058  -0.965  -0.004  1.00  0.00    -0.274 OA
ATOM     18  N   UNL     1       1.534   0.683   0.637  1.00  0.00    -0.326 N 
ATOM     19  H   UNL     1       2.450   1.012   0.487  1.00  0.00     0.169 HD
BRANCH  18  20
ATOM     20  C   UNL     1       0.767   1.386   1.603  1.00  0.00     0.041 A 
ATOM     21  C   UNL     1       1.155   2.700   1.850  1.00  0.00     0.027 A 
ATOM     22  C   UNL     1      -0.325   0.914   2.319  1.00  0.00     0.027 A 
ATOM     23  C   UNL     1       0.573   3.519   2.798  1.00  0.00     0.024 A 
ATOM     24  C   UNL     1      -0.935   1.734   3.304  1.00  0.00     0.024 A 
ATOM     25  C   UNL     1      -0.458   3.024   3.566  1.00  0.00     0.082 A 
BRANCH  25  26
ATOM     26  S   UNL     1      -0.999   4.150   4.831  1.00  0.00     0.243 S 
ATOM     27  O   UNL     1       0.184   4.450   5.614  1.00  0.00    -0.207 OA
ATOM     28  O   UNL     1      -1.722   5.201   4.145  1.00  0.00    -0.207 OA
BRANCH  26  29
ATOM     29  N   UNL     1      -2.067   3.347   5.817  1.00  0.00    -0.198 NA
ATOM     30  C   UNL     1      -1.608   2.368   6.803  1.00  0.00     0.102 C 
ATOM     31  C   UNL     1      -3.408   3.022   5.338  1.00  0.00     0.102 C 
ATOM     32  C   UNL     1      -2.407   1.118   6.497  1.00  0.00     0.018 C 
ATOM     33  C   UNL     1      -3.693   1.617   5.850  1.00  0.00     0.018 C 
ENDBRANCH  26  29
ENDBRANCH  25  26
ENDBRANCH  18  20
ENDBRANCH  15  16
ENDBRANCH  10  15
ENDBRANCH   7   9
ENDBRANCH   6   7
ENDBRANCH   5   6
ENDBRANCH   4   5
ENDBRANCH   3   4
ENDBRANCH   2   3
ENDBRANCH   1   2
BRANCH   1  34
ATOM     34  O   UNL     1       3.902   2.277   0.793  1.00  0.00    -0.377 OA
BRANCH  34  35
ATOM     35  C   UNL     1       4.333   2.109   2.153  1.00  0.00     0.188 C 
BRANCH  35  36
ATOM     36  C   UNL     1       4.227   3.339   3.075  1.00  0.00     0.188 C 
BRANCH  36  37
ATOM     37  O   UNL     1       5.390   4.167   3.088  1.00  0.00    -0.376 OA
BRANCH  37  38
ATOM     38  C   UNL     1       6.627   3.518   3.377  1.00  0.00     0.202 C 
BRANCH  38  39
ATOM     39  C   UNL     1       6.735   2.814   4.738  1.00  0.00     0.261 C 
BRANCH  39  40
ATOM     40  O   UNL     1       5.833   1.692   4.875  1.00  0.00    -0.460 OA
BRANCH  40  41
ATOM     41  C   UNL     1       5.058   1.738   5.993  1.00  0.00     0.338 C 
ATOM     42  O   UNL     1       5.086   2.601   6.855  1.00  0.00    -0.246 OA
BRANCH  41  43
ATOM     43  C   UNL     1       4.054   0.651   6.027  1.00  0.00     0.060 A 
ATOM     44  C   UNL     1       2.708   1.012   6.176  1.00  0.00     0.016 A 
ATOM     45  C   UNL     1       4.443  -0.684   6.165  1.00  0.00     0.016 A 
ATOM     46  C   UNL     1       1.765   0.053   6.559  1.00  0.00     0.010 A 
ATOM     47  C   UNL     1       3.493  -1.641   6.560  1.00  0.00     0.010 A 
ATOM     48  C   UNL     1       2.164  -1.262   6.828  1.00  0.00    -0.014 A 
BRANCH  48  49
ATOM     49  C   UNL     1       1.296  -2.119   7.690  1.00  0.00     0.031 A 
ATOM     50  C   UNL     1       1.584  -2.141   9.174  1.00  0.00     0.074 A 
ATOM     51  C   UNL     1       0.244  -2.812   7.217  1.00  0.00     0.049 A 
ATOM     52  N   UNL     1       1.047  -2.864  10.124  1.00  0.00    -0.248 NA
ATOM     53  C   UNL     1       2.628  -1.216   9.640  1.00  0.00     0.031 C 
ATOM     54  C   UNL     1      -0.215  -2.817   5.831  1.00  0.00     0.029 A 
ATOM     55  N   UNL     1      -0.627  -3.657   7.865  1.00  0.00    -0.354 N 
ATOM     56  C   UNL     1       1.702  -2.495  11.297  1.00  0.00     0.074 A 
ATOM     57  C   UNL     1       2.692  -1.506  10.929  1.00  0.00     0.031 C 
ATOM     58  C   UNL     1      -1.272  -3.645   5.728  1.00  0.00     0.029 A 
ATOM     59  C   UNL     1      -1.539  -4.259   7.030  1.00  0.00     0.049 A 
ATOM     60  H   UNL     1      -0.599  -3.816   8.836  1.00  0.00     0.167 HD
ATOM     61  C   UNL     1       1.502  -2.934  12.565  1.00  0.00     0.034 A 
ATOM     62  C   UNL     1      -2.457  -5.219   7.280  1.00  0.00     0.034 A 
ATOM     63  C   UNL     1       0.524  -3.929  12.932  1.00  0.00     0.049 A 
ATOM     64  C   UNL     1      -2.603  -5.770   8.683  1.00  0.00     0.074 A 
ATOM     65  C   UNL     1       0.264  -4.465  14.182  1.00  0.00     0.029 A 
ATOM     66  N   UNL     1      -0.353  -4.545  12.049  1.00  0.00    -0.354 N 
ATOM     67  N   UNL     1      -1.949  -5.447   9.775  1.00  0.00    -0.248 NA
ATOM     68  C   UNL     1      -3.618  -6.815   8.883  1.00  0.00     0.031 C 
ATOM     69  C   UNL     1      -0.722  -5.449  14.043  1.00  0.00     0.029 A 
ATOM     70  C   UNL     1      -1.137  -5.470  12.721  1.00  0.00     0.049 A 
ATOM     71  H   UNL     1      -0.409  -4.352  11.085  1.00  0.00     0.167 HD
ATOM     72  C   UNL     1      -2.502  -6.223  10.795  1.00  0.00     0.074 A 
ATOM     73  C   UNL     1      -3.546  -7.021  10.190  1.00  0.00     0.031 C 
ATOM     74  C   UNL     1      -2.179  -6.266  12.114  1.00  0.00     0.034 A 
BRANCH  61  75
ATOM     75  C   UNL     1       2.426  -2.386  13.627  1.00  0.00     0.023 A 
ATOM     76  C   UNL     1       2.444  -1.021  13.964  1.00  0.00     0.031 A 
ATOM     77  C   UNL     1       3.361  -3.231  14.252  1.00  0.00     0.131 A 
ATOM     78  C   UNL     1       3.438  -0.527  14.823  1.00  0.00     0.055 A 
ATOM     79  C   UNL     1       4.290  -2.747  15.175  1.00  0.00     0.041 A 
ATOM     80  F   UNL     1       3.408  -4.539  13.952  1.00  0.00    -0.206 F 
ATOM     81  C   UNL     1       4.345  -1.385  15.450  1.00  0.00     0.022 A 
BRANCH  78  82
ATOM     82  S   UNL     1       3.644   1.270  14.965  1.00  0.00     0.124 S 
ATOM     83  O   UNL     1       3.863   1.650  13.572  1.00  0.00    -0.237 OA
ATOM     84  O   UNL     1       2.375   1.686  15.552  1.00  0.00    -0.237 OA
ATOM     85  O   UNL     1       4.811   1.413  15.833  1.00  0.00    -0.744 OA
ENDBRANCH  78  82
ENDBRANCH  61  75
BRANCH  62  86
ATOM     86  C   UNL     1      -3.283  -5.784   6.172  1.00  0.00     0.023 A 
ATOM     87  C   UNL     1      -4.681  -5.646   6.157  1.00  0.00     0.031 A 
ATOM     88  C   UNL     1      -2.685  -6.544   5.151  1.00  0.00     0.131 A 
ATOM     89  C   UNL     1      -5.437  -6.299   5.170  1.00  0.00     0.055 A 
ATOM     90  C   UNL     1      -3.437  -7.148   4.142  1.00  0.00     0.041 A 
ATOM     91  F   UNL     1      -1.353  -6.714   5.123  1.00  0.00    -0.206 F 
ATOM     92  C   UNL     1      -4.824  -7.038   4.155  1.00  0.00     0.022 A 
BRANCH  89  93
ATOM     93  S   UNL     1      -7.247  -6.235   5.274  1.00  0.00     0.124 S 
ATOM     94  O   UNL     1      -7.493  -6.891   6.553  1.00  0.00    -0.237 OA
ATOM     95  O   UNL     1      -7.502  -4.798   5.231  1.00  0.00    -0.237 OA
ATOM     96  O   UNL     1      -7.684  -6.978   4.094  1.00  0.00    -0.744 OA
ENDBRANCH  89  93
ENDBRANCH  62  86
BRANCH  74  97
ATOM     97  C   UNL     1      -3.014  -7.155  13.009  1.00  0.00     0.023 A 
ATOM     98  C   UNL     1      -3.016  -8.556  12.886  1.00  0.00     0.031 A 
ATOM     99  C   UNL     1      -3.833  -6.582  14.000  1.00  0.00     0.131 A 
ATOM    100  C   UNL     1      -3.862  -9.331  13.697  1.00  0.00     0.055 A 
ATOM    101  C   UNL     1      -4.627  -7.361  14.844  1.00  0.00     0.041 A 
ATOM    102  F   UNL     1      -3.876  -5.250  14.166  1.00  0.00    -0.206 F 
ATOM    103  C   UNL     1      -4.656  -8.743  14.685  1.00  0.00     0.022 A 
BRANCH 100 104
ATOM    104  S   UNL     1      -3.993 -11.112  13.376  1.00  0.00     0.124 S 
ATOM    105  O   UNL     1      -4.347 -11.142  11.960  1.00  0.00    -0.237 OA
ATOM    106  O   UNL     1      -2.655 -11.588  13.709  1.00  0.00    -0.237 OA
ATOM    107  O   UNL     1      -5.050 -11.549  14.287  1.00  0.00    -0.744 OA
ENDBRANCH 100 104
ENDBRANCH  74  97
ENDBRANCH  48  49
ENDBRANCH  41  43
ENDBRANCH  40  41
ENDBRANCH  39  40
ENDBRANCH  38  39
ENDBRANCH  37  38
ENDBRANCH  36  37
ENDBRANCH  35  36
ENDBRANCH  34  35
ENDBRANCH   1  34
TORSDOF 28
