REMARK SMILES C[C@@H](Oc1ccc(I)cc1)C(=O)NCc1ccc(C(=O)OCCOCCOCCOCCOC(=O)c2ccc(-c3c4nc(c(-c5cc(S(=O)(=O)[O-])ccc5F)c5ccc([nH]5)c(-c5cc(S(=O)(=O)[O-])ccc5F)c5nc(c(-c6cc(S(=O)(=O)[O-])ccc6F)c6ccc3[nH]6)C=C5)C=C4)cc2)cc1
REMARK SMILES IDX 26 1 25 2 24 3 23 4 22 5 21 6 19 7 20 8 18 9 15 10 16 11
REMARK SMILES IDX 100 12 17 13 99 14 14 15 13 16 11 17 12 18 2 20 1 21 3 22
REMARK SMILES IDX 4 23 5 24 10 25 6 26 9 27 7 28 8 29 27 30 28 31 29 32 30 33
REMARK SMILES IDX 31 34 32 35 33 36 34 37 35 38 36 39 37 40 98 41 38 42 97 43
REMARK SMILES IDX 39 44 40 45 41 46 91 47 42 48 96 49 90 50 92 51 43 52 95 53
REMARK SMILES IDX 89 54 88 55 44 57 76 58 56 59 75 60 57 61 60 62 74 63 93 64
REMARK SMILES IDX 58 65 59 66 73 68 94 69 61 70 45 71 46 72 54 73 47 74 53 75
REMARK SMILES IDX 55 76 52 77 48 78 49 79 50 80 51 81 77 82 78 83 86 84 79 85
REMARK SMILES IDX 85 86 87 87 84 88 80 89 81 90 82 91 83 92 62 93 63 94 71 95
REMARK SMILES IDX 64 96 70 97 72 98 69 99 65 100 66 101 67 102 68 103
REMARK H PARENT 13 19 92 56 60 67
REMARK Flexibility Score: inf
ROOT
ATOM      1  C   UNL     1      -0.288  -2.483   5.941  1.00  0.00     0.188 C 
ENDROOT
BRANCH   1   2
ATOM      2  C   UNL     1      -1.266  -1.476   6.576  1.00  0.00     0.188 C 
BRANCH   2   3
ATOM      3  O   UNL     1      -1.768  -1.882   7.835  1.00  0.00    -0.376 OA
BRANCH   3   4
ATOM      4  C   UNL     1      -3.053  -2.464   7.946  1.00  0.00     0.202 C 
BRANCH   4   5
ATOM      5  C   UNL     1      -3.526  -3.594   7.016  1.00  0.00     0.261 C 
BRANCH   5   6
ATOM      6  O   UNL     1      -3.104  -3.531   5.652  1.00  0.00    -0.460 OA
BRANCH   6   7
ATOM      7  C   UNL     1      -3.722  -2.629   4.864  1.00  0.00     0.338 C 
ATOM      8  O   UNL     1      -4.612  -1.862   5.186  1.00  0.00    -0.246 OA
BRANCH   7   9
ATOM      9  C   UNL     1      -2.996  -2.566   3.574  1.00  0.00     0.060 A 
ATOM     10  C   UNL     1      -1.716  -2.340   1.091  1.00  0.00    -0.029 A 
ATOM     11  C   UNL     1      -2.101  -1.192   1.800  1.00  0.00     0.006 A 
ATOM     12  C   UNL     1      -1.879  -3.597   1.695  1.00  0.00     0.006 A 
ATOM     13  C   UNL     1      -2.758  -1.304   3.023  1.00  0.00     0.016 A 
ATOM     14  C   UNL     1      -2.515  -3.713   2.934  1.00  0.00     0.016 A 
BRANCH  10  15
ATOM     15  C   UNL     1      -1.100  -2.247  -0.283  1.00  0.00     0.151 C 
BRANCH  15  16
ATOM     16  N   UNL     1      -1.597  -1.098  -1.022  1.00  0.00    -0.349 N 
ATOM     17  C   UNL     1      -0.914  -0.065  -1.597  1.00  0.00     0.261 C 
ATOM     18  O   UNL     1      -1.563   0.825  -2.154  1.00  0.00    -0.271 OA
ATOM     19  H   UNL     1      -2.576  -1.058  -1.123  1.00  0.00     0.163 HD
BRANCH  17  20
ATOM     20  C   UNL     1       0.615   0.024  -1.481  1.00  0.00     0.258 C 
ATOM     21  C   UNL     1       0.961   0.461  -0.058  1.00  0.00     0.064 C 
BRANCH  20  22
ATOM     22  O   UNL     1       1.134  -1.254  -1.867  1.00  0.00    -0.481 OA
BRANCH  22  23
ATOM     23  C   UNL     1       2.470  -1.302  -2.125  1.00  0.00     0.120 A 
ATOM     24  C   UNL     1       3.404  -1.300  -1.091  1.00  0.00     0.047 A 
ATOM     25  C   UNL     1       2.873  -1.565  -3.433  1.00  0.00     0.047 A 
ATOM     26  C   UNL     1       4.756  -1.504  -1.370  1.00  0.00     0.018 A 
ATOM     27  C   UNL     1       4.224  -1.785  -3.715  1.00  0.00     0.018 A 
ATOM     28  C   UNL     1       5.161  -1.749  -2.681  1.00  0.00     0.013 A 
ATOM     29  I   UNL     1       7.166  -2.110  -3.085  1.00  0.00    -0.044 I 
ENDBRANCH  22  23
ENDBRANCH  20  22
ENDBRANCH  17  20
ENDBRANCH  15  16
ENDBRANCH  10  15
ENDBRANCH   7   9
ENDBRANCH   6   7
ENDBRANCH   5   6
ENDBRANCH   4   5
ENDBRANCH   3   4
ENDBRANCH   2   3
ENDBRANCH   1   2
BRANCH   1  30
ATOM     30  O   UNL     1      -0.303  -3.800   6.463  1.00  0.00    -0.377 OA
BRANCH  30  31
ATOM     31  C   UNL     1       0.052  -4.030   7.827  1.00  0.00     0.188 C 
BRANCH  31  32
ATOM     32  C   UNL     1       0.593  -2.917   8.759  1.00  0.00     0.188 C 
BRANCH  32  33
ATOM     33  O   UNL     1       1.143  -1.791   8.091  1.00  0.00    -0.376 OA
BRANCH  33  34
ATOM     34  C   UNL     1       2.548  -1.628   8.126  1.00  0.00     0.202 C 
BRANCH  34  35
ATOM     35  C   UNL     1       3.368  -2.680   7.368  1.00  0.00     0.261 C 
BRANCH  35  36
ATOM     36  O   UNL     1       3.141  -4.046   7.746  1.00  0.00    -0.460 OA
BRANCH  36  37
ATOM     37  C   UNL     1       3.488  -4.396   9.004  1.00  0.00     0.338 C 
ATOM     38  O   UNL     1       3.989  -3.671   9.851  1.00  0.00    -0.246 OA
BRANCH  37  39
ATOM     39  C   UNL     1       2.974  -5.758   9.254  1.00  0.00     0.060 A 
ATOM     40  C   UNL     1       2.059  -5.960  10.296  1.00  0.00     0.016 A 
ATOM     41  C   UNL     1       3.387  -6.829   8.457  1.00  0.00     0.016 A 
ATOM     42  C   UNL     1       1.587  -7.244  10.569  1.00  0.00     0.010 A 
ATOM     43  C   UNL     1       2.927  -8.118   8.745  1.00  0.00     0.010 A 
ATOM     44  C   UNL     1       2.054  -8.336   9.826  1.00  0.00    -0.014 A 
BRANCH  44  45
ATOM     45  C   UNL     1       1.799  -9.714  10.318  1.00  0.00     0.031 A 
ATOM     46  C   UNL     1       2.887 -10.400  11.102  1.00  0.00     0.074 A 
ATOM     47  C   UNL     1       0.618 -10.327  10.120  1.00  0.00     0.049 A 
ATOM     48  N   UNL     1       2.912 -11.600  11.621  1.00  0.00    -0.248 NA
ATOM     49  C   UNL     1       4.115  -9.621  11.326  1.00  0.00     0.031 C 
ATOM     50  C   UNL     1      -0.527  -9.747   9.420  1.00  0.00     0.029 A 
ATOM     51  N   UNL     1       0.187 -11.576  10.493  1.00  0.00    -0.354 N 
ATOM     52  C   UNL     1       4.157 -11.722  12.230  1.00  0.00     0.074 A 
ATOM     53  C   UNL     1       4.873 -10.491  11.975  1.00  0.00     0.031 C 
ATOM     54  C   UNL     1      -1.531 -10.642   9.413  1.00  0.00     0.029 A 
ATOM     55  C   UNL     1      -1.088 -11.871  10.071  1.00  0.00     0.049 A 
ATOM     56  H   UNL     1       0.740 -12.203  11.014  1.00  0.00     0.167 HD
ATOM     57  C   UNL     1       4.652 -12.760  12.949  1.00  0.00     0.034 A 
ATOM     58  C   UNL     1      -1.804 -13.009  10.183  1.00  0.00     0.034 A 
ATOM     59  C   UNL     1       3.932 -13.987  13.183  1.00  0.00     0.049 A 
ATOM     60  C   UNL     1      -1.193 -14.190  10.904  1.00  0.00     0.074 A 
ATOM     61  C   UNL     1       4.334 -15.098  13.903  1.00  0.00     0.029 A 
ATOM     62  N   UNL     1       2.665 -14.273  12.689  1.00  0.00    -0.354 N 
ATOM     63  N   UNL     1      -0.019 -14.290  11.488  1.00  0.00    -0.248 NA
ATOM     64  C   UNL     1      -2.009 -15.408  10.989  1.00  0.00     0.031 C 
ATOM     65  C   UNL     1       3.351 -16.085  13.772  1.00  0.00     0.029 A 
ATOM     66  C   UNL     1       2.290 -15.558  13.053  1.00  0.00     0.049 A 
ATOM     67  H   UNL     1       2.114 -13.654  12.157  1.00  0.00     0.167 HD
ATOM     68  C   UNL     1       0.026 -15.571  12.036  1.00  0.00     0.074 A 
ATOM     69  C   UNL     1      -1.246 -16.194  11.733  1.00  0.00     0.031 C 
ATOM     70  C   UNL     1       1.024 -16.177  12.731  1.00  0.00     0.034 A 
BRANCH  57  71
ATOM     71  C   UNL     1       6.061 -12.626  13.479  1.00  0.00     0.023 A 
ATOM     72  C   UNL     1       6.413 -11.634  14.411  1.00  0.00     0.031 A 
ATOM     73  C   UNL     1       7.075 -13.484  13.017  1.00  0.00     0.131 A 
ATOM     74  C   UNL     1       7.754 -11.477  14.794  1.00  0.00     0.055 A 
ATOM     75  C   UNL     1       8.392 -13.379  13.469  1.00  0.00     0.041 A 
ATOM     76  F   UNL     1       6.807 -14.432  12.106  1.00  0.00    -0.206 F 
ATOM     77  C   UNL     1       8.741 -12.361  14.351  1.00  0.00     0.022 A 
BRANCH  74  78
ATOM     78  S   UNL     1       8.216 -10.009  15.753  1.00  0.00     0.124 S 
ATOM     79  O   UNL     1       7.774  -8.930  14.872  1.00  0.00    -0.237 OA
ATOM     80  O   UNL     1       7.454 -10.182  16.983  1.00  0.00    -0.237 OA
ATOM     81  O   UNL     1       9.666 -10.133  15.893  1.00  0.00    -0.744 OA
ENDBRANCH  74  78
ENDBRANCH  57  71
BRANCH  58  82
ATOM     82  C   UNL     1      -3.162 -13.119   9.570  1.00  0.00     0.023 A 
ATOM     83  C   UNL     1      -4.299 -13.373  10.354  1.00  0.00     0.031 A 
ATOM     84  C   UNL     1      -3.330 -13.046   8.175  1.00  0.00     0.131 A 
ATOM     85  C   UNL     1      -5.541 -13.595   9.737  1.00  0.00     0.055 A 
ATOM     86  C   UNL     1      -4.578 -13.206   7.570  1.00  0.00     0.041 A 
ATOM     87  F   UNL     1      -2.276 -12.815   7.375  1.00  0.00    -0.206 F 
ATOM     88  C   UNL     1      -5.691 -13.497   8.352  1.00  0.00     0.022 A 
BRANCH  85  89
ATOM     89  S   UNL     1      -6.942 -14.117  10.764  1.00  0.00     0.124 S 
ATOM     90  O   UNL     1      -6.427 -15.341  11.368  1.00  0.00    -0.237 OA
ATOM     91  O   UNL     1      -7.102 -12.977  11.660  1.00  0.00    -0.237 OA
ATOM     92  O   UNL     1      -8.022 -14.303   9.797  1.00  0.00    -0.744 OA
ENDBRANCH  85  89
ENDBRANCH  58  82
BRANCH  70  93
ATOM     93  C   UNL     1       0.757 -17.573  13.247  1.00  0.00     0.023 A 
ATOM     94  C   UNL     1       0.531 -18.655  12.378  1.00  0.00     0.031 A 
ATOM     95  C   UNL     1       0.704 -17.821  14.631  1.00  0.00     0.131 A 
ATOM     96  C   UNL     1       0.188 -19.913  12.899  1.00  0.00     0.055 A 
ATOM     97  C   UNL     1       0.440 -19.092  15.144  1.00  0.00     0.041 A 
ATOM     98  F   UNL     1       0.908 -16.828  15.512  1.00  0.00    -0.206 F 
ATOM     99  C   UNL     1       0.162 -20.143  14.276  1.00  0.00     0.022 A 
BRANCH  96 100
ATOM    100  S   UNL     1      -0.351 -21.211  11.752  1.00  0.00     0.124 S 
ATOM    101  O   UNL     1      -1.466 -20.566  11.067  1.00  0.00    -0.237 OA
ATOM    102  O   UNL     1       0.847 -21.434  10.948  1.00  0.00    -0.237 OA
ATOM    103  O   UNL     1      -0.720 -22.316  12.634  1.00  0.00    -0.744 OA
ENDBRANCH  96 100
ENDBRANCH  70  93
ENDBRANCH  44  45
ENDBRANCH  37  39
ENDBRANCH  36  37
ENDBRANCH  35  36
ENDBRANCH  34  35
ENDBRANCH  33  34
ENDBRANCH  32  33
ENDBRANCH  31  32
ENDBRANCH  30  31
ENDBRANCH   1  30
TORSDOF 28
