REMARK SMILES C[NH+](C)[C@@H]1CC[N@@H+](Cc2ccc(C(=O)OCCOCCOCCOCCOC(=O)c3ccc(-c4c5nc(c(-c6cc(S(=O)(=O)[O-])ccc6F)c6ccc([nH]6)c(-c6cc(S(=O)(=O)[O-])ccc6F)c6nc(c(-c7cc(S(=O)(=O)[O-])ccc7F)c7ccc4[nH]7)C=C6)C=C5)cc3)cn2)C1
REMARK SMILES IDX 21 1 20 2 19 3 18 4 17 5 16 6 15 7 13 8 14 9 12 10 9 11
REMARK SMILES IDX 10 12 94 13 11 14 93 15 8 16 7 17 4 18 5 19 95 20 6 21 2 23
REMARK SMILES IDX 1 24 3 25 22 27 23 28 24 29 25 30 26 31 27 32 28 33 29 34
REMARK SMILES IDX 30 35 31 36 92 37 32 38 91 39 33 40 34 41 35 42 85 43 36 44
REMARK SMILES IDX 90 45 84 46 86 47 37 48 89 49 83 50 82 51 38 53 70 54 50 55
REMARK SMILES IDX 69 56 51 57 54 58 68 59 87 60 52 61 53 62 67 64 88 65 55 66
REMARK SMILES IDX 39 67 40 68 48 69 41 70 47 71 49 72 46 73 42 74 43 75 44 76
REMARK SMILES IDX 45 77 71 78 72 79 80 80 73 81 79 82 81 83 78 84 74 85 75 86
REMARK SMILES IDX 76 87 77 88 56 89 57 90 65 91 58 92 64 93 66 94 63 95 59 96
REMARK SMILES IDX 60 97 61 98 62 99
REMARK H PARENT 7 22 2 26 86 52 54 63
REMARK Flexibility Score: inf
ROOT
ATOM      1  O   UNL     1       5.678  -3.813   6.372  1.00  0.00    -0.377 OA
ENDROOT
BRANCH   1   2
ATOM      2  C   UNL     1       6.403  -3.925   5.166  1.00  0.00     0.188 C 
BRANCH   2   3
ATOM      3  C   UNL     1       7.424  -2.793   4.939  1.00  0.00     0.188 C 
BRANCH   3   4
ATOM      4  O   UNL     1       7.919  -2.089   6.059  1.00  0.00    -0.376 OA
BRANCH   4   5
ATOM      5  C   UNL     1       7.162  -1.167   6.829  1.00  0.00     0.202 C 
BRANCH   5   6
ATOM      6  C   UNL     1       5.728  -0.663   6.572  1.00  0.00     0.261 C 
BRANCH   6   7
ATOM      7  O   UNL     1       4.960  -1.343   5.593  1.00  0.00    -0.460 OA
BRANCH   7   8
ATOM      8  C   UNL     1       5.020  -0.835   4.349  1.00  0.00     0.339 C 
ATOM      9  O   UNL     1       5.590   0.179   3.984  1.00  0.00    -0.246 OA
BRANCH   8  10
ATOM     10  C   UNL     1       4.475  -1.843   3.432  1.00  0.00     0.078 A 
ATOM     11  C   UNL     1       3.524  -3.526   1.512  1.00  0.00     0.095 A 
ATOM     12  C   UNL     1       2.900  -3.521   2.760  1.00  0.00     0.031 A 
ATOM     13  N   UNL     1       4.695  -2.875   1.270  1.00  0.00    -0.254 NA
ATOM     14  C   UNL     1       3.380  -2.654   3.736  1.00  0.00     0.019 A 
ATOM     15  C   UNL     1       5.135  -2.033   2.228  1.00  0.00     0.127 A 
BRANCH  11  16
ATOM     16  C   UNL     1       2.749  -3.972   0.285  1.00  0.00     0.319 C 
BRANCH  16  17
ATOM     17  N   UNL     1       1.891  -2.937  -0.348  1.00  0.00    -0.325 N 
ATOM     18  C   UNL     1       0.976  -1.152   1.077  1.00  0.00     0.245 C 
ATOM     19  C   UNL     1       2.345  -0.744   0.534  1.00  0.00     0.132 C 
ATOM     20  C   UNL     1       0.704  -2.538   0.427  1.00  0.00     0.328 C 
ATOM     21  C   UNL     1       2.592  -1.677  -0.642  1.00  0.00     0.269 C 
ATOM     22  H   UNL     1       1.610  -3.424  -1.198  1.00  0.00     0.348 HD
BRANCH  18  23
ATOM     23  N   UNL     1      -0.043  -0.092   0.945  1.00  0.00    -0.333 N 
ATOM     24  C   UNL     1      -0.147   0.491  -0.389  1.00  0.00     0.332 C 
ATOM     25  C   UNL     1      -1.356  -0.518   1.424  1.00  0.00     0.332 C 
ATOM     26  H   UNL     1       0.299   0.653   1.553  1.00  0.00     0.348 HD
ENDBRANCH  18  23
ENDBRANCH  16  17
ENDBRANCH  11  16
ENDBRANCH   8  10
ENDBRANCH   7   8
ENDBRANCH   6   7
ENDBRANCH   5   6
ENDBRANCH   4   5
ENDBRANCH   3   4
ENDBRANCH   2   3
ENDBRANCH   1   2
BRANCH   1  27
ATOM     27  C   UNL     1       6.271  -4.343   7.554  1.00  0.00     0.188 C 
BRANCH  27  28
ATOM     28  C   UNL     1       7.797  -4.588   7.649  1.00  0.00     0.188 C 
BRANCH  28  29
ATOM     29  O   UNL     1       8.412  -5.059   6.457  1.00  0.00    -0.376 OA
BRANCH  29  30
ATOM     30  C   UNL     1       8.734  -6.436   6.349  1.00  0.00     0.202 C 
BRANCH  30  31
ATOM     31  C   UNL     1       7.564  -7.430   6.312  1.00  0.00     0.261 C 
BRANCH  31  32
ATOM     32  O   UNL     1       6.659  -7.378   7.423  1.00  0.00    -0.460 OA
BRANCH  32  33
ATOM     33  C   UNL     1       7.170  -7.647   8.644  1.00  0.00     0.338 C 
ATOM     34  O   UNL     1       8.320  -7.960   8.902  1.00  0.00    -0.246 OA
BRANCH  33  35
ATOM     35  C   UNL     1       6.139  -7.303   9.643  1.00  0.00     0.060 A 
ATOM     36  C   UNL     1       6.421  -6.325  10.606  1.00  0.00     0.016 A 
ATOM     37  C   UNL     1       4.892  -7.932   9.617  1.00  0.00     0.016 A 
ATOM     38  C   UNL     1       5.466  -5.998  11.569  1.00  0.00     0.010 A 
ATOM     39  C   UNL     1       3.945  -7.618  10.594  1.00  0.00     0.010 A 
ATOM     40  C   UNL     1       4.240  -6.675  11.595  1.00  0.00    -0.014 A 
BRANCH  40  41
ATOM     41  C   UNL     1       3.356  -6.559  12.781  1.00  0.00     0.031 A 
ATOM     42  C   UNL     1       3.423  -7.642  13.823  1.00  0.00     0.074 A 
ATOM     43  C   UNL     1       2.530  -5.511  12.945  1.00  0.00     0.049 A 
ATOM     44  N   UNL     1       2.713  -7.802  14.909  1.00  0.00    -0.248 NA
ATOM     45  C   UNL     1       4.429  -8.692  13.598  1.00  0.00     0.031 C 
ATOM     46  C   UNL     1       2.422  -4.370  12.039  1.00  0.00     0.029 A 
ATOM     47  N   UNL     1       1.623  -5.241  13.939  1.00  0.00    -0.354 N 
ATOM     48  C   UNL     1       3.185  -8.971  15.498  1.00  0.00     0.074 A 
ATOM     49  C   UNL     1       4.203  -9.503  14.618  1.00  0.00     0.031 C 
ATOM     50  C   UNL     1       1.497  -3.520  12.520  1.00  0.00     0.029 A 
ATOM     51  C   UNL     1       0.916  -4.078  13.740  1.00  0.00     0.049 A 
ATOM     52  H   UNL     1       1.490  -5.825  14.720  1.00  0.00     0.167 HD
ATOM     53  C   UNL     1       2.813  -9.540  16.672  1.00  0.00     0.034 A 
ATOM     54  C   UNL     1      -0.098  -3.543  14.451  1.00  0.00     0.034 A 
ATOM     55  C   UNL     1       1.778  -9.009  17.524  1.00  0.00     0.049 A 
ATOM     56  C   UNL     1      -0.589  -4.263  15.687  1.00  0.00     0.074 A 
ATOM     57  C   UNL     1       1.314  -9.505  18.730  1.00  0.00     0.029 A 
ATOM     58  N   UNL     1       1.032  -7.868  17.253  1.00  0.00    -0.354 N 
ATOM     59  N   UNL     1      -0.141  -5.371  16.235  1.00  0.00    -0.248 NA
ATOM     60  C   UNL     1      -1.719  -3.656  16.402  1.00  0.00     0.031 C 
ATOM     61  C   UNL     1       0.235  -8.716  19.143  1.00  0.00     0.029 A 
ATOM     62  C   UNL     1       0.086  -7.669  18.247  1.00  0.00     0.049 A 
ATOM     63  H   UNL     1       1.156  -7.286  16.469  1.00  0.00     0.167 HD
ATOM     64  C   UNL     1      -0.910  -5.567  17.381  1.00  0.00     0.074 A 
ATOM     65  C   UNL     1      -1.841  -4.460  17.448  1.00  0.00     0.031 C 
ATOM     66  C   UNL     1      -0.846  -6.565  18.301  1.00  0.00     0.034 A 
BRANCH  53  67
ATOM     67  C   UNL     1       3.497 -10.831  17.056  1.00  0.00     0.023 A 
ATOM     68  C   UNL     1       4.887 -10.896  17.267  1.00  0.00     0.031 A 
ATOM     69  C   UNL     1       2.763 -12.026  17.155  1.00  0.00     0.131 A 
ATOM     70  C   UNL     1       5.507 -12.138  17.468  1.00  0.00     0.055 A 
ATOM     71  C   UNL     1       3.374 -13.245  17.453  1.00  0.00     0.041 A 
ATOM     72  F   UNL     1       1.438 -12.034  16.938  1.00  0.00    -0.206 F 
ATOM     73  C   UNL     1       4.757 -13.310  17.592  1.00  0.00     0.022 A 
BRANCH  70  74
ATOM     74  S   UNL     1       7.317 -12.223  17.379  1.00  0.00     0.124 S 
ATOM     75  O   UNL     1       7.572 -11.671  16.051  1.00  0.00    -0.237 OA
ATOM     76  O   UNL     1       7.727 -11.393  18.506  1.00  0.00    -0.237 OA
ATOM     77  O   UNL     1       7.600 -13.650  17.517  1.00  0.00    -0.744 OA
ENDBRANCH  70  74
ENDBRANCH  53  67
BRANCH  54  78
ATOM     78  C   UNL     1      -0.748  -2.274  14.011  1.00  0.00     0.023 A 
ATOM     79  C   UNL     1      -0.723  -1.130  14.825  1.00  0.00     0.031 A 
ATOM     80  C   UNL     1      -1.458  -2.202  12.799  1.00  0.00     0.131 A 
ATOM     81  C   UNL     1      -1.434   0.018  14.443  1.00  0.00     0.055 A 
ATOM     82  C   UNL     1      -2.114  -1.038  12.395  1.00  0.00     0.041 A 
ATOM     83  F   UNL     1      -1.523  -3.268  11.985  1.00  0.00    -0.206 F 
ATOM     84  C   UNL     1      -2.115   0.078  13.226  1.00  0.00     0.022 A 
BRANCH  81  85
ATOM     85  S   UNL     1      -1.533   1.404  15.609  1.00  0.00     0.124 S 
ATOM     86  O   UNL     1      -2.160   0.773  16.764  1.00  0.00    -0.237 OA
ATOM     87  O   UNL     1      -0.130   1.773  15.761  1.00  0.00    -0.237 OA
ATOM     88  O   UNL     1      -2.360   2.381  14.904  1.00  0.00    -0.744 OA
ENDBRANCH  81  85
ENDBRANCH  54  78
BRANCH  66  89
ATOM     89  C   UNL     1      -1.773  -6.473  19.492  1.00  0.00     0.023 A 
ATOM     90  C   UNL     1      -3.170  -6.554  19.359  1.00  0.00     0.031 A 
ATOM     91  C   UNL     1      -1.244  -6.294  20.784  1.00  0.00     0.131 A 
ATOM     92  C   UNL     1      -3.991  -6.398  20.487  1.00  0.00     0.055 A 
ATOM     93  C   UNL     1      -2.063  -6.211  21.911  1.00  0.00     0.041 A 
ATOM     94  F   UNL     1       0.082  -6.204  20.974  1.00  0.00    -0.206 F 
ATOM     95  C   UNL     1      -3.446  -6.248  21.764  1.00  0.00     0.022 A 
BRANCH  92  96
ATOM     96  S   UNL     1      -5.786  -6.287  20.250  1.00  0.00     0.124 S 
ATOM     97  O   UNL     1      -5.903  -5.150  19.343  1.00  0.00    -0.237 OA
ATOM     98  O   UNL     1      -6.107  -7.592  19.680  1.00  0.00    -0.237 OA
ATOM     99  O   UNL     1      -6.297  -6.059  21.601  1.00  0.00    -0.744 OA
ENDBRANCH  92  96
ENDBRANCH  66  89
ENDBRANCH  40  41
ENDBRANCH  33  35
ENDBRANCH  32  33
ENDBRANCH  31  32
ENDBRANCH  30  31
ENDBRANCH  29  30
ENDBRANCH  28  29
ENDBRANCH  27  28
ENDBRANCH   1  27
TORSDOF 26
