REMARK SMILES CC[C@@H](Oc1cc(Cl)ccc1Cl)C(=O)NNC(=O)[C@@H]1[C@@H]2CC[C@@H](C2)[C@@H]1C(=O)OCCOCCOCCOCCOC(=O)c1ccc(-c2c3nc(c(-c4cc(S(=O)(=O)[O-])ccc4F)c4ccc([nH]4)c(-c4cc(S(=O)(=O)[O-])ccc4F)c4nc(c(-c5cc(S(=O)(=O)[O-])ccc5F)c5ccc2[nH]5)C=C4)C=C3)cc1
REMARK SMILES IDX 33 1 32 2 31 3 30 4 29 5 28 6 26 7 27 8 25 9 19 10 20 11
REMARK SMILES IDX 21 12 24 13 23 14 22 15 17 16 16 17 18 19 15 20 13 21 14 22
REMARK SMILES IDX 3 24 2 25 1 26 4 27 5 28 6 29 11 30 7 31 10 32 12 33 8 34
REMARK SMILES IDX 9 35 34 36 35 37 36 38 37 39 38 40 39 41 40 42 41 43 42 44
REMARK SMILES IDX 43 45 44 46 105 47 45 48 104 49 46 50 47 51 48 52 98 53
REMARK SMILES IDX 49 54 103 55 97 56 99 57 50 58 102 59 96 60 95 61 51 63
REMARK SMILES IDX 83 64 63 65 82 66 64 67 67 68 81 69 100 70 65 71 66 72 80 74
REMARK SMILES IDX 101 75 68 76 52 77 53 78 61 79 54 80 60 81 62 82 59 83 55 84
REMARK SMILES IDX 56 85 57 86 58 87 84 88 85 89 93 90 86 91 92 92 94 93 91 94
REMARK SMILES IDX 87 95 88 96 89 97 90 98 69 99 70 100 78 101 71 102 77 103
REMARK SMILES IDX 79 104 76 105 72 106 73 107 74 108 75 109
REMARK H PARENT 16 18 15 23 99 62 67 73
REMARK Flexibility Score: inf
ROOT
ATOM      1  C   UNL     1      -0.845  -1.023   5.170  1.00  0.00     0.188 C 
ENDROOT
BRANCH   1   2
ATOM      2  C   UNL     1      -1.278  -1.355   6.619  1.00  0.00     0.188 C 
BRANCH   2   3
ATOM      3  O   UNL     1      -0.265  -2.021   7.356  1.00  0.00    -0.376 OA
BRANCH   3   4
ATOM      4  C   UNL     1      -0.131  -3.430   7.266  1.00  0.00     0.202 C 
BRANCH   4   5
ATOM      5  C   UNL     1      -0.266  -4.134   5.906  1.00  0.00     0.261 C 
BRANCH   5   6
ATOM      6  O   UNL     1      -1.416  -3.799   5.094  1.00  0.00    -0.463 OA
BRANCH   6   7
ATOM      7  C   UNL     1      -2.657  -3.812   5.645  1.00  0.00     0.310 C 
ATOM      8  O   UNL     1      -2.880  -4.212   6.776  1.00  0.00    -0.252 OA
BRANCH   7   9
ATOM      9  C   UNL     1      -3.696  -3.307   4.636  1.00  0.00     0.115 C 
ATOM     10  C   UNL     1      -4.481  -1.935   4.538  1.00  0.00     0.098 C 
ATOM     11  C   UNL     1      -5.949  -2.407   4.494  1.00  0.00     0.003 C 
ATOM     12  C   UNL     1      -6.378  -2.993   5.848  1.00  0.00     0.005 C 
ATOM     13  C   UNL     1      -5.832  -3.670   3.635  1.00  0.00     0.009 C 
ATOM     14  C   UNL     1      -4.851  -4.345   4.589  1.00  0.00     0.004 C 
ATOM     15  C   UNL     1      -5.662  -4.338   5.895  1.00  0.00     0.005 C 
BRANCH  10  16
ATOM     16  C   UNL     1      -4.257  -0.564   5.221  1.00  0.00     0.242 C 
ATOM     17  N   UNL     1      -4.874  -0.157   6.371  1.00  0.00    -0.267 N 
ATOM     18  H   UNL     1      -4.349  -0.015   7.192  1.00  0.00     0.191 HD
ATOM     19  O   UNL     1      -3.559   0.297   4.674  1.00  0.00    -0.273 OA
BRANCH  17  20
ATOM     20  N   UNL     1      -6.272   0.059   6.374  1.00  0.00    -0.264 N 
ATOM     21  C   UNL     1      -6.960   0.650   7.412  1.00  0.00     0.279 C 
ATOM     22  O   UNL     1      -8.183   0.783   7.317  1.00  0.00    -0.269 OA
ATOM     23  H   UNL     1      -6.785  -0.231   5.586  1.00  0.00     0.191 HD
BRANCH  21  24
ATOM     24  C   UNL     1      -6.205   1.065   8.692  1.00  0.00     0.263 C 
BRANCH  24  25
ATOM     25  C   UNL     1      -5.805  -0.225   9.432  1.00  0.00     0.052 C 
ATOM     26  C   UNL     1      -5.234  -0.006  10.822  1.00  0.00     0.008 C 
ENDBRANCH  24  25
BRANCH  24  27
ATOM     27  O   UNL     1      -5.054   1.853   8.344  1.00  0.00    -0.479 OA
BRANCH  27  28
ATOM     28  C   UNL     1      -4.999   3.067   8.987  1.00  0.00     0.140 A 
ATOM     29  C   UNL     1      -4.163   3.160  10.101  1.00  0.00     0.068 A 
ATOM     30  C   UNL     1      -5.616   4.225   8.495  1.00  0.00     0.083 A 
ATOM     31  C   UNL     1      -3.991   4.378  10.756  1.00  0.00     0.044 A 
ATOM     32  C   UNL     1      -5.417   5.454   9.139  1.00  0.00     0.026 A 
ATOM     33  Cl  UNL     1      -6.598   4.197   7.079  1.00  0.00    -0.080 Cl
ATOM     34  Cl  UNL     1      -3.000   4.455  12.159  1.00  0.00    -0.084 Cl
ATOM     35  C   UNL     1      -4.609   5.530  10.277  1.00  0.00     0.022 A 
ENDBRANCH  27  28
ENDBRANCH  24  27
ENDBRANCH  21  24
ENDBRANCH  17  20
ENDBRANCH  10  16
ENDBRANCH   7   9
ENDBRANCH   6   7
ENDBRANCH   5   6
ENDBRANCH   4   5
ENDBRANCH   3   4
ENDBRANCH   2   3
ENDBRANCH   1   2
BRANCH   1  36
ATOM     36  O   UNL     1       0.176  -0.051   5.034  1.00  0.00    -0.377 OA
BRANCH  36  37
ATOM     37  C   UNL     1       1.289  -0.296   5.861  1.00  0.00     0.188 C 
BRANCH  37  38
ATOM     38  C   UNL     1       1.278   0.534   7.159  1.00  0.00     0.188 C 
BRANCH  38  39
ATOM     39  O   UNL     1       0.131   1.252   7.610  1.00  0.00    -0.376 OA
BRANCH  39  40
ATOM     40  C   UNL     1      -0.730   1.974   6.739  1.00  0.00     0.202 C 
BRANCH  40  41
ATOM     41  C   UNL     1      -0.227   3.024   5.746  1.00  0.00     0.261 C 
BRANCH  41  42
ATOM     42  O   UNL     1       0.886   2.632   4.947  1.00  0.00    -0.460 OA
BRANCH  42  43
ATOM     43  C   UNL     1       2.085   3.065   5.403  1.00  0.00     0.338 C 
ATOM     44  O   UNL     1       2.297   3.759   6.373  1.00  0.00    -0.246 OA
BRANCH  43  45
ATOM     45  C   UNL     1       3.139   2.379   4.632  1.00  0.00     0.060 A 
ATOM     46  C   UNL     1       4.115   1.673   5.348  1.00  0.00     0.016 A 
ATOM     47  C   UNL     1       3.154   2.411   3.236  1.00  0.00     0.016 A 
ATOM     48  C   UNL     1       5.114   0.989   4.670  1.00  0.00     0.010 A 
ATOM     49  C   UNL     1       4.193   1.776   2.557  1.00  0.00     0.010 A 
ATOM     50  C   UNL     1       5.186   1.090   3.277  1.00  0.00    -0.014 A 
BRANCH  50  51
ATOM     51  C   UNL     1       6.449   0.703   2.620  1.00  0.00     0.031 A 
ATOM     52  C   UNL     1       7.487   1.775   2.444  1.00  0.00     0.074 A 
ATOM     53  C   UNL     1       6.678  -0.567   2.250  1.00  0.00     0.049 A 
ATOM     54  N   UNL     1       8.659   1.709   1.876  1.00  0.00    -0.248 NA
ATOM     55  C   UNL     1       7.151   3.104   2.985  1.00  0.00     0.031 C 
ATOM     56  C   UNL     1       5.755  -1.684   2.447  1.00  0.00     0.029 A 
ATOM     57  N   UNL     1       7.761  -1.129   1.626  1.00  0.00    -0.354 N 
ATOM     58  C   UNL     1       9.196   2.987   1.979  1.00  0.00     0.074 A 
ATOM     59  C   UNL     1       8.214   3.813   2.643  1.00  0.00     0.031 C 
ATOM     60  C   UNL     1       6.305  -2.797   1.931  1.00  0.00     0.029 A 
ATOM     61  C   UNL     1       7.595  -2.461   1.332  1.00  0.00     0.049 A 
ATOM     62  H   UNL     1       8.579  -0.626   1.408  1.00  0.00     0.167 HD
ATOM     63  C   UNL     1      10.403   3.425   1.550  1.00  0.00     0.034 A 
ATOM     64  C   UNL     1       8.386  -3.295   0.626  1.00  0.00     0.034 A 
ATOM     65  C   UNL     1      11.353   2.579   0.876  1.00  0.00     0.049 A 
ATOM     66  C   UNL     1       9.689  -2.756   0.079  1.00  0.00     0.074 A 
ATOM     67  C   UNL     1      12.614   2.902   0.411  1.00  0.00     0.029 A 
ATOM     68  N   UNL     1      11.137   1.244   0.552  1.00  0.00    -0.354 N 
ATOM     69  N   UNL     1      10.200  -1.550   0.194  1.00  0.00    -0.248 NA
ATOM     70  C   UNL     1      10.526  -3.691  -0.683  1.00  0.00     0.031 C 
ATOM     71  C   UNL     1      13.121   1.794  -0.274  1.00  0.00     0.029 A 
ATOM     72  C   UNL     1      12.223   0.745  -0.148  1.00  0.00     0.049 A 
ATOM     73  H   UNL     1      10.331   0.730   0.785  1.00  0.00     0.167 HD
ATOM     74  C   UNL     1      11.434  -1.595  -0.452  1.00  0.00     0.074 A 
ATOM     75  C   UNL     1      11.594  -2.950  -0.938  1.00  0.00     0.031 C 
ATOM     76  C   UNL     1      12.355  -0.612  -0.626  1.00  0.00     0.034 A 
BRANCH  63  77
ATOM     77  C   UNL     1      10.717   4.889   1.726  1.00  0.00     0.023 A 
ATOM     78  C   UNL     1      10.842   5.484   2.994  1.00  0.00     0.031 A 
ATOM     79  C   UNL     1      10.873   5.710   0.595  1.00  0.00     0.131 A 
ATOM     80  C   UNL     1      11.059   6.867   3.098  1.00  0.00     0.055 A 
ATOM     81  C   UNL     1      11.167   7.070   0.705  1.00  0.00     0.041 A 
ATOM     82  F   UNL     1      10.730   5.205  -0.641  1.00  0.00    -0.206 F 
ATOM     83  C   UNL     1      11.251   7.658   1.963  1.00  0.00     0.022 A 
BRANCH  80  84
ATOM     84  S   UNL     1      10.959   7.643   4.735  1.00  0.00     0.124 S 
ATOM     85  O   UNL     1       9.598   7.301   5.142  1.00  0.00    -0.237 OA
ATOM     86  O   UNL     1      12.031   6.977   5.466  1.00  0.00    -0.237 OA
ATOM     87  O   UNL     1      11.181   9.060   4.457  1.00  0.00    -0.744 OA
ENDBRANCH  80  84
ENDBRANCH  63  77
BRANCH  64  88
ATOM     88  C   UNL     1       7.954  -4.694   0.337  1.00  0.00     0.023 A 
ATOM     89  C   UNL     1       8.714  -5.796   0.760  1.00  0.00     0.031 A 
ATOM     90  C   UNL     1       6.806  -4.947  -0.437  1.00  0.00     0.131 A 
ATOM     91  C   UNL     1       8.353  -7.092   0.356  1.00  0.00     0.055 A 
ATOM     92  C   UNL     1       6.415  -6.242  -0.781  1.00  0.00     0.041 A 
ATOM     93  F   UNL     1       6.043  -3.933  -0.875  1.00  0.00    -0.206 F 
ATOM     94  C   UNL     1       7.201  -7.324  -0.398  1.00  0.00     0.022 A 
BRANCH  91  95
ATOM     95  S   UNL     1       9.480  -8.463   0.731  1.00  0.00     0.124 S 
ATOM     96  O   UNL     1      10.720  -8.004   0.115  1.00  0.00    -0.237 OA
ATOM     97  O   UNL     1       9.456  -8.483   2.189  1.00  0.00    -0.237 OA
ATOM     98  O   UNL     1       8.848  -9.610   0.083  1.00  0.00    -0.744 OA
ENDBRANCH  91  95
ENDBRANCH  64  88
BRANCH  76  99
ATOM     99  C   UNL     1      13.641  -0.987  -1.324  1.00  0.00     0.023 A 
ATOM    100  C   UNL     1      13.668  -1.382  -2.672  1.00  0.00     0.031 A 
ATOM    101  C   UNL     1      14.860  -0.944  -0.622  1.00  0.00     0.131 A 
ATOM    102  C   UNL     1      14.880  -1.777  -3.258  1.00  0.00     0.055 A 
ATOM    103  C   UNL     1      16.072  -1.266  -1.232  1.00  0.00     0.041 A 
ATOM    104  F   UNL     1      14.893  -0.578   0.670  1.00  0.00    -0.206 F 
ATOM    105  C   UNL     1      16.085  -1.700  -2.554  1.00  0.00     0.022 A 
BRANCH 102 106
ATOM    106  S   UNL     1      14.847  -2.495  -4.923  1.00  0.00     0.124 S 
ATOM    107  O   UNL     1      13.945  -3.628  -4.745  1.00  0.00    -0.237 OA
ATOM    108  O   UNL     1      14.335  -1.393  -5.730  1.00  0.00    -0.237 OA
ATOM    109  O   UNL     1      16.244  -2.848  -5.171  1.00  0.00    -0.744 OA
ENDBRANCH 102 106
ENDBRANCH  76  99
ENDBRANCH  50  51
ENDBRANCH  43  45
ENDBRANCH  42  43
ENDBRANCH  41  42
ENDBRANCH  40  41
ENDBRANCH  39  40
ENDBRANCH  38  39
ENDBRANCH  37  38
ENDBRANCH  36  37
ENDBRANCH   1  36
TORSDOF 29
