REMARK SMILES O=C(OCCOCCOCCOCCOC(=O)[C@H]1CC[C@@H](CN2CC(=O)N3CCCC[C@H]3C2=O)O1)c1ccc(-c2c3nc(c(-c4cc(S(=O)(=O)[O-])ccc4F)c4ccc([nH]4)c(-c4cc(S(=O)(=O)[O-])ccc4F)c4nc(c(-c5cc(S(=O)(=O)[O-])ccc5F)c5ccc2[nH]5)C=C4)C=C3)cc1
REMARK SMILES IDX 8 1 7 2 6 3 5 4 4 5 3 6 2 7 1 8 36 9 37 10 98 11 38 12 97 13
REMARK SMILES IDX 39 14 40 15 41 16 91 17 42 18 96 19 90 20 92 21 43 22 95 23
REMARK SMILES IDX 89 24 88 25 44 27 76 28 56 29 75 30 57 31 60 32 74 33 93 34
REMARK SMILES IDX 58 35 59 36 73 38 94 39 61 40 45 41 46 42 54 43 47 44 53 45
REMARK SMILES IDX 55 46 52 47 48 48 49 49 50 50 51 51 77 52 78 53 86 54 79 55
REMARK SMILES IDX 85 56 87 57 84 58 80 59 81 60 82 61 83 62 62 63 63 64 71 65
REMARK SMILES IDX 64 66 70 67 72 68 69 69 65 70 66 71 67 72 68 73 9 74 10 75
REMARK SMILES IDX 11 76 12 77 13 78 14 79 15 80 16 81 17 82 18 83 19 84 35 85
REMARK SMILES IDX 20 86 21 87 22 88 23 89 24 90 33 91 25 92 32 93 34 94 26 95
REMARK SMILES IDX 27 96 31 97 28 98 30 99 29 100
REMARK H PARENT 92 26 60 37
REMARK Flexibility Score: inf
ROOT
ATOM      1  C   UNL     1       6.726   8.540  -2.954  1.00  0.00     0.188 C 
ENDROOT
BRANCH   1   2
ATOM      2  C   UNL     1       6.633   9.180  -1.573  1.00  0.00     0.188 C 
BRANCH   2   3
ATOM      3  O   UNL     1       6.911   8.198  -0.589  1.00  0.00    -0.376 OA
BRANCH   3   4
ATOM      4  C   UNL     1       6.191   8.204   0.633  1.00  0.00     0.202 C 
BRANCH   4   5
ATOM      5  C   UNL     1       6.473   9.388   1.541  1.00  0.00     0.261 C 
BRANCH   5   6
ATOM      6  O   UNL     1       7.255  10.433   0.941  1.00  0.00    -0.460 OA
BRANCH   6   7
ATOM      7  C   UNL     1       8.567  10.477   0.611  1.00  0.00     0.338 C 
ATOM      8  O   UNL     1       8.976  11.469   0.007  1.00  0.00    -0.246 OA
BRANCH   7   9
ATOM      9  C   UNL     1       9.570   9.438   0.973  1.00  0.00     0.060 A 
ATOM     10  C   UNL     1       9.380   8.059   0.920  1.00  0.00     0.016 A 
ATOM     11  C   UNL     1      10.856   9.908   1.283  1.00  0.00     0.016 A 
ATOM     12  C   UNL     1      10.372   7.169   1.292  1.00  0.00     0.010 A 
ATOM     13  C   UNL     1      11.884   9.021   1.609  1.00  0.00     0.010 A 
ATOM     14  C   UNL     1      11.618   7.648   1.667  1.00  0.00    -0.014 A 
BRANCH  14  15
ATOM     15  C   UNL     1      12.525   6.709   2.343  1.00  0.00     0.031 A 
ATOM     16  C   UNL     1      12.664   6.856   3.829  1.00  0.00     0.074 A 
ATOM     17  C   UNL     1      13.052   5.671   1.671  1.00  0.00     0.049 A 
ATOM     18  N   UNL     1      13.465   6.246   4.654  1.00  0.00    -0.248 NA
ATOM     19  C   UNL     1      11.763   7.830   4.473  1.00  0.00     0.031 C 
ATOM     20  C   UNL     1      12.799   5.363   0.260  1.00  0.00     0.029 A 
ATOM     21  N   UNL     1      13.876   4.664   2.089  1.00  0.00    -0.354 N 
ATOM     22  C   UNL     1      13.200   6.795   5.904  1.00  0.00     0.074 A 
ATOM     23  C   UNL     1      12.173   7.794   5.729  1.00  0.00     0.031 C 
ATOM     24  C   UNL     1      13.444   4.231  -0.064  1.00  0.00     0.029 A 
ATOM     25  C   UNL     1      14.230   3.795   1.083  1.00  0.00     0.049 A 
ATOM     26  H   UNL     1      14.185   4.569   3.018  1.00  0.00     0.167 HD
ATOM     27  C   UNL     1      13.784   6.486   7.084  1.00  0.00     0.034 A 
ATOM     28  C   UNL     1      15.139   2.800   1.091  1.00  0.00     0.034 A 
ATOM     29  C   UNL     1      14.804   5.476   7.189  1.00  0.00     0.049 A 
ATOM     30  C   UNL     1      15.873   2.560   2.387  1.00  0.00     0.074 A 
ATOM     31  C   UNL     1      15.553   5.107   8.288  1.00  0.00     0.029 A 
ATOM     32  N   UNL     1      15.217   4.670   6.130  1.00  0.00    -0.354 N 
ATOM     33  N   UNL     1      15.716   3.160   3.548  1.00  0.00    -0.248 NA
ATOM     34  C   UNL     1      16.910   1.525   2.378  1.00  0.00     0.031 C 
ATOM     35  C   UNL     1      16.467   4.130   7.875  1.00  0.00     0.029 A 
ATOM     36  C   UNL     1      16.229   3.823   6.542  1.00  0.00     0.049 A 
ATOM     37  H   UNL     1      14.842   4.698   5.221  1.00  0.00     0.167 HD
ATOM     38  C   UNL     1      16.621   2.559   4.415  1.00  0.00     0.074 A 
ATOM     39  C   UNL     1      17.302   1.535   3.644  1.00  0.00     0.031 C 
ATOM     40  C   UNL     1      16.876   2.821   5.725  1.00  0.00     0.034 A 
BRANCH  27  41
ATOM     41  C   UNL     1      13.410   7.333   8.275  1.00  0.00     0.023 A 
ATOM     42  C   UNL     1      12.102   7.366   8.796  1.00  0.00     0.031 A 
ATOM     43  C   UNL     1      14.357   8.213   8.828  1.00  0.00     0.131 A 
ATOM     44  C   UNL     1      11.761   8.316   9.773  1.00  0.00     0.055 A 
ATOM     45  C   UNL     1      14.033   9.096   9.860  1.00  0.00     0.041 A 
ATOM     46  F   UNL     1      15.610   8.258   8.347  1.00  0.00    -0.206 F 
ATOM     47  C   UNL     1      12.724   9.163  10.326  1.00  0.00     0.022 A 
BRANCH  44  48
ATOM     48  S   UNL     1      10.009   8.548  10.188  1.00  0.00     0.124 S 
ATOM     49  O   UNL     1       9.450   8.949   8.899  1.00  0.00    -0.237 OA
ATOM     50  O   UNL     1       9.619   7.228  10.669  1.00  0.00    -0.237 OA
ATOM     51  O   UNL     1      10.033   9.600  11.203  1.00  0.00    -0.744 OA
ENDBRANCH  44  48
ENDBRANCH  27  41
BRANCH  28  52
ATOM     52  C   UNL     1      15.468   2.050  -0.158  1.00  0.00     0.023 A 
ATOM     53  C   UNL     1      15.338   0.654  -0.234  1.00  0.00     0.031 A 
ATOM     54  C   UNL     1      15.972   2.720  -1.290  1.00  0.00     0.131 A 
ATOM     55  C   UNL     1      15.746  -0.027  -1.394  1.00  0.00     0.055 A 
ATOM     56  C   UNL     1      16.315   2.046  -2.463  1.00  0.00     0.041 A 
ATOM     57  F   UNL     1      16.134   4.053  -1.278  1.00  0.00    -0.206 F 
ATOM     58  C   UNL     1      16.216   0.661  -2.515  1.00  0.00     0.022 A 
BRANCH  55  59
ATOM     59  S   UNL     1      15.758  -1.842  -1.382  1.00  0.00     0.124 S 
ATOM     60  O   UNL     1      16.610  -2.125  -0.233  1.00  0.00    -0.237 OA
ATOM     61  O   UNL     1      14.342  -2.156  -1.223  1.00  0.00    -0.237 OA
ATOM     62  O   UNL     1      16.330  -2.188  -2.682  1.00  0.00    -0.744 OA
ENDBRANCH  55  59
ENDBRANCH  28  52
BRANCH  40  63
ATOM     63  C   UNL     1      17.898   1.943   6.396  1.00  0.00     0.023 A 
ATOM     64  C   UNL     1      19.255   1.986   6.037  1.00  0.00     0.031 A 
ATOM     65  C   UNL     1      17.502   1.056   7.411  1.00  0.00     0.131 A 
ATOM     66  C   UNL     1      20.160   1.109   6.646  1.00  0.00     0.055 A 
ATOM     67  C   UNL     1      18.420   0.238   8.066  1.00  0.00     0.041 A 
ATOM     68  F   UNL     1      16.215   0.979   7.789  1.00  0.00    -0.206 F 
ATOM     69  C   UNL     1      19.756   0.251   7.674  1.00  0.00     0.022 A 
BRANCH  66  70
ATOM     70  S   UNL     1      21.852   1.028   6.004  1.00  0.00     0.124 S 
ATOM     71  O   UNL     1      21.628   0.670   4.607  1.00  0.00    -0.237 OA
ATOM     72  O   UNL     1      22.342   2.382   6.244  1.00  0.00    -0.237 OA
ATOM     73  O   UNL     1      22.478  -0.011   6.819  1.00  0.00    -0.744 OA
ENDBRANCH  66  70
ENDBRANCH  40  63
ENDBRANCH  14  15
ENDBRANCH   7   9
ENDBRANCH   6   7
ENDBRANCH   5   6
ENDBRANCH   4   5
ENDBRANCH   3   4
ENDBRANCH   2   3
ENDBRANCH   1   2
BRANCH   1  74
ATOM     74  O   UNL     1       5.733   7.553  -3.236  1.00  0.00    -0.377 OA
BRANCH  74  75
ATOM     75  C   UNL     1       5.481   6.588  -2.216  1.00  0.00     0.188 C 
BRANCH  75  76
ATOM     76  C   UNL     1       6.629   5.670  -1.716  1.00  0.00     0.188 C 
BRANCH  76  77
ATOM     77  O   UNL     1       7.938   6.058  -2.106  1.00  0.00    -0.376 OA
BRANCH  77  78
ATOM     78  C   UNL     1       8.499   5.336  -3.199  1.00  0.00     0.202 C 
BRANCH  78  79
ATOM     79  C   UNL     1       7.815   5.594  -4.547  1.00  0.00     0.261 C 
BRANCH  79  80
ATOM     80  O   UNL     1       6.420   5.261  -4.654  1.00  0.00    -0.461 OA
BRANCH  80  81
ATOM     81  C   UNL     1       6.010   4.030  -4.263  1.00  0.00     0.335 C 
ATOM     82  O   UNL     1       6.745   3.143  -3.880  1.00  0.00    -0.249 OA
BRANCH  81  83
ATOM     83  C   UNL     1       4.480   3.924  -4.226  1.00  0.00     0.228 C 
ATOM     84  C   UNL     1       3.736   4.853  -5.160  1.00  0.00     0.047 C 
ATOM     85  O   UNL     1       4.075   2.607  -4.608  1.00  0.00    -0.361 OA
ATOM     86  C   UNL     1       3.817   4.096  -6.463  1.00  0.00     0.037 C 
ATOM     87  C   UNL     1       3.810   2.632  -6.021  1.00  0.00     0.139 C 
BRANCH  87  88
ATOM     88  C   UNL     1       4.766   1.655  -6.739  1.00  0.00     0.152 C 
BRANCH  88  89
ATOM     89  N   UNL     1       6.175   2.068  -6.832  1.00  0.00    -0.329 N 
ATOM     90  C   UNL     1       7.180   1.329  -6.054  1.00  0.00     0.219 C 
ATOM     91  C   UNL     1       6.600   2.795  -7.934  1.00  0.00     0.245 C 
ATOM     92  C   UNL     1       8.494   2.084  -5.782  1.00  0.00     0.242 C 
ATOM     93  C   UNL     1       8.086   3.188  -7.951  1.00  0.00     0.174 C 
ATOM     94  O   UNL     1       5.854   3.080  -8.872  1.00  0.00    -0.272 OA
ATOM     95  O   UNL     1       9.298   1.713  -4.930  1.00  0.00    -0.273 OA
ATOM     96  N   UNL     1       8.775   3.117  -6.670  1.00  0.00    -0.329 N 
ATOM     97  C   UNL     1       8.909   2.403  -8.970  1.00  0.00     0.035 C 
ATOM     98  C   UNL     1      10.083   3.761  -6.643  1.00  0.00     0.120 C 
ATOM     99  C   UNL     1      10.334   2.979  -9.039  1.00  0.00     0.004 C 
ATOM    100  C   UNL     1      11.001   3.088  -7.659  1.00  0.00     0.022 C 
ENDBRANCH  88  89
ENDBRANCH  87  88
ENDBRANCH  81  83
ENDBRANCH  80  81
ENDBRANCH  79  80
ENDBRANCH  78  79
ENDBRANCH  77  78
ENDBRANCH  76  77
ENDBRANCH  75  76
ENDBRANCH  74  75
ENDBRANCH   1  74
TORSDOF 25
