REMARK SMILES O=C(OCCOCCOCCOCCOC(=O)c1ccc(NC(=O)c2ccc([N+](=O)[O-])cc2Cl)cc1Cl)c1ccc(-c2c3nc(c(-c4cc(S(=O)(=O)[O-])ccc4F)c4ccc([nH]4)c(-c4cc(S(=O)(=O)[O-])ccc4F)c4nc(c(-c5cc(S(=O)(=O)[O-])ccc5F)c5ccc2[nH]5)C=C4)C=C3)cc1
REMARK SMILES IDX 9 1 8 2 7 3 6 4 5 5 4 6 3 7 2 8 1 9 38 10 39 11 100 12 40 13
REMARK SMILES IDX 99 14 41 15 42 16 43 17 93 18 44 19 98 20 92 21 94 22 45 23
REMARK SMILES IDX 97 24 91 25 90 26 46 28 78 29 58 30 77 31 59 32 62 33 76 34
REMARK SMILES IDX 95 35 60 36 61 37 75 39 96 40 63 41 47 42 48 43 56 44 49 45
REMARK SMILES IDX 55 46 57 47 54 48 50 49 51 50 52 51 53 52 79 53 80 54 88 55
REMARK SMILES IDX 81 56 87 57 89 58 86 59 82 60 83 61 84 62 85 63 64 64 65 65
REMARK SMILES IDX 73 66 66 67 72 68 74 69 71 70 67 71 68 72 69 73 70 74 10 75
REMARK SMILES IDX 11 76 12 77 13 78 14 79 15 80 16 81 17 82 18 83 19 84 36 85
REMARK SMILES IDX 20 86 35 87 37 88 21 89 22 90 23 91 24 93 25 94 26 95 33 96
REMARK SMILES IDX 27 97 32 98 34 99 28 100 29 101 30 102 31 103
REMARK H PARENT 94 27 62 38 22 92
REMARK Flexibility Score: inf
ROOT
ATOM      1  O   UNL     1       2.533   2.996  -2.544  1.00  0.00    -0.377 OA
ENDROOT
BRANCH   1   2
ATOM      2  C   UNL     1       1.834   2.289  -1.521  1.00  0.00     0.188 C 
BRANCH   2   3
ATOM      3  C   UNL     1       2.263   0.834  -1.335  1.00  0.00     0.188 C 
BRANCH   3   4
ATOM      4  O   UNL     1       3.604   0.758  -0.843  1.00  0.00    -0.376 OA
BRANCH   4   5
ATOM      5  C   UNL     1       4.382  -0.323  -1.358  1.00  0.00     0.202 C 
BRANCH   5   6
ATOM      6  C   UNL     1       4.164  -1.660  -0.643  1.00  0.00     0.261 C 
BRANCH   6   7
ATOM      7  O   UNL     1       2.791  -1.853  -0.273  1.00  0.00    -0.460 OA
BRANCH   7   8
ATOM      8  C   UNL     1       2.210  -1.564   0.920  1.00  0.00     0.338 C 
ATOM      9  O   UNL     1       1.018  -1.835   1.064  1.00  0.00    -0.246 OA
BRANCH   8  10
ATOM     10  C   UNL     1       2.930  -0.941   2.076  1.00  0.00     0.060 A 
ATOM     11  C   UNL     1       4.059  -0.124   1.984  1.00  0.00     0.016 A 
ATOM     12  C   UNL     1       2.386  -1.158   3.354  1.00  0.00     0.016 A 
ATOM     13  C   UNL     1       4.693   0.377   3.111  1.00  0.00     0.010 A 
ATOM     14  C   UNL     1       2.996  -0.629   4.497  1.00  0.00     0.010 A 
ATOM     15  C   UNL     1       4.179   0.108   4.374  1.00  0.00    -0.014 A 
BRANCH  15  16
ATOM     16  C   UNL     1       5.023   0.437   5.537  1.00  0.00     0.031 A 
ATOM     17  C   UNL     1       5.779  -0.686   6.182  1.00  0.00     0.074 A 
ATOM     18  C   UNL     1       5.224   1.721   5.884  1.00  0.00     0.049 A 
ATOM     19  N   UNL     1       6.544  -0.676   7.238  1.00  0.00    -0.248 NA
ATOM     20  C   UNL     1       5.664  -2.003   5.532  1.00  0.00     0.031 C 
ATOM     21  C   UNL     1       4.643   2.879   5.199  1.00  0.00     0.029 A 
ATOM     22  N   UNL     1       5.995   2.270   6.873  1.00  0.00    -0.354 N 
ATOM     23  C   UNL     1       6.975  -1.988   7.399  1.00  0.00     0.074 A 
ATOM     24  C   UNL     1       6.379  -2.769   6.339  1.00  0.00     0.031 C 
ATOM     25  C   UNL     1       5.092   4.002   5.783  1.00  0.00     0.029 A 
ATOM     26  C   UNL     1       5.926   3.643   6.925  1.00  0.00     0.049 A 
ATOM     27  H   UNL     1       6.545   1.734   7.488  1.00  0.00     0.167 HD
ATOM     28  C   UNL     1       7.791  -2.488   8.357  1.00  0.00     0.034 A 
ATOM     29  C   UNL     1       6.446   4.498   7.827  1.00  0.00     0.034 A 
ATOM     30  C   UNL     1       8.350  -1.667   9.401  1.00  0.00     0.049 A 
ATOM     31  C   UNL     1       7.257   3.906   8.954  1.00  0.00     0.074 A 
ATOM     32  C   UNL     1       9.114  -2.043  10.489  1.00  0.00     0.029 A 
ATOM     33  N   UNL     1       8.195  -0.285   9.479  1.00  0.00    -0.354 N 
ATOM     34  N   UNL     1       7.580   2.648   9.166  1.00  0.00    -0.248 NA
ATOM     35  C   UNL     1       7.765   4.838   9.966  1.00  0.00     0.031 C 
ATOM     36  C   UNL     1       9.366  -0.899  11.257  1.00  0.00     0.029 A 
ATOM     37  C   UNL     1       8.827   0.203  10.608  1.00  0.00     0.049 A 
ATOM     38  H   UNL     1       7.705   0.264   8.825  1.00  0.00     0.167 HD
ATOM     39  C   UNL     1       8.343   2.640  10.329  1.00  0.00     0.074 A 
ATOM     40  C   UNL     1       8.452   4.023  10.755  1.00  0.00     0.031 C 
ATOM     41  C   UNL     1       8.901   1.595  10.994  1.00  0.00     0.034 A 
BRANCH  28  42
ATOM     42  C   UNL     1       8.004  -3.982   8.360  1.00  0.00     0.023 A 
ATOM     43  C   UNL     1       8.653  -4.647   7.303  1.00  0.00     0.031 A 
ATOM     44  C   UNL     1       7.447  -4.766   9.386  1.00  0.00     0.131 A 
ATOM     45  C   UNL     1       8.649  -6.051   7.253  1.00  0.00     0.055 A 
ATOM     46  C   UNL     1       7.520  -6.160   9.372  1.00  0.00     0.041 A 
ATOM     47  F   UNL     1       6.785  -4.190  10.402  1.00  0.00    -0.206 F 
ATOM     48  C   UNL     1       8.107  -6.811   8.292  1.00  0.00     0.022 A 
BRANCH  45  49
ATOM     49  S   UNL     1       9.210  -6.870   5.733  1.00  0.00     0.124 S 
ATOM     50  O   UNL     1       8.271  -6.338   4.748  1.00  0.00    -0.237 OA
ATOM     51  O   UNL     1      10.588  -6.410   5.615  1.00  0.00    -0.237 OA
ATOM     52  O   UNL     1       9.050  -8.293   6.030  1.00  0.00    -0.744 OA
ENDBRANCH  45  49
ENDBRANCH  28  42
BRANCH  29  53
ATOM     53  C   UNL     1       6.152   5.962   7.757  1.00  0.00     0.023 A 
ATOM     54  C   UNL     1       7.175   6.916   7.641  1.00  0.00     0.031 A 
ATOM     55  C   UNL     1       4.828   6.434   7.856  1.00  0.00     0.131 A 
ATOM     56  C   UNL     1       6.863   8.287   7.665  1.00  0.00     0.055 A 
ATOM     57  C   UNL     1       4.518   7.794   7.821  1.00  0.00     0.041 A 
ATOM     58  F   UNL     1       3.806   5.572   7.980  1.00  0.00    -0.206 F 
ATOM     59  C   UNL     1       5.541   8.732   7.739  1.00  0.00     0.022 A 
BRANCH  56  60
ATOM     60  S   UNL     1       8.220   9.493   7.691  1.00  0.00     0.124 S 
ATOM     61  O   UNL     1       8.972   9.070   8.867  1.00  0.00    -0.237 OA
ATOM     62  O   UNL     1       8.859   9.256   6.400  1.00  0.00    -0.237 OA
ATOM     63  O   UNL     1       7.533  10.777   7.817  1.00  0.00    -0.744 OA
ENDBRANCH  56  60
ENDBRANCH  29  53
BRANCH  41  64
ATOM     64  C   UNL     1       9.706   1.932  12.221  1.00  0.00     0.023 A 
ATOM     65  C   UNL     1       9.098   2.434  13.384  1.00  0.00     0.031 A 
ATOM     66  C   UNL     1      11.099   1.747  12.222  1.00  0.00     0.131 A 
ATOM     67  C   UNL     1       9.891   2.789  14.483  1.00  0.00     0.055 A 
ATOM     68  C   UNL     1      11.875   2.042  13.342  1.00  0.00     0.041 A 
ATOM     69  F   UNL     1      11.726   1.270  11.135  1.00  0.00    -0.206 F 
ATOM     70  C   UNL     1      11.273   2.580  14.476  1.00  0.00     0.022 A 
BRANCH  67  71
ATOM     71  S   UNL     1       9.102   3.619  15.888  1.00  0.00     0.124 S 
ATOM     72  O   UNL     1       8.530   4.805  15.258  1.00  0.00    -0.237 OA
ATOM     73  O   UNL     1       8.145   2.617  16.346  1.00  0.00    -0.237 OA
ATOM     74  O   UNL     1      10.213   3.877  16.802  1.00  0.00    -0.744 OA
ENDBRANCH  67  71
ENDBRANCH  41  64
ENDBRANCH  15  16
ENDBRANCH   8  10
ENDBRANCH   7   8
ENDBRANCH   6   7
ENDBRANCH   5   6
ENDBRANCH   4   5
ENDBRANCH   3   4
ENDBRANCH   2   3
ENDBRANCH   1   2
BRANCH   1  75
ATOM     75  C   UNL     1       3.954   2.966  -2.479  1.00  0.00     0.188 C 
BRANCH  75  76
ATOM     76  C   UNL     1       4.665   3.501  -1.215  1.00  0.00     0.188 C 
BRANCH  76  77
ATOM     77  O   UNL     1       3.805   3.971  -0.187  1.00  0.00    -0.376 OA
BRANCH  77  78
ATOM     78  C   UNL     1       3.769   5.388  -0.024  1.00  0.00     0.202 C 
BRANCH  78  79
ATOM     79  C   UNL     1       2.937   6.106  -1.090  1.00  0.00     0.261 C 
BRANCH  79  80
ATOM     80  O   UNL     1       3.434   5.933  -2.429  1.00  0.00    -0.460 OA
BRANCH  80  81
ATOM     81  C   UNL     1       4.586   6.547  -2.775  1.00  0.00     0.339 C 
ATOM     82  O   UNL     1       5.267   7.285  -2.087  1.00  0.00    -0.246 OA
BRANCH  81  83
ATOM     83  C   UNL     1       5.027   5.951  -4.056  1.00  0.00     0.078 A 
ATOM     84  C   UNL     1       6.261   5.279  -4.065  1.00  0.00     0.019 A 
ATOM     85  C   UNL     1       4.212   5.900  -5.186  1.00  0.00     0.057 A 
ATOM     86  C   UNL     1       6.636   4.490  -5.163  1.00  0.00     0.027 A 
ATOM     87  C   UNL     1       4.606   5.130  -6.289  1.00  0.00     0.047 A 
ATOM     88  Cl  UNL     1       2.719   6.761  -5.303  1.00  0.00    -0.083 Cl
ATOM     89  C   UNL     1       5.797   4.388  -6.272  1.00  0.00     0.043 A 
BRANCH  89  90
ATOM     90  N   UNL     1       6.074   3.624  -7.420  1.00  0.00    -0.322 N 
ATOM     91  C   UNL     1       6.953   2.600  -7.681  1.00  0.00     0.257 C 
ATOM     92  H   UNL     1       5.525   3.874  -8.198  1.00  0.00     0.170 HD
ATOM     93  O   UNL     1       7.176   2.266  -8.844  1.00  0.00    -0.269 OA
BRANCH  91  94
ATOM     94  C   UNL     1       7.609   1.826  -6.614  1.00  0.00     0.059 A 
ATOM     95  C   UNL     1       9.013   1.783  -6.627  1.00  0.00     0.022 A 
ATOM     96  C   UNL     1       6.892   1.055  -5.688  1.00  0.00     0.060 A 
ATOM     97  C   UNL     1       9.702   1.026  -5.677  1.00  0.00     0.086 A 
ATOM     98  C   UNL     1       7.577   0.301  -4.730  1.00  0.00     0.107 A 
ATOM     99  Cl  UNL     1       5.169   0.938  -5.708  1.00  0.00    -0.083 Cl
ATOM    100  C   UNL     1       8.979   0.298  -4.723  1.00  0.00     0.270 A 
BRANCH 100 101
ATOM    101  N   UNL     1       9.695  -0.490  -3.712  1.00  0.00     0.062 N 
ATOM    102  O   UNL     1      10.916  -0.632  -3.857  1.00  0.00    -0.258 OA
ATOM    103  O   UNL     1       9.027  -0.961  -2.782  1.00  0.00    -0.258 OA
ENDBRANCH 100 101
ENDBRANCH  91  94
ENDBRANCH  89  90
ENDBRANCH  81  83
ENDBRANCH  80  81
ENDBRANCH  79  80
ENDBRANCH  78  79
ENDBRANCH  77  78
ENDBRANCH  76  77
ENDBRANCH  75  76
ENDBRANCH   1  75
TORSDOF 26
