REMARK SMILES Cc1ccc(F)c(C(=O)N[C@@H]2C=C[C@@H](C(=O)OCCOCCOCCOCCOC(=O)c3ccc(-c4c5nc(c(-c6cc(S(=O)(=O)[O-])ccc6F)c6ccc([nH]6)c(-c6cc(S(=O)(=O)[O-])ccc6F)c6nc(c(-c7cc(S(=O)(=O)[O-])ccc7F)c7ccc4[nH]7)C=C6)C=C5)cc3)C2)c1
REMARK SMILES IDX 24 1 23 2 22 3 21 4 20 5 19 6 18 7 17 8 15 9 16 10 14 11
REMARK SMILES IDX 11 12 12 13 95 14 13 15 10 16 8 17 9 18 7 20 1 21 2 22 3 23
REMARK SMILES IDX 96 24 4 25 5 26 6 27 25 28 26 29 27 30 28 31 29 32 30 33
REMARK SMILES IDX 31 34 32 35 33 36 94 37 34 38 93 39 35 40 36 41 37 42 87 43
REMARK SMILES IDX 38 44 92 45 86 46 88 47 39 48 91 49 85 50 84 51 40 53 72 54
REMARK SMILES IDX 52 55 71 56 53 57 56 58 70 59 89 60 54 61 55 62 69 64 90 65
REMARK SMILES IDX 57 66 41 67 42 68 50 69 43 70 49 71 51 72 48 73 44 74 45 75
REMARK SMILES IDX 46 76 47 77 73 78 74 79 82 80 75 81 81 82 83 83 80 84 76 85
REMARK SMILES IDX 77 86 78 87 79 88 58 89 59 90 67 91 60 92 66 93 68 94 65 95
REMARK SMILES IDX 61 96 62 97 63 98 64 99
REMARK H PARENT 10 19 88 52 56 63
REMARK Flexibility Score: inf
ROOT
ATOM      1  C   UNL     1       0.531  -8.537   3.605  1.00  0.00     0.188 C 
ENDROOT
BRANCH   1   2
ATOM      2  O   UNL     1       1.299  -7.385   3.264  1.00  0.00    -0.377 OA
BRANCH   2   3
ATOM      3  C   UNL     1       2.602  -7.552   2.745  1.00  0.00     0.188 C 
BRANCH   3   4
ATOM      4  C   UNL     1       3.751  -7.129   3.671  1.00  0.00     0.188 C 
BRANCH   4   5
ATOM      5  O   UNL     1       3.577  -7.237   5.074  1.00  0.00    -0.376 OA
BRANCH   5   6
ATOM      6  C   UNL     1       2.489  -6.538   5.675  1.00  0.00     0.202 C 
BRANCH   6   7
ATOM      7  C   UNL     1       2.270  -5.054   5.330  1.00  0.00     0.261 C 
BRANCH   7   8
ATOM      8  O   UNL     1       2.132  -4.778   3.918  1.00  0.00    -0.463 OA
BRANCH   8   9
ATOM      9  C   UNL     1       2.933  -3.802   3.418  1.00  0.00     0.312 C 
ATOM     10  O   UNL     1       3.732  -3.156   4.092  1.00  0.00    -0.252 OA
BRANCH   9  11
ATOM     11  C   UNL     1       2.818  -3.589   1.905  1.00  0.00     0.124 C 
ATOM     12  C   UNL     1       1.101  -3.400   0.127  1.00  0.00     0.106 C 
ATOM     13  C   UNL     1       1.462  -2.074   0.714  1.00  0.00    -0.006 C 
ATOM     14  C   UNL     1       1.795  -4.387   1.085  1.00  0.00     0.048 C 
ATOM     15  C   UNL     1       2.405  -2.170   1.655  1.00  0.00    -0.014 C 
BRANCH  12  16
ATOM     16  N   UNL     1       1.557  -3.379  -1.258  1.00  0.00    -0.346 N 
ATOM     17  C   UNL     1       1.548  -4.300  -2.277  1.00  0.00     0.254 C 
ATOM     18  O   UNL     1       1.826  -3.914  -3.411  1.00  0.00    -0.269 OA
ATOM     19  H   UNL     1       1.960  -2.519  -1.518  1.00  0.00     0.164 HD
BRANCH  17  20
ATOM     20  C   UNL     1       1.274  -5.731  -2.043  1.00  0.00     0.075 A 
ATOM     21  C   UNL     1      -0.786  -7.930   0.239  1.00  0.00     0.044 C 
ATOM     22  C   UNL     1       0.177  -7.512  -0.825  1.00  0.00    -0.050 A 
ATOM     23  C   UNL     1       0.977  -8.457  -1.478  1.00  0.00     0.006 A 
ATOM     24  C   UNL     1       0.286  -6.159  -1.158  1.00  0.00     0.020 A 
ATOM     25  C   UNL     1       1.898  -8.045  -2.437  1.00  0.00     0.040 A 
ATOM     26  C   UNL     1       2.050  -6.687  -2.708  1.00  0.00     0.135 A 
ATOM     27  F   UNL     1       2.989  -6.331  -3.596  1.00  0.00    -0.206 F 
ENDBRANCH  17  20
ENDBRANCH  12  16
ENDBRANCH   9  11
ENDBRANCH   8   9
ENDBRANCH   7   8
ENDBRANCH   6   7
ENDBRANCH   5   6
ENDBRANCH   4   5
ENDBRANCH   3   4
ENDBRANCH   2   3
ENDBRANCH   1   2
BRANCH   1  28
ATOM     28  C   UNL     1       1.227  -9.834   4.046  1.00  0.00     0.188 C 
BRANCH  28  29
ATOM     29  O   UNL     1       2.039 -10.556   3.119  1.00  0.00    -0.376 OA
BRANCH  29  30
ATOM     30  C   UNL     1       1.651 -10.684   1.755  1.00  0.00     0.202 C 
BRANCH  30  31
ATOM     31  C   UNL     1       0.454 -11.570   1.429  1.00  0.00     0.261 C 
BRANCH  31  32
ATOM     32  O   UNL     1      -0.773 -10.967   1.861  1.00  0.00    -0.460 OA
BRANCH  32  33
ATOM     33  C   UNL     1      -1.382 -11.613   2.881  1.00  0.00     0.338 C 
ATOM     34  O   UNL     1      -1.027 -12.654   3.401  1.00  0.00    -0.246 OA
BRANCH  33  35
ATOM     35  C   UNL     1      -2.461 -10.773   3.426  1.00  0.00     0.060 A 
ATOM     36  C   UNL     1      -2.500 -10.629   4.817  1.00  0.00     0.016 A 
ATOM     37  C   UNL     1      -3.462 -10.224   2.619  1.00  0.00     0.016 A 
ATOM     38  C   UNL     1      -3.591 -10.017   5.419  1.00  0.00     0.010 A 
ATOM     39  C   UNL     1      -4.563  -9.613   3.227  1.00  0.00     0.010 A 
ATOM     40  C   UNL     1      -4.655  -9.564   4.630  1.00  0.00    -0.014 A 
BRANCH  40  41
ATOM     41  C   UNL     1      -5.942  -9.264   5.300  1.00  0.00     0.031 A 
ATOM     42  C   UNL     1      -7.008 -10.328   5.303  1.00  0.00     0.074 A 
ATOM     43  C   UNL     1      -6.120  -8.107   5.960  1.00  0.00     0.049 A 
ATOM     44  N   UNL     1      -8.201 -10.306   5.834  1.00  0.00    -0.248 NA
ATOM     45  C   UNL     1      -6.680 -11.588   4.615  1.00  0.00     0.031 C 
ATOM     46  C   UNL     1      -5.127  -7.038   6.068  1.00  0.00     0.029 A 
ATOM     47  N   UNL     1      -7.196  -7.641   6.669  1.00  0.00    -0.354 N 
ATOM     48  C   UNL     1      -8.771 -11.540   5.535  1.00  0.00     0.074 A 
ATOM     49  C   UNL     1      -7.805 -12.273   4.748  1.00  0.00     0.031 C 
ATOM     50  C   UNL     1      -5.647  -6.034   6.795  1.00  0.00     0.029 A 
ATOM     51  C   UNL     1      -7.019  -6.372   7.168  1.00  0.00     0.049 A 
ATOM     52  H   UNL     1      -8.018  -8.164   6.807  1.00  0.00     0.167 HD
ATOM     53  C   UNL     1      -9.988 -12.017   5.893  1.00  0.00     0.034 A 
ATOM     54  C   UNL     1      -7.880  -5.569   7.826  1.00  0.00     0.034 A 
ATOM     55  C   UNL     1     -10.934 -11.267   6.681  1.00  0.00     0.049 A 
ATOM     56  C   UNL     1      -9.261  -6.095   8.144  1.00  0.00     0.074 A 
ATOM     57  C   UNL     1     -12.184 -11.658   7.127  1.00  0.00     0.029 A 
ATOM     58  N   UNL     1     -10.742  -9.965   7.127  1.00  0.00    -0.354 N 
ATOM     59  N   UNL     1      -9.780  -7.272   7.875  1.00  0.00    -0.248 NA
ATOM     60  C   UNL     1     -10.165  -5.190   8.865  1.00  0.00     0.031 C 
ATOM     61  C   UNL     1     -12.781 -10.566   7.764  1.00  0.00     0.029 A 
ATOM     62  C   UNL     1     -11.868  -9.523   7.802  1.00  0.00     0.049 A 
ATOM     63  H   UNL     1      -9.925  -9.434   6.984  1.00  0.00     0.167 HD
ATOM     64  C   UNL     1     -11.060  -7.257   8.425  1.00  0.00     0.074 A 
ATOM     65  C   UNL     1     -11.224  -5.963   9.055  1.00  0.00     0.031 C 
ATOM     66  C   UNL     1     -12.014  -8.224   8.417  1.00  0.00     0.034 A 
BRANCH  53  67
ATOM     67  C   UNL     1     -10.387 -13.379   5.379  1.00  0.00     0.023 A 
ATOM     68  C   UNL     1      -9.709 -14.552   5.755  1.00  0.00     0.031 A 
ATOM     69  C   UNL     1     -11.462 -13.502   4.480  1.00  0.00     0.131 A 
ATOM     70  C   UNL     1     -10.074 -15.784   5.190  1.00  0.00     0.055 A 
ATOM     71  C   UNL     1     -11.871 -14.740   3.983  1.00  0.00     0.041 A 
ATOM     72  F   UNL     1     -12.129 -12.414   4.061  1.00  0.00    -0.206 F 
ATOM     73  C   UNL     1     -11.168 -15.889   4.327  1.00  0.00     0.022 A 
BRANCH  70  74
ATOM     74  S   UNL     1      -9.017 -17.227   5.490  1.00  0.00     0.124 S 
ATOM     75  O   UNL     1      -7.733 -16.767   4.967  1.00  0.00    -0.237 OA
ATOM     76  O   UNL     1      -9.099 -17.382   6.938  1.00  0.00    -0.237 OA
ATOM     77  O   UNL     1      -9.654 -18.287   4.712  1.00  0.00    -0.744 OA
ENDBRANCH  70  74
ENDBRANCH  53  67
BRANCH  54  78
ATOM     78  C   UNL     1      -7.493  -4.173   8.183  1.00  0.00     0.023 A 
ATOM     79  C   UNL     1      -7.468  -3.738   9.517  1.00  0.00     0.031 A 
ATOM     80  C   UNL     1      -7.210  -3.228   7.179  1.00  0.00     0.131 A 
ATOM     81  C   UNL     1      -7.226  -2.386   9.808  1.00  0.00     0.055 A 
ATOM     82  C   UNL     1      -6.908  -1.898   7.477  1.00  0.00     0.041 A 
ATOM     83  F   UNL     1      -7.223  -3.586   5.885  1.00  0.00    -0.206 F 
ATOM     84  C   UNL     1      -6.931  -1.467   8.799  1.00  0.00     0.022 A 
BRANCH  81  85
ATOM     85  S   UNL     1      -7.416  -1.820  11.521  1.00  0.00     0.124 S 
ATOM     86  O   UNL     1      -8.784  -2.227  11.817  1.00  0.00    -0.237 OA
ATOM     87  O   UNL     1      -6.362  -2.565  12.202  1.00  0.00    -0.237 OA
ATOM     88  O   UNL     1      -7.198  -0.378  11.428  1.00  0.00    -0.744 OA
ENDBRANCH  81  85
ENDBRANCH  54  78
BRANCH  66  89
ATOM     89  C   UNL     1     -13.299  -7.931   9.155  1.00  0.00     0.023 A 
ATOM     90  C   UNL     1     -14.182  -6.921   8.736  1.00  0.00     0.031 A 
ATOM     91  C   UNL     1     -13.641  -8.673  10.300  1.00  0.00     0.131 A 
ATOM     92  C   UNL     1     -15.331  -6.640   9.491  1.00  0.00     0.055 A 
ATOM     93  C   UNL     1     -14.820  -8.437  11.006  1.00  0.00     0.041 A 
ATOM     94  F   UNL     1     -12.834  -9.649  10.748  1.00  0.00    -0.206 F 
ATOM     95  C   UNL     1     -15.666  -7.404  10.611  1.00  0.00     0.022 A 
BRANCH  92  96
ATOM     96  S   UNL     1     -16.329  -5.191   9.050  1.00  0.00     0.124 S 
ATOM     97  O   UNL     1     -15.351  -4.111   9.142  1.00  0.00    -0.237 OA
ATOM     98  O   UNL     1     -16.785  -5.524   7.705  1.00  0.00    -0.237 OA
ATOM     99  O   UNL     1     -17.374  -5.171  10.072  1.00  0.00    -0.744 OA
ENDBRANCH  92  96
ENDBRANCH  66  89
ENDBRANCH  40  41
ENDBRANCH  33  35
ENDBRANCH  32  33
ENDBRANCH  31  32
ENDBRANCH  30  31
ENDBRANCH  29  30
ENDBRANCH  28  29
ENDBRANCH   1  28
TORSDOF 25
