REMARK SMILES C[C@@H](C(=O)OCCOCCOCCOCCOC(=O)c1ccc(-c2c3nc(c(-c4cc(S(=O)(=O)[O-])ccc4F)c4ccc([nH]4)c(-c4cc(S(=O)(=O)[O-])ccc4F)c4nc(c(-c5cc(S(=O)(=O)[O-])ccc5F)c5ccc2[nH]5)C=C4)C=C3)cc1)c1ccc(C(=O)c2cccs2)cc1
REMARK SMILES IDX 11 1 10 2 9 3 8 4 7 5 6 6 5 7 3 8 4 9 2 10 1 11 83 12 84 13
REMARK SMILES IDX 95 14 85 15 94 16 86 17 87 18 88 19 89 20 90 21 93 22 91 23
REMARK SMILES IDX 92 24 12 25 13 26 14 27 15 28 16 29 17 30 18 31 19 32 20 33
REMARK SMILES IDX 21 34 82 35 22 36 81 37 23 38 24 39 25 40 75 41 26 42 80 43
REMARK SMILES IDX 74 44 76 45 27 46 79 47 73 48 72 49 28 51 60 52 40 53 59 54
REMARK SMILES IDX 41 55 44 56 58 57 77 58 42 59 43 60 57 62 78 63 45 64 29 65
REMARK SMILES IDX 30 66 38 67 31 68 37 69 39 70 36 71 32 72 33 73 34 74 35 75
REMARK SMILES IDX 61 76 62 77 70 78 63 79 69 80 71 81 68 82 64 83 65 84 66 85
REMARK SMILES IDX 67 86 46 87 47 88 55 89 48 90 54 91 56 92 53 93 49 94 50 95
REMARK SMILES IDX 51 96 52 97
REMARK H PARENT 76 50 44 61
REMARK Flexibility Score: inf
ROOT
ATOM      1  O   UNL     1       2.529   2.905   0.797  1.00  0.00    -0.377 OA
ENDROOT
BRANCH   1   2
ATOM      2  C   UNL     1       1.124   2.814   0.794  1.00  0.00     0.188 C 
BRANCH   2   3
ATOM      3  C   UNL     1       0.442   3.279   2.095  1.00  0.00     0.188 C 
BRANCH   3   4
ATOM      4  O   UNL     1       1.214   3.930   3.081  1.00  0.00    -0.376 OA
BRANCH   4   5
ATOM      5  C   UNL     1       2.366   3.291   3.612  1.00  0.00     0.202 C 
BRANCH   5   6
ATOM      6  C   UNL     1       2.553   1.758   3.709  1.00  0.00     0.261 C 
BRANCH   6   7
ATOM      7  O   UNL     1       2.047   0.929   2.646  1.00  0.00    -0.463 OA
BRANCH   7   8
ATOM      8  C   UNL     1       0.991   0.127   2.938  1.00  0.00     0.313 C 
ATOM      9  O   UNL     1       0.444   0.096   4.037  1.00  0.00    -0.252 OA
BRANCH   8  10
ATOM     10  C   UNL     1       0.519  -0.756   1.764  1.00  0.00     0.126 C 
ATOM     11  C   UNL     1       1.275  -0.696   0.432  1.00  0.00     0.025 C 
BRANCH  10  12
ATOM     12  C   UNL     1      -0.995  -0.659   1.564  1.00  0.00    -0.034 A 
ATOM     13  C   UNL     1      -1.655   0.556   1.329  1.00  0.00     0.005 A 
ATOM     14  C   UNL     1      -1.780  -1.807   1.669  1.00  0.00     0.005 A 
ATOM     15  C   UNL     1      -3.046   0.658   1.344  1.00  0.00     0.012 A 
ATOM     16  C   UNL     1      -3.177  -1.722   1.629  1.00  0.00     0.012 A 
ATOM     17  C   UNL     1      -3.824  -0.482   1.521  1.00  0.00     0.023 A 
BRANCH  17  18
ATOM     18  C   UNL     1      -5.314  -0.315   1.553  1.00  0.00     0.202 C 
ATOM     19  O   UNL     1      -5.786   0.820   1.513  1.00  0.00    -0.288 OA
BRANCH  18  20
ATOM     20  C   UNL     1      -6.137  -1.503   1.589  1.00  0.00     0.075 A 
ATOM     21  C   UNL     1      -6.194  -2.503   2.540  1.00  0.00     0.024 A 
ATOM     22  S   UNL     1      -7.204  -1.796   0.287  1.00  0.00    -0.140 S 
ATOM     23  C   UNL     1      -7.034  -3.577   2.129  1.00  0.00     0.012 A 
ATOM     24  C   UNL     1      -7.639  -3.324   0.918  1.00  0.00     0.065 A 
ENDBRANCH  18  20
ENDBRANCH  17  18
ENDBRANCH  10  12
ENDBRANCH   8  10
ENDBRANCH   7   8
ENDBRANCH   6   7
ENDBRANCH   5   6
ENDBRANCH   4   5
ENDBRANCH   3   4
ENDBRANCH   2   3
ENDBRANCH   1   2
BRANCH   1  25
ATOM     25  C   UNL     1       3.097   4.145   0.405  1.00  0.00     0.188 C 
BRANCH  25  26
ATOM     26  C   UNL     1       2.250   5.432   0.488  1.00  0.00     0.188 C 
BRANCH  26  27
ATOM     27  O   UNL     1       0.929   5.313  -0.030  1.00  0.00    -0.376 OA
BRANCH  27  28
ATOM     28  C   UNL     1       0.672   5.746  -1.358  1.00  0.00     0.202 C 
BRANCH  28  29
ATOM     29  C   UNL     1       1.321   4.948  -2.502  1.00  0.00     0.261 C 
BRANCH  29  30
ATOM     30  O   UNL     1       2.755   4.887  -2.509  1.00  0.00    -0.460 OA
BRANCH  30  31
ATOM     31  C   UNL     1       3.438   6.052  -2.511  1.00  0.00     0.338 C 
ATOM     32  O   UNL     1       2.966   7.175  -2.580  1.00  0.00    -0.246 OA
BRANCH  31  33
ATOM     33  C   UNL     1       4.848   5.742  -2.191  1.00  0.00     0.060 A 
ATOM     34  C   UNL     1       5.425   6.310  -1.047  1.00  0.00     0.016 A 
ATOM     35  C   UNL     1       5.585   4.873  -2.999  1.00  0.00     0.016 A 
ATOM     36  C   UNL     1       6.754   6.034  -0.724  1.00  0.00     0.010 A 
ATOM     37  C   UNL     1       6.924   4.621  -2.690  1.00  0.00     0.010 A 
ATOM     38  C   UNL     1       7.524   5.227  -1.571  1.00  0.00    -0.014 A 
BRANCH  38  39
ATOM     39  C   UNL     1       8.999   5.208  -1.419  1.00  0.00     0.031 A 
ATOM     40  C   UNL     1       9.807   6.127  -2.296  1.00  0.00     0.074 A 
ATOM     41  C   UNL     1       9.607   4.423  -0.512  1.00  0.00     0.049 A 
ATOM     42  N   UNL     1      11.104   6.254  -2.400  1.00  0.00    -0.248 NA
ATOM     43  C   UNL     1       9.041   7.021  -3.179  1.00  0.00     0.031 C 
ATOM     44  C   UNL     1       8.927   3.541   0.435  1.00  0.00     0.029 A 
ATOM     45  N   UNL     1      10.941   4.240  -0.243  1.00  0.00    -0.354 N 
ATOM     46  C   UNL     1      11.310   7.233  -3.366  1.00  0.00     0.074 A 
ATOM     47  C   UNL     1      10.005   7.639  -3.841  1.00  0.00     0.031 C 
ATOM     48  C   UNL     1       9.851   2.904   1.176  1.00  0.00     0.029 A 
ATOM     49  C   UNL     1      11.186   3.297   0.728  1.00  0.00     0.049 A 
ATOM     50  H   UNL     1      11.656   4.738  -0.703  1.00  0.00     0.167 HD
ATOM     51  C   UNL     1      12.481   7.748  -3.812  1.00  0.00     0.034 A 
ATOM     52  C   UNL     1      12.354   2.791   1.177  1.00  0.00     0.034 A 
ATOM     53  C   UNL     1      13.773   7.322  -3.334  1.00  0.00     0.049 A 
ATOM     54  C   UNL     1      13.649   3.306   0.588  1.00  0.00     0.074 A 
ATOM     55  C   UNL     1      15.023   7.785  -3.706  1.00  0.00     0.029 A 
ATOM     56  N   UNL     1      13.984   6.321  -2.394  1.00  0.00    -0.354 N 
ATOM     57  N   UNL     1      13.834   4.234  -0.324  1.00  0.00    -0.248 NA
ATOM     58  C   UNL     1      14.892   2.707   1.092  1.00  0.00     0.031 C 
ATOM     59  C   UNL     1      15.987   7.006  -3.060  1.00  0.00     0.029 A 
ATOM     60  C   UNL     1      15.343   6.124  -2.207  1.00  0.00     0.049 A 
ATOM     61  H   UNL     1      13.272   5.825  -1.929  1.00  0.00     0.167 HD
ATOM     62  C   UNL     1      15.215   4.356  -0.469  1.00  0.00     0.074 A 
ATOM     63  C   UNL     1      15.813   3.416   0.456  1.00  0.00     0.031 C 
ATOM     64  C   UNL     1      15.927   5.176  -1.285  1.00  0.00     0.034 A 
BRANCH  51  65
ATOM     65  C   UNL     1      12.413   8.778  -4.913  1.00  0.00     0.023 A 
ATOM     66  C   UNL     1      11.792  10.026  -4.731  1.00  0.00     0.031 A 
ATOM     67  C   UNL     1      12.957   8.493  -6.179  1.00  0.00     0.131 A 
ATOM     68  C   UNL     1      11.669  10.911  -5.813  1.00  0.00     0.055 A 
ATOM     69  C   UNL     1      12.907   9.414  -7.227  1.00  0.00     0.041 A 
ATOM     70  F   UNL     1      13.536   7.307  -6.423  1.00  0.00    -0.206 F 
ATOM     71  C   UNL     1      12.247  10.626  -7.052  1.00  0.00     0.022 A 
BRANCH  68  72
ATOM     72  S   UNL     1      10.613  12.374  -5.621  1.00  0.00     0.124 S 
ATOM     73  O   UNL     1       9.331  11.768  -5.270  1.00  0.00    -0.237 OA
ATOM     74  O   UNL     1      11.284  13.110  -4.557  1.00  0.00    -0.237 OA
ATOM     75  O   UNL     1      10.655  13.002  -6.940  1.00  0.00    -0.744 OA
ENDBRANCH  68  72
ENDBRANCH  51  65
BRANCH  52  76
ATOM     76  C   UNL     1      12.371   1.708   2.205  1.00  0.00     0.023 A 
ATOM     77  C   UNL     1      12.998   1.896   3.448  1.00  0.00     0.031 A 
ATOM     78  C   UNL     1      11.825   0.441   1.931  1.00  0.00     0.131 A 
ATOM     79  C   UNL     1      13.112   0.822   4.346  1.00  0.00     0.055 A 
ATOM     80  C   UNL     1      11.885  -0.606   2.853  1.00  0.00     0.041 A 
ATOM     81  F   UNL     1      11.222   0.200   0.756  1.00  0.00    -0.206 F 
ATOM     82  C   UNL     1      12.545  -0.422   4.064  1.00  0.00     0.022 A 
BRANCH  79  83
ATOM     83  S   UNL     1      14.107   1.046   5.846  1.00  0.00     0.124 S 
ATOM     84  O   UNL     1      15.403   1.413   5.288  1.00  0.00    -0.237 OA
ATOM     85  O   UNL     1      13.380   2.107   6.535  1.00  0.00    -0.237 OA
ATOM     86  O   UNL     1      14.051  -0.265   6.489  1.00  0.00    -0.744 OA
ENDBRANCH  79  83
ENDBRANCH  52  76
BRANCH  64  87
ATOM     87  C   UNL     1      17.434   5.134  -1.171  1.00  0.00     0.023 A 
ATOM     88  C   UNL     1      18.176   3.991  -1.517  1.00  0.00     0.031 A 
ATOM     89  C   UNL     1      18.137   6.261  -0.707  1.00  0.00     0.131 A 
ATOM     90  C   UNL     1      19.568   3.981  -1.336  1.00  0.00     0.055 A 
ATOM     91  C   UNL     1      19.528   6.269  -0.598  1.00  0.00     0.041 A 
ATOM     92  F   UNL     1      17.482   7.380  -0.359  1.00  0.00    -0.206 F 
ATOM     93  C   UNL     1      20.251   5.119  -0.900  1.00  0.00     0.022 A 
BRANCH  90  94
ATOM     94  S   UNL     1      20.467   2.424  -1.580  1.00  0.00     0.124 S 
ATOM     95  O   UNL     1      19.798   1.537  -0.634  1.00  0.00    -0.237 OA
ATOM     96  O   UNL     1      20.231   2.144  -2.992  1.00  0.00    -0.237 OA
ATOM     97  O   UNL     1      21.847   2.768  -1.239  1.00  0.00    -0.744 OA
ENDBRANCH  90  94
ENDBRANCH  64  87
ENDBRANCH  38  39
ENDBRANCH  31  33
ENDBRANCH  30  31
ENDBRANCH  29  30
ENDBRANCH  28  29
ENDBRANCH  27  28
ENDBRANCH  26  27
ENDBRANCH  25  26
ENDBRANCH   1  25
TORSDOF 26
