REMARK SMILES Cc1cc(C(=O)OCCOCCOCCOCCOC(=O)c2ccc(-c3c4nc(c(-c5cc(S(=O)(=O)[O-])ccc5F)c5ccc([nH]5)c(-c5cc(S(=O)(=O)[O-])ccc5F)c5nc(c(-c6cc(S(=O)(=O)[O-])ccc6F)c6ccc3[nH]6)C=C5)C=C4)cc2)ccc1NC(=O)N1C[C@@H](C)[C@H](C)C1
REMARK SMILES IDX 14 1 13 2 12 3 11 4 10 5 9 6 8 7 7 8 5 9 6 10 4 11 1 12 2 13
REMARK SMILES IDX 3 14 87 15 86 16 85 17 88 18 89 19 90 21 91 22 92 23 97 24
REMARK SMILES IDX 93 25 95 26 94 27 96 28 15 29 16 30 17 31 18 32 19 33 20 34
REMARK SMILES IDX 21 35 22 36 23 37 84 38 24 39 83 40 25 41 26 42 27 43 77 44
REMARK SMILES IDX 28 45 82 46 76 47 78 48 29 49 81 50 75 51 74 52 30 54 62 55
REMARK SMILES IDX 42 56 61 57 43 58 46 59 60 60 79 61 44 62 45 63 59 65 80 66
REMARK SMILES IDX 47 67 31 68 32 69 40 70 33 71 39 72 41 73 38 74 34 75 35 76
REMARK SMILES IDX 36 77 37 78 63 79 64 80 72 81 65 82 71 83 73 84 70 85 66 86
REMARK SMILES IDX 67 87 68 88 69 89 48 90 49 91 57 92 50 93 56 94 58 95 55 96
REMARK SMILES IDX 51 97 52 98 53 99 54 100
REMARK H PARENT 88 20 78 53 46 64
REMARK Flexibility Score: inf
ROOT
ATOM      1  C   UNL     1      -2.731  -1.945  -3.031  1.00  0.00     0.188 C 
ENDROOT
BRANCH   1   2
ATOM      2  O   UNL     1      -1.598  -1.207  -2.559  1.00  0.00    -0.377 OA
BRANCH   2   3
ATOM      3  C   UNL     1      -0.311  -1.540  -3.051  1.00  0.00     0.188 C 
BRANCH   3   4
ATOM      4  C   UNL     1       0.568  -2.434  -2.169  1.00  0.00     0.188 C 
BRANCH   4   5
ATOM      5  O   UNL     1       0.302  -3.833  -2.151  1.00  0.00    -0.376 OA
BRANCH   5   6
ATOM      6  C   UNL     1      -0.591  -4.280  -1.127  1.00  0.00     0.202 C 
BRANCH   6   7
ATOM      7  C   UNL     1      -0.108  -4.129   0.315  1.00  0.00     0.261 C 
BRANCH   7   8
ATOM      8  O   UNL     1      -0.380  -2.792   0.737  1.00  0.00    -0.460 OA
BRANCH   8   9
ATOM      9  C   UNL     1       0.583  -2.207   1.471  1.00  0.00     0.338 C 
ATOM     10  O   UNL     1       1.466  -2.752   2.103  1.00  0.00    -0.246 OA
BRANCH   9  11
ATOM     11  C   UNL     1       0.614  -0.787   1.063  1.00  0.00     0.060 A 
ATOM     12  C   UNL     1       3.448   1.471   0.067  1.00  0.00     0.046 C 
ATOM     13  C   UNL     1       2.037   1.072   0.406  1.00  0.00    -0.027 A 
ATOM     14  C   UNL     1       1.876  -0.204   0.965  1.00  0.00     0.021 A 
ATOM     15  C   UNL     1       0.891   1.803   0.038  1.00  0.00     0.045 A 
ATOM     16  C   UNL     1      -0.330   1.135  -0.038  1.00  0.00     0.027 A 
ATOM     17  C   UNL     1      -0.487  -0.133   0.513  1.00  0.00     0.018 A 
BRANCH  15  18
ATOM     18  N   UNL     1       1.009   3.172  -0.245  1.00  0.00    -0.308 N 
ATOM     19  C   UNL     1       0.116   4.168  -0.461  1.00  0.00     0.321 C 
ATOM     20  H   UNL     1       1.944   3.475  -0.297  1.00  0.00     0.171 HD
ATOM     21  O   UNL     1       0.566   5.206  -0.963  1.00  0.00    -0.248 OA
ATOM     22  N   UNL     1      -1.202   4.047  -0.136  1.00  0.00    -0.324 N 
ATOM     23  C   UNL     1      -2.186   4.831  -0.863  1.00  0.00     0.125 C 
ATOM     24  C   UNL     1      -1.748   3.621   1.157  1.00  0.00     0.125 C 
ATOM     25  C   UNL     1      -3.250   5.189   0.169  1.00  0.00     0.010 C 
ATOM     26  C   UNL     1      -3.244   3.955   1.083  1.00  0.00     0.010 C 
ATOM     27  C   UNL     1      -4.592   5.493  -0.472  1.00  0.00     0.010 C 
ATOM     28  C   UNL     1      -3.878   4.188   2.448  1.00  0.00     0.010 C 
ENDBRANCH  15  18
ENDBRANCH   9  11
ENDBRANCH   8   9
ENDBRANCH   7   8
ENDBRANCH   6   7
ENDBRANCH   5   6
ENDBRANCH   4   5
ENDBRANCH   3   4
ENDBRANCH   2   3
ENDBRANCH   1   2
BRANCH   1  29
ATOM     29  C   UNL     1      -2.733  -2.410  -4.487  1.00  0.00     0.188 C 
BRANCH  29  30
ATOM     30  O   UNL     1      -1.924  -3.593  -4.579  1.00  0.00    -0.376 OA
BRANCH  30  31
ATOM     31  C   UNL     1      -1.306  -3.809  -5.842  1.00  0.00     0.202 C 
BRANCH  31  32
ATOM     32  C   UNL     1      -2.293  -4.177  -6.953  1.00  0.00     0.261 C 
BRANCH  32  33
ATOM     33  O   UNL     1      -2.842  -5.485  -6.704  1.00  0.00    -0.460 OA
BRANCH  33  34
ATOM     34  C   UNL     1      -4.152  -5.482  -6.340  1.00  0.00     0.338 C 
ATOM     35  O   UNL     1      -5.074  -5.156  -7.066  1.00  0.00    -0.246 OA
BRANCH  34  36
ATOM     36  C   UNL     1      -4.284  -5.867  -4.909  1.00  0.00     0.060 A 
ATOM     37  C   UNL     1      -5.471  -5.601  -4.211  1.00  0.00     0.016 A 
ATOM     38  C   UNL     1      -3.163  -6.311  -4.215  1.00  0.00     0.016 A 
ATOM     39  C   UNL     1      -5.485  -5.639  -2.808  1.00  0.00     0.010 A 
ATOM     40  C   UNL     1      -3.163  -6.272  -2.834  1.00  0.00     0.010 A 
ATOM     41  C   UNL     1      -4.297  -5.880  -2.110  1.00  0.00    -0.014 A 
BRANCH  41  42
ATOM     42  C   UNL     1      -4.053  -5.500  -0.701  1.00  0.00     0.031 A 
ATOM     43  C   UNL     1      -3.329  -6.404   0.253  1.00  0.00     0.074 A 
ATOM     44  C   UNL     1      -4.118  -4.173  -0.409  1.00  0.00     0.049 A 
ATOM     45  N   UNL     1      -3.089  -6.114   1.490  1.00  0.00    -0.248 NA
ATOM     46  C   UNL     1      -2.806  -7.728  -0.090  1.00  0.00     0.031 C 
ATOM     47  C   UNL     1      -3.385  -3.466   0.640  1.00  0.00     0.029 A 
ATOM     48  N   UNL     1      -4.859  -3.151  -0.998  1.00  0.00    -0.354 N 
ATOM     49  C   UNL     1      -2.075  -6.936   1.938  1.00  0.00     0.074 A 
ATOM     50  C   UNL     1      -2.060  -8.017   0.986  1.00  0.00     0.031 C 
ATOM     51  C   UNL     1      -3.799  -2.195   0.724  1.00  0.00     0.029 A 
ATOM     52  C   UNL     1      -4.996  -2.110  -0.074  1.00  0.00     0.049 A 
ATOM     53  H   UNL     1      -5.225  -3.160  -1.912  1.00  0.00     0.167 HD
ATOM     54  C   UNL     1      -1.261  -6.510   2.955  1.00  0.00     0.034 A 
ATOM     55  C   UNL     1      -6.200  -1.702   0.420  1.00  0.00     0.034 A 
ATOM     56  C   UNL     1      -1.766  -5.277   3.591  1.00  0.00     0.049 A 
ATOM     57  C   UNL     1      -6.287  -2.029   1.903  1.00  0.00     0.074 A 
ATOM     58  C   UNL     1      -1.205  -4.056   3.926  1.00  0.00     0.029 A 
ATOM     59  N   UNL     1      -3.131  -5.147   3.861  1.00  0.00    -0.354 N 
ATOM     60  N   UNL     1      -5.492  -2.900   2.476  1.00  0.00    -0.248 NA
ATOM     61  C   UNL     1      -7.150  -1.369   2.876  1.00  0.00     0.031 C 
ATOM     62  C   UNL     1      -2.263  -3.159   4.262  1.00  0.00     0.029 A 
ATOM     63  C   UNL     1      -3.460  -3.859   4.223  1.00  0.00     0.049 A 
ATOM     64  H   UNL     1      -3.779  -5.886   3.800  1.00  0.00     0.167 HD
ATOM     65  C   UNL     1      -5.624  -2.848   3.830  1.00  0.00     0.074 A 
ATOM     66  C   UNL     1      -6.723  -1.916   4.032  1.00  0.00     0.031 C 
ATOM     67  C   UNL     1      -4.807  -3.541   4.680  1.00  0.00     0.034 A 
BRANCH  54  68
ATOM     68  C   UNL     1       0.133  -7.071   3.277  1.00  0.00     0.023 A 
ATOM     69  C   UNL     1       0.814  -6.644   4.446  1.00  0.00     0.031 A 
ATOM     70  C   UNL     1       0.892  -7.915   2.433  1.00  0.00     0.131 A 
ATOM     71  C   UNL     1       2.146  -7.039   4.722  1.00  0.00     0.055 A 
ATOM     72  C   UNL     1       2.185  -8.367   2.747  1.00  0.00     0.041 A 
ATOM     73  F   UNL     1       0.460  -8.296   1.225  1.00  0.00    -0.206 F 
ATOM     74  C   UNL     1       2.822  -7.925   3.892  1.00  0.00     0.022 A 
BRANCH  71  75
ATOM     75  S   UNL     1       3.021  -6.364   6.169  1.00  0.00     0.124 S 
ATOM     76  O   UNL     1       3.268  -4.984   5.769  1.00  0.00    -0.237 OA
ATOM     77  O   UNL     1       2.058  -6.565   7.247  1.00  0.00    -0.237 OA
ATOM     78  O   UNL     1       4.219  -7.200   6.260  1.00  0.00    -0.744 OA
ENDBRANCH  71  75
ENDBRANCH  54  68
BRANCH  55  79
ATOM     79  C   UNL     1      -7.239  -1.618  -0.645  1.00  0.00     0.023 A 
ATOM     80  C   UNL     1      -6.983  -0.617  -1.614  1.00  0.00     0.031 A 
ATOM     81  C   UNL     1      -7.964  -2.750  -1.052  1.00  0.00     0.131 A 
ATOM     82  C   UNL     1      -7.226  -0.868  -2.972  1.00  0.00     0.055 A 
ATOM     83  C   UNL     1      -8.253  -2.971  -2.409  1.00  0.00     0.041 A 
ATOM     84  F   UNL     1      -8.195  -3.754  -0.195  1.00  0.00    -0.206 F 
ATOM     85  C   UNL     1      -7.831  -2.058  -3.379  1.00  0.00     0.022 A 
BRANCH  82  86
ATOM     86  S   UNL     1      -6.477   0.221  -4.229  1.00  0.00     0.124 S 
ATOM     87  O   UNL     1      -7.599   1.081  -4.587  1.00  0.00    -0.237 OA
ATOM     88  O   UNL     1      -5.388   0.870  -3.507  1.00  0.00    -0.237 OA
ATOM     89  O   UNL     1      -6.045  -0.724  -5.258  1.00  0.00    -0.744 OA
ENDBRANCH  82  86
ENDBRANCH  55  79
BRANCH  67  90
ATOM     90  C   UNL     1      -5.198  -3.963   6.074  1.00  0.00     0.023 A 
ATOM     91  C   UNL     1      -6.528  -3.938   6.505  1.00  0.00     0.031 A 
ATOM     92  C   UNL     1      -4.273  -4.583   6.952  1.00  0.00     0.131 A 
ATOM     93  C   UNL     1      -6.890  -4.442   7.762  1.00  0.00     0.055 A 
ATOM     94  C   UNL     1      -4.650  -5.159   8.166  1.00  0.00     0.041 A 
ATOM     95  F   UNL     1      -2.970  -4.691   6.656  1.00  0.00    -0.206 F 
ATOM     96  C   UNL     1      -5.967  -5.081   8.586  1.00  0.00     0.022 A 
BRANCH  93  97
ATOM     97  S   UNL     1      -8.594  -4.185   8.303  1.00  0.00     0.124 S 
ATOM     98  O   UNL     1      -8.683  -2.727   8.318  1.00  0.00    -0.237 OA
ATOM     99  O   UNL     1      -9.360  -4.854   7.257  1.00  0.00    -0.237 OA
ATOM    100  O   UNL     1      -8.639  -4.825   9.616  1.00  0.00    -0.744 OA
ENDBRANCH  93  97
ENDBRANCH  67  90
ENDBRANCH  41  42
ENDBRANCH  34  36
ENDBRANCH  33  34
ENDBRANCH  32  33
ENDBRANCH  31  32
ENDBRANCH  30  31
ENDBRANCH  29  30
ENDBRANCH   1  29
TORSDOF 24
