REMARK SMILES O=C(OCCOCCOCCOCCOC(=O)c1cccc(Nc2ccc([N+](=O)[O-])cc2)c1)c1ccc(-c2c3nc(c(-c4cc(S(=O)(=O)[O-])ccc4F)c4ccc([nH]4)c(-c4cc(S(=O)(=O)[O-])ccc4F)c4nc(c(-c5cc(S(=O)(=O)[O-])ccc5F)c5ccc2[nH]5)C=C4)C=C3)cc1
REMARK SMILES IDX 9 1 8 2 7 3 6 4 5 5 4 6 3 7 2 8 1 9 34 10 35 11 96 12 36 13
REMARK SMILES IDX 95 14 37 15 38 16 39 17 89 18 40 19 94 20 88 21 90 22 41 23
REMARK SMILES IDX 93 24 87 25 86 26 42 28 74 29 54 30 73 31 55 32 58 33 72 34
REMARK SMILES IDX 91 35 56 36 57 37 71 39 92 40 59 41 43 42 44 43 52 44 45 45
REMARK SMILES IDX 51 46 53 47 50 48 46 49 47 50 48 51 49 52 75 53 76 54 84 55
REMARK SMILES IDX 77 56 83 57 85 58 82 59 78 60 79 61 80 62 81 63 60 64 61 65
REMARK SMILES IDX 69 66 62 67 68 68 70 69 67 70 63 71 64 72 65 73 66 74 10 75
REMARK SMILES IDX 11 76 12 77 13 78 14 79 15 80 16 81 17 82 18 83 19 84 33 85
REMARK SMILES IDX 20 86 22 87 21 88 23 89 24 91 25 92 32 93 26 94 31 95 27 96
REMARK SMILES IDX 28 97 29 98 30 99
REMARK H PARENT 90 27 58 38 23 90
REMARK Flexibility Score: inf
ROOT
ATOM      1  O   UNL     1       2.663   0.402   3.933  1.00  0.00    -0.377 OA
ENDROOT
BRANCH   1   2
ATOM      2  C   UNL     1       1.936   0.006   2.771  1.00  0.00     0.188 C 
BRANCH   2   3
ATOM      3  C   UNL     1       2.416   0.616   1.452  1.00  0.00     0.188 C 
BRANCH   3   4
ATOM      4  O   UNL     1       3.737   0.185   1.148  1.00  0.00    -0.376 OA
BRANCH   4   5
ATOM      5  C   UNL     1       4.606   1.111   0.504  1.00  0.00     0.202 C 
BRANCH   5   6
ATOM      6  C   UNL     1       4.267   1.429  -0.953  1.00  0.00     0.261 C 
BRANCH   6   7
ATOM      7  O   UNL     1       2.898   1.167  -1.300  1.00  0.00    -0.460 OA
BRANCH   7   8
ATOM      8  C   UNL     1       2.363   0.018  -1.785  1.00  0.00     0.338 C 
ATOM      9  O   UNL     1       1.178   0.023  -2.119  1.00  0.00    -0.246 OA
BRANCH   8  10
ATOM     10  C   UNL     1       3.123  -1.259  -1.935  1.00  0.00     0.060 A 
ATOM     11  C   UNL     1       4.164  -1.669  -1.105  1.00  0.00     0.016 A 
ATOM     12  C   UNL     1       2.681  -2.159  -2.916  1.00  0.00     0.016 A 
ATOM     13  C   UNL     1       4.808  -2.879  -1.273  1.00  0.00     0.010 A 
ATOM     14  C   UNL     1       3.292  -3.410  -3.067  1.00  0.00     0.010 A 
ATOM     15  C   UNL     1       4.374  -3.760  -2.252  1.00  0.00    -0.014 A 
BRANCH  15  16
ATOM     16  C   UNL     1       5.185  -4.966  -2.473  1.00  0.00     0.031 A 
ATOM     17  C   UNL     1       6.060  -4.996  -3.686  1.00  0.00     0.074 A 
ATOM     18  C   UNL     1       5.247  -5.914  -1.518  1.00  0.00     0.049 A 
ATOM     19  N   UNL     1       6.797  -5.963  -4.151  1.00  0.00    -0.248 NA
ATOM     20  C   UNL     1       6.124  -3.753  -4.479  1.00  0.00     0.031 C 
ATOM     21  C   UNL     1       4.555  -5.856  -0.225  1.00  0.00     0.029 A 
ATOM     22  N   UNL     1       5.942  -7.091  -1.466  1.00  0.00    -0.354 N 
ATOM     23  C   UNL     1       7.375  -5.466  -5.312  1.00  0.00     0.074 A 
ATOM     24  C   UNL     1       6.913  -4.108  -5.480  1.00  0.00     0.031 C 
ATOM     25  C   UNL     1       4.873  -6.944   0.494  1.00  0.00     0.029 A 
ATOM     26  C   UNL     1       5.703  -7.820  -0.323  1.00  0.00     0.049 A 
ATOM     27  H   UNL     1       6.555  -7.388  -2.177  1.00  0.00     0.167 HD
ATOM     28  C   UNL     1       8.204  -6.112  -6.164  1.00  0.00     0.034 A 
ATOM     29  C   UNL     1       6.067  -9.080  -0.016  1.00  0.00     0.034 A 
ATOM     30  C   UNL     1       8.630  -7.468  -5.942  1.00  0.00     0.049 A 
ATOM     31  C   UNL     1       6.882  -9.824  -1.048  1.00  0.00     0.074 A 
ATOM     32  C   UNL     1       9.410  -8.274  -6.747  1.00  0.00     0.029 A 
ATOM     33  N   UNL     1       8.296  -8.221  -4.820  1.00  0.00    -0.354 N 
ATOM     34  N   UNL     1       7.359  -9.385  -2.194  1.00  0.00    -0.248 NA
ATOM     35  C   UNL     1       7.196 -11.227  -0.763  1.00  0.00     0.031 C 
ATOM     36  C   UNL     1       9.483  -9.536  -6.149  1.00  0.00     0.029 A 
ATOM     37  C   UNL     1       8.823  -9.494  -4.929  1.00  0.00     0.049 A 
ATOM     38  H   UNL     1       7.762  -7.895  -4.059  1.00  0.00     0.167 HD
ATOM     39  C   UNL     1       8.047 -10.455  -2.755  1.00  0.00     0.074 A 
ATOM     40  C   UNL     1       7.948 -11.546  -1.804  1.00  0.00     0.031 C 
ATOM     41  C   UNL     1       8.694 -10.544  -3.946  1.00  0.00     0.034 A 
BRANCH  28  42
ATOM     42  C   UNL     1       8.578  -5.401  -7.437  1.00  0.00     0.023 A 
ATOM     43  C   UNL     1       9.380  -4.247  -7.450  1.00  0.00     0.031 A 
ATOM     44  C   UNL     1       8.061  -5.860  -8.662  1.00  0.00     0.131 A 
ATOM     45  C   UNL     1       9.593  -3.559  -8.656  1.00  0.00     0.055 A 
ATOM     46  C   UNL     1       8.337  -5.214  -9.867  1.00  0.00     0.041 A 
ATOM     47  F   UNL     1       7.256  -6.934  -8.704  1.00  0.00    -0.206 F 
ATOM     48  C   UNL     1       9.099  -4.050  -9.868  1.00  0.00     0.022 A 
BRANCH  45  49
ATOM     49  S   UNL     1      10.420  -1.945  -8.607  1.00  0.00     0.124 S 
ATOM     50  O   UNL     1       9.485  -1.159  -7.806  1.00  0.00    -0.237 OA
ATOM     51  O   UNL     1      11.695  -2.260  -7.972  1.00  0.00    -0.237 OA
ATOM     52  O   UNL     1      10.504  -1.559 -10.014  1.00  0.00    -0.744 OA
ENDBRANCH  45  49
ENDBRANCH  28  42
BRANCH  29  53
ATOM     53  C   UNL     1       5.585  -9.753   1.230  1.00  0.00     0.023 A 
ATOM     54  C   UNL     1       6.481 -10.341   2.138  1.00  0.00     0.031 A 
ATOM     55  C   UNL     1       4.208  -9.911   1.485  1.00  0.00     0.131 A 
ATOM     56  C   UNL     1       5.995 -11.112   3.207  1.00  0.00     0.055 A 
ATOM     57  C   UNL     1       3.730 -10.614   2.592  1.00  0.00     0.041 A 
ATOM     58  F   UNL     1       3.295  -9.388   0.650  1.00  0.00    -0.206 F 
ATOM     59  C   UNL     1       4.627 -11.240   3.450  1.00  0.00     0.022 A 
BRANCH  56  60
ATOM     60  S   UNL     1       7.179 -12.074   4.192  1.00  0.00     0.124 S 
ATOM     61  O   UNL     1       7.881 -12.825   3.158  1.00  0.00    -0.237 OA
ATOM     62  O   UNL     1       7.944 -11.023   4.854  1.00  0.00    -0.237 OA
ATOM     63  O   UNL     1       6.323 -12.870   5.069  1.00  0.00    -0.744 OA
ENDBRANCH  56  60
ENDBRANCH  29  53
BRANCH  41  64
ATOM     64  C   UNL     1       9.372 -11.854  -4.243  1.00  0.00     0.023 A 
ATOM     65  C   UNL     1       8.633 -13.029  -4.459  1.00  0.00     0.031 A 
ATOM     66  C   UNL     1      10.774 -11.922  -4.313  1.00  0.00     0.131 A 
ATOM     67  C   UNL     1       9.305 -14.238  -4.676  1.00  0.00     0.055 A 
ATOM     68  C   UNL     1      11.433 -13.115  -4.603  1.00  0.00     0.041 A 
ATOM     69  F   UNL     1      11.522 -10.825  -4.113  1.00  0.00    -0.206 F 
ATOM     70  C   UNL     1      10.698 -14.285  -4.771  1.00  0.00     0.022 A 
BRANCH  67  71
ATOM     71  S   UNL     1       8.334 -15.767  -4.731  1.00  0.00     0.124 S 
ATOM     72  O   UNL     1       7.694 -15.766  -3.420  1.00  0.00    -0.237 OA
ATOM     73  O   UNL     1       7.452 -15.536  -5.871  1.00  0.00    -0.237 OA
ATOM     74  O   UNL     1       9.343 -16.806  -4.929  1.00  0.00    -0.744 OA
ENDBRANCH  67  71
ENDBRANCH  41  64
ENDBRANCH  15  16
ENDBRANCH   8  10
ENDBRANCH   7   8
ENDBRANCH   6   7
ENDBRANCH   5   6
ENDBRANCH   4   5
ENDBRANCH   3   4
ENDBRANCH   2   3
ENDBRANCH   1   2
BRANCH   1  75
ATOM     75  C   UNL     1       4.085   0.356   3.841  1.00  0.00     0.188 C 
BRANCH  75  76
ATOM     76  C   UNL     1       4.774  -0.987   3.491  1.00  0.00     0.188 C 
BRANCH  76  77
ATOM     77  O   UNL     1       3.878  -2.025   3.124  1.00  0.00    -0.376 OA
BRANCH  77  78
ATOM     78  C   UNL     1       3.735  -3.080   4.068  1.00  0.00     0.202 C 
BRANCH  78  79
ATOM     79  C   UNL     1       3.069  -2.716   5.407  1.00  0.00     0.261 C 
BRANCH  79  80
ATOM     80  O   UNL     1       3.610  -1.573   6.097  1.00  0.00    -0.460 OA
BRANCH  80  81
ATOM     81  C   UNL     1       4.829  -1.688   6.668  1.00  0.00     0.338 C 
ATOM     82  O   UNL     1       5.527  -2.684   6.721  1.00  0.00    -0.246 OA
BRANCH  81  83
ATOM     83  C   UNL     1       5.278  -0.323   7.035  1.00  0.00     0.062 A 
ATOM     84  C   UNL     1       6.461   0.174   6.474  1.00  0.00     0.016 A 
ATOM     85  C   UNL     1       4.484   0.497   7.845  1.00  0.00     0.041 A 
ATOM     86  C   UNL     1       6.813   1.506   6.679  1.00  0.00     0.003 A 
ATOM     87  C   UNL     1       4.888   1.807   8.143  1.00  0.00     0.039 A 
ATOM     88  C   UNL     1       6.035   2.312   7.515  1.00  0.00     0.026 A 
BRANCH  87  89
ATOM     89  N   UNL     1       4.133   2.557   9.072  1.00  0.00    -0.355 N 
ATOM     90  H   UNL     1       3.197   2.279   9.199  1.00  0.00     0.167 HD
BRANCH  89  91
ATOM     91  C   UNL     1       4.568   3.655   9.834  1.00  0.00     0.039 A 
ATOM     92  C   UNL     1       4.890   3.462  11.185  1.00  0.00     0.033 A 
ATOM     93  C   UNL     1       4.750   4.920   9.264  1.00  0.00     0.033 A 
ATOM     94  C   UNL     1       5.375   4.515  11.963  1.00  0.00     0.088 A 
ATOM     95  C   UNL     1       5.227   5.987  10.033  1.00  0.00     0.088 A 
ATOM     96  C   UNL     1       5.536   5.779  11.384  1.00  0.00     0.269 A 
BRANCH  96  97
ATOM     97  N   UNL     1       6.030   6.893  12.201  1.00  0.00     0.062 N 
ATOM     98  O   UNL     1       6.261   6.673  13.399  1.00  0.00    -0.258 OA
ATOM     99  O   UNL     1       6.182   7.992  11.649  1.00  0.00    -0.258 OA
ENDBRANCH  96  97
ENDBRANCH  89  91
ENDBRANCH  87  89
ENDBRANCH  81  83
ENDBRANCH  80  81
ENDBRANCH  79  80
ENDBRANCH  78  79
ENDBRANCH  77  78
ENDBRANCH  76  77
ENDBRANCH  75  76
ENDBRANCH   1  75
TORSDOF 26
