REMARK SMILES C[C@@H](CC(=O)OCCOCCOCCOCCOC(=O)c1ccc(-c2c3nc(c(-c4cc(S(=O)(=O)[O-])ccc4F)c4ccc([nH]4)c(-c4cc(S(=O)(=O)[O-])ccc4F)c4nc(c(-c5cc(S(=O)(=O)[O-])ccc5F)c5ccc2[nH]5)C=C4)C=C3)cc1)NC(=O)CN(C)c1ncccn1
REMARK SMILES IDX 11 1 10 2 9 3 8 4 7 5 6 6 4 7 5 8 3 9 2 10 1 11 84 12 85 13
REMARK SMILES IDX 86 15 87 16 88 17 89 18 90 19 91 20 95 21 92 22 94 23 93 24
REMARK SMILES IDX 12 25 13 26 14 27 15 28 16 29 17 30 18 31 19 32 20 33 21 34
REMARK SMILES IDX 22 35 83 36 23 37 82 38 24 39 25 40 26 41 76 42 27 43 81 44
REMARK SMILES IDX 75 45 77 46 28 47 80 48 74 49 73 50 29 52 61 53 41 54 60 55
REMARK SMILES IDX 42 56 45 57 59 58 78 59 43 60 44 61 58 63 79 64 46 65 30 66
REMARK SMILES IDX 31 67 39 68 32 69 38 70 40 71 37 72 33 73 34 74 35 75 36 76
REMARK SMILES IDX 62 77 63 78 71 79 64 80 70 81 72 82 69 83 65 84 66 85 67 86
REMARK SMILES IDX 68 87 47 88 48 89 56 90 49 91 55 92 57 93 54 94 50 95 51 96
REMARK SMILES IDX 52 97 53 98
REMARK H PARENT 84 14 77 51 45 62
REMARK Flexibility Score: inf
ROOT
ATOM      1  C   UNL     1      -1.619  -1.759   2.268  1.00  0.00     0.188 C 
ENDROOT
BRANCH   1   2
ATOM      2  C   UNL     1      -1.518  -2.545   3.572  1.00  0.00     0.188 C 
BRANCH   2   3
ATOM      3  O   UNL     1      -1.267  -1.876   4.792  1.00  0.00    -0.376 OA
BRANCH   3   4
ATOM      4  C   UNL     1      -0.221  -0.916   4.887  1.00  0.00     0.202 C 
BRANCH   4   5
ATOM      5  C   UNL     1       1.158  -1.173   4.246  1.00  0.00     0.261 C 
BRANCH   5   6
ATOM      6  O   UNL     1       1.188  -1.178   2.795  1.00  0.00    -0.463 OA
BRANCH   6   7
ATOM      7  C   UNL     1       1.656  -2.292   2.196  1.00  0.00     0.307 C 
ATOM      8  O   UNL     1       2.085  -3.266   2.815  1.00  0.00    -0.252 OA
BRANCH   7   9
ATOM      9  C   UNL     1       1.609  -2.337   0.673  1.00  0.00     0.147 C 
BRANCH   9  10
ATOM     10  C   UNL     1       1.113  -1.229  -0.279  1.00  0.00     0.090 C 
ATOM     11  C   UNL     1       1.646   0.163   0.006  1.00  0.00     0.031 C 
BRANCH  10  12
ATOM     12  N   UNL     1      -0.335  -1.187  -0.439  1.00  0.00    -0.352 N 
ATOM     13  C   UNL     1      -1.146  -1.778  -1.370  1.00  0.00     0.239 C 
ATOM     14  H   UNL     1      -0.807  -0.645   0.234  1.00  0.00     0.163 HD
ATOM     15  O   UNL     1      -2.322  -2.009  -1.067  1.00  0.00    -0.273 OA
BRANCH  13  16
ATOM     16  C   UNL     1      -0.591  -2.194  -2.737  1.00  0.00     0.219 C 
BRANCH  16  17
ATOM     17  N   UNL     1       0.062  -1.117  -3.481  1.00  0.00    -0.335 N 
ATOM     18  C   UNL     1       1.440  -1.222  -3.896  1.00  0.00     0.147 C 
BRANCH  17  19
ATOM     19  C   UNL     1      -0.601   0.064  -3.732  1.00  0.00     0.225 A 
ATOM     20  N   UNL     1      -0.095   0.907  -4.648  1.00  0.00    -0.221 NA
ATOM     21  N   UNL     1      -1.702   0.356  -3.026  1.00  0.00    -0.221 NA
ATOM     22  C   UNL     1      -0.720   2.089  -4.824  1.00  0.00     0.117 A 
ATOM     23  C   UNL     1      -2.262   1.569  -3.189  1.00  0.00     0.117 A 
ATOM     24  C   UNL     1      -1.809   2.489  -4.095  1.00  0.00     0.040 A 
ENDBRANCH  17  19
ENDBRANCH  16  17
ENDBRANCH  13  16
ENDBRANCH  10  12
ENDBRANCH   9  10
ENDBRANCH   7   9
ENDBRANCH   6   7
ENDBRANCH   5   6
ENDBRANCH   4   5
ENDBRANCH   3   4
ENDBRANCH   2   3
ENDBRANCH   1   2
BRANCH   1  25
ATOM     25  O   UNL     1      -1.196  -0.407   2.282  1.00  0.00    -0.377 OA
BRANCH  25  26
ATOM     26  C   UNL     1      -2.131   0.625   2.586  1.00  0.00     0.188 C 
BRANCH  26  27
ATOM     27  C   UNL     1      -3.476   0.240   3.209  1.00  0.00     0.188 C 
BRANCH  27  28
ATOM     28  O   UNL     1      -4.142  -0.783   2.492  1.00  0.00    -0.376 OA
BRANCH  28  29
ATOM     29  C   UNL     1      -5.013  -0.451   1.422  1.00  0.00     0.202 C 
BRANCH  29  30
ATOM     30  C   UNL     1      -4.550   0.444   0.256  1.00  0.00     0.261 C 
BRANCH  30  31
ATOM     31  O   UNL     1      -4.029   1.751   0.554  1.00  0.00    -0.460 OA
BRANCH  31  32
ATOM     32  C   UNL     1      -4.756   2.589   1.315  1.00  0.00     0.338 C 
ATOM     33  O   UNL     1      -5.878   2.392   1.758  1.00  0.00    -0.246 OA
BRANCH  32  34
ATOM     34  C   UNL     1      -3.885   3.726   1.684  1.00  0.00     0.060 A 
ATOM     35  C   UNL     1      -3.648   3.994   3.038  1.00  0.00     0.016 A 
ATOM     36  C   UNL     1      -3.320   4.539   0.697  1.00  0.00     0.016 A 
ATOM     37  C   UNL     1      -2.895   5.109   3.411  1.00  0.00     0.010 A 
ATOM     38  C   UNL     1      -2.579   5.665   1.073  1.00  0.00     0.010 A 
ATOM     39  C   UNL     1      -2.402   5.981   2.432  1.00  0.00    -0.014 A 
BRANCH  39  40
ATOM     40  C   UNL     1      -1.909   7.328   2.824  1.00  0.00     0.031 A 
ATOM     41  C   UNL     1      -2.849   8.497   2.676  1.00  0.00     0.074 A 
ATOM     42  C   UNL     1      -0.675   7.514   3.326  1.00  0.00     0.049 A 
ATOM     43  N   UNL     1      -2.637   9.771   2.882  1.00  0.00    -0.248 NA
ATOM     44  C   UNL     1      -4.214   8.179   2.226  1.00  0.00     0.031 C 
ATOM     45  C   UNL     1       0.304   6.458   3.573  1.00  0.00     0.029 A 
ATOM     46  N   UNL     1      -0.033   8.665   3.714  1.00  0.00    -0.354 N 
ATOM     47  C   UNL     1      -3.838  10.407   2.580  1.00  0.00     0.074 A 
ATOM     48  C   UNL     1      -4.756   9.382   2.134  1.00  0.00     0.031 C 
ATOM     49  C   UNL     1       1.427   7.012   4.064  1.00  0.00     0.029 A 
ATOM     50  C   UNL     1       1.264   8.464   4.124  1.00  0.00     0.049 A 
ATOM     51  H   UNL     1      -0.462   9.551   3.700  1.00  0.00     0.167 HD
ATOM     52  C   UNL     1      -4.149  11.724   2.676  1.00  0.00     0.034 A 
ATOM     53  C   UNL     1       2.217   9.352   4.479  1.00  0.00     0.034 A 
ATOM     54  C   UNL     1      -3.218  12.735   3.112  1.00  0.00     0.049 A 
ATOM     55  C   UNL     1       1.880  10.827   4.480  1.00  0.00     0.074 A 
ATOM     56  C   UNL     1      -3.426  14.096   3.250  1.00  0.00     0.029 A 
ATOM     57  N   UNL     1      -1.896  12.499   3.471  1.00  0.00    -0.354 N 
ATOM     58  N   UNL     1       0.743  11.419   4.187  1.00  0.00    -0.248 NA
ATOM     59  C   UNL     1       2.952  11.753   4.870  1.00  0.00     0.031 C 
ATOM     60  C   UNL     1      -2.213  14.692   3.608  1.00  0.00     0.029 A 
ATOM     61  C   UNL     1      -1.270  13.694   3.794  1.00  0.00     0.049 A 
ATOM     62  H   UNL     1      -1.467  11.614   3.493  1.00  0.00     0.167 HD
ATOM     63  C   UNL     1       0.956  12.780   4.401  1.00  0.00     0.074 A 
ATOM     64  C   UNL     1       2.324  12.918   4.855  1.00  0.00     0.031 C 
ATOM     65  C   UNL     1       0.097  13.821   4.244  1.00  0.00     0.034 A 
BRANCH  52  66
ATOM     66  C   UNL     1      -5.534  12.144   2.245  1.00  0.00     0.023 A 
ATOM     67  C   UNL     1      -6.689  11.683   2.902  1.00  0.00     0.031 A 
ATOM     68  C   UNL     1      -5.705  12.994   1.138  1.00  0.00     0.131 A 
ATOM     69  C   UNL     1      -7.958  12.013   2.402  1.00  0.00     0.055 A 
ATOM     70  C   UNL     1      -6.969  13.391   0.700  1.00  0.00     0.041 A 
ATOM     71  F   UNL     1      -4.642  13.444   0.452  1.00  0.00    -0.206 F 
ATOM     72  C   UNL     1      -8.106  12.887   1.323  1.00  0.00     0.022 A 
BRANCH  69  73
ATOM     73  S   UNL     1      -9.406  11.157   3.081  1.00  0.00     0.124 S 
ATOM     74  O   UNL     1      -9.068   9.759   2.824  1.00  0.00    -0.237 OA
ATOM     75  O   UNL     1      -9.390  11.571   4.479  1.00  0.00    -0.237 OA
ATOM     76  O   UNL     1     -10.516  11.678   2.287  1.00  0.00    -0.744 OA
ENDBRANCH  69  73
ENDBRANCH  52  66
BRANCH  53  77
ATOM     77  C   UNL     1       3.596   8.893   4.823  1.00  0.00     0.023 A 
ATOM     78  C   UNL     1       4.148   9.134   6.092  1.00  0.00     0.031 A 
ATOM     79  C   UNL     1       4.411   8.270   3.861  1.00  0.00     0.131 A 
ATOM     80  C   UNL     1       5.489   8.805   6.347  1.00  0.00     0.055 A 
ATOM     81  C   UNL     1       5.724   7.886   4.140  1.00  0.00     0.041 A 
ATOM     82  F   UNL     1       3.940   8.022   2.628  1.00  0.00    -0.206 F 
ATOM     83  C   UNL     1       6.275   8.167   5.385  1.00  0.00     0.022 A 
BRANCH  80  84
ATOM     84  S   UNL     1       6.225   9.320   7.923  1.00  0.00     0.124 S 
ATOM     85  O   UNL     1       6.030  10.765   7.881  1.00  0.00    -0.237 OA
ATOM     86  O   UNL     1       5.413   8.589   8.889  1.00  0.00    -0.237 OA
ATOM     87  O   UNL     1       7.612   8.873   7.812  1.00  0.00    -0.744 OA
ENDBRANCH  80  84
ENDBRANCH  53  77
BRANCH  65  88
ATOM     88  C   UNL     1       0.592  15.196   4.633  1.00  0.00     0.023 A 
ATOM     89  C   UNL     1       1.645  15.832   3.953  1.00  0.00     0.031 A 
ATOM     90  C   UNL     1      -0.002  15.878   5.712  1.00  0.00     0.131 A 
ATOM     91  C   UNL     1       2.114  17.078   4.399  1.00  0.00     0.055 A 
ATOM     92  C   UNL     1       0.420  17.149   6.104  1.00  0.00     0.041 A 
ATOM     93  F   UNL     1      -1.009  15.319   6.403  1.00  0.00    -0.206 F 
ATOM     94  C   UNL     1       1.494  17.750   5.456  1.00  0.00     0.022 A 
BRANCH  91  95
ATOM     95  S   UNL     1       3.619  17.762   3.651  1.00  0.00     0.124 S 
ATOM     96  O   UNL     1       4.585  16.694   3.886  1.00  0.00    -0.237 OA
ATOM     97  O   UNL     1       3.214  17.961   2.263  1.00  0.00    -0.237 OA
ATOM     98  O   UNL     1       3.853  18.989   4.410  1.00  0.00    -0.744 OA
ENDBRANCH  91  95
ENDBRANCH  65  88
ENDBRANCH  39  40
ENDBRANCH  32  34
ENDBRANCH  31  32
ENDBRANCH  30  31
ENDBRANCH  29  30
ENDBRANCH  28  29
ENDBRANCH  27  28
ENDBRANCH  26  27
ENDBRANCH  25  26
ENDBRANCH   1  25
TORSDOF 28
