REMARK SMILES Cc1csc(C[N@H+]2CCC[C@@H](CC(=O)OCCOCCOCCOCCOC(=O)c3ccc(-c4c5nc(c(-c6cc(S(=O)(=O)[O-])ccc6F)c6ccc([nH]6)c(-c6cc(S(=O)(=O)[O-])ccc6F)c6nc(c(-c7cc(S(=O)(=O)[O-])ccc7F)c7ccc4[nH]7)C=C6)C=C5)cc3)C2)n1
REMARK SMILES IDX 21 1 20 2 19 3 18 4 17 5 16 6 15 7 13 8 14 9 12 10 11 11
REMARK SMILES IDX 7 12 8 13 93 14 9 16 10 17 6 18 5 19 1 20 2 21 3 22 94 23
REMARK SMILES IDX 4 24 22 25 23 26 24 27 25 28 26 29 27 30 28 31 29 32 30 33
REMARK SMILES IDX 31 34 92 35 32 36 91 37 33 38 34 39 35 40 85 41 36 42 90 43
REMARK SMILES IDX 84 44 86 45 37 46 89 47 83 48 82 49 38 51 70 52 50 53 69 54
REMARK SMILES IDX 51 55 54 56 68 57 87 58 52 59 53 60 67 62 88 63 55 64 39 65
REMARK SMILES IDX 40 66 48 67 41 68 47 69 49 70 46 71 42 72 43 73 44 74 45 75
REMARK SMILES IDX 71 76 72 77 80 78 73 79 79 80 81 81 78 82 74 83 75 84 76 85
REMARK SMILES IDX 77 86 56 87 57 88 65 89 58 90 64 91 66 92 63 93 59 94 60 95
REMARK SMILES IDX 61 96 62 97
REMARK H PARENT 7 15 86 50 54 61
REMARK Flexibility Score: inf
ROOT
ATOM      1  O   UNL     1      -1.783   1.813  -3.954  1.00  0.00    -0.377 OA
ENDROOT
BRANCH   1   2
ATOM      2  C   UNL     1      -2.735   1.140  -3.154  1.00  0.00     0.188 C 
BRANCH   2   3
ATOM      3  C   UNL     1      -4.167   1.673  -3.245  1.00  0.00     0.188 C 
BRANCH   3   4
ATOM      4  O   UNL     1      -4.822   1.554  -4.499  1.00  0.00    -0.376 OA
BRANCH   4   5
ATOM      5  C   UNL     1      -4.378   2.387  -5.569  1.00  0.00     0.202 C 
BRANCH   5   6
ATOM      6  C   UNL     1      -4.143   3.883  -5.291  1.00  0.00     0.261 C 
BRANCH   6   7
ATOM      7  O   UNL     1      -3.074   4.139  -4.350  1.00  0.00    -0.463 OA
BRANCH   7   8
ATOM      8  C   UNL     1      -3.296   5.125  -3.449  1.00  0.00     0.306 C 
ATOM      9  O   UNL     1      -4.315   5.813  -3.437  1.00  0.00    -0.252 OA
BRANCH   8  10
ATOM     10  C   UNL     1      -2.315   5.205  -2.289  1.00  0.00     0.132 C 
BRANCH  10  11
ATOM     11  C   UNL     1      -0.790   4.929  -2.316  1.00  0.00     0.055 C 
ATOM     12  N   UNL     1       0.957   3.536  -1.139  1.00  0.00    -0.329 N 
ATOM     13  C   UNL     1       1.386   2.964  -2.414  1.00  0.00     0.262 C 
ATOM     14  C   UNL     1      -0.462   3.902  -1.203  1.00  0.00     0.266 C 
ATOM     15  H   UNL     1       1.498   4.386  -0.981  1.00  0.00     0.348 HD
ATOM     16  C   UNL     1       1.269   4.011  -3.520  1.00  0.00     0.062 C 
ATOM     17  C   UNL     1      -0.147   4.583  -3.661  1.00  0.00     0.016 C 
BRANCH  12  18
ATOM     18  C   UNL     1       1.262   2.658   0.017  1.00  0.00     0.331 C 
BRANCH  18  19
ATOM     19  C   UNL     1       0.555   1.318   0.081  1.00  0.00     0.147 A 
ATOM     20  C   UNL     1      -2.509  -0.577   0.254  1.00  0.00     0.067 C 
ATOM     21  C   UNL     1      -1.075  -0.193   0.208  1.00  0.00     0.049 A 
ATOM     22  C   UNL     1       0.010  -1.044   0.161  1.00  0.00     0.090 A 
ATOM     23  N   UNL     1      -0.750   1.153   0.201  1.00  0.00    -0.240 NA
ATOM     24  S   UNL     1       1.466  -0.145   0.065  1.00  0.00    -0.121 S 
ENDBRANCH  18  19
ENDBRANCH  12  18
ENDBRANCH  10  11
ENDBRANCH   8  10
ENDBRANCH   7   8
ENDBRANCH   6   7
ENDBRANCH   5   6
ENDBRANCH   4   5
ENDBRANCH   3   4
ENDBRANCH   2   3
ENDBRANCH   1   2
BRANCH   1  25
ATOM     25  C   UNL     1      -1.241   1.198  -5.120  1.00  0.00     0.188 C 
BRANCH  25  26
ATOM     26  C   UNL     1      -1.503  -0.292  -5.347  1.00  0.00     0.188 C 
BRANCH  26  27
ATOM     27  O   UNL     1      -1.014  -1.217  -4.372  1.00  0.00    -0.376 OA
BRANCH  27  28
ATOM     28  C   UNL     1       0.077  -0.824  -3.548  1.00  0.00     0.202 C 
BRANCH  28  29
ATOM     29  C   UNL     1       1.473  -1.013  -4.143  1.00  0.00     0.261 C 
BRANCH  29  30
ATOM     30  O   UNL     1       1.713  -0.173  -5.280  1.00  0.00    -0.460 OA
BRANCH  30  31
ATOM     31  C   UNL     1       1.522  -0.771  -6.479  1.00  0.00     0.338 C 
ATOM     32  O   UNL     1       1.179  -1.928  -6.681  1.00  0.00    -0.246 OA
BRANCH  31  33
ATOM     33  C   UNL     1       1.645   0.233  -7.547  1.00  0.00     0.060 A 
ATOM     34  C   UNL     1       0.625   0.320  -8.503  1.00  0.00     0.016 A 
ATOM     35  C   UNL     1       2.784   1.036  -7.644  1.00  0.00     0.016 A 
ATOM     36  C   UNL     1       0.751   1.194  -9.579  1.00  0.00     0.010 A 
ATOM     37  C   UNL     1       2.917   1.899  -8.731  1.00  0.00     0.010 A 
ATOM     38  C   UNL     1       1.914   1.962  -9.715  1.00  0.00    -0.014 A 
BRANCH  38  39
ATOM     39  C   UNL     1       2.162   2.726 -10.957  1.00  0.00     0.031 A 
ATOM     40  C   UNL     1       3.081   2.138 -11.990  1.00  0.00     0.074 A 
ATOM     41  C   UNL     1       1.595   3.930 -11.141  1.00  0.00     0.049 A 
ATOM     42  N   UNL     1       3.563   2.680 -13.076  1.00  0.00    -0.248 NA
ATOM     43  C   UNL     1       3.519   0.753 -11.757  1.00  0.00     0.031 C 
ATOM     44  C   UNL     1       0.642   4.560 -10.229  1.00  0.00     0.029 A 
ATOM     45  N   UNL     1       1.756   4.848 -12.147  1.00  0.00    -0.354 N 
ATOM     46  C   UNL     1       4.375   1.709 -13.652  1.00  0.00     0.074 A 
ATOM     47  C   UNL     1       4.340   0.556 -12.778  1.00  0.00     0.031 C 
ATOM     48  C   UNL     1       0.322   5.775 -10.706  1.00  0.00     0.029 A 
ATOM     49  C   UNL     1       1.090   6.029 -11.922  1.00  0.00     0.049 A 
ATOM     50  H   UNL     1       2.296   4.677 -12.953  1.00  0.00     0.167 HD
ATOM     51  C   UNL     1       5.083   1.781 -14.805  1.00  0.00     0.034 A 
ATOM     52  C   UNL     1       1.138   7.196 -12.596  1.00  0.00     0.034 A 
ATOM     53  C   UNL     1       5.110   2.952 -15.647  1.00  0.00     0.049 A 
ATOM     54  C   UNL     1       2.028   7.293 -13.813  1.00  0.00     0.074 A 
ATOM     55  C   UNL     1       5.770   3.134 -16.849  1.00  0.00     0.029 A 
ATOM     56  N   UNL     1       4.463   4.149 -15.363  1.00  0.00    -0.354 N 
ATOM     57  N   UNL     1       2.784   6.368 -14.361  1.00  0.00    -0.248 NA
ATOM     58  C   UNL     1       2.076   8.591 -14.500  1.00  0.00     0.031 C 
ATOM     59  C   UNL     1       5.596   4.463 -17.245  1.00  0.00     0.029 A 
ATOM     60  C   UNL     1       4.752   5.088 -16.340  1.00  0.00     0.049 A 
ATOM     61  H   UNL     1       3.884   4.306 -14.583  1.00  0.00     0.167 HD
ATOM     62  C   UNL     1       3.377   6.967 -15.469  1.00  0.00     0.074 A 
ATOM     63  C   UNL     1       2.878   8.325 -15.522  1.00  0.00     0.031 C 
ATOM     64  C   UNL     1       4.254   6.444 -16.364  1.00  0.00     0.034 A 
BRANCH  51  65
ATOM     65  C   UNL     1       5.929   0.590 -15.183  1.00  0.00     0.023 A 
ATOM     66  C   UNL     1       5.362  -0.663 -15.470  1.00  0.00     0.031 A 
ATOM     67  C   UNL     1       7.330   0.706 -15.237  1.00  0.00     0.131 A 
ATOM     68  C   UNL     1       6.193  -1.764 -15.732  1.00  0.00     0.055 A 
ATOM     69  C   UNL     1       8.147  -0.373 -15.579  1.00  0.00     0.041 A 
ATOM     70  F   UNL     1       7.931   1.871 -14.946  1.00  0.00    -0.206 F 
ATOM     71  C   UNL     1       7.580  -1.621 -15.816  1.00  0.00     0.022 A 
BRANCH  68  72
ATOM     72  S   UNL     1       5.444  -3.413 -15.819  1.00  0.00     0.124 S 
ATOM     73  O   UNL     1       4.804  -3.517 -14.510  1.00  0.00    -0.237 OA
ATOM     74  O   UNL     1       4.545  -3.292 -16.961  1.00  0.00    -0.237 OA
ATOM     75  O   UNL     1       6.589  -4.300 -16.017  1.00  0.00    -0.744 OA
ENDBRANCH  68  72
ENDBRANCH  51  65
BRANCH  52  76
ATOM     76  C   UNL     1       0.380   8.384 -12.107  1.00  0.00     0.023 A 
ATOM     77  C   UNL     1      -0.615   8.981 -12.896  1.00  0.00     0.031 A 
ATOM     78  C   UNL     1       0.676   8.974 -10.864  1.00  0.00     0.131 A 
ATOM     79  C   UNL     1      -1.245  10.156 -12.456  1.00  0.00     0.055 A 
ATOM     80  C   UNL     1       0.003  10.107 -10.404  1.00  0.00     0.041 A 
ATOM     81  F   UNL     1       1.625   8.450 -10.072  1.00  0.00    -0.206 F 
ATOM     82  C   UNL     1      -0.956  10.713 -11.209  1.00  0.00     0.022 A 
BRANCH  79  83
ATOM     83  S   UNL     1      -2.381  11.004 -13.588  1.00  0.00     0.124 S 
ATOM     84  O   UNL     1      -1.520  11.252 -14.739  1.00  0.00    -0.237 OA
ATOM     85  O   UNL     1      -3.426  10.003 -13.773  1.00  0.00    -0.237 OA
ATOM     86  O   UNL     1      -2.782  12.193 -12.839  1.00  0.00    -0.744 OA
ENDBRANCH  79  83
ENDBRANCH  52  76
BRANCH  64  87
ATOM     87  C   UNL     1       4.706   7.338 -17.492  1.00  0.00     0.023 A 
ATOM     88  C   UNL     1       5.517   8.462 -17.262  1.00  0.00     0.031 A 
ATOM     89  C   UNL     1       4.339   7.046 -18.819  1.00  0.00     0.131 A 
ATOM     90  C   UNL     1       5.902   9.277 -18.338  1.00  0.00     0.055 A 
ATOM     91  C   UNL     1       4.778   7.823 -19.891  1.00  0.00     0.041 A 
ATOM     92  F   UNL     1       3.562   5.986 -19.095  1.00  0.00    -0.206 F 
ATOM     93  C   UNL     1       5.556   8.952 -19.652  1.00  0.00     0.022 A 
BRANCH  90  94
ATOM     94  S   UNL     1       6.804  10.811 -17.989  1.00  0.00     0.124 S 
ATOM     95  O   UNL     1       5.851  11.538 -17.157  1.00  0.00    -0.237 OA
ATOM     96  O   UNL     1       8.001  10.325 -17.312  1.00  0.00    -0.237 OA
ATOM     97  O   UNL     1       7.032  11.383 -19.315  1.00  0.00    -0.744 OA
ENDBRANCH  90  94
ENDBRANCH  64  87
ENDBRANCH  38  39
ENDBRANCH  31  33
ENDBRANCH  30  31
ENDBRANCH  29  30
ENDBRANCH  28  29
ENDBRANCH  27  28
ENDBRANCH  26  27
ENDBRANCH  25  26
ENDBRANCH   1  25
TORSDOF 26
