REMARK SMILES CCOc1cc(C[NH+]2CCC3(CC2)[C@H](C(=O)OCCOCCOCCOCCOC(=O)c2ccc(-c4c5nc(c(-c6cc(S(=O)(=O)[O-])ccc6F)c6ccc([nH]6)c(-c6cc(S(=O)(=O)[O-])ccc6F)c6nc(c(-c7cc(S(=O)(=O)[O-])ccc7F)c7ccc4[nH]7)C=C6)C=C5)cc2)CC(=O)N3C)ccc1OC
REMARK SMILES IDX 22 1 21 2 20 3 19 4 18 5 17 6 15 7 16 8 14 9 8 10 9 11 13 12
REMARK SMILES IDX 10 14 12 15 11 16 98 17 95 18 96 19 99 20 97 21 7 22 6 23
REMARK SMILES IDX 4 24 5 25 102 26 101 27 100 28 3 29 2 30 1 31 103 32 104 33
REMARK SMILES IDX 23 34 24 35 25 36 26 37 27 38 28 39 29 40 30 41 31 42 32 43
REMARK SMILES IDX 33 44 94 45 34 46 93 47 35 48 36 49 37 50 87 51 38 52 92 53
REMARK SMILES IDX 86 54 88 55 39 56 91 57 85 58 84 59 40 61 72 62 52 63 71 64
REMARK SMILES IDX 53 65 56 66 70 67 89 68 54 69 55 70 69 72 90 73 57 74 41 75
REMARK SMILES IDX 42 76 50 77 43 78 49 79 51 80 48 81 44 82 45 83 46 84 47 85
REMARK SMILES IDX 73 86 74 87 82 88 75 89 81 90 83 91 80 92 76 93 77 94 78 95
REMARK SMILES IDX 79 96 58 97 59 98 67 99 60 100 66 101 68 102 65 103 61 104
REMARK SMILES IDX 62 105 63 106 64 107
REMARK H PARENT 8 13 88 60 56 71
REMARK Flexibility Score: inf
ROOT
ATOM      1  C   UNL     1       5.215   0.344   2.439  1.00  0.00     0.188 C 
ENDROOT
BRANCH   1   2
ATOM      2  C   UNL     1       4.789   1.567   1.639  1.00  0.00     0.188 C 
BRANCH   2   3
ATOM      3  O   UNL     1       5.452   2.777   1.935  1.00  0.00    -0.376 OA
BRANCH   3   4
ATOM      4  C   UNL     1       5.129   3.383   3.192  1.00  0.00     0.202 C 
BRANCH   4   5
ATOM      5  C   UNL     1       3.670   3.344   3.706  1.00  0.00     0.261 C 
BRANCH   5   6
ATOM      6  O   UNL     1       3.155   2.039   4.131  1.00  0.00    -0.463 OA
BRANCH   6   7
ATOM      7  C   UNL     1       1.873   1.791   3.764  1.00  0.00     0.311 C 
ATOM      8  O   UNL     1       1.239   2.577   3.055  1.00  0.00    -0.252 OA
BRANCH   7   9
ATOM      9  C   UNL     1       1.239   0.427   4.098  1.00  0.00     0.134 C 
ATOM     10  N   UNL     1       3.143  -3.238   5.064  1.00  0.00    -0.331 N 
ATOM     11  C   UNL     1       3.740  -2.105   5.748  1.00  0.00     0.265 C 
ATOM     12  C   UNL     1       1.710  -3.283   5.240  1.00  0.00     0.265 C 
ATOM     13  H   UNL     1       3.497  -4.052   5.566  1.00  0.00     0.348 HD
ATOM     14  C   UNL     1       3.154  -0.752   5.339  1.00  0.00     0.091 C 
ATOM     15  C   UNL     1       0.986  -2.008   4.792  1.00  0.00     0.091 C 
ATOM     16  C   UNL     1       1.634  -0.636   5.188  1.00  0.00     0.067 C 
ATOM     17  N   UNL     1       0.906  -0.135   6.359  1.00  0.00    -0.339 N 
ATOM     18  C   UNL     1      -0.220   0.736   4.480  1.00  0.00     0.118 C 
ATOM     19  C   UNL     1      -0.219   0.603   5.979  1.00  0.00     0.223 C 
ATOM     20  C   UNL     1       0.897  -0.781   7.656  1.00  0.00     0.147 C 
ATOM     21  O   UNL     1      -1.126   0.971   6.708  1.00  0.00    -0.275 OA
BRANCH  10  22
ATOM     22  C   UNL     1       3.781  -3.843   3.883  1.00  0.00     0.299 C 
BRANCH  22  23
ATOM     23  C   UNL     1       3.446  -3.304   2.500  1.00  0.00     0.010 A 
ATOM     24  C   UNL     1       1.805  -2.363   0.978  1.00  0.00     0.161 A 
ATOM     25  C   UNL     1       2.131  -3.191   2.052  1.00  0.00     0.060 A 
ATOM     26  C   UNL     1       2.820  -1.783   0.225  1.00  0.00     0.160 A 
ATOM     27  C   UNL     1       4.136  -2.173   0.448  1.00  0.00     0.051 A 
ATOM     28  C   UNL     1       4.444  -2.917   1.595  1.00  0.00     0.013 A 
BRANCH  24  29
ATOM     29  O   UNL     1       0.493  -1.983   0.884  1.00  0.00    -0.490 OA
BRANCH  29  30
ATOM     30  C   UNL     1      -0.142  -2.413  -0.321  1.00  0.00     0.226 C 
ATOM     31  C   UNL     1      -0.639  -1.210  -1.105  1.00  0.00     0.049 C 
ENDBRANCH  29  30
ENDBRANCH  24  29
BRANCH  26  32
ATOM     32  O   UNL     1       2.597  -0.782  -0.680  1.00  0.00    -0.493 OA
ATOM     33  C   UNL     1       2.138   0.401  -0.011  1.00  0.00     0.278 C 
ENDBRANCH  26  32
ENDBRANCH  22  23
ENDBRANCH  10  22
ENDBRANCH   7   9
ENDBRANCH   6   7
ENDBRANCH   5   6
ENDBRANCH   4   5
ENDBRANCH   3   4
ENDBRANCH   2   3
ENDBRANCH   1   2
BRANCH   1  34
ATOM     34  O   UNL     1       5.450   0.584   3.812  1.00  0.00    -0.377 OA
BRANCH  34  35
ATOM     35  C   UNL     1       6.778   0.567   4.316  1.00  0.00     0.188 C 
BRANCH  35  36
ATOM     36  C   UNL     1       7.922   0.248   3.352  1.00  0.00     0.188 C 
BRANCH  36  37
ATOM     37  O   UNL     1       8.031  -1.081   2.832  1.00  0.00    -0.376 OA
BRANCH  37  38
ATOM     38  C   UNL     1       7.399  -2.161   3.508  1.00  0.00     0.202 C 
BRANCH  38  39
ATOM     39  C   UNL     1       8.179  -2.831   4.636  1.00  0.00     0.261 C 
BRANCH  39  40
ATOM     40  O   UNL     1       8.252  -1.986   5.783  1.00  0.00    -0.460 OA
BRANCH  40  41
ATOM     41  C   UNL     1       9.381  -1.238   5.819  1.00  0.00     0.338 C 
ATOM     42  O   UNL     1      10.336  -1.313   5.078  1.00  0.00    -0.246 OA
BRANCH  41  43
ATOM     43  C   UNL     1       9.183  -0.141   6.781  1.00  0.00     0.060 A 
ATOM     44  C   UNL     1       9.680   1.112   6.406  1.00  0.00     0.016 A 
ATOM     45  C   UNL     1       8.583  -0.342   8.029  1.00  0.00     0.016 A 
ATOM     46  C   UNL     1       9.677   2.149   7.316  1.00  0.00     0.010 A 
ATOM     47  C   UNL     1       8.607   0.694   8.960  1.00  0.00     0.010 A 
ATOM     48  C   UNL     1       9.231   1.905   8.620  1.00  0.00    -0.014 A 
BRANCH  48  49
ATOM     49  C   UNL     1       9.779   2.791   9.662  1.00  0.00     0.031 A 
ATOM     50  C   UNL     1      11.069   2.367  10.311  1.00  0.00     0.074 A 
ATOM     51  C   UNL     1       9.234   3.998   9.871  1.00  0.00     0.049 A 
ATOM     52  N   UNL     1      11.815   3.002  11.174  1.00  0.00    -0.248 NA
ATOM     53  C   UNL     1      11.599   1.048   9.919  1.00  0.00     0.031 C 
ATOM     54  C   UNL     1       8.040   4.510   9.197  1.00  0.00     0.029 A 
ATOM     55  N   UNL     1       9.634   5.021  10.683  1.00  0.00    -0.354 N 
ATOM     56  C   UNL     1      12.897   2.162  11.424  1.00  0.00     0.074 A 
ATOM     57  C   UNL     1      12.690   0.956  10.659  1.00  0.00     0.031 C 
ATOM     58  C   UNL     1       7.809   5.763   9.623  1.00  0.00     0.029 A 
ATOM     59  C   UNL     1       8.814   6.120  10.620  1.00  0.00     0.049 A 
ATOM     60  H   UNL     1      10.432   4.974  11.257  1.00  0.00     0.167 HD
ATOM     61  C   UNL     1      13.971   2.390  12.216  1.00  0.00     0.034 A 
ATOM     62  C   UNL     1       8.873   7.273  11.312  1.00  0.00     0.034 A 
ATOM     63  C   UNL     1      14.130   3.603  12.976  1.00  0.00     0.049 A 
ATOM     64  C   UNL     1      10.029   7.465  12.264  1.00  0.00     0.074 A 
ATOM     65  C   UNL     1      15.143   3.952  13.849  1.00  0.00     0.029 A 
ATOM     66  N   UNL     1      13.236   4.670  12.954  1.00  0.00    -0.354 N 
ATOM     67  N   UNL     1      11.030   6.653  12.526  1.00  0.00    -0.248 NA
ATOM     68  C   UNL     1      10.074   8.734  12.994  1.00  0.00     0.031 C 
ATOM     69  C   UNL     1      14.821   5.191  14.413  1.00  0.00     0.029 A 
ATOM     70  C   UNL     1      13.659   5.664  13.819  1.00  0.00     0.049 A 
ATOM     71  H   UNL     1      12.421   4.710  12.404  1.00  0.00     0.167 HD
ATOM     72  C   UNL     1      11.847   7.334  13.424  1.00  0.00     0.074 A 
ATOM     73  C   UNL     1      11.225   8.626  13.640  1.00  0.00     0.031 C 
ATOM     74  C   UNL     1      13.007   6.939  14.015  1.00  0.00     0.034 A 
BRANCH  61  75
ATOM     75  C   UNL     1      14.986   1.278  12.349  1.00  0.00     0.023 A 
ATOM     76  C   UNL     1      15.731   0.805  11.253  1.00  0.00     0.031 A 
ATOM     77  C   UNL     1      15.165   0.636  13.587  1.00  0.00     0.131 A 
ATOM     78  C   UNL     1      16.562  -0.318  11.401  1.00  0.00     0.055 A 
ATOM     79  C   UNL     1      16.057  -0.426  13.747  1.00  0.00     0.041 A 
ATOM     80  F   UNL     1      14.456   1.015  14.662  1.00  0.00    -0.206 F 
ATOM     81  C   UNL     1      16.751  -0.919  12.647  1.00  0.00     0.022 A 
BRANCH  78  82
ATOM     82  S   UNL     1      17.269  -1.083   9.914  1.00  0.00     0.124 S 
ATOM     83  O   UNL     1      16.066  -1.421   9.157  1.00  0.00    -0.237 OA
ATOM     84  O   UNL     1      18.089  -0.009   9.366  1.00  0.00    -0.237 OA
ATOM     85  O   UNL     1      18.009  -2.229  10.437  1.00  0.00    -0.744 OA
ENDBRANCH  78  82
ENDBRANCH  61  75
BRANCH  62  86
ATOM     86  C   UNL     1       7.809   8.303  11.154  1.00  0.00     0.023 A 
ATOM     87  C   UNL     1       8.102   9.595  10.690  1.00  0.00     0.031 A 
ATOM     88  C   UNL     1       6.477   8.018  11.509  1.00  0.00     0.131 A 
ATOM     89  C   UNL     1       7.089  10.566  10.640  1.00  0.00     0.055 A 
ATOM     90  C   UNL     1       5.462   8.969  11.401  1.00  0.00     0.041 A 
ATOM     91  F   UNL     1       6.140   6.798  11.959  1.00  0.00    -0.206 F 
ATOM     92  C   UNL     1       5.769  10.258  10.978  1.00  0.00     0.022 A 
BRANCH  89  93
ATOM     93  S   UNL     1       7.542  12.270  10.219  1.00  0.00     0.124 S 
ATOM     94  O   UNL     1       8.553  12.566  11.226  1.00  0.00    -0.237 OA
ATOM     95  O   UNL     1       8.023  12.124   8.849  1.00  0.00    -0.237 OA
ATOM     96  O   UNL     1       6.284  13.001  10.361  1.00  0.00    -0.744 OA
ENDBRANCH  89  93
ENDBRANCH  62  86
BRANCH  74  97
ATOM     97  C   UNL     1      13.695   7.950  14.898  1.00  0.00     0.023 A 
ATOM     98  C   UNL     1      13.103   8.430  16.078  1.00  0.00     0.031 A 
ATOM     99  C   UNL     1      14.952   8.465  14.530  1.00  0.00     0.131 A 
ATOM    100  C   UNL     1      13.725   9.457  16.800  1.00  0.00     0.055 A 
ATOM    101  C   UNL     1      15.604   9.428  15.299  1.00  0.00     0.041 A 
ATOM    102  F   UNL     1      15.564   8.043  13.412  1.00  0.00    -0.206 F 
ATOM    103  C   UNL     1      14.981   9.945  16.431  1.00  0.00     0.022 A 
BRANCH 100 104
ATOM    104  S   UNL     1      12.801  10.250  18.144  1.00  0.00     0.124 S 
ATOM    105  O   UNL     1      11.578  10.666  17.464  1.00  0.00    -0.237 OA
ATOM    106  O   UNL     1      12.656   9.162  19.106  1.00  0.00    -0.237 OA
ATOM    107  O   UNL     1      13.678  11.340  18.566  1.00  0.00    -0.744 OA
ENDBRANCH 100 104
ENDBRANCH  74  97
ENDBRANCH  48  49
ENDBRANCH  41  43
ENDBRANCH  40  41
ENDBRANCH  39  40
ENDBRANCH  38  39
ENDBRANCH  37  38
ENDBRANCH  36  37
ENDBRANCH  35  36
ENDBRANCH  34  35
ENDBRANCH   1  34
TORSDOF 28
