REMARK SMILES CN(C)S(=O)(=O)c1ccc(-n2c(CCC(=O)OCCOCCOCCOCCOC(=O)c3ccc(-c4c5nc(c(-c6cc(S(=O)(=O)[O-])ccc6F)c6ccc([nH]6)c(-c6cc(S(=O)(=O)[O-])ccc6F)c6nc(c(-c7cc(S(=O)(=O)[O-])ccc7F)c7ccc4[nH]7)C=C6)C=C5)cc3)ccc2-c2ccc(F)cc2)cc1
REMARK SMILES IDX 22 1 21 2 20 3 19 4 18 5 17 6 15 7 16 8 14 9 13 10 12 11
REMARK SMILES IDX 11 12 97 13 95 14 96 15 10 16 7 17 8 18 106 19 9 20 105 21
REMARK SMILES IDX 4 22 5 23 6 24 2 25 1 26 3 27 98 28 99 29 104 30 100 31
REMARK SMILES IDX 103 32 101 33 102 34 23 35 24 36 25 37 26 38 27 39 28 40
REMARK SMILES IDX 29 41 30 42 31 43 32 44 33 45 94 46 34 47 93 48 35 49 36 50
REMARK SMILES IDX 37 51 87 52 38 53 92 54 86 55 88 56 39 57 91 58 85 59 84 60
REMARK SMILES IDX 40 62 72 63 52 64 71 65 53 66 56 67 70 68 89 69 54 70 55 71
REMARK SMILES IDX 69 73 90 74 57 75 41 76 42 77 50 78 43 79 49 80 51 81 48 82
REMARK SMILES IDX 44 83 45 84 46 85 47 86 73 87 74 88 82 89 75 90 81 91 83 92
REMARK SMILES IDX 80 93 76 94 77 95 78 96 79 97 58 98 59 99 67 100 60 101
REMARK SMILES IDX 66 102 68 103 65 104 61 105 62 106 63 107 64 108
REMARK H PARENT 88 61 56 72
REMARK Flexibility Score: inf
ROOT
ATOM      1  C   UNL     1       2.156   5.834   3.972  1.00  0.00     0.188 C 
ENDROOT
BRANCH   1   2
ATOM      2  C   UNL     1       1.383   4.512   4.076  1.00  0.00     0.188 C 
BRANCH   2   3
ATOM      3  O   UNL     1       0.265   4.462   3.004  1.00  0.00    -0.376 OA
BRANCH   3   4
ATOM      4  C   UNL     1      -1.666   4.207   2.572  1.00  0.00     0.202 C 
BRANCH   4   5
ATOM      5  C   UNL     1      -3.104   4.602   3.445  1.00  0.00     0.261 C 
BRANCH   5   6
ATOM      6  O   UNL     1      -3.186   5.859   4.176  1.00  0.00    -0.463 OA
BRANCH   6   7
ATOM      7  C   UNL     1      -3.384   5.770   5.521  1.00  0.00     0.306 C 
ATOM      8  O   UNL     1      -3.987   4.845   6.057  1.00  0.00    -0.252 OA
BRANCH   7   9
ATOM      9  C   UNL     1      -2.714   6.873   6.347  1.00  0.00     0.129 C 
BRANCH   9  10
ATOM     10  C   UNL     1      -1.340   7.440   5.959  1.00  0.00     0.066 C 
BRANCH  10  11
ATOM     11  C   UNL     1      -1.306   8.105   4.631  1.00  0.00     0.024 A 
ATOM     12  N   UNL     1      -1.100   7.463   3.413  1.00  0.00    -0.314 N 
ATOM     13  C   UNL     1      -1.376   8.412   2.402  1.00  0.00     0.053 A 
ATOM     14  C   UNL     1      -1.406   9.464   4.393  1.00  0.00     0.024 A 
ATOM     15  C   UNL     1      -1.442   9.656   3.006  1.00  0.00     0.029 A 
BRANCH  12  16
ATOM     16  C   UNL     1      -0.754   6.080   3.205  1.00  0.00     0.046 A 
ATOM     17  C   UNL     1       0.011   2.655   2.354  1.00  0.00     0.082 A 
ATOM     18  C   UNL     1       0.164   3.942   1.132  1.00  0.00     0.024 A 
ATOM     19  C   UNL     1      -0.576   3.014   4.018  1.00  0.00     0.024 A 
ATOM     20  C   UNL     1      -0.171   5.644   1.556  1.00  0.00     0.028 A 
ATOM     21  C   UNL     1      -0.926   4.751   4.472  1.00  0.00     0.028 A 
BRANCH  17  22
ATOM     22  S   UNL     1       0.705   1.089   1.968  1.00  0.00     0.242 S 
ATOM     23  O   UNL     1       0.007   0.098   2.739  1.00  0.00    -0.207 OA
ATOM     24  O   UNL     1       2.152   1.238   2.042  1.00  0.00    -0.207 OA
BRANCH  22  25
ATOM     25  N   UNL     1       0.287   0.867   0.320  1.00  0.00    -0.204 NA
ATOM     26  C   UNL     1       1.012  -0.258  -0.314  1.00  0.00     0.124 C 
ATOM     27  C   UNL     1      -1.161   0.830   0.036  1.00  0.00     0.124 C 
ENDBRANCH  22  25
ENDBRANCH  17  22
ENDBRANCH  12  16
BRANCH  13  28
ATOM     28  C   UNL     1      -1.637   8.150   0.978  1.00  0.00    -0.001 A 
ATOM     29  C   UNL     1      -0.830   8.730  -0.015  1.00  0.00     0.013 A 
ATOM     30  C   UNL     1      -2.682   7.294   0.590  1.00  0.00     0.013 A 
ATOM     31  C   UNL     1      -1.008   8.390  -1.360  1.00  0.00     0.040 A 
ATOM     32  C   UNL     1      -2.852   6.947  -0.752  1.00  0.00     0.040 A 
ATOM     33  C   UNL     1      -2.006   7.488  -1.713  1.00  0.00     0.123 A 
ATOM     34  F   UNL     1      -2.152   7.126  -2.994  1.00  0.00    -0.207 F 
ENDBRANCH  13  28
ENDBRANCH  10  11
ENDBRANCH   9  10
ENDBRANCH   7   9
ENDBRANCH   6   7
ENDBRANCH   5   6
ENDBRANCH   4   5
ENDBRANCH   3   4
ENDBRANCH   2   3
ENDBRANCH   1   2
BRANCH   1  35
ATOM     35  O   UNL     1       2.957   6.050   2.817  1.00  0.00    -0.377 OA
BRANCH  35  36
ATOM     36  C   UNL     1       3.223   4.952   1.965  1.00  0.00     0.188 C 
BRANCH  36  37
ATOM     37  C   UNL     1       4.581   4.254   2.076  1.00  0.00     0.188 C 
BRANCH  37  38
ATOM     38  O   UNL     1       5.264   4.127   3.310  1.00  0.00    -0.376 OA
BRANCH  38  39
ATOM     39  C   UNL     1       5.479   5.225   4.181  1.00  0.00     0.202 C 
BRANCH  39  40
ATOM     40  C   UNL     1       6.080   6.550   3.716  1.00  0.00     0.261 C 
BRANCH  40  41
ATOM     41  O   UNL     1       5.295   7.235   2.752  1.00  0.00    -0.460 OA
BRANCH  41  42
ATOM     42  C   UNL     1       5.723   7.011   1.498  1.00  0.00     0.338 C 
ATOM     43  O   UNL     1       6.655   6.305   1.144  1.00  0.00    -0.246 OA
BRANCH  42  44
ATOM     44  C   UNL     1       4.997   7.850   0.544  1.00  0.00     0.060 A 
ATOM     45  C   UNL     1       4.942   7.309  -0.747  1.00  0.00     0.016 A 
ATOM     46  C   UNL     1       5.209   9.208   0.788  1.00  0.00     0.016 A 
ATOM     47  C   UNL     1       5.441   8.069  -1.777  1.00  0.00     0.010 A 
ATOM     48  C   UNL     1       5.781   9.940  -0.223  1.00  0.00     0.010 A 
ATOM     49  C   UNL     1       5.948   9.340  -1.479  1.00  0.00    -0.014 A 
BRANCH  49  50
ATOM     50  C   UNL     1       6.525  10.112  -2.578  1.00  0.00     0.031 A 
ATOM     51  C   UNL     1       5.396  10.884  -3.278  1.00  0.00     0.074 A 
ATOM     52  C   UNL     1       7.871   9.937  -2.793  1.00  0.00     0.049 A 
ATOM     53  N   UNL     1       5.276  11.223  -4.519  1.00  0.00    -0.248 NA
ATOM     54  C   UNL     1       4.144  11.223  -2.525  1.00  0.00     0.031 C 
ATOM     55  C   UNL     1       8.780   9.101  -1.959  1.00  0.00     0.029 A 
ATOM     56  N   UNL     1       8.758  10.400  -3.743  1.00  0.00    -0.354 N 
ATOM     57  C   UNL     1       4.121  12.029  -4.628  1.00  0.00     0.074 A 
ATOM     58  C   UNL     1       3.383  11.850  -3.422  1.00  0.00     0.031 C 
ATOM     59  C   UNL     1      10.030   9.053  -2.483  1.00  0.00     0.029 A 
ATOM     60  C   UNL     1      10.083   9.866  -3.684  1.00  0.00     0.049 A 
ATOM     61  H   UNL     1       8.493  11.062  -4.422  1.00  0.00     0.167 HD
ATOM     62  C   UNL     1       3.949  12.927  -5.638  1.00  0.00     0.034 A 
ATOM     63  C   UNL     1      11.123  10.041  -4.567  1.00  0.00     0.034 A 
ATOM     64  C   UNL     1       5.071  12.857  -6.515  1.00  0.00     0.049 A 
ATOM     65  C   UNL     1      10.619  11.064  -5.496  1.00  0.00     0.074 A 
ATOM     66  C   UNL     1       5.483  11.890  -7.391  1.00  0.00     0.029 A 
ATOM     67  N   UNL     1       6.117  13.712  -6.247  1.00  0.00    -0.354 N 
ATOM     68  N   UNL     1      10.484  12.322  -5.209  1.00  0.00    -0.248 NA
ATOM     69  C   UNL     1      10.142  10.643  -6.819  1.00  0.00     0.031 C 
ATOM     70  C   UNL     1       6.879  11.889  -7.211  1.00  0.00     0.029 A 
ATOM     71  C   UNL     1       7.272  13.009  -6.463  1.00  0.00     0.049 A 
ATOM     72  H   UNL     1       6.047  14.650  -5.956  1.00  0.00     0.167 HD
ATOM     73  C   UNL     1       9.609  12.754  -6.172  1.00  0.00     0.074 A 
ATOM     74  C   UNL     1       9.723  11.821  -7.275  1.00  0.00     0.031 C 
ATOM     75  C   UNL     1       8.489  13.426  -5.796  1.00  0.00     0.034 A 
BRANCH  62  76
ATOM     76  C   UNL     1       3.010  14.081  -5.841  1.00  0.00     0.023 A 
ATOM     77  C   UNL     1       3.038  14.660  -7.132  1.00  0.00     0.031 A 
ATOM     78  C   UNL     1       2.394  14.830  -4.832  1.00  0.00     0.131 A 
ATOM     79  C   UNL     1       2.653  15.985  -7.345  1.00  0.00     0.055 A 
ATOM     80  C   UNL     1       1.923  16.130  -5.069  1.00  0.00     0.041 A 
ATOM     81  F   UNL     1       2.305  14.381  -3.573  1.00  0.00    -0.206 F 
ATOM     82  C   UNL     1       2.094  16.732  -6.316  1.00  0.00     0.022 A 
BRANCH  79  83
ATOM     83  S   UNL     1       3.101  16.747  -8.930  1.00  0.00     0.124 S 
ATOM     84  O   UNL     1       4.546  16.552  -8.965  1.00  0.00    -0.237 OA
ATOM     85  O   UNL     1       2.326  15.954  -9.879  1.00  0.00    -0.237 OA
ATOM     86  O   UNL     1       2.663  18.132  -8.773  1.00  0.00    -0.744 OA
ENDBRANCH  79  83
ENDBRANCH  62  76
BRANCH  63  87
ATOM     87  C   UNL     1      12.514   9.497  -4.901  1.00  0.00     0.023 A 
ATOM     88  C   UNL     1      13.292   8.605  -4.140  1.00  0.00     0.031 A 
ATOM     89  C   UNL     1      13.106   9.859  -6.158  1.00  0.00     0.131 A 
ATOM     90  C   UNL     1      14.509   8.076  -4.676  1.00  0.00     0.055 A 
ATOM     91  C   UNL     1      14.239   9.267  -6.713  1.00  0.00     0.041 A 
ATOM     92  F   UNL     1      12.608  10.830  -6.935  1.00  0.00    -0.206 F 
ATOM     93  C   UNL     1      14.943   8.352  -5.975  1.00  0.00     0.022 A 
BRANCH  90  94
ATOM     94  S   UNL     1      15.599   6.983  -3.709  1.00  0.00     0.124 S 
ATOM     95  O   UNL     1      16.520   7.938  -3.100  1.00  0.00    -0.237 OA
ATOM     96  O   UNL     1      14.676   6.311  -2.803  1.00  0.00    -0.237 OA
ATOM     97  O   UNL     1      16.194   6.120  -4.731  1.00  0.00    -0.744 OA
ENDBRANCH  90  94
ENDBRANCH  63  87
BRANCH  75  98
ATOM     98  C   UNL     1       8.614  14.178  -4.469  1.00  0.00     0.023 A 
ATOM     99  C   UNL     1       9.695  15.062  -4.262  1.00  0.00     0.031 A 
ATOM    100  C   UNL     1       7.784  13.964  -3.354  1.00  0.00     0.131 A 
ATOM    101  C   UNL     1       9.939  15.640  -3.000  1.00  0.00     0.055 A 
ATOM    102  C   UNL     1       8.020  14.541  -2.096  1.00  0.00     0.041 A 
ATOM    103  F   UNL     1       6.713  13.175  -3.436  1.00  0.00    -0.206 F 
ATOM    104  C   UNL     1       9.108  15.380  -1.912  1.00  0.00     0.022 A 
BRANCH 101 105
ATOM    105  S   UNL     1      11.353  16.759  -2.795  1.00  0.00     0.124 S 
ATOM    106  O   UNL     1      12.495  15.858  -2.900  1.00  0.00    -0.237 OA
ATOM    107  O   UNL     1      11.175  17.697  -3.900  1.00  0.00    -0.237 OA
ATOM    108  O   UNL     1      11.143  17.336  -1.467  1.00  0.00    -0.744 OA
ENDBRANCH 101 105
ENDBRANCH  75  98
ENDBRANCH  49  50
ENDBRANCH  42  44
ENDBRANCH  41  42
ENDBRANCH  40  41
ENDBRANCH  39  40
ENDBRANCH  38  39
ENDBRANCH  37  38
ENDBRANCH  36  37
ENDBRANCH  35  36
ENDBRANCH   1  35
TORSDOF 29
