REMARK SMILES Cc1ccc2c(c1)C=C(C(=O)OCCOCCOCCOCCOC(=O)c1ccc(-c3c4nc(c(-c5cc(S(=O)(=O)[O-])ccc5F)c5ccc([nH]5)c(-c5cc(S(=O)(=O)[O-])ccc5F)c5nc(c(-c6cc(S(=O)(=O)[O-])ccc6F)c6ccc3[nH]6)C=C5)C=C4)cc1)[C@@H](C(F)(F)F)O2
REMARK SMILES IDX 19 1 18 2 17 3 16 4 15 5 14 6 13 7 12 8 10 9 11 10 9 11 1 12
REMARK SMILES IDX 2 13 3 14 7 15 4 16 6 17 5 18 8 19 95 20 90 21 91 22 92 23
REMARK SMILES IDX 93 24 94 25 20 26 21 27 22 28 23 29 24 30 25 31 26 32 27 33
REMARK SMILES IDX 28 34 89 35 29 36 88 37 30 38 31 39 32 40 82 41 33 42 87 43
REMARK SMILES IDX 81 44 83 45 34 46 86 47 80 48 79 49 35 51 67 52 47 53 66 54
REMARK SMILES IDX 48 55 51 56 65 57 84 58 49 59 50 60 64 62 85 63 52 64 36 65
REMARK SMILES IDX 37 66 45 67 38 68 44 69 46 70 43 71 39 72 40 73 41 74 42 75
REMARK SMILES IDX 68 76 69 77 77 78 70 79 76 80 78 81 75 82 71 83 72 84 73 85
REMARK SMILES IDX 74 86 53 87 54 88 62 89 55 90 61 91 63 92 60 93 56 94 57 95
REMARK SMILES IDX 58 96 59 97
REMARK H PARENT 83 50 51 61
REMARK Flexibility Score: inf
ROOT
ATOM      1  C   UNL     1       0.696   3.991   9.332  1.00  0.00     0.188 C 
ENDROOT
BRANCH   1   2
ATOM      2  O   UNL     1      -0.094   3.374   8.318  1.00  0.00    -0.377 OA
BRANCH   2   3
ATOM      3  C   UNL     1       0.456   3.393   7.009  1.00  0.00     0.188 C 
BRANCH   3   4
ATOM      4  C   UNL     1      -0.096   4.551   6.162  1.00  0.00     0.188 C 
BRANCH   4   5
ATOM      5  O   UNL     1      -0.773   5.575   6.864  1.00  0.00    -0.376 OA
BRANCH   5   6
ATOM      6  C   UNL     1      -2.057   5.394   7.444  1.00  0.00     0.202 C 
BRANCH   6   7
ATOM      7  C   UNL     1      -2.843   4.072   7.582  1.00  0.00     0.261 C 
BRANCH   7   8
ATOM      8  O   UNL     1      -2.382   2.933   6.860  1.00  0.00    -0.460 OA
BRANCH   8   9
ATOM      9  C   UNL     1      -2.771   2.809   5.580  1.00  0.00     0.338 C 
ATOM     10  O   UNL     1      -3.489   3.565   4.951  1.00  0.00    -0.246 OA
BRANCH   9  11
ATOM     11  C   UNL     1      -2.022   1.672   5.003  1.00  0.00     0.087 C 
ATOM     12  C   UNL     1       1.118   0.015  -0.032  1.00  0.00     0.044 C 
ATOM     13  C   UNL     1       0.529  -0.134   1.339  1.00  0.00    -0.050 A 
ATOM     14  C   UNL     1       0.617  -1.354   2.018  1.00  0.00     0.007 A 
ATOM     15  C   UNL     1      -0.112   0.945   1.960  1.00  0.00     0.015 A 
ATOM     16  C   UNL     1       0.073  -1.492   3.297  1.00  0.00     0.047 A 
ATOM     17  C   UNL     1      -0.695   0.794   3.224  1.00  0.00     0.017 A 
ATOM     18  C   UNL     1      -0.584  -0.420   3.900  1.00  0.00     0.128 A 
ATOM     19  C   UNL     1      -1.454   1.882   3.810  1.00  0.00     0.027 C 
ATOM     20  O   UNL     1      -1.095  -0.649   5.144  1.00  0.00    -0.475 OA
ATOM     21  C   UNL     1      -1.864   0.399   5.799  1.00  0.00     0.316 C 
BRANCH  21  22
ATOM     22  C   UNL     1      -3.219  -0.189   6.218  1.00  0.00     0.430 C 
ATOM     23  F   UNL     1      -3.066  -1.367   6.869  1.00  0.00    -0.167 F 
ATOM     24  F   UNL     1      -3.893   0.636   7.052  1.00  0.00    -0.167 F 
ATOM     25  F   UNL     1      -4.014  -0.418   5.147  1.00  0.00    -0.167 F 
ENDBRANCH  21  22
ENDBRANCH   9  11
ENDBRANCH   8   9
ENDBRANCH   7   8
ENDBRANCH   6   7
ENDBRANCH   5   6
ENDBRANCH   4   5
ENDBRANCH   3   4
ENDBRANCH   2   3
ENDBRANCH   1   2
BRANCH   1  26
ATOM     26  C   UNL     1       1.343   5.356   9.022  1.00  0.00     0.188 C 
BRANCH  26  27
ATOM     27  O   UNL     1       2.202   5.327   7.880  1.00  0.00    -0.376 OA
BRANCH  27  28
ATOM     28  C   UNL     1       3.602   5.377   8.124  1.00  0.00     0.202 C 
BRANCH  28  29
ATOM     29  C   UNL     1       4.215   4.046   8.579  1.00  0.00     0.261 C 
BRANCH  29  30
ATOM     30  O   UNL     1       3.731   3.542   9.833  1.00  0.00    -0.460 OA
BRANCH  30  31
ATOM     31  C   UNL     1       3.866   4.328  10.925  1.00  0.00     0.338 C 
ATOM     32  O   UNL     1       4.420   5.412  10.981  1.00  0.00    -0.246 OA
BRANCH  31  33
ATOM     33  C   UNL     1       3.041   3.736  11.999  1.00  0.00     0.060 A 
ATOM     34  C   UNL     1       3.120   2.369  12.278  1.00  0.00     0.016 A 
ATOM     35  C   UNL     1       2.155   4.553  12.712  1.00  0.00     0.016 A 
ATOM     36  C   UNL     1       2.333   1.826  13.293  1.00  0.00     0.010 A 
ATOM     37  C   UNL     1       1.367   4.008  13.730  1.00  0.00     0.010 A 
ATOM     38  C   UNL     1       1.469   2.644  14.044  1.00  0.00    -0.014 A 
BRANCH  38  39
ATOM     39  C   UNL     1       0.850   2.096  15.276  1.00  0.00     0.031 A 
ATOM     40  C   UNL     1      -0.591   1.697  15.345  1.00  0.00     0.074 A 
ATOM     41  C   UNL     1       1.645   1.950  16.354  1.00  0.00     0.049 A 
ATOM     42  N   UNL     1      -1.213   1.058  16.302  1.00  0.00    -0.248 NA
ATOM     43  C   UNL     1      -1.446   2.065  14.209  1.00  0.00     0.031 C 
ATOM     44  C   UNL     1       3.049   2.362  16.407  1.00  0.00     0.029 A 
ATOM     45  N   UNL     1       1.406   1.410  17.591  1.00  0.00    -0.354 N 
ATOM     46  C   UNL     1      -2.529   0.921  15.879  1.00  0.00     0.074 A 
ATOM     47  C   UNL     1      -2.626   1.595  14.600  1.00  0.00     0.031 C 
ATOM     48  C   UNL     1       3.557   2.025  17.600  1.00  0.00     0.029 A 
ATOM     49  C   UNL     1       2.514   1.396  18.406  1.00  0.00     0.049 A 
ATOM     50  H   UNL     1       0.527   1.066  17.869  1.00  0.00     0.167 HD
ATOM     51  C   UNL     1      -3.548   0.273  16.497  1.00  0.00     0.034 A 
ATOM     52  C   UNL     1       2.684   0.913  19.654  1.00  0.00     0.034 A 
ATOM     53  C   UNL     1      -3.428  -0.372  17.785  1.00  0.00     0.049 A 
ATOM     54  C   UNL     1       1.540   0.191  20.314  1.00  0.00     0.074 A 
ATOM     55  C   UNL     1      -4.390  -1.092  18.473  1.00  0.00     0.029 A 
ATOM     56  N   UNL     1      -2.291  -0.373  18.582  1.00  0.00    -0.354 N 
ATOM     57  N   UNL     1       0.335  -0.043  19.849  1.00  0.00    -0.248 NA
ATOM     58  C   UNL     1       1.781  -0.362  21.653  1.00  0.00     0.031 C 
ATOM     59  C   UNL     1      -3.863  -1.462  19.710  1.00  0.00     0.029 A 
ATOM     60  C   UNL     1      -2.539  -1.056  19.764  1.00  0.00     0.049 A 
ATOM     61  H   UNL     1      -1.434   0.049  18.344  1.00  0.00     0.167 HD
ATOM     62  C   UNL     1      -0.312  -0.801  20.821  1.00  0.00     0.074 A 
ATOM     63  C   UNL     1       0.644  -1.004  21.890  1.00  0.00     0.031 C 
ATOM     64  C   UNL     1      -1.582  -1.280  20.823  1.00  0.00     0.034 A 
BRANCH  51  65
ATOM     65  C   UNL     1      -4.886   0.183  15.800  1.00  0.00     0.023 A 
ATOM     66  C   UNL     1      -6.041   0.714  16.406  1.00  0.00     0.031 A 
ATOM     67  C   UNL     1      -5.043  -0.573  14.624  1.00  0.00     0.131 A 
ATOM     68  C   UNL     1      -7.303   0.445  15.859  1.00  0.00     0.055 A 
ATOM     69  C   UNL     1      -6.298  -0.801  14.059  1.00  0.00     0.041 A 
ATOM     70  F   UNL     1      -3.975  -1.110  14.011  1.00  0.00    -0.206 F 
ATOM     71  C   UNL     1      -7.437  -0.304  14.686  1.00  0.00     0.022 A 
BRANCH  68  72
ATOM     72  S   UNL     1      -8.823   0.983  16.691  1.00  0.00     0.124 S 
ATOM     73  O   UNL     1      -9.443   1.822  15.668  1.00  0.00    -0.237 OA
ATOM     74  O   UNL     1      -9.497  -0.287  16.949  1.00  0.00    -0.237 OA
ATOM     75  O   UNL     1      -8.344   1.695  17.871  1.00  0.00    -0.744 OA
ENDBRANCH  68  72
ENDBRANCH  51  65
BRANCH  52  76
ATOM     76  C   UNL     1       4.029   1.021  20.289  1.00  0.00     0.023 A 
ATOM     77  C   UNL     1       4.610   2.279  20.537  1.00  0.00     0.031 A 
ATOM     78  C   UNL     1       4.803  -0.125  20.537  1.00  0.00     0.131 A 
ATOM     79  C   UNL     1       5.946   2.359  20.950  1.00  0.00     0.055 A 
ATOM     80  C   UNL     1       6.109  -0.042  21.022  1.00  0.00     0.041 A 
ATOM     81  F   UNL     1       4.301  -1.346  20.294  1.00  0.00    -0.206 F 
ATOM     82  C   UNL     1       6.693   1.207  21.212  1.00  0.00     0.022 A 
BRANCH  79  83
ATOM     83  S   UNL     1       6.802   3.958  21.015  1.00  0.00     0.124 S 
ATOM     84  O   UNL     1       7.192   4.036  22.419  1.00  0.00    -0.237 OA
ATOM     85  O   UNL     1       7.894   3.749  20.067  1.00  0.00    -0.237 OA
ATOM     86  O   UNL     1       5.784   4.912  20.588  1.00  0.00    -0.744 OA
ENDBRANCH  79  83
ENDBRANCH  52  76
BRANCH  64  87
ATOM     87  C   UNL     1      -2.045  -2.104  22.005  1.00  0.00     0.023 A 
ATOM     88  C   UNL     1      -2.477  -3.431  21.807  1.00  0.00     0.031 A 
ATOM     89  C   UNL     1      -2.195  -1.545  23.286  1.00  0.00     0.131 A 
ATOM     90  C   UNL     1      -3.070  -4.139  22.860  1.00  0.00     0.055 A 
ATOM     91  C   UNL     1      -2.737  -2.274  24.346  1.00  0.00     0.041 A 
ATOM     92  F   UNL     1      -1.816  -0.280  23.527  1.00  0.00    -0.206 F 
ATOM     93  C   UNL     1      -3.192  -3.572  24.132  1.00  0.00     0.022 A 
BRANCH  90  94
ATOM     94  S   UNL     1      -3.793  -5.782  22.595  1.00  0.00     0.124 S 
ATOM     95  O   UNL     1      -2.971  -6.617  23.468  1.00  0.00    -0.237 OA
ATOM     96  O   UNL     1      -5.172  -5.587  23.037  1.00  0.00    -0.237 OA
ATOM     97  O   UNL     1      -3.621  -6.018  21.166  1.00  0.00    -0.744 OA
ENDBRANCH  90  94
ENDBRANCH  64  87
ENDBRANCH  38  39
ENDBRANCH  31  33
ENDBRANCH  30  31
ENDBRANCH  29  30
ENDBRANCH  28  29
ENDBRANCH  27  28
ENDBRANCH  26  27
ENDBRANCH   1  26
TORSDOF 24
