REMARK SMILES CCOc1ccccc1NC(=O)N[C@@](C)(CC)C(=O)OCCOCCOCCOCCOC(=O)c1ccc(-c2c3nc(c(-c4cc(S(=O)(=O)[O-])ccc4F)c4ccc([nH]4)c(-c4cc(S(=O)(=O)[O-])ccc4F)c4nc(c(-c5cc(S(=O)(=O)[O-])ccc5F)c5ccc2[nH]5)C=C4)C=C3)cc1
REMARK SMILES IDX 25 1 24 2 23 3 22 4 21 5 20 6 18 7 19 8 14 9 15 10 13 11
REMARK SMILES IDX 10 12 11 13 12 15 9 17 4 18 5 19 6 20 8 21 7 22 3 23 2 24
REMARK SMILES IDX 1 25 16 26 17 27 26 28 27 29 28 30 29 31 30 32 31 33 32 34
REMARK SMILES IDX 33 35 34 36 35 37 36 38 97 39 37 40 96 41 38 42 39 43 40 44
REMARK SMILES IDX 90 45 41 46 95 47 89 48 91 49 42 50 94 51 88 52 87 53 43 55
REMARK SMILES IDX 75 56 55 57 74 58 56 59 59 60 73 61 92 62 57 63 58 64 72 66
REMARK SMILES IDX 93 67 60 68 44 69 45 70 53 71 46 72 52 73 54 74 51 75 47 76
REMARK SMILES IDX 48 77 49 78 50 79 76 80 77 81 85 82 78 83 84 84 86 85 83 86
REMARK SMILES IDX 79 87 80 88 81 89 82 90 61 91 62 92 70 93 63 94 69 95 71 96
REMARK SMILES IDX 68 97 64 98 65 99 66 100 67 101
REMARK H PARENT 10 14 13 16 91 54 59 65
REMARK Flexibility Score: inf
ROOT
ATOM      1  C   UNL     1       2.696   2.035   3.354  1.00  0.00     0.188 C 
ENDROOT
BRANCH   1   2
ATOM      2  C   UNL     1       1.397   1.536   2.709  1.00  0.00     0.188 C 
BRANCH   2   3
ATOM      3  O   UNL     1       1.360   0.179   2.269  1.00  0.00    -0.376 OA
BRANCH   3   4
ATOM      4  C   UNL     1       1.765  -0.872   3.146  1.00  0.00     0.202 C 
BRANCH   4   5
ATOM      5  C   UNL     1       3.269  -1.639   3.074  1.00  0.00     0.261 C 
BRANCH   5   6
ATOM      6  O   UNL     1       4.659  -1.803   1.600  1.00  0.00    -0.462 OA
BRANCH   6   7
ATOM      7  C   UNL     1       5.671  -1.533   0.634  1.00  0.00     0.331 C 
ATOM      8  O   UNL     1       6.022  -2.481  -0.087  1.00  0.00    -0.249 OA
BRANCH   7   9
ATOM      9  C   UNL     1       6.265   0.007   0.313  1.00  0.00     0.136 C 
ATOM     10  C   UNL     1       7.502  -0.348  -0.598  1.00  0.00     0.047 C 
BRANCH   9  11
ATOM     11  N   UNL     1       5.390   0.801  -0.585  1.00  0.00    -0.322 N 
ATOM     12  N   UNL     1       3.247   0.651   0.374  1.00  0.00    -0.305 N 
ATOM     13  C   UNL     1       4.110   1.200  -0.496  1.00  0.00     0.320 C 
ATOM     14  H   UNL     1       2.334   1.019   0.369  1.00  0.00     0.172 HD
ATOM     15  O   UNL     1       3.707   2.049  -1.294  1.00  0.00    -0.248 OA
ATOM     16  H   UNL     1       5.837   1.094  -1.412  1.00  0.00     0.166 HD
BRANCH  12  17
ATOM     17  C   UNL     1       3.488  -0.374   1.278  1.00  0.00     0.085 A 
ATOM     18  C   UNL     1       2.872  -2.035   0.871  1.00  0.00     0.142 A 
ATOM     19  C   UNL     1       3.625  -3.451   1.677  1.00  0.00     0.048 A 
ATOM     20  C   UNL     1       4.941  -3.245   2.884  1.00  0.00     0.004 A 
ATOM     21  C   UNL     1       4.765  -0.168   2.566  1.00  0.00     0.030 A 
ATOM     22  C   UNL     1       5.524  -1.620   3.333  1.00  0.00     0.002 A 
BRANCH  18  23
ATOM     23  O   UNL     1       1.484  -2.243   0.864  1.00  0.00    -0.492 OA
BRANCH  23  24
ATOM     24  C   UNL     1       0.667  -2.105  -0.279  1.00  0.00     0.226 C 
ATOM     25  C   UNL     1       0.520  -0.708  -0.835  1.00  0.00     0.049 C 
ENDBRANCH  23  24
ENDBRANCH  18  23
ENDBRANCH  12  17
ENDBRANCH   9  11
BRANCH   9  26
ATOM     26  C   UNL     1       6.983   0.949   1.390  1.00  0.00     0.037 C 
ATOM     27  C   UNL     1       6.400   2.350   1.697  1.00  0.00     0.007 C 
ENDBRANCH   9  26
ENDBRANCH   7   9
ENDBRANCH   6   7
ENDBRANCH   5   6
ENDBRANCH   4   5
ENDBRANCH   3   4
ENDBRANCH   2   3
ENDBRANCH   1   2
BRANCH   1  28
ATOM     28  O   UNL     1       3.133   1.195   4.414  1.00  0.00    -0.377 OA
BRANCH  28  29
ATOM     29  C   UNL     1       2.616   1.438   5.715  1.00  0.00     0.188 C 
BRANCH  29  30
ATOM     30  C   UNL     1       1.172   1.954   5.814  1.00  0.00     0.188 C 
BRANCH  30  31
ATOM     31  O   UNL     1       0.929   3.101   5.010  1.00  0.00    -0.376 OA
BRANCH  31  32
ATOM     32  C   UNL     1       1.111   4.411   5.516  1.00  0.00     0.202 C 
BRANCH  32  33
ATOM     33  C   UNL     1       2.478   4.839   6.076  1.00  0.00     0.261 C 
BRANCH  33  34
ATOM     34  O   UNL     1       3.043   4.058   7.136  1.00  0.00    -0.460 OA
BRANCH  34  35
ATOM     35  C   UNL     1       2.262   3.753   8.194  1.00  0.00     0.338 C 
ATOM     36  O   UNL     1       1.134   4.155   8.405  1.00  0.00    -0.246 OA
BRANCH  35  37
ATOM     37  C   UNL     1       2.916   2.640   8.919  1.00  0.00     0.060 A 
ATOM     38  C   UNL     1       2.159   1.500   9.217  1.00  0.00     0.016 A 
ATOM     39  C   UNL     1       4.264   2.713   9.288  1.00  0.00     0.016 A 
ATOM     40  C   UNL     1       2.724   0.460   9.947  1.00  0.00     0.010 A 
ATOM     41  C   UNL     1       4.823   1.685  10.050  1.00  0.00     0.010 A 
ATOM     42  C   UNL     1       4.032   0.587  10.430  1.00  0.00    -0.014 A 
BRANCH  42  43
ATOM     43  C   UNL     1       4.420  -0.254  11.586  1.00  0.00     0.031 A 
ATOM     44  C   UNL     1       4.153   0.301  12.960  1.00  0.00     0.074 A 
ATOM     45  C   UNL     1       4.890  -1.501  11.426  1.00  0.00     0.049 A 
ATOM     46  N   UNL     1       4.317  -0.251  14.133  1.00  0.00    -0.248 NA
ATOM     47  C   UNL     1       3.622   1.673  13.008  1.00  0.00     0.031 C 
ATOM     48  C   UNL     1       5.116  -2.161  10.142  1.00  0.00     0.029 A 
ATOM     49  N   UNL     1       5.237  -2.442  12.359  1.00  0.00    -0.354 N 
ATOM     50  C   UNL     1       3.895   0.702  15.057  1.00  0.00     0.074 A 
ATOM     51  C   UNL     1       3.532   1.884  14.309  1.00  0.00     0.031 C 
ATOM     52  C   UNL     1       5.551  -3.413  10.371  1.00  0.00     0.029 A 
ATOM     53  C   UNL     1       5.660  -3.630  11.813  1.00  0.00     0.049 A 
ATOM     54  H   UNL     1       5.189  -2.283  13.329  1.00  0.00     0.167 HD
ATOM     55  C   UNL     1       3.801   0.594  16.406  1.00  0.00     0.034 A 
ATOM     56  C   UNL     1       6.084  -4.757  12.417  1.00  0.00     0.034 A 
ATOM     57  C   UNL     1       4.208  -0.581  17.134  1.00  0.00     0.049 A 
ATOM     58  C   UNL     1       6.094  -4.813  13.926  1.00  0.00     0.074 A 
ATOM     59  C   UNL     1       4.192  -0.804  18.499  1.00  0.00     0.029 A 
ATOM     60  N   UNL     1       4.728  -1.733  16.551  1.00  0.00    -0.354 N 
ATOM     61  N   UNL     1       5.700  -3.908  14.795  1.00  0.00    -0.248 NA
ATOM     62  C   UNL     1       6.593  -6.052  14.532  1.00  0.00     0.031 C 
ATOM     63  C   UNL     1       4.777  -2.052  18.745  1.00  0.00     0.029 A 
ATOM     64  C   UNL     1       5.071  -2.653  17.530  1.00  0.00     0.049 A 
ATOM     65  H   UNL     1       4.838  -1.874  15.583  1.00  0.00     0.167 HD
ATOM     66  C   UNL     1       5.867  -4.488  16.051  1.00  0.00     0.074 A 
ATOM     67  C   UNL     1       6.385  -5.823  15.819  1.00  0.00     0.031 C 
ATOM     68  C   UNL     1       5.608  -3.973  17.282  1.00  0.00     0.034 A 
BRANCH  55  69
ATOM     69  C   UNL     1       3.309   1.815  17.152  1.00  0.00     0.023 A 
ATOM     70  C   UNL     1       2.037   2.367  16.911  1.00  0.00     0.031 A 
ATOM     71  C   UNL     1       4.160   2.497  18.038  1.00  0.00     0.131 A 
ATOM     72  C   UNL     1       1.700   3.617  17.455  1.00  0.00     0.055 A 
ATOM     73  C   UNL     1       3.778   3.689  18.658  1.00  0.00     0.041 A 
ATOM     74  F   UNL     1       5.397   2.040  18.288  1.00  0.00    -0.206 F 
ATOM     75  C   UNL     1       2.551   4.268  18.349  1.00  0.00     0.022 A 
BRANCH  72  76
ATOM     76  S   UNL     1       0.237   4.476  16.807  1.00  0.00     0.124 S 
ATOM     77  O   UNL     1       0.531   4.518  15.376  1.00  0.00    -0.237 OA
ATOM     78  O   UNL     1      -0.851   3.593  17.211  1.00  0.00    -0.237 OA
ATOM     79  O   UNL     1       0.275   5.772  17.480  1.00  0.00    -0.744 OA
ENDBRANCH  72  76
ENDBRANCH  55  69
BRANCH  56  80
ATOM     80  C   UNL     1       6.533  -5.924  11.606  1.00  0.00     0.023 A 
ATOM     81  C   UNL     1       5.843  -7.146  11.653  1.00  0.00     0.031 A 
ATOM     82  C   UNL     1       7.682  -5.846  10.800  1.00  0.00     0.131 A 
ATOM     83  C   UNL     1       6.327  -8.251  10.935  1.00  0.00     0.055 A 
ATOM     84  C   UNL     1       8.133  -6.934  10.050  1.00  0.00     0.041 A 
ATOM     85  F   UNL     1       8.380  -4.702  10.720  1.00  0.00    -0.206 F 
ATOM     86  C   UNL     1       7.459  -8.149  10.124  1.00  0.00     0.022 A 
BRANCH  83  87
ATOM     87  S   UNL     1       5.489  -9.847  11.129  1.00  0.00     0.124 S 
ATOM     88  O   UNL     1       5.644 -10.094  12.557  1.00  0.00    -0.237 OA
ATOM     89  O   UNL     1       4.138  -9.536  10.673  1.00  0.00    -0.237 OA
ATOM     90  O   UNL     1       6.248 -10.738  10.254  1.00  0.00    -0.744 OA
ENDBRANCH  83  87
ENDBRANCH  56  80
BRANCH  68  91
ATOM     91  C   UNL     1       5.838  -4.885  18.467  1.00  0.00     0.023 A 
ATOM     92  C   UNL     1       7.115  -5.376  18.790  1.00  0.00     0.031 A 
ATOM     93  C   UNL     1       4.753  -5.301  19.260  1.00  0.00     0.131 A 
ATOM     94  C   UNL     1       7.263  -6.318  19.819  1.00  0.00     0.055 A 
ATOM     95  C   UNL     1       4.918  -6.176  20.334  1.00  0.00     0.041 A 
ATOM     96  F   UNL     1       3.509  -4.867  19.000  1.00  0.00    -0.206 F 
ATOM     97  C   UNL     1       6.176  -6.707  20.606  1.00  0.00     0.022 A 
BRANCH  94  98
ATOM     98  S   UNL     1       8.868  -7.138  20.022  1.00  0.00     0.124 S 
ATOM     99  O   UNL     1       9.099  -7.684  18.688  1.00  0.00    -0.237 OA
ATOM    100  O   UNL     1       9.735  -6.032  20.416  1.00  0.00    -0.237 OA
ATOM    101  O   UNL     1       8.617  -8.131  21.064  1.00  0.00    -0.744 OA
ENDBRANCH  94  98
ENDBRANCH  68  91
ENDBRANCH  42  43
ENDBRANCH  35  37
ENDBRANCH  34  35
ENDBRANCH  33  34
ENDBRANCH  32  33
ENDBRANCH  31  32
ENDBRANCH  30  31
ENDBRANCH  29  30
ENDBRANCH  28  29
ENDBRANCH   1  28
TORSDOF 28
