REMARK SMILES C[C@@H]1CCC[C@H](C)[N@H+]1Cc1cc2c(cc1Cl)C=C(C(=O)OCCOCCOCCOCCOC(=O)c1ccc(-c3c4nc(c(-c5cc(S(=O)(=O)[O-])ccc5F)c5ccc([nH]5)c(-c5cc(S(=O)(=O)[O-])ccc5F)c5nc(c(-c6cc(S(=O)(=O)[O-])ccc6F)c6ccc3[nH]6)C=C5)C=C4)cc1)[C@@H](C(F)(F)F)O2
REMARK SMILES IDX 28 1 27 2 26 3 25 4 24 5 23 6 22 7 21 8 19 9 20 10 18 11
REMARK SMILES IDX 10 12 11 13 15 14 12 15 14 16 16 17 13 18 104 19 17 20 99 21
REMARK SMILES IDX 9 22 8 23 7 24 6 25 5 26 4 27 2 28 3 30 1 31 100 32 101 33
REMARK SMILES IDX 102 34 103 35 29 36 30 37 31 38 32 39 33 40 34 41 35 42
REMARK SMILES IDX 36 43 37 44 98 45 38 46 97 47 39 48 40 49 41 50 91 51 42 52
REMARK SMILES IDX 96 53 90 54 92 55 43 56 95 57 89 58 88 59 44 61 76 62 56 63
REMARK SMILES IDX 75 64 57 65 60 66 74 67 93 68 58 69 59 70 73 72 94 73 61 74
REMARK SMILES IDX 45 75 46 76 54 77 47 78 53 79 55 80 52 81 48 82 49 83 50 84
REMARK SMILES IDX 51 85 77 86 78 87 86 88 79 89 85 90 87 91 84 92 80 93 81 94
REMARK SMILES IDX 82 95 83 96 62 97 63 98 71 99 64 100 70 101 72 102 69 103
REMARK SMILES IDX 65 104 66 105 67 106 68 107
REMARK H PARENT 8 29 92 60 60 71
REMARK Flexibility Score: inf
ROOT
ATOM      1  C   UNL     1      -0.530 -10.226  -5.159  1.00  0.00     0.188 C 
ENDROOT
BRANCH   1   2
ATOM      2  O   UNL     1      -1.236  -9.454  -4.186  1.00  0.00    -0.377 OA
BRANCH   2   3
ATOM      3  C   UNL     1      -0.541  -9.095  -3.004  1.00  0.00     0.188 C 
BRANCH   3   4
ATOM      4  C   UNL     1      -0.612 -10.189  -1.923  1.00  0.00     0.188 C 
BRANCH   4   5
ATOM      5  O   UNL     1      -1.019 -11.453  -2.434  1.00  0.00    -0.376 OA
BRANCH   5   6
ATOM      6  C   UNL     1      -2.383 -11.834  -2.299  1.00  0.00     0.202 C 
BRANCH   6   7
ATOM      7  C   UNL     1      -3.487 -10.959  -2.921  1.00  0.00     0.261 C 
BRANCH   7   8
ATOM      8  O   UNL     1      -3.459  -9.567  -2.565  1.00  0.00    -0.460 OA
BRANCH   8   9
ATOM      9  C   UNL     1      -3.702  -9.256  -1.282  1.00  0.00     0.338 C 
ATOM     10  O   UNL     1      -4.019 -10.030  -0.394  1.00  0.00    -0.246 OA
BRANCH   9  11
ATOM     11  C   UNL     1      -3.350  -7.835  -1.061  1.00  0.00     0.087 C 
ATOM     12  C   UNL     1      -1.929  -3.450   0.983  1.00  0.00     0.029 A 
ATOM     13  C   UNL     1      -2.301  -3.858  -0.318  1.00  0.00     0.058 A 
ATOM     14  C   UNL     1      -1.946  -4.421   2.000  1.00  0.00     0.050 A 
ATOM     15  C   UNL     1      -2.615  -5.194  -0.599  1.00  0.00     0.128 A 
ATOM     16  C   UNL     1      -2.190  -5.764   1.703  1.00  0.00     0.033 A 
ATOM     17  Cl  UNL     1      -1.718  -4.049   3.673  1.00  0.00    -0.084 Cl
ATOM     18  C   UNL     1      -2.522  -6.151   0.407  1.00  0.00     0.019 A 
ATOM     19  O   UNL     1      -2.975  -5.501  -1.882  1.00  0.00    -0.475 OA
ATOM     20  C   UNL     1      -2.802  -7.544   0.124  1.00  0.00     0.027 C 
ATOM     21  C   UNL     1      -3.604  -6.800  -2.130  1.00  0.00     0.316 C 
BRANCH  12  22
ATOM     22  C   UNL     1      -1.540  -2.004   1.235  1.00  0.00     0.301 C 
BRANCH  22  23
ATOM     23  N   UNL     1      -0.122  -1.624   1.054  1.00  0.00    -0.327 N 
ATOM     24  C   UNL     1       1.210  -0.272  -0.529  1.00  0.00     0.075 C 
ATOM     25  C   UNL     1       0.318  -1.510  -0.343  1.00  0.00     0.181 C 
ATOM     26  C   UNL     1       1.006  -2.771  -0.893  1.00  0.00     0.065 C 
ATOM     27  C   UNL     1       2.035  -3.371   0.057  1.00  0.00     0.012 C 
ATOM     28  C   UNL     1       0.824  -2.243   1.993  1.00  0.00     0.181 C 
ATOM     29  H   UNL     1      -0.097  -0.651   1.361  1.00  0.00     0.348 HD
ATOM     30  C   UNL     1       1.462  -3.534   1.459  1.00  0.00     0.065 C 
ATOM     31  C   UNL     1       1.904  -1.253   2.457  1.00  0.00     0.075 C 
ENDBRANCH  22  23
ENDBRANCH  12  22
BRANCH  21  32
ATOM     32  C   UNL     1      -5.108  -6.617  -2.370  1.00  0.00     0.430 C 
ATOM     33  F   UNL     1      -5.351  -5.662  -3.296  1.00  0.00    -0.167 F 
ATOM     34  F   UNL     1      -5.684  -7.759  -2.813  1.00  0.00    -0.167 F 
ATOM     35  F   UNL     1      -5.754  -6.255  -1.236  1.00  0.00    -0.167 F 
ENDBRANCH  21  32
ENDBRANCH   9  11
ENDBRANCH   8   9
ENDBRANCH   7   8
ENDBRANCH   6   7
ENDBRANCH   5   6
ENDBRANCH   4   5
ENDBRANCH   3   4
ENDBRANCH   2   3
ENDBRANCH   1   2
BRANCH   1  36
ATOM     36  C   UNL     1       0.624 -11.173  -4.753  1.00  0.00     0.188 C 
BRANCH  36  37
ATOM     37  O   UNL     1       1.599 -10.561  -3.909  1.00  0.00    -0.376 OA
BRANCH  37  38
ATOM     38  C   UNL     1       2.862 -10.279  -4.498  1.00  0.00     0.202 C 
BRANCH  38  39
ATOM     39  C   UNL     1       2.870  -9.031  -5.389  1.00  0.00     0.261 C 
BRANCH  39  40
ATOM     40  O   UNL     1       2.025  -9.096  -6.548  1.00  0.00    -0.460 OA
BRANCH  40  41
ATOM     41  C   UNL     1       2.241 -10.094  -7.435  1.00  0.00     0.338 C 
ATOM     42  O   UNL     1       3.129 -10.928  -7.396  1.00  0.00    -0.246 OA
BRANCH  41  43
ATOM     43  C   UNL     1       1.077 -10.126  -8.348  1.00  0.00     0.060 A 
ATOM     44  C   UNL     1       0.634  -8.951  -8.963  1.00  0.00     0.016 A 
ATOM     45  C   UNL     1       0.395 -11.332  -8.550  1.00  0.00     0.016 A 
ATOM     46  C   UNL     1      -0.478  -8.991  -9.803  1.00  0.00     0.010 A 
ATOM     47  C   UNL     1      -0.723 -11.369  -9.388  1.00  0.00     0.010 A 
ATOM     48  C   UNL     1      -1.153 -10.203 -10.039  1.00  0.00    -0.014 A 
BRANCH  48  49
ATOM     49  C   UNL     1      -2.160 -10.273 -11.125  1.00  0.00     0.031 A 
ATOM     50  C   UNL     1      -3.633 -10.271 -10.859  1.00  0.00     0.074 A 
ATOM     51  C   UNL     1      -1.700 -10.338 -12.389  1.00  0.00     0.049 A 
ATOM     52  N   UNL     1      -4.616 -10.213 -11.720  1.00  0.00    -0.248 NA
ATOM     53  C   UNL     1      -4.063 -10.350  -9.456  1.00  0.00     0.031 C 
ATOM     54  C   UNL     1      -0.282 -10.385 -12.751  1.00  0.00     0.029 A 
ATOM     55  N   UNL     1      -2.355 -10.369 -13.593  1.00  0.00    -0.354 N 
ATOM     56  C   UNL     1      -5.785 -10.224 -10.970  1.00  0.00     0.074 A 
ATOM     57  C   UNL     1      -5.386 -10.346  -9.582  1.00  0.00     0.031 C 
ATOM     58  C   UNL     1      -0.173 -10.416 -14.086  1.00  0.00     0.029 A 
ATOM     59  C   UNL     1      -1.510 -10.419 -14.677  1.00  0.00     0.049 A 
ATOM     60  H   UNL     1      -3.336 -10.357 -13.674  1.00  0.00     0.167 HD
ATOM     61  C   UNL     1      -7.064 -10.123 -11.408  1.00  0.00     0.034 A 
ATOM     62  C   UNL     1      -1.772 -10.456 -15.999  1.00  0.00     0.034 A 
ATOM     63  C   UNL     1      -7.433 -10.020 -12.801  1.00  0.00     0.049 A 
ATOM     64  C   UNL     1      -3.203 -10.364 -16.458  1.00  0.00     0.074 A 
ATOM     65  C   UNL     1      -8.699  -9.852 -13.337  1.00  0.00     0.029 A 
ATOM     66  N   UNL     1      -6.556 -10.088 -13.875  1.00  0.00    -0.354 N 
ATOM     67  N   UNL     1      -4.293 -10.247 -15.735  1.00  0.00    -0.248 NA
ATOM     68  C   UNL     1      -3.446 -10.388 -17.906  1.00  0.00     0.031 C 
ATOM     69  C   UNL     1      -8.597  -9.899 -14.728  1.00  0.00     0.029 A 
ATOM     70  C   UNL     1      -7.258 -10.007 -15.068  1.00  0.00     0.049 A 
ATOM     71  H   UNL     1      -5.579 -10.180 -13.800  1.00  0.00     0.167 HD
ATOM     72  C   UNL     1      -5.346 -10.158 -16.639  1.00  0.00     0.074 A 
ATOM     73  C   UNL     1      -4.760 -10.208 -17.963  1.00  0.00     0.031 C 
ATOM     74  C   UNL     1      -6.676 -10.048 -16.391  1.00  0.00     0.034 A 
BRANCH  61  75
ATOM     75  C   UNL     1      -8.183 -10.081 -10.394  1.00  0.00     0.023 A 
ATOM     76  C   UNL     1      -9.191 -11.066 -10.408  1.00  0.00     0.031 A 
ATOM     77  C   UNL     1      -8.345  -8.979  -9.535  1.00  0.00     0.131 A 
ATOM     78  C   UNL     1     -10.334 -10.906  -9.613  1.00  0.00     0.055 A 
ATOM     79  C   UNL     1      -9.466  -8.846  -8.714  1.00  0.00     0.041 A 
ATOM     80  F   UNL     1      -7.419  -8.008  -9.491  1.00  0.00    -0.206 F 
ATOM     81  C   UNL     1     -10.474  -9.805  -8.762  1.00  0.00     0.022 A 
BRANCH  78  82
ATOM     82  S   UNL     1     -11.718 -12.075  -9.709  1.00  0.00     0.124 S 
ATOM     83  O   UNL     1     -11.800 -12.555  -8.332  1.00  0.00    -0.237 OA
ATOM     84  O   UNL     1     -12.817 -11.213 -10.135  1.00  0.00    -0.237 OA
ATOM     85  O   UNL     1     -11.276 -13.063 -10.686  1.00  0.00    -0.744 OA
ENDBRANCH  78  82
ENDBRANCH  61  75
BRANCH  62  86
ATOM     86  C   UNL     1      -0.630 -10.503 -16.956  1.00  0.00     0.023 A 
ATOM     87  C   UNL     1       0.272 -11.583 -16.948  1.00  0.00     0.031 A 
ATOM     88  C   UNL     1      -0.349  -9.412 -17.795  1.00  0.00     0.131 A 
ATOM     89  C   UNL     1       1.449 -11.513 -17.704  1.00  0.00     0.055 A 
ATOM     90  C   UNL     1       0.787  -9.381 -18.605  1.00  0.00     0.041 A 
ATOM     91  F   UNL     1      -1.170  -8.351 -17.822  1.00  0.00    -0.206 F 
ATOM     92  C   UNL     1       1.703 -10.427 -18.547  1.00  0.00     0.022 A 
BRANCH  89  93
ATOM     93  S   UNL     1       2.756 -12.756 -17.505  1.00  0.00     0.124 S 
ATOM     94  O   UNL     1       2.866 -13.301 -18.854  1.00  0.00    -0.237 OA
ATOM     95  O   UNL     1       3.880 -11.936 -17.060  1.00  0.00    -0.237 OA
ATOM     96  O   UNL     1       2.216 -13.665 -16.499  1.00  0.00    -0.744 OA
ENDBRANCH  89  93
ENDBRANCH  62  86
BRANCH  74  97
ATOM     97  C   UNL     1      -7.629  -9.975 -17.562  1.00  0.00     0.023 A 
ATOM     98  C   UNL     1      -8.449  -8.842 -17.735  1.00  0.00     0.031 A 
ATOM     99  C   UNL     1      -7.840 -11.079 -18.407  1.00  0.00     0.131 A 
ATOM    100  C   UNL     1      -9.470  -8.857 -18.694  1.00  0.00     0.055 A 
ATOM    101  C   UNL     1      -8.823 -11.068 -19.398  1.00  0.00     0.041 A 
ATOM    102  F   UNL     1      -7.093 -12.188 -18.278  1.00  0.00    -0.206 F 
ATOM    103  C   UNL     1      -9.655  -9.960 -19.533  1.00  0.00     0.022 A 
BRANCH 100 104
ATOM    104  S   UNL     1     -10.654  -7.489 -18.825  1.00  0.00     0.124 S 
ATOM    105  O   UNL     1     -10.448  -7.041 -20.201  1.00  0.00    -0.237 OA
ATOM    106  O   UNL     1     -11.927  -8.159 -18.572  1.00  0.00    -0.237 OA
ATOM    107  O   UNL     1     -10.223  -6.549 -17.796  1.00  0.00    -0.744 OA
ENDBRANCH 100 104
ENDBRANCH  74  97
ENDBRANCH  48  49
ENDBRANCH  41  43
ENDBRANCH  40  41
ENDBRANCH  39  40
ENDBRANCH  38  39
ENDBRANCH  37  38
ENDBRANCH  36  37
ENDBRANCH   1  36
TORSDOF 26
