REMARK SMILES O=C(CCCNc1ccccc1SC(F)F)OCCOCCOCCOCCOC(=O)c1ccc(-c2c3nc(c(-c4cc(S(=O)(=O)[O-])ccc4F)c4ccc([nH]4)c(-c4cc(S(=O)(=O)[O-])ccc4F)c4nc(c(-c5cc(S(=O)(=O)[O-])ccc5F)c5ccc2[nH]5)C=C4)C=C3)cc1
REMARK SMILES IDX 21 1 20 2 19 3 18 4 17 5 2 6 1 7 3 8 4 9 5 10 6 11 7 13 8 14
REMARK SMILES IDX 12 15 9 16 11 17 10 18 13 19 14 20 15 21 16 22 22 23 23 24
REMARK SMILES IDX 24 25 25 26 26 27 27 28 28 29 29 30 30 31 31 32 32 33 33 34
REMARK SMILES IDX 94 35 34 36 93 37 35 38 36 39 37 40 87 41 38 42 92 43 86 44
REMARK SMILES IDX 88 45 39 46 91 47 85 48 84 49 40 51 72 52 52 53 71 54 53 55
REMARK SMILES IDX 56 56 70 57 89 58 54 59 55 60 69 62 90 63 57 64 41 65 42 66
REMARK SMILES IDX 50 67 43 68 49 69 51 70 48 71 44 72 45 73 46 74 47 75 73 76
REMARK SMILES IDX 74 77 82 78 75 79 81 80 83 81 80 82 76 83 77 84 78 85 79 86
REMARK SMILES IDX 58 87 59 88 67 89 60 90 66 91 68 92 65 93 61 94 62 95 63 96
REMARK SMILES IDX 64 97
REMARK H PARENT 6 12 88 50 56 61
REMARK Flexibility Score: inf
ROOT
ATOM      1  C   UNL     1       2.737  -0.960  -1.492  1.00  0.00     0.188 C 
ENDROOT
BRANCH   1   2
ATOM      2  O   UNL     1       3.842  -0.629  -0.651  1.00  0.00    -0.376 OA
BRANCH   2   3
ATOM      3  C   UNL     1       3.860  -1.271   0.617  1.00  0.00     0.202 C 
BRANCH   3   4
ATOM      4  C   UNL     1       3.065  -0.537   1.684  1.00  0.00     0.261 C 
BRANCH   4   5
ATOM      5  O   UNL     1       1.882   0.098   1.182  1.00  0.00    -0.463 OA
BRANCH   5   6
ATOM      6  C   UNL     1       1.859   1.452   1.099  1.00  0.00     0.305 C 
ATOM      7  O   UNL     1       0.970   2.095   1.652  1.00  0.00    -0.252 OA
BRANCH   6   8
ATOM      8  C   UNL     1       2.812   2.119   0.125  1.00  0.00     0.124 C 
BRANCH   8   9
ATOM      9  C   UNL     1       3.893   3.009   0.726  1.00  0.00     0.033 C 
BRANCH   9  10
ATOM     10  C   UNL     1       5.169   2.334   1.235  1.00  0.00     0.113 C 
BRANCH  10  11
ATOM     11  N   UNL     1       5.905   1.633   0.204  1.00  0.00    -0.384 N 
ATOM     12  H   UNL     1       5.446   1.502  -0.657  1.00  0.00     0.160 HD
BRANCH  11  13
ATOM     13  C   UNL     1       7.201   1.124   0.307  1.00  0.00     0.048 A 
ATOM     14  C   UNL     1       7.813   0.790  -0.927  1.00  0.00     0.027 A 
ATOM     15  C   UNL     1       8.002   0.996   1.469  1.00  0.00     0.036 A 
ATOM     16  C   UNL     1       9.132   0.333  -1.020  1.00  0.00     0.002 A 
ATOM     17  C   UNL     1       9.325   0.506   1.362  1.00  0.00     0.017 A 
ATOM     18  C   UNL     1       9.886   0.178   0.130  1.00  0.00     0.001 A 
BRANCH  15  19
ATOM     19  S   UNL     1       7.551   1.472   3.143  1.00  0.00    -0.053 SA
BRANCH  19  20
ATOM     20  C   UNL     1       6.552   0.062   3.668  1.00  0.00     0.405 C 
ATOM     21  F   UNL     1       5.325   0.506   4.060  1.00  0.00    -0.198 F 
ATOM     22  F   UNL     1       6.326  -0.830   2.675  1.00  0.00    -0.198 F 
ENDBRANCH  19  20
ENDBRANCH  15  19
ENDBRANCH  11  13
ENDBRANCH  10  11
ENDBRANCH   9  10
ENDBRANCH   8   9
ENDBRANCH   6   8
ENDBRANCH   5   6
ENDBRANCH   4   5
ENDBRANCH   3   4
ENDBRANCH   2   3
ENDBRANCH   1   2
BRANCH   1  23
ATOM     23  C   UNL     1       2.491  -2.450  -1.743  1.00  0.00     0.188 C 
BRANCH  23  24
ATOM     24  O   UNL     1       3.591  -3.352  -1.810  1.00  0.00    -0.377 OA
BRANCH  24  25
ATOM     25  C   UNL     1       4.888  -2.857  -2.105  1.00  0.00     0.188 C 
BRANCH  25  26
ATOM     26  C   UNL     1       5.121  -2.237  -3.485  1.00  0.00     0.188 C 
BRANCH  26  27
ATOM     27  O   UNL     1       3.944  -1.704  -4.084  1.00  0.00    -0.376 OA
BRANCH  27  28
ATOM     28  C   UNL     1       3.600  -2.316  -5.324  1.00  0.00     0.202 C 
BRANCH  28  29
ATOM     29  C   UNL     1       2.806  -3.628  -5.199  1.00  0.00     0.261 C 
BRANCH  29  30
ATOM     30  O   UNL     1       3.356  -4.633  -4.330  1.00  0.00    -0.460 OA
BRANCH  30  31
ATOM     31  C   UNL     1       4.511  -5.223  -4.721  1.00  0.00     0.338 C 
ATOM     32  O   UNL     1       5.118  -4.992  -5.743  1.00  0.00    -0.246 OA
BRANCH  31  33
ATOM     33  C   UNL     1       5.020  -6.076  -3.611  1.00  0.00     0.060 A 
ATOM     34  C   UNL     1       6.350  -5.909  -3.203  1.00  0.00     0.016 A 
ATOM     35  C   UNL     1       4.217  -7.034  -2.984  1.00  0.00     0.016 A 
ATOM     36  C   UNL     1       6.878  -6.697  -2.175  1.00  0.00     0.010 A 
ATOM     37  C   UNL     1       4.760  -7.850  -1.978  1.00  0.00     0.010 A 
ATOM     38  C   UNL     1       6.102  -7.702  -1.582  1.00  0.00    -0.014 A 
BRANCH  38  39
ATOM     39  C   UNL     1       6.773  -8.718  -0.724  1.00  0.00     0.031 A 
ATOM     40  C   UNL     1       7.284  -9.975  -1.383  1.00  0.00     0.074 A 
ATOM     41  C   UNL     1       6.997  -8.515   0.589  1.00  0.00     0.049 A 
ATOM     42  N   UNL     1       7.940 -10.982  -0.867  1.00  0.00    -0.248 NA
ATOM     43  C   UNL     1       7.018 -10.104  -2.825  1.00  0.00     0.031 C 
ATOM     44  C   UNL     1       6.590  -7.331   1.344  1.00  0.00     0.029 A 
ATOM     45  N   UNL     1       7.628  -9.305   1.522  1.00  0.00    -0.354 N 
ATOM     46  C   UNL     1       8.188 -11.852  -1.923  1.00  0.00     0.074 A 
ATOM     47  C   UNL     1       7.563 -11.279  -3.096  1.00  0.00     0.031 C 
ATOM     48  C   UNL     1       6.975  -7.478   2.626  1.00  0.00     0.029 A 
ATOM     49  C   UNL     1       7.634  -8.774   2.792  1.00  0.00     0.049 A 
ATOM     50  H   UNL     1       8.039 -10.172   1.301  1.00  0.00     0.167 HD
ATOM     51  C   UNL     1       8.888 -13.014  -1.925  1.00  0.00     0.034 A 
ATOM     52  C   UNL     1       8.102  -9.280   3.954  1.00  0.00     0.034 A 
ATOM     53  C   UNL     1       9.477 -13.603  -0.748  1.00  0.00     0.049 A 
ATOM     54  C   UNL     1       8.793 -10.629   3.945  1.00  0.00     0.074 A 
ATOM     55  C   UNL     1      10.188 -14.786  -0.639  1.00  0.00     0.029 A 
ATOM     56  N   UNL     1       9.415 -13.061   0.529  1.00  0.00    -0.354 N 
ATOM     57  N   UNL     1       9.037 -11.431   2.933  1.00  0.00    -0.248 NA
ATOM     58  C   UNL     1       9.288 -11.129   5.235  1.00  0.00     0.031 C 
ATOM     59  C   UNL     1      10.492 -14.995   0.710  1.00  0.00     0.029 A 
ATOM     60  C   UNL     1      10.049 -13.900   1.435  1.00  0.00     0.049 A 
ATOM     61  H   UNL     1       8.985 -12.206   0.759  1.00  0.00     0.167 HD
ATOM     62  C   UNL     1       9.738 -12.513   3.465  1.00  0.00     0.074 A 
ATOM     63  C   UNL     1       9.906 -12.244   4.877  1.00  0.00     0.031 C 
ATOM     64  C   UNL     1      10.199 -13.632   2.845  1.00  0.00     0.034 A 
BRANCH  51  65
ATOM     65  C   UNL     1       9.013 -13.742  -3.241  1.00  0.00     0.023 A 
ATOM     66  C   UNL     1       9.718 -13.187  -4.324  1.00  0.00     0.031 A 
ATOM     67  C   UNL     1       8.406 -14.997  -3.423  1.00  0.00     0.131 A 
ATOM     68  C   UNL     1       9.749 -13.856  -5.556  1.00  0.00     0.055 A 
ATOM     69  C   UNL     1       8.505 -15.694  -4.629  1.00  0.00     0.041 A 
ATOM     70  F   UNL     1       7.698 -15.564  -2.434  1.00  0.00    -0.206 F 
ATOM     71  C   UNL     1       9.170 -15.118  -5.708  1.00  0.00     0.022 A 
BRANCH  68  72
ATOM     72  S   UNL     1      10.449 -12.999  -6.993  1.00  0.00     0.124 S 
ATOM     73  O   UNL     1       9.587 -11.823  -7.084  1.00  0.00    -0.237 OA
ATOM     74  O   UNL     1      11.824 -12.753  -6.576  1.00  0.00    -0.237 OA
ATOM     75  O   UNL     1      10.289 -13.964  -8.079  1.00  0.00    -0.744 OA
ENDBRANCH  68  72
ENDBRANCH  51  65
BRANCH  52  76
ATOM     76  C   UNL     1       7.901  -8.554   5.247  1.00  0.00     0.023 A 
ATOM     77  C   UNL     1       8.986  -8.149   6.043  1.00  0.00     0.031 A 
ATOM     78  C   UNL     1       6.605  -8.349   5.755  1.00  0.00     0.131 A 
ATOM     79  C   UNL     1       8.758  -7.621   7.326  1.00  0.00     0.055 A 
ATOM     80  C   UNL     1       6.383  -7.766   7.005  1.00  0.00     0.041 A 
ATOM     81  F   UNL     1       5.529  -8.723   5.045  1.00  0.00    -0.206 F 
ATOM     82  C   UNL     1       7.464  -7.415   7.806  1.00  0.00     0.022 A 
BRANCH  79  83
ATOM     83  S   UNL     1      10.182  -7.313   8.409  1.00  0.00     0.124 S 
ATOM     84  O   UNL     1      10.813  -8.627   8.453  1.00  0.00    -0.237 OA
ATOM     85  O   UNL     1      10.902  -6.279   7.674  1.00  0.00    -0.237 OA
ATOM     86  O   UNL     1       9.569  -6.872   9.660  1.00  0.00    -0.744 OA
ENDBRANCH  79  83
ENDBRANCH  52  76
BRANCH  64  87
ATOM     87  C   UNL     1      10.964 -14.624   3.694  1.00  0.00     0.023 A 
ATOM     88  C   UNL     1      10.358 -15.302   4.767  1.00  0.00     0.031 A 
ATOM     89  C   UNL     1      12.328 -14.868   3.450  1.00  0.00     0.131 A 
ATOM     90  C   UNL     1      11.130 -16.123   5.604  1.00  0.00     0.055 A 
ATOM     91  C   UNL     1      13.073 -15.745   4.240  1.00  0.00     0.041 A 
ATOM     92  F   UNL     1      12.964 -14.251   2.441  1.00  0.00    -0.206 F 
ATOM     93  C   UNL     1      12.480 -16.363   5.337  1.00  0.00     0.022 A 
BRANCH  90  94
ATOM     94  S   UNL     1      10.378 -16.765   7.125  1.00  0.00     0.124 S 
ATOM     95  O   UNL     1       9.925 -15.541   7.779  1.00  0.00    -0.237 OA
ATOM     96  O   UNL     1       9.329 -17.638   6.610  1.00  0.00    -0.237 OA
ATOM     97  O   UNL     1      11.484 -17.451   7.791  1.00  0.00    -0.744 OA
ENDBRANCH  90  94
ENDBRANCH  64  87
ENDBRANCH  38  39
ENDBRANCH  31  33
ENDBRANCH  30  31
ENDBRANCH  29  30
ENDBRANCH  28  29
ENDBRANCH  27  28
ENDBRANCH  26  27
ENDBRANCH  25  26
ENDBRANCH  24  25
ENDBRANCH  23  24
ENDBRANCH   1  23
TORSDOF 29
