REMARK SMILES COc1cnc(SCC(=O)OCCOCCOCCOCCOC(=O)c2ccc(-c3c4nc(c(-c5cc(S(=O)(=O)[O-])ccc5F)c5ccc([nH]5)c(-c5cc(S(=O)(=O)[O-])ccc5F)c5nc(c(-c6cc(S(=O)(=O)[O-])ccc6F)c6ccc3[nH]6)C=C5)C=C4)cc2)[nH]c1=O
REMARK SMILES IDX 17 1 16 2 15 3 14 4 13 5 12 6 11 7 9 8 10 9 8 10 7 11 6 12
REMARK SMILES IDX 3 13 4 14 90 15 5 16 89 17 91 18 2 20 1 21 18 22 19 23 20 24
REMARK SMILES IDX 21 25 22 26 23 27 24 28 25 29 26 30 27 31 88 32 28 33 87 34
REMARK SMILES IDX 29 35 30 36 31 37 81 38 32 39 86 40 80 41 82 42 33 43 85 44
REMARK SMILES IDX 79 45 78 46 34 48 66 49 46 50 65 51 47 52 50 53 64 54 83 55
REMARK SMILES IDX 48 56 49 57 63 59 84 60 51 61 35 62 36 63 44 64 37 65 43 66
REMARK SMILES IDX 45 67 42 68 38 69 39 70 40 71 41 72 67 73 68 74 76 75 69 76
REMARK SMILES IDX 75 77 77 78 74 79 70 80 71 81 72 82 73 83 52 84 53 85 61 86
REMARK SMILES IDX 54 87 60 88 62 89 59 90 55 91 56 92 57 93 58 94
REMARK H PARENT 89 19 82 47 50 58
REMARK Flexibility Score: inf
ROOT
ATOM      1  O   UNL     1       1.593  -2.935   5.009  1.00  0.00    -0.377 OA
ENDROOT
BRANCH   1   2
ATOM      2  C   UNL     1       0.619  -3.720   4.363  1.00  0.00     0.188 C 
BRANCH   2   3
ATOM      3  C   UNL     1      -0.848  -4.008   4.733  1.00  0.00     0.188 C 
BRANCH   3   4
ATOM      4  O   UNL     1      -1.283  -4.007   6.067  1.00  0.00    -0.376 OA
BRANCH   4   5
ATOM      5  C   UNL     1      -0.776  -4.880   7.050  1.00  0.00     0.202 C 
BRANCH   5   6
ATOM      6  C   UNL     1       0.063  -6.146   6.784  1.00  0.00     0.261 C 
BRANCH   6   7
ATOM      7  O   UNL     1       0.682  -6.306   5.493  1.00  0.00    -0.463 OA
BRANCH   7   8
ATOM      8  C   UNL     1       0.150  -7.241   4.669  1.00  0.00     0.316 C 
ATOM      9  O   UNL     1      -0.797  -7.955   5.000  1.00  0.00    -0.251 OA
BRANCH   8  10
ATOM     10  C   UNL     1       0.723  -7.358   3.261  1.00  0.00     0.200 C 
BRANCH  10  11
ATOM     11  S   UNL     1       2.238  -6.488   2.767  1.00  0.00    -0.076 SA
BRANCH  11  12
ATOM     12  C   UNL     1       1.645  -5.176   1.769  1.00  0.00     0.168 A 
ATOM     13  C   UNL     1       0.883  -2.863   0.472  1.00  0.00     0.202 A 
ATOM     14  C   UNL     1       0.062  -3.875   0.795  1.00  0.00     0.166 A 
ATOM     15  C   UNL     1       2.336  -3.117   0.737  1.00  0.00     0.293 A 
ATOM     16  N   UNL     1       0.408  -5.055   1.418  1.00  0.00    -0.229 NA
ATOM     17  N   UNL     1       2.605  -4.261   1.448  1.00  0.00    -0.298 N 
ATOM     18  O   UNL     1       3.234  -2.372   0.362  1.00  0.00    -0.265 OA
ATOM     19  H   UNL     1       3.530  -4.428   1.739  1.00  0.00     0.172 HD
BRANCH  13  20
ATOM     20  O   UNL     1       0.328  -1.667   0.045  1.00  0.00    -0.490 OA
ATOM     21  C   UNL     1       1.168  -0.611  -0.404  1.00  0.00     0.278 C 
ENDBRANCH  13  20
ENDBRANCH  11  12
ENDBRANCH  10  11
ENDBRANCH   8  10
ENDBRANCH   7   8
ENDBRANCH   6   7
ENDBRANCH   5   6
ENDBRANCH   4   5
ENDBRANCH   3   4
ENDBRANCH   2   3
ENDBRANCH   1   2
BRANCH   1  22
ATOM     22  C   UNL     1       1.289  -2.319   6.231  1.00  0.00     0.188 C 
BRANCH  22  23
ATOM     23  C   UNL     1       0.234  -1.218   6.132  1.00  0.00     0.188 C 
BRANCH  23  24
ATOM     24  O   UNL     1      -0.482  -1.241   4.906  1.00  0.00    -0.376 OA
BRANCH  24  25
ATOM     25  C   UNL     1      -0.047  -0.389   3.852  1.00  0.00     0.202 C 
BRANCH  25  26
ATOM     26  C   UNL     1       1.399  -0.457   3.324  1.00  0.00     0.261 C 
BRANCH  26  27
ATOM     27  O   UNL     1       2.456  -0.354   4.277  1.00  0.00    -0.460 OA
BRANCH  27  28
ATOM     28  C   UNL     1       2.576   0.801   4.952  1.00  0.00     0.338 C 
ATOM     29  O   UNL     1       1.889   1.802   4.832  1.00  0.00    -0.246 OA
BRANCH  28  30
ATOM     30  C   UNL     1       3.551   0.540   6.025  1.00  0.00     0.060 A 
ATOM     31  C   UNL     1       3.117   0.636   7.352  1.00  0.00     0.016 A 
ATOM     32  C   UNL     1       4.854   0.130   5.723  1.00  0.00     0.016 A 
ATOM     33  C   UNL     1       3.994   0.340   8.387  1.00  0.00     0.010 A 
ATOM     34  C   UNL     1       5.745  -0.133   6.764  1.00  0.00     0.010 A 
ATOM     35  C   UNL     1       5.322   0.006   8.097  1.00  0.00    -0.014 A 
BRANCH  35  36
ATOM     36  C   UNL     1       6.310   0.068   9.194  1.00  0.00     0.031 A 
ATOM     37  C   UNL     1       7.052   1.362   9.378  1.00  0.00     0.074 A 
ATOM     38  C   UNL     1       6.475  -0.964  10.039  1.00  0.00     0.049 A 
ATOM     39  N   UNL     1       7.951   1.686  10.267  1.00  0.00    -0.248 NA
ATOM     40  C   UNL     1       6.729   2.441   8.428  1.00  0.00     0.031 C 
ATOM     41  C   UNL     1       5.750  -2.233   9.974  1.00  0.00     0.029 A 
ATOM     42  N   UNL     1       7.302  -1.105  11.123  1.00  0.00    -0.354 N 
ATOM     43  C   UNL     1       8.308   2.999   9.977  1.00  0.00     0.074 A 
ATOM     44  C   UNL     1       7.550   3.403   8.816  1.00  0.00     0.031 C 
ATOM     45  C   UNL     1       6.168  -3.026  10.976  1.00  0.00     0.029 A 
ATOM     46  C   UNL     1       7.219  -2.339  11.725  1.00  0.00     0.049 A 
ATOM     47  H   UNL     1       7.899  -0.390  11.442  1.00  0.00     0.167 HD
ATOM     48  C   UNL     1       9.190   3.792  10.629  1.00  0.00     0.034 A 
ATOM     49  C   UNL     1       7.935  -2.853  12.746  1.00  0.00     0.034 A 
ATOM     50  C   UNL     1       9.938   3.354  11.780  1.00  0.00     0.049 A 
ATOM     51  C   UNL     1       8.979  -1.974  13.399  1.00  0.00     0.074 A 
ATOM     52  C   UNL     1      10.848   4.067  12.536  1.00  0.00     0.029 A 
ATOM     53  N   UNL     1       9.874   2.078  12.328  1.00  0.00    -0.354 N 
ATOM     54  N   UNL     1       9.297  -0.726  13.131  1.00  0.00    -0.248 NA
ATOM     55  C   UNL     1       9.753  -2.567  14.497  1.00  0.00     0.031 C 
ATOM     56  C   UNL     1      11.403   3.198  13.480  1.00  0.00     0.029 A 
ATOM     57  C   UNL     1      10.764   1.971  13.383  1.00  0.00     0.049 A 
ATOM     58  H   UNL     1       9.283   1.357  12.012  1.00  0.00     0.167 HD
ATOM     59  C   UNL     1      10.280  -0.377  14.054  1.00  0.00     0.074 A 
ATOM     60  C   UNL     1      10.488  -1.539  14.894  1.00  0.00     0.031 C 
ATOM     61  C   UNL     1      10.951   0.796  14.202  1.00  0.00     0.034 A 
BRANCH  48  62
ATOM     62  C   UNL     1       9.448   5.167  10.065  1.00  0.00     0.023 A 
ATOM     63  C   UNL     1       8.451   6.157  10.010  1.00  0.00     0.031 A 
ATOM     64  C   UNL     1      10.718   5.483   9.550  1.00  0.00     0.131 A 
ATOM     65  C   UNL     1       8.726   7.393   9.405  1.00  0.00     0.055 A 
ATOM     66  C   UNL     1      11.008   6.741   9.021  1.00  0.00     0.041 A 
ATOM     67  F   UNL     1      11.699   4.567   9.543  1.00  0.00    -0.206 F 
ATOM     68  C   UNL     1      10.005   7.702   8.936  1.00  0.00     0.022 A 
BRANCH  65  69
ATOM     69  S   UNL     1       7.356   8.547   9.117  1.00  0.00     0.124 S 
ATOM     70  O   UNL     1       6.468   7.748   8.277  1.00  0.00    -0.237 OA
ATOM     71  O   UNL     1       6.883   8.819  10.469  1.00  0.00    -0.237 OA
ATOM     72  O   UNL     1       7.993   9.675   8.440  1.00  0.00    -0.744 OA
ENDBRANCH  65  69
ENDBRANCH  48  62
BRANCH  49  73
ATOM     73  C   UNL     1       7.742  -4.267  13.186  1.00  0.00     0.023 A 
ATOM     74  C   UNL     1       7.376  -4.578  14.505  1.00  0.00     0.031 A 
ATOM     75  C   UNL     1       8.005  -5.338  12.311  1.00  0.00     0.131 A 
ATOM     76  C   UNL     1       7.348  -5.917  14.929  1.00  0.00     0.055 A 
ATOM     77  C   UNL     1       7.908  -6.670  12.719  1.00  0.00     0.041 A 
ATOM     78  F   UNL     1       8.366  -5.104  11.039  1.00  0.00    -0.206 F 
ATOM     79  C   UNL     1       7.596  -6.965  14.041  1.00  0.00     0.022 A 
BRANCH  76  80
ATOM     80  S   UNL     1       7.111  -6.263  16.695  1.00  0.00     0.124 S 
ATOM     81  O   UNL     1       8.190  -5.487  17.295  1.00  0.00    -0.237 OA
ATOM     82  O   UNL     1       5.759  -5.764  16.920  1.00  0.00    -0.237 OA
ATOM     83  O   UNL     1       7.262  -7.714  16.779  1.00  0.00    -0.744 OA
ENDBRANCH  76  80
ENDBRANCH  49  73
BRANCH  61  84
ATOM     84  C   UNL     1      11.927   0.889  15.350  1.00  0.00     0.023 A 
ATOM     85  C   UNL     1      13.087   0.099  15.405  1.00  0.00     0.031 A 
ATOM     86  C   UNL     1      11.685   1.784  16.408  1.00  0.00     0.131 A 
ATOM     87  C   UNL     1      13.927   0.171  16.526  1.00  0.00     0.055 A 
ATOM     88  C   UNL     1      12.565   1.907  17.482  1.00  0.00     0.041 A 
ATOM     89  F   UNL     1      10.590   2.562  16.409  1.00  0.00    -0.206 F 
ATOM     90  C   UNL     1      13.686   1.086  17.554  1.00  0.00     0.022 A 
BRANCH  87  91
ATOM     91  S   UNL     1      15.277  -1.030  16.677  1.00  0.00     0.124 S 
ATOM     92  O   UNL     1      14.560  -2.300  16.621  1.00  0.00    -0.237 OA
ATOM     93  O   UNL     1      16.107  -0.715  15.518  1.00  0.00    -0.237 OA
ATOM     94  O   UNL     1      15.875  -0.712  17.972  1.00  0.00    -0.744 OA
ENDBRANCH  87  91
ENDBRANCH  61  84
ENDBRANCH  35  36
ENDBRANCH  28  30
ENDBRANCH  27  28
ENDBRANCH  26  27
ENDBRANCH  25  26
ENDBRANCH  24  25
ENDBRANCH  23  24
ENDBRANCH  22  23
ENDBRANCH   1  22
TORSDOF 26
