REMARK SMILES Cc1ccccc1C(=O)Nc1cc(NC(=O)c2ccccc2C)cc(C(=O)OCCOCCOCCOCCOC(=O)c2ccc(-c3c4nc(c(-c5cc(S(=O)(=O)[O-])ccc5F)c5ccc([nH]5)c(-c5cc(S(=O)(=O)[O-])ccc5F)c5nc(c(-c6cc(S(=O)(=O)[O-])ccc6F)c6ccc3[nH]6)C=C5)C=C4)cc2)c1
REMARK SMILES IDX 35 1 34 2 33 3 32 4 31 5 30 6 29 7 28 8 26 9 27 10 25 11
REMARK SMILES IDX 11 12 12 13 106 14 13 15 24 16 10 17 8 18 9 19 7 21 1 22
REMARK SMILES IDX 2 23 3 24 4 25 6 26 5 27 14 28 15 29 16 31 17 32 18 33 22 34
REMARK SMILES IDX 19 35 21 36 23 37 20 38 36 39 37 40 38 41 39 42 40 43 41 44
REMARK SMILES IDX 42 45 43 46 44 47 105 48 45 49 104 50 46 51 47 52 48 53
REMARK SMILES IDX 98 54 49 55 103 56 97 57 99 58 50 59 102 60 96 61 95 62
REMARK SMILES IDX 51 64 83 65 63 66 82 67 64 68 67 69 81 70 100 71 65 72 66 73
REMARK SMILES IDX 80 75 101 76 68 77 52 78 53 79 61 80 54 81 60 82 62 83 59 84
REMARK SMILES IDX 55 85 56 86 57 87 58 88 84 89 85 90 93 91 86 92 92 93 94 94
REMARK SMILES IDX 91 95 87 96 88 97 89 98 90 99 69 100 70 101 78 102 71 103
REMARK SMILES IDX 77 104 79 105 76 106 72 107 73 108 74 109 75 110
REMARK H PARENT 10 20 14 30 99 63 67 74
REMARK Flexibility Score: inf
ROOT
ATOM      1  C   UNL     1       8.632  -0.609  -0.710  1.00  0.00     0.188 C 
ENDROOT
BRANCH   1   2
ATOM      2  O   UNL     1       7.371  -0.116  -0.252  1.00  0.00    -0.377 OA
BRANCH   2   3
ATOM      3  C   UNL     1       6.955   1.139  -0.744  1.00  0.00     0.188 C 
BRANCH   3   4
ATOM      4  C   UNL     1       6.797   2.283   0.287  1.00  0.00     0.188 C 
BRANCH   4   5
ATOM      5  O   UNL     1       7.593   2.381   1.455  1.00  0.00    -0.376 OA
BRANCH   5   6
ATOM      6  C   UNL     1       7.489   1.325   2.397  1.00  0.00     0.202 C 
BRANCH   6   7
ATOM      7  C   UNL     1       6.194   1.082   3.119  1.00  0.00     0.261 C 
BRANCH   7   8
ATOM      8  O   UNL     1       5.332   0.417   2.234  1.00  0.00    -0.460 OA
BRANCH   8   9
ATOM      9  C   UNL     1       4.197   1.093   2.119  1.00  0.00     0.338 C 
ATOM     10  O   UNL     1       3.722   1.915   2.866  1.00  0.00    -0.246 OA
BRANCH   9  11
ATOM     11  C   UNL     1       3.789   0.928   0.727  1.00  0.00     0.064 A 
ATOM     12  C   UNL     1       2.200   1.882  -0.669  1.00  0.00     0.044 A 
ATOM     13  C   UNL     1       2.131   0.695  -1.388  1.00  0.00     0.052 A 
ATOM     14  C   UNL     1       3.175   2.071   0.261  1.00  0.00     0.042 A 
ATOM     15  C   UNL     1       3.031  -0.354  -1.136  1.00  0.00     0.044 A 
ATOM     16  C   UNL     1       3.829  -0.264  -0.003  1.00  0.00     0.042 A 
BRANCH  12  17
ATOM     17  N   UNL     1       1.154   2.791  -0.543  1.00  0.00    -0.322 N 
ATOM     18  C   UNL     1       0.028   2.520   0.223  1.00  0.00     0.255 C 
ATOM     19  O   UNL     1      -0.565   3.472   0.732  1.00  0.00    -0.269 OA
ATOM     20  H   UNL     1       1.215   3.655  -1.012  1.00  0.00     0.170 HD
BRANCH  18  21
ATOM     21  C   UNL     1      -0.600   1.167   0.241  1.00  0.00     0.043 A 
ATOM     22  C   UNL     1       1.014  -0.220   1.734  1.00  0.00     0.045 C 
ATOM     23  C   UNL     1      -0.108  -0.051   0.753  1.00  0.00    -0.038 A 
ATOM     24  C   UNL     1      -0.793  -1.240   0.438  1.00  0.00     0.004 A 
ATOM     25  C   UNL     1      -2.031  -1.205  -0.193  1.00  0.00     0.000 A 
ATOM     26  C   UNL     1      -1.873   1.188  -0.345  1.00  0.00     0.014 A 
ATOM     27  C   UNL     1      -2.598   0.017  -0.529  1.00  0.00     0.001 A 
ENDBRANCH  18  21
ENDBRANCH  12  17
BRANCH  15  28
ATOM     28  N   UNL     1       3.046  -1.548  -1.885  1.00  0.00    -0.322 N 
ATOM     29  C   UNL     1       2.548  -1.781  -3.153  1.00  0.00     0.255 C 
ATOM     30  H   UNL     1       3.469  -2.321  -1.445  1.00  0.00     0.170 HD
ATOM     31  O   UNL     1       2.299  -2.916  -3.550  1.00  0.00    -0.269 OA
BRANCH  29  32
ATOM     32  C   UNL     1       2.304  -0.628  -4.058  1.00  0.00     0.043 A 
ATOM     33  C   UNL     1       0.990  -0.471  -4.524  1.00  0.00     0.014 A 
ATOM     34  C   UNL     1       3.279   0.357  -4.318  1.00  0.00    -0.038 A 
ATOM     35  C   UNL     1       0.612   0.714  -5.152  1.00  0.00     0.001 A 
ATOM     36  C   UNL     1       2.870   1.551  -4.931  1.00  0.00     0.004 A 
ATOM     37  C   UNL     1       4.719   0.234  -3.901  1.00  0.00     0.045 C 
ATOM     38  C   UNL     1       1.544   1.734  -5.329  1.00  0.00     0.000 A 
ENDBRANCH  29  32
ENDBRANCH  15  28
ENDBRANCH   9  11
ENDBRANCH   8   9
ENDBRANCH   7   8
ENDBRANCH   6   7
ENDBRANCH   5   6
ENDBRANCH   4   5
ENDBRANCH   3   4
ENDBRANCH   2   3
ENDBRANCH   1   2
BRANCH   1  39
ATOM     39  C   UNL     1       9.638   0.333  -1.318  1.00  0.00     0.188 C 
BRANCH  39  40
ATOM     40  O   UNL     1       9.731   1.450  -0.440  1.00  0.00    -0.376 OA
BRANCH  40  41
ATOM     41  C   UNL     1      10.207   2.637  -1.041  1.00  0.00     0.202 C 
BRANCH  41  42
ATOM     42  C   UNL     1      11.628   2.453  -1.570  1.00  0.00     0.261 C 
BRANCH  42  43
ATOM     43  O   UNL     1      12.515   2.169  -0.461  1.00  0.00    -0.460 OA
BRANCH  43  44
ATOM     44  C   UNL     1      12.890   0.862  -0.316  1.00  0.00     0.338 C 
ATOM     45  O   UNL     1      13.496   0.225  -1.160  1.00  0.00    -0.246 OA
BRANCH  44  46
ATOM     46  C   UNL     1      12.324   0.275   0.942  1.00  0.00     0.060 A 
ATOM     47  C   UNL     1      12.322  -1.111   1.187  1.00  0.00     0.016 A 
ATOM     48  C   UNL     1      11.549   1.081   1.749  1.00  0.00     0.016 A 
ATOM     49  C   UNL     1      11.384  -1.693   2.083  1.00  0.00     0.010 A 
ATOM     50  C   UNL     1      10.599   0.487   2.561  1.00  0.00     0.010 A 
ATOM     51  C   UNL     1      10.424  -0.902   2.705  1.00  0.00    -0.014 A 
BRANCH  51  52
ATOM     52  C   UNL     1       9.167  -1.362   3.401  1.00  0.00     0.031 A 
ATOM     53  C   UNL     1       8.789  -0.681   4.720  1.00  0.00     0.074 A 
ATOM     54  C   UNL     1       8.197  -2.041   2.702  1.00  0.00     0.049 A 
ATOM     55  N   UNL     1       7.700  -0.863   5.394  1.00  0.00    -0.248 NA
ATOM     56  C   UNL     1       9.605   0.353   5.367  1.00  0.00     0.031 C 
ATOM     57  C   UNL     1       6.752  -2.010   2.949  1.00  0.00     0.029 A 
ATOM     58  N   UNL     1       8.247  -2.851   1.558  1.00  0.00    -0.354 N 
ATOM     59  C   UNL     1       7.472   0.251   6.206  1.00  0.00     0.074 A 
ATOM     60  C   UNL     1       8.749   0.914   6.232  1.00  0.00     0.031 C 
ATOM     61  C   UNL     1       6.061  -2.754   2.073  1.00  0.00     0.029 A 
ATOM     62  C   UNL     1       7.041  -3.585   1.438  1.00  0.00     0.049 A 
ATOM     63  H   UNL     1       9.005  -2.901   0.932  1.00  0.00     0.167 HD
ATOM     64  C   UNL     1       6.190   0.556   6.609  1.00  0.00     0.034 A 
ATOM     65  C   UNL     1       7.036  -4.946   1.525  1.00  0.00     0.034 A 
ATOM     66  C   UNL     1       5.235  -0.472   6.144  1.00  0.00     0.049 A 
ATOM     67  C   UNL     1       6.368  -5.315   2.854  1.00  0.00     0.074 A 
ATOM     68  C   UNL     1       4.052  -0.450   5.421  1.00  0.00     0.029 A 
ATOM     69  N   UNL     1       5.563  -1.817   6.287  1.00  0.00    -0.354 N 
ATOM     70  N   UNL     1       6.380  -4.528   3.911  1.00  0.00    -0.248 NA
ATOM     71  C   UNL     1       5.403  -6.405   3.002  1.00  0.00     0.031 C 
ATOM     72  C   UNL     1       3.745  -1.789   5.039  1.00  0.00     0.029 A 
ATOM     73  C   UNL     1       4.718  -2.629   5.566  1.00  0.00     0.049 A 
ATOM     74  H   UNL     1       6.309  -2.148   6.837  1.00  0.00     0.167 HD
ATOM     75  C   UNL     1       5.337  -4.854   4.739  1.00  0.00     0.074 A 
ATOM     76  C   UNL     1       4.810  -6.087   4.170  1.00  0.00     0.031 C 
ATOM     77  C   UNL     1       4.803  -4.066   5.727  1.00  0.00     0.034 A 
BRANCH  64  78
ATOM     78  C   UNL     1       5.654   1.858   7.254  1.00  0.00     0.023 A 
ATOM     79  C   UNL     1       4.271   1.941   7.584  1.00  0.00     0.031 A 
ATOM     80  C   UNL     1       6.367   3.047   7.509  1.00  0.00     0.131 A 
ATOM     81  C   UNL     1       3.663   3.126   8.059  1.00  0.00     0.055 A 
ATOM     82  C   UNL     1       5.773   4.216   8.035  1.00  0.00     0.041 A 
ATOM     83  F   UNL     1       7.673   3.167   7.251  1.00  0.00    -0.206 F 
ATOM     84  C   UNL     1       4.413   4.266   8.300  1.00  0.00     0.022 A 
BRANCH  81  85
ATOM     85  S   UNL     1       1.864   3.165   8.341  1.00  0.00     0.124 S 
ATOM     86  O   UNL     1       1.338   3.099   6.982  1.00  0.00    -0.237 OA
ATOM     87  O   UNL     1       1.649   1.989   9.176  1.00  0.00    -0.237 OA
ATOM     88  O   UNL     1       1.654   4.444   9.021  1.00  0.00    -0.744 OA
ENDBRANCH  81  85
ENDBRANCH  64  78
BRANCH  65  89
ATOM     89  C   UNL     1       8.210  -5.479   0.746  1.00  0.00     0.023 A 
ATOM     90  C   UNL     1       8.127  -5.256  -0.662  1.00  0.00     0.031 A 
ATOM     91  C   UNL     1       9.492  -5.441   1.322  1.00  0.00     0.131 A 
ATOM     92  C   UNL     1       9.228  -4.728  -1.368  1.00  0.00     0.055 A 
ATOM     93  C   UNL     1      10.594  -4.953   0.597  1.00  0.00     0.041 A 
ATOM     94  F   UNL     1       9.650  -5.636   2.639  1.00  0.00    -0.206 F 
ATOM     95  C   UNL     1      10.449  -4.526  -0.725  1.00  0.00     0.022 A 
BRANCH  92  96
ATOM     96  S   UNL     1       8.973  -4.040  -3.043  1.00  0.00     0.124 S 
ATOM     97  O   UNL     1       8.930  -5.242  -3.866  1.00  0.00    -0.237 OA
ATOM     98  O   UNL     1       7.714  -3.314  -2.905  1.00  0.00    -0.237 OA
ATOM     99  O   UNL     1      10.140  -3.180  -3.241  1.00  0.00    -0.744 OA
ENDBRANCH  92  96
ENDBRANCH  65  89
BRANCH  77 100
ATOM    100  C   UNL     1       4.293  -4.635   7.027  1.00  0.00     0.023 A 
ATOM    101  C   UNL     1       4.424  -5.990   7.312  1.00  0.00     0.031 A 
ATOM    102  C   UNL     1       3.819  -3.819   8.090  1.00  0.00     0.131 A 
ATOM    103  C   UNL     1       4.014  -6.510   8.541  1.00  0.00     0.055 A 
ATOM    104  C   UNL     1       3.506  -4.325   9.351  1.00  0.00     0.041 A 
ATOM    105  F   UNL     1       3.671  -2.492   7.973  1.00  0.00    -0.206 F 
ATOM    106  C   UNL     1       3.583  -5.688   9.579  1.00  0.00     0.022 A 
BRANCH 103 107
ATOM    107  S   UNL     1       3.981  -8.304   8.681  1.00  0.00     0.124 S 
ATOM    108  O   UNL     1       3.019  -8.660   7.640  1.00  0.00    -0.237 OA
ATOM    109  O   UNL     1       5.368  -8.666   8.407  1.00  0.00    -0.237 OA
ATOM    110  O   UNL     1       3.533  -8.533  10.051  1.00  0.00    -0.744 OA
ENDBRANCH 103 107
ENDBRANCH  77 100
ENDBRANCH  51  52
ENDBRANCH  44  46
ENDBRANCH  43  44
ENDBRANCH  42  43
ENDBRANCH  41  42
ENDBRANCH  40  41
ENDBRANCH  39  40
ENDBRANCH   1  39
TORSDOF 27
