REMARK SMILES CCCCCCNC(=O)Oc1cccc(-c2ccc([C@@H](C)C(=O)OCCOCCOCCOCCOC(=O)c3ccc(-c4c5nc(c(-c6cc(S(=O)(=O)[O-])ccc6F)c6ccc([nH]6)c(-c6cc(S(=O)(=O)[O-])ccc6F)c6nc(c(-c7cc(S(=O)(=O)[O-])ccc7F)c7ccc4[nH]7)C=C6)C=C5)cc3)cc2Cl)c1
REMARK SMILES IDX 27 1 26 2 25 3 24 4 22 5 23 6 20 7 21 8 19 9 16 10 17 11
REMARK SMILES IDX 103 12 18 13 102 14 104 15 15 16 11 17 12 18 105 19 13 20
REMARK SMILES IDX 14 21 10 22 8 23 7 24 9 26 6 27 5 28 4 29 3 30 2 31 1 32
REMARK SMILES IDX 28 33 29 34 30 35 31 36 32 37 33 38 34 39 35 40 36 41 37 42
REMARK SMILES IDX 38 43 39 44 40 45 101 46 41 47 100 48 42 49 43 50 44 51
REMARK SMILES IDX 94 52 45 53 99 54 93 55 95 56 46 57 98 58 92 59 91 60 47 62
REMARK SMILES IDX 79 63 59 64 78 65 60 66 63 67 77 68 96 69 61 70 62 71 76 73
REMARK SMILES IDX 97 74 64 75 48 76 49 77 57 78 50 79 56 80 58 81 55 82 51 83
REMARK SMILES IDX 52 84 53 85 54 86 80 87 81 88 89 89 82 90 88 91 90 92 87 93
REMARK SMILES IDX 83 94 84 95 85 96 86 97 65 98 66 99 74 100 67 101 73 102
REMARK SMILES IDX 75 103 72 104 68 105 69 106 70 107 71 108
REMARK H PARENT 7 25 95 61 63 72
REMARK Flexibility Score: inf
ROOT
ATOM      1  O   UNL     1      -0.072 -12.787  -6.688  1.00  0.00    -0.376 OA
ENDROOT
BRANCH   1   2
ATOM      2  C   UNL     1      -0.404 -12.891  -8.066  1.00  0.00     0.202 C 
BRANCH   2   3
ATOM      3  C   UNL     1      -1.823 -13.295  -8.508  1.00  0.00     0.261 C 
BRANCH   3   4
ATOM      4  O   UNL     1      -2.922 -12.553  -7.937  1.00  0.00    -0.463 OA
BRANCH   4   5
ATOM      5  C   UNL     1      -3.647 -13.189  -6.990  1.00  0.00     0.313 C 
ATOM      6  O   UNL     1      -3.420 -14.341  -6.621  1.00  0.00    -0.252 OA
BRANCH   5   7
ATOM      7  C   UNL     1      -4.816 -12.404  -6.399  1.00  0.00     0.126 C 
ATOM      8  C   UNL     1      -6.118 -13.003  -6.917  1.00  0.00     0.025 C 
BRANCH   7   9
ATOM      9  C   UNL     1      -4.856 -10.875  -6.428  1.00  0.00    -0.033 A 
ATOM     10  C   UNL     1      -4.916  -7.994  -6.320  1.00  0.00     0.000 A 
ATOM     11  C   UNL     1      -4.846  -8.699  -7.540  1.00  0.00     0.010 A 
ATOM     12  C   UNL     1      -4.964  -8.769  -5.149  1.00  0.00     0.049 A 
ATOM     13  C   UNL     1      -4.821 -10.110  -7.597  1.00  0.00     0.005 A 
ATOM     14  C   UNL     1      -4.943 -10.175  -5.205  1.00  0.00     0.025 A 
ATOM     15  Cl  UNL     1      -5.083  -8.061  -3.570  1.00  0.00    -0.084 Cl
BRANCH  10  16
ATOM     16  C   UNL     1      -4.987  -6.512  -6.318  1.00  0.00    -0.013 A 
ATOM     17  C   UNL     1      -4.152  -4.319  -5.650  1.00  0.00     0.133 A 
ATOM     18  C   UNL     1      -5.238  -3.689  -6.251  1.00  0.00     0.047 A 
ATOM     19  C   UNL     1      -4.020  -5.713  -5.677  1.00  0.00     0.056 A 
ATOM     20  C   UNL     1      -6.193  -4.461  -6.907  1.00  0.00     0.004 A 
ATOM     21  C   UNL     1      -6.068  -5.855  -6.937  1.00  0.00     0.009 A 
BRANCH  17  22
ATOM     22  O   UNL     1      -3.279  -3.506  -4.903  1.00  0.00    -0.410 OA
BRANCH  22  23
ATOM     23  C   UNL     1      -1.938  -3.522  -5.253  1.00  0.00     0.412 C 
ATOM     24  N   UNL     1      -1.154  -2.715  -4.472  1.00  0.00    -0.321 N 
ATOM     25  H   UNL     1      -0.186  -2.744  -4.649  1.00  0.00     0.167 HD
ATOM     26  O   UNL     1      -1.442  -4.176  -6.163  1.00  0.00    -0.224 OA
BRANCH  24  27
ATOM     27  C   UNL     1      -1.585  -1.822  -3.414  1.00  0.00     0.119 C 
BRANCH  27  28
ATOM     28  C   UNL     1      -0.966  -2.178  -2.062  1.00  0.00     0.021 C 
BRANCH  28  29
ATOM     29  C   UNL     1       0.564  -2.074  -1.996  1.00  0.00     0.002 C 
BRANCH  29  30
ATOM     30  C   UNL     1       1.150  -0.685  -2.279  1.00  0.00    -0.000 C 
BRANCH  30  31
ATOM     31  C   UNL     1       0.689   0.431  -1.338  1.00  0.00    -0.003 C 
ATOM     32  C   UNL     1       1.096   0.208   0.111  1.00  0.00     0.004 C 
ENDBRANCH  30  31
ENDBRANCH  29  30
ENDBRANCH  28  29
ENDBRANCH  27  28
ENDBRANCH  24  27
ENDBRANCH  22  23
ENDBRANCH  17  22
ENDBRANCH  10  16
ENDBRANCH   7   9
ENDBRANCH   5   7
ENDBRANCH   4   5
ENDBRANCH   3   4
ENDBRANCH   2   3
ENDBRANCH   1   2
BRANCH   1  33
ATOM     33  C   UNL     1      -0.840 -11.973  -5.812  1.00  0.00     0.188 C 
BRANCH  33  34
ATOM     34  C   UNL     1      -1.460 -10.649  -6.282  1.00  0.00     0.188 C 
BRANCH  34  35
ATOM     35  O   UNL     1      -1.368 -10.404  -7.668  1.00  0.00    -0.377 OA
BRANCH  35  36
ATOM     36  C   UNL     1      -0.380  -9.476  -8.088  1.00  0.00     0.188 C 
BRANCH  36  37
ATOM     37  C   UNL     1       0.980  -9.526  -7.367  1.00  0.00     0.188 C 
BRANCH  37  38
ATOM     38  O   UNL     1       0.892  -9.410  -5.949  1.00  0.00    -0.376 OA
BRANCH  38  39
ATOM     39  C   UNL     1       1.061  -8.120  -5.374  1.00  0.00     0.202 C 
BRANCH  39  40
ATOM     40  C   UNL     1      -0.002  -7.053  -5.679  1.00  0.00     0.261 C 
BRANCH  40  41
ATOM     41  O   UNL     1      -0.186  -6.714  -7.059  1.00  0.00    -0.460 OA
BRANCH  41  42
ATOM     42  C   UNL     1       0.870  -6.236  -7.754  1.00  0.00     0.338 C 
ATOM     43  O   UNL     1       1.987  -6.033  -7.333  1.00  0.00    -0.246 OA
BRANCH  42  44
ATOM     44  C   UNL     1       0.481  -6.233  -9.187  1.00  0.00     0.060 A 
ATOM     45  C   UNL     1       1.191  -7.042 -10.084  1.00  0.00     0.016 A 
ATOM     46  C   UNL     1      -0.588  -5.455  -9.636  1.00  0.00     0.016 A 
ATOM     47  C   UNL     1       0.851  -7.054 -11.440  1.00  0.00     0.010 A 
ATOM     48  C   UNL     1      -0.908  -5.446 -10.999  1.00  0.00     0.010 A 
ATOM     49  C   UNL     1      -0.173  -6.225 -11.913  1.00  0.00    -0.014 A 
BRANCH  49  50
ATOM     50  C   UNL     1      -0.347  -6.015 -13.375  1.00  0.00     0.031 A 
ATOM     51  C   UNL     1       0.289  -4.801 -13.997  1.00  0.00     0.074 A 
ATOM     52  C   UNL     1      -1.040  -6.878 -14.140  1.00  0.00     0.049 A 
ATOM     53  N   UNL     1       0.198  -4.345 -15.219  1.00  0.00    -0.248 NA
ATOM     54  C   UNL     1       1.143  -3.993 -13.113  1.00  0.00     0.031 C 
ATOM     55  C   UNL     1      -1.643  -8.125 -13.673  1.00  0.00     0.029 A 
ATOM     56  N   UNL     1      -1.365  -6.828 -15.475  1.00  0.00    -0.354 N 
ATOM     57  C   UNL     1       0.974  -3.190 -15.249  1.00  0.00     0.074 A 
ATOM     58  C   UNL     1       1.501  -3.003 -13.915  1.00  0.00     0.031 C 
ATOM     59  C   UNL     1      -2.280  -8.712 -14.702  1.00  0.00     0.029 A 
ATOM     60  C   UNL     1      -2.175  -7.861 -15.887  1.00  0.00     0.049 A 
ATOM     61  H   UNL     1      -1.046  -6.119 -16.079  1.00  0.00     0.167 HD
ATOM     62  C   UNL     1       1.224  -2.364 -16.295  1.00  0.00     0.034 A 
ATOM     63  C   UNL     1      -2.793  -8.071 -17.069  1.00  0.00     0.034 A 
ATOM     64  C   UNL     1       0.676  -2.554 -17.615  1.00  0.00     0.049 A 
ATOM     65  C   UNL     1      -2.601  -7.069 -18.187  1.00  0.00     0.074 A 
ATOM     66  C   UNL     1       0.873  -1.784 -18.748  1.00  0.00     0.029 A 
ATOM     67  N   UNL     1      -0.193  -3.576 -17.976  1.00  0.00    -0.354 N 
ATOM     68  N   UNL     1      -1.867  -5.979 -18.206  1.00  0.00    -0.248 NA
ATOM     69  C   UNL     1      -3.323  -7.324 -19.442  1.00  0.00     0.031 C 
ATOM     70  C   UNL     1       0.057  -2.287 -19.766  1.00  0.00     0.029 A 
ATOM     71  C   UNL     1      -0.577  -3.428 -19.300  1.00  0.00     0.049 A 
ATOM     72  H   UNL     1      -0.493  -4.300 -17.380  1.00  0.00     0.167 HD
ATOM     73  C   UNL     1      -2.016  -5.441 -19.484  1.00  0.00     0.074 A 
ATOM     74  C   UNL     1      -2.899  -6.329 -20.209  1.00  0.00     0.031 C 
ATOM     75  C   UNL     1      -1.466  -4.317 -20.012  1.00  0.00     0.034 A 
BRANCH  62  76
ATOM     76  C   UNL     1       2.076  -1.147 -16.030  1.00  0.00     0.023 A 
ATOM     77  C   UNL     1       3.421  -1.252 -15.635  1.00  0.00     0.031 A 
ATOM     78  C   UNL     1       1.525   0.142 -16.148  1.00  0.00     0.131 A 
ATOM     79  C   UNL     1       4.147  -0.097 -15.305  1.00  0.00     0.055 A 
ATOM     80  C   UNL     1       2.277   1.291 -15.900  1.00  0.00     0.041 A 
ATOM     81  F   UNL     1       0.239   0.305 -16.496  1.00  0.00    -0.206 F 
ATOM     82  C   UNL     1       3.592   1.175 -15.462  1.00  0.00     0.022 A 
BRANCH  79  83
ATOM     83  S   UNL     1       5.774  -0.288 -14.527  1.00  0.00     0.124 S 
ATOM     84  O   UNL     1       5.445  -1.080 -13.344  1.00  0.00    -0.237 OA
ATOM     85  O   UNL     1       6.540  -0.973 -15.562  1.00  0.00    -0.237 OA
ATOM     86  O   UNL     1       6.186   1.087 -14.252  1.00  0.00    -0.744 OA
ENDBRANCH  79  83
ENDBRANCH  62  76
BRANCH  63  87
ATOM     87  C   UNL     1      -3.705  -9.239 -17.254  1.00  0.00     0.023 A 
ATOM     88  C   UNL     1      -3.446 -10.219 -18.226  1.00  0.00     0.031 A 
ATOM     89  C   UNL     1      -4.892  -9.354 -16.507  1.00  0.00     0.131 A 
ATOM     90  C   UNL     1      -4.381 -11.242 -18.457  1.00  0.00     0.055 A 
ATOM     91  C   UNL     1      -5.789 -10.407 -16.698  1.00  0.00     0.041 A 
ATOM     92  F   UNL     1      -5.198  -8.440 -15.572  1.00  0.00    -0.206 F 
ATOM     93  C   UNL     1      -5.542 -11.352 -17.689  1.00  0.00     0.022 A 
BRANCH  90  94
ATOM     94  S   UNL     1      -4.109 -12.371 -19.851  1.00  0.00     0.124 S 
ATOM     95  O   UNL     1      -4.055 -11.445 -20.976  1.00  0.00    -0.237 OA
ATOM     96  O   UNL     1      -2.849 -13.008 -19.482  1.00  0.00    -0.237 OA
ATOM     97  O   UNL     1      -5.280 -13.244 -19.816  1.00  0.00    -0.744 OA
ENDBRANCH  90  94
ENDBRANCH  63  87
BRANCH  75  98
ATOM     98  C   UNL     1      -1.765  -4.007 -21.461  1.00  0.00     0.023 A 
ATOM     99  C   UNL     1      -3.054  -3.655 -21.897  1.00  0.00     0.031 A 
ATOM    100  C   UNL     1      -0.733  -4.045 -22.416  1.00  0.00     0.131 A 
ATOM    101  C   UNL     1      -3.286  -3.397 -23.257  1.00  0.00     0.055 A 
ATOM    102  C   UNL     1      -0.957  -3.725 -23.756  1.00  0.00     0.041 A 
ATOM    103  F   UNL     1       0.518  -4.378 -22.059  1.00  0.00    -0.206 F 
ATOM    104  C   UNL     1      -2.242  -3.409 -24.185  1.00  0.00     0.022 A 
BRANCH 101 105
ATOM    105  S   UNL     1      -4.989  -3.118 -23.816  1.00  0.00     0.124 S 
ATOM    106  O   UNL     1      -5.643  -4.364 -23.430  1.00  0.00    -0.237 OA
ATOM    107  O   UNL     1      -5.378  -1.933 -23.058  1.00  0.00    -0.237 OA
ATOM    108  O   UNL     1      -4.849  -2.912 -25.256  1.00  0.00    -0.744 OA
ENDBRANCH 101 105
ENDBRANCH  75  98
ENDBRANCH  49  50
ENDBRANCH  42  44
ENDBRANCH  41  42
ENDBRANCH  40  41
ENDBRANCH  39  40
ENDBRANCH  38  39
ENDBRANCH  37  38
ENDBRANCH  36  37
ENDBRANCH  35  36
ENDBRANCH  34  35
ENDBRANCH  33  34
ENDBRANCH   1  33
TORSDOF 32
