REMARK SMILES O=C(N[C@@H](CC1=c2ccccc2=NC1)C(=O)OCCOCCOCCOCCOC(=O)c1ccc(-c2c3nc(c(-c4cc(S(=O)(=O)[O-])ccc4F)c4ccc([nH]4)c(-c4cc(S(=O)(=O)[O-])ccc4F)c4nc(c(-c5cc(S(=O)(=O)[O-])ccc5F)c5ccc2[nH]5)C=C4)C=C3)cc1)c1ccc(N2CCCCC2=O)cc1
REMARK SMILES IDX 23 1 22 2 21 3 20 4 19 5 18 6 17 7 15 8 16 9 4 10 3 11 1 12
REMARK SMILES IDX 2 13 95 15 96 16 107 17 97 18 106 19 98 20 99 21 100 22
REMARK SMILES IDX 104 23 101 24 103 25 105 26 102 27 5 28 6 29 7 30 14 31 8 32
REMARK SMILES IDX 12 33 13 34 9 35 11 36 10 37 24 38 25 39 26 40 27 41 28 42
REMARK SMILES IDX 29 43 30 44 31 45 32 46 33 47 94 48 34 49 93 50 35 51 36 52
REMARK SMILES IDX 37 53 87 54 38 55 92 56 86 57 88 58 39 59 91 60 85 61 84 62
REMARK SMILES IDX 40 64 72 65 52 66 71 67 53 68 56 69 70 70 89 71 54 72 55 73
REMARK SMILES IDX 69 75 90 76 57 77 41 78 42 79 50 80 43 81 49 82 51 83 48 84
REMARK SMILES IDX 44 85 45 86 46 87 47 88 73 89 74 90 82 91 75 92 81 93 83 94
REMARK SMILES IDX 80 95 76 96 77 97 78 98 79 99 58 100 59 101 67 102 60 103
REMARK SMILES IDX 66 104 68 105 65 106 61 107 62 108 63 109 64 110
REMARK H PARENT 3 14 88 63 56 74
REMARK Flexibility Score: inf
ROOT
ATOM      1  O   UNL     1       3.248  -4.171   0.178  1.00  0.00    -0.377 OA
ENDROOT
BRANCH   1   2
ATOM      2  C   UNL     1       3.339  -3.106  -0.753  1.00  0.00     0.188 C 
BRANCH   2   3
ATOM      3  C   UNL     1       4.628  -3.099  -1.605  1.00  0.00     0.188 C 
BRANCH   3   4
ATOM      4  O   UNL     1       5.551  -4.178  -1.540  1.00  0.00    -0.376 OA
BRANCH   4   5
ATOM      5  C   UNL     1       5.891  -4.688  -0.260  1.00  0.00     0.202 C 
BRANCH   5   6
ATOM      6  C   UNL     1       6.286  -3.714   0.858  1.00  0.00     0.261 C 
BRANCH   6   7
ATOM      7  O   UNL     1       5.450  -2.550   1.034  1.00  0.00    -0.462 OA
BRANCH   7   8
ATOM      8  C   UNL     1       6.074  -1.344   1.088  1.00  0.00     0.329 C 
ATOM      9  O   UNL     1       7.284  -1.186   0.942  1.00  0.00    -0.250 OA
BRANCH   8  10
ATOM     10  C   UNL     1       5.157  -0.178   1.519  1.00  0.00     0.196 C 
BRANCH  10  11
ATOM     11  N   UNL     1       3.706  -0.284   1.300  1.00  0.00    -0.338 N 
ATOM     12  O   UNL     1       1.649   0.399   0.705  1.00  0.00    -0.269 OA
ATOM     13  C   UNL     1       2.858   0.422   0.480  1.00  0.00     0.251 C 
ATOM     14  H   UNL     1       3.265  -0.984   1.833  1.00  0.00     0.164 HD
BRANCH  13  15
ATOM     15  C   UNL     1       3.325   1.164  -0.722  1.00  0.00     0.039 A 
ATOM     16  C   UNL     1       2.662   2.332  -1.114  1.00  0.00     0.016 A 
ATOM     17  C   UNL     1       4.258   0.609  -1.593  1.00  0.00     0.016 A 
ATOM     18  C   UNL     1       2.950   2.938  -2.349  1.00  0.00     0.027 A 
ATOM     19  C   UNL     1       4.508   1.181  -2.846  1.00  0.00     0.027 A 
ATOM     20  C   UNL     1       3.861   2.354  -3.242  1.00  0.00     0.044 A 
BRANCH  20  21
ATOM     21  N   UNL     1       4.108   2.942  -4.528  1.00  0.00    -0.312 N 
ATOM     22  C   UNL     1       4.468   4.363  -4.529  1.00  0.00     0.125 C 
ATOM     23  C   UNL     1       4.280   2.138  -5.662  1.00  0.00     0.226 C 
ATOM     24  C   UNL     1       4.307   5.043  -5.877  1.00  0.00     0.022 C 
ATOM     25  C   UNL     1       4.431   2.848  -6.999  1.00  0.00     0.101 C 
ATOM     26  O   UNL     1       4.180   0.908  -5.671  1.00  0.00    -0.275 OA
ATOM     27  C   UNL     1       5.036   4.233  -6.930  1.00  0.00     0.012 C 
ENDBRANCH  20  21
ENDBRANCH  13  15
ENDBRANCH  10  11
BRANCH  10  28
ATOM     28  C   UNL     1       5.460   0.108   3.019  1.00  0.00     0.070 C 
BRANCH  28  29
ATOM     29  C   UNL     1       4.853  -0.867   3.993  1.00  0.00    -0.037 C 
ATOM     30  C   UNL     1       5.280  -2.073   4.366  1.00  0.00     0.001 A 
ATOM     31  C   UNL     1       3.575  -0.531   4.710  1.00  0.00     0.174 C 
ATOM     32  C   UNL     1       6.423  -2.883   4.093  1.00  0.00     0.010 A 
ATOM     33  C   UNL     1       4.164  -2.577   5.189  1.00  0.00     0.065 A 
ATOM     34  N   UNL     1       3.188  -1.759   5.434  1.00  0.00    -0.280 NA
ATOM     35  C   UNL     1       6.433  -4.157   4.522  1.00  0.00     0.001 A 
ATOM     36  C   UNL     1       4.241  -3.992   5.614  1.00  0.00     0.028 A 
ATOM     37  C   UNL     1       5.315  -4.719   5.260  1.00  0.00     0.002 A 
ENDBRANCH  28  29
ENDBRANCH  10  28
ENDBRANCH   8  10
ENDBRANCH   7   8
ENDBRANCH   6   7
ENDBRANCH   5   6
ENDBRANCH   4   5
ENDBRANCH   3   4
ENDBRANCH   2   3
ENDBRANCH   1   2
BRANCH   1  38
ATOM     38  C   UNL     1       2.359  -5.213  -0.212  1.00  0.00     0.188 C 
BRANCH  38  39
ATOM     39  C   UNL     1       2.635  -5.824  -1.598  1.00  0.00     0.188 C 
BRANCH  39  40
ATOM     40  O   UNL     1       2.538  -4.870  -2.655  1.00  0.00    -0.376 OA
BRANCH  40  41
ATOM     41  C   UNL     1       1.345  -4.868  -3.431  1.00  0.00     0.202 C 
BRANCH  41  42
ATOM     42  C   UNL     1       0.106  -4.262  -2.754  1.00  0.00     0.261 C 
BRANCH  42  43
ATOM     43  O   UNL     1      -0.364  -4.932  -1.573  1.00  0.00    -0.460 OA
BRANCH  43  44
ATOM     44  C   UNL     1      -0.617  -6.257  -1.639  1.00  0.00     0.338 C 
ATOM     45  O   UNL     1      -0.573  -6.961  -2.632  1.00  0.00    -0.246 OA
BRANCH  44  46
ATOM     46  C   UNL     1      -0.741  -6.758  -0.250  1.00  0.00     0.060 A 
ATOM     47  C   UNL     1      -1.525  -6.079   0.685  1.00  0.00     0.016 A 
ATOM     48  C   UNL     1      -0.039  -7.913   0.122  1.00  0.00     0.016 A 
ATOM     49  C   UNL     1      -1.649  -6.587   1.979  1.00  0.00     0.010 A 
ATOM     50  C   UNL     1      -0.161  -8.419   1.420  1.00  0.00     0.010 A 
ATOM     51  C   UNL     1      -0.998  -7.779   2.346  1.00  0.00    -0.014 A 
BRANCH  51  52
ATOM     52  C   UNL     1      -1.413  -8.471   3.592  1.00  0.00     0.031 A 
ATOM     53  C   UNL     1      -0.596  -8.453   4.845  1.00  0.00     0.074 A 
ATOM     54  C   UNL     1      -2.586  -9.132   3.559  1.00  0.00     0.049 A 
ATOM     55  N   UNL     1      -0.928  -8.873   6.038  1.00  0.00    -0.248 NA
ATOM     56  C   UNL     1       0.768  -7.916   4.751  1.00  0.00     0.031 C 
ATOM     57  C   UNL     1      -3.424  -9.268   2.366  1.00  0.00     0.029 A 
ATOM     58  N   UNL     1      -3.285  -9.793   4.536  1.00  0.00    -0.354 N 
ATOM     59  C   UNL     1       0.170  -8.628   6.852  1.00  0.00     0.074 A 
ATOM     60  C   UNL     1       1.203  -8.076   5.997  1.00  0.00     0.031 C 
ATOM     61  C   UNL     1      -4.540  -9.931   2.688  1.00  0.00     0.029 A 
ATOM     62  C   UNL     1      -4.493 -10.288   4.104  1.00  0.00     0.049 A 
ATOM     63  H   UNL     1      -2.954  -9.903   5.457  1.00  0.00     0.167 HD
ATOM     64  C   UNL     1       0.286  -8.829   8.188  1.00  0.00     0.034 A 
ATOM     65  C   UNL     1      -5.470 -10.935   4.771  1.00  0.00     0.034 A 
ATOM     66  C   UNL     1      -0.757  -9.403   9.009  1.00  0.00     0.049 A 
ATOM     67  C   UNL     1      -5.326 -11.129   6.256  1.00  0.00     0.074 A 
ATOM     68  C   UNL     1      -0.758  -9.592  10.381  1.00  0.00     0.029 A 
ATOM     69  N   UNL     1      -1.973  -9.889   8.544  1.00  0.00    -0.354 N 
ATOM     70  N   UNL     1      -4.340 -10.764   7.042  1.00  0.00    -0.248 NA
ATOM     71  C   UNL     1      -6.433 -11.793   6.955  1.00  0.00     0.031 C 
ATOM     72  C   UNL     1      -1.933 -10.258  10.733  1.00  0.00     0.029 A 
ATOM     73  C   UNL     1      -2.713 -10.408   9.597  1.00  0.00     0.049 A 
ATOM     74  H   UNL     1      -2.267  -9.868   7.605  1.00  0.00     0.167 HD
ATOM     75  C   UNL     1      -4.719 -11.128   8.330  1.00  0.00     0.074 A 
ATOM     76  C   UNL     1      -6.038 -11.717   8.220  1.00  0.00     0.031 C 
ATOM     77  C   UNL     1      -4.033 -10.988   9.493  1.00  0.00     0.034 A 
BRANCH  64  78
ATOM     78  C   UNL     1       1.560  -8.405   8.882  1.00  0.00     0.023 A 
ATOM     79  C   UNL     1       2.339  -9.349   9.581  1.00  0.00     0.031 A 
ATOM     80  C   UNL     1       1.914  -7.048   8.989  1.00  0.00     0.131 A 
ATOM     81  C   UNL     1       3.403  -8.919  10.386  1.00  0.00     0.055 A 
ATOM     82  C   UNL     1       3.001  -6.628   9.759  1.00  0.00     0.041 A 
ATOM     83  F   UNL     1       1.204  -6.106   8.348  1.00  0.00    -0.206 F 
ATOM     84  C   UNL     1       3.741  -7.564  10.473  1.00  0.00     0.022 A 
BRANCH  81  85
ATOM     85  S   UNL     1       4.344 -10.086  11.407  1.00  0.00     0.124 S 
ATOM     86  O   UNL     1       5.699  -9.910  10.889  1.00  0.00    -0.237 OA
ATOM     87  O   UNL     1       4.119  -9.567  12.753  1.00  0.00    -0.237 OA
ATOM     88  O   UNL     1       3.732 -11.378  11.118  1.00  0.00    -0.744 OA
ENDBRANCH  81  85
ENDBRANCH  64  78
BRANCH  65  89
ATOM     89  C   UNL     1      -6.700 -11.335   4.028  1.00  0.00     0.023 A 
ATOM     90  C   UNL     1      -6.630 -12.241   2.953  1.00  0.00     0.031 A 
ATOM     91  C   UNL     1      -7.932 -10.712   4.289  1.00  0.00     0.131 A 
ATOM     92  C   UNL     1      -7.750 -12.440   2.136  1.00  0.00     0.055 A 
ATOM     93  C   UNL     1      -9.066 -10.972   3.518  1.00  0.00     0.041 A 
ATOM     94  F   UNL     1      -8.043  -9.824   5.289  1.00  0.00    -0.206 F 
ATOM     95  C   UNL     1      -8.973 -11.825   2.423  1.00  0.00     0.022 A 
BRANCH  92  96
ATOM     96  S   UNL     1      -7.616 -13.382   0.592  1.00  0.00     0.124 S 
ATOM     97  O   UNL     1      -8.579 -14.457   0.806  1.00  0.00    -0.237 OA
ATOM     98  O   UNL     1      -7.998 -12.382  -0.402  1.00  0.00    -0.237 OA
ATOM     99  O   UNL     1      -6.215 -13.788   0.555  1.00  0.00    -0.744 OA
ENDBRANCH  92  96
ENDBRANCH  65  89
BRANCH  77 100
ATOM    100  C   UNL     1      -4.676 -11.472  10.774  1.00  0.00     0.023 A 
ATOM    101  C   UNL     1      -4.921 -10.566  11.825  1.00  0.00     0.031 A 
ATOM    102  C   UNL     1      -4.913 -12.838  11.010  1.00  0.00     0.131 A 
ATOM    103  C   UNL     1      -5.348 -11.040  13.073  1.00  0.00     0.055 A 
ATOM    104  C   UNL     1      -5.390 -13.299  12.238  1.00  0.00     0.041 A 
ATOM    105  F   UNL     1      -4.683 -13.746  10.049  1.00  0.00    -0.206 F 
ATOM    106  C   UNL     1      -5.595 -12.401  13.281  1.00  0.00     0.022 A 
BRANCH 103 107
ATOM    107  S   UNL     1      -5.505  -9.927  14.497  1.00  0.00     0.124 S 
ATOM    108  O   UNL     1      -6.929 -10.033  14.806  1.00  0.00    -0.237 OA
ATOM    109  O   UNL     1      -4.608 -10.544  15.471  1.00  0.00    -0.237 OA
ATOM    110  O   UNL     1      -5.075  -8.632  13.981  1.00  0.00    -0.744 OA
ENDBRANCH 103 107
ENDBRANCH  77 100
ENDBRANCH  51  52
ENDBRANCH  44  46
ENDBRANCH  43  44
ENDBRANCH  42  43
ENDBRANCH  41  42
ENDBRANCH  40  41
ENDBRANCH  39  40
ENDBRANCH  38  39
ENDBRANCH   1  38
TORSDOF 28
