REMARK SMILES CS(=O)(=O)c1ccc(C2=NN(c3ccc(C(=O)OCCOCCOCCOCCOC(=O)c4ccc(-c5c6nc(c(-c7cc(S(=O)(=O)[O-])ccc7F)c7ccc([nH]7)c(-c7cc(S(=O)(=O)[O-])ccc7F)c7nc(c(-c8cc(S(=O)(=O)[O-])ccc8F)c8ccc5[nH]8)C=C7)C=C6)cc4)cc3)[C@H](c3ccccc3)C2)cc1
REMARK SMILES IDX 24 1 23 2 22 3 21 4 20 5 19 6 18 7 16 8 17 9 15 10 12 11
REMARK SMILES IDX 13 12 97 13 14 14 96 15 11 16 9 17 10 18 105 19 98 20 8 21
REMARK SMILES IDX 5 22 6 23 107 24 7 25 106 26 2 27 1 28 3 29 4 30 99 31
REMARK SMILES IDX 100 32 104 33 101 34 103 35 102 36 25 37 26 38 27 39 28 40
REMARK SMILES IDX 29 41 30 42 31 43 32 44 33 45 34 46 95 47 35 48 94 49 36 50
REMARK SMILES IDX 37 51 38 52 88 53 39 54 93 55 87 56 89 57 40 58 92 59 86 60
REMARK SMILES IDX 85 61 41 63 73 64 53 65 72 66 54 67 57 68 71 69 90 70 55 71
REMARK SMILES IDX 56 72 70 74 91 75 58 76 42 77 43 78 51 79 44 80 50 81 52 82
REMARK SMILES IDX 49 83 45 84 46 85 47 86 48 87 74 88 75 89 83 90 76 91 82 92
REMARK SMILES IDX 84 93 81 94 77 95 78 96 79 97 80 98 59 99 60 100 68 101
REMARK SMILES IDX 61 102 67 103 69 104 66 105 62 106 63 107 64 108 65 109
REMARK H PARENT 89 62 57 73
REMARK Flexibility Score: inf
ROOT
ATOM      1  O   UNL     1       7.612  -5.581  10.615  1.00  0.00    -0.377 OA
ENDROOT
BRANCH   1   2
ATOM      2  C   UNL     1       7.788  -4.617   9.594  1.00  0.00     0.188 C 
BRANCH   2   3
ATOM      3  C   UNL     1       8.983  -3.676   9.829  1.00  0.00     0.188 C 
BRANCH   3   4
ATOM      4  O   UNL     1       9.987  -4.112  10.725  1.00  0.00    -0.376 OA
BRANCH   4   5
ATOM      5  C   UNL     1       9.815  -4.154  12.132  1.00  0.00     0.202 C 
BRANCH   5   6
ATOM      6  C   UNL     1       8.540  -3.820  12.932  1.00  0.00     0.261 C 
BRANCH   6   7
ATOM      7  O   UNL     1       7.397  -3.370  12.217  1.00  0.00    -0.460 OA
BRANCH   7   8
ATOM      8  C   UNL     1       7.295  -2.048  11.981  1.00  0.00     0.338 C 
ATOM      9  O   UNL     1       8.062  -1.174  12.347  1.00  0.00    -0.246 OA
BRANCH   8  10
ATOM     10  C   UNL     1       6.178  -1.841  11.026  1.00  0.00     0.060 A 
ATOM     11  C   UNL     1       4.080  -1.340   9.232  1.00  0.00     0.060 A 
ATOM     12  C   UNL     1       5.261  -0.589   9.166  1.00  0.00     0.029 A 
ATOM     13  C   UNL     1       4.021  -2.428  10.114  1.00  0.00     0.029 A 
ATOM     14  C   UNL     1       6.303  -0.832  10.065  1.00  0.00     0.018 A 
ATOM     15  C   UNL     1       5.051  -2.669  11.023  1.00  0.00     0.018 A 
BRANCH  11  16
ATOM     16  N   UNL     1       2.915  -0.935   8.564  1.00  0.00    -0.257 N 
ATOM     17  C   UNL     1       2.070   0.120   6.912  1.00  0.00     0.071 C 
ATOM     18  N   UNL     1       2.943  -0.790   7.209  1.00  0.00    -0.176 NA
ATOM     19  C   UNL     1       1.409   0.808   8.072  1.00  0.00     0.091 C 
ATOM     20  C   UNL     1       2.064   0.067   9.245  1.00  0.00     0.144 C 
BRANCH  17  21
ATOM     21  C   UNL     1       1.688   0.437   5.526  1.00  0.00    -0.002 A 
ATOM     22  C   UNL     1       0.844   0.940   2.920  1.00  0.00     0.067 A 
ATOM     23  C   UNL     1       0.966  -0.380   3.361  1.00  0.00     0.021 A 
ATOM     24  C   UNL     1       1.152   2.009   3.773  1.00  0.00     0.021 A 
ATOM     25  C   UNL     1       1.405  -0.629   4.663  1.00  0.00     0.011 A 
ATOM     26  C   UNL     1       1.563   1.757   5.086  1.00  0.00     0.011 A 
BRANCH  22  27
ATOM     27  S   UNL     1       0.285   1.293   1.268  1.00  0.00     0.175 S 
ATOM     28  C   UNL     1       0.989   0.045   0.226  1.00  0.00     0.163 C 
ATOM     29  O   UNL     1       0.884   2.557   0.879  1.00  0.00    -0.224 OA
ATOM     30  O   UNL     1      -1.155   1.122   1.276  1.00  0.00    -0.224 OA
ENDBRANCH  22  27
ENDBRANCH  17  21
BRANCH  20  31
ATOM     31  C   UNL     1       1.156  -0.575  10.290  1.00  0.00    -0.023 A 
ATOM     32  C   UNL     1      -0.180  -0.928  10.062  1.00  0.00     0.006 A 
ATOM     33  C   UNL     1       1.704  -0.893  11.551  1.00  0.00     0.006 A 
ATOM     34  C   UNL     1      -0.925  -1.596  11.042  1.00  0.00     0.000 A 
ATOM     35  C   UNL     1       0.981  -1.610  12.506  1.00  0.00     0.000 A 
ATOM     36  C   UNL     1      -0.339  -1.959  12.252  1.00  0.00     0.000 A 
ENDBRANCH  20  31
ENDBRANCH  11  16
ENDBRANCH   8  10
ENDBRANCH   7   8
ENDBRANCH   6   7
ENDBRANCH   5   6
ENDBRANCH   4   5
ENDBRANCH   3   4
ENDBRANCH   2   3
ENDBRANCH   1   2
BRANCH   1  37
ATOM     37  C   UNL     1       8.364  -6.790  10.531  1.00  0.00     0.188 C 
BRANCH  37  38
ATOM     38  C   UNL     1       9.689  -6.863   9.736  1.00  0.00     0.188 C 
BRANCH  38  39
ATOM     39  O   UNL     1       9.703  -6.118   8.525  1.00  0.00    -0.376 OA
BRANCH  39  40
ATOM     40  C   UNL     1       9.588  -6.812   7.294  1.00  0.00     0.202 C 
BRANCH  40  41
ATOM     41  C   UNL     1       8.233  -7.471   6.998  1.00  0.00     0.261 C 
BRANCH  41  42
ATOM     42  O   UNL     1       7.766  -8.403   7.983  1.00  0.00    -0.460 OA
BRANCH  42  43
ATOM     43  C   UNL     1       8.524  -9.503   8.171  1.00  0.00     0.338 C 
ATOM     44  O   UNL     1       9.546  -9.795   7.568  1.00  0.00    -0.246 OA
BRANCH  43  45
ATOM     45  C   UNL     1       8.028 -10.215   9.365  1.00  0.00     0.060 A 
ATOM     46  C   UNL     1       8.924 -10.472  10.409  1.00  0.00     0.016 A 
ATOM     47  C   UNL     1       6.704 -10.655   9.440  1.00  0.00     0.016 A 
ATOM     48  C   UNL     1       8.520 -11.241  11.497  1.00  0.00     0.010 A 
ATOM     49  C   UNL     1       6.303 -11.440  10.527  1.00  0.00     0.010 A 
ATOM     50  C   UNL     1       7.228 -11.784  11.529  1.00  0.00    -0.014 A 
BRANCH  50  51
ATOM     51  C   UNL     1       6.958 -12.915  12.454  1.00  0.00     0.031 A 
ATOM     52  C   UNL     1       7.042 -14.314  11.896  1.00  0.00     0.074 A 
ATOM     53  C   UNL     1       6.739 -12.718  13.766  1.00  0.00     0.049 A 
ATOM     54  N   UNL     1       6.862 -15.463  12.494  1.00  0.00    -0.248 NA
ATOM     55  C   UNL     1       7.376 -14.429  10.466  1.00  0.00     0.031 C 
ATOM     56  C   UNL     1       6.689 -11.416  14.429  1.00  0.00     0.029 A 
ATOM     57  N   UNL     1       6.523 -13.619  14.779  1.00  0.00    -0.354 N 
ATOM     58  C   UNL     1       7.073 -16.433  11.519  1.00  0.00     0.074 A 
ATOM     59  C   UNL     1       7.332 -15.738  10.279  1.00  0.00     0.031 C 
ATOM     60  C   UNL     1       6.453 -11.603  15.740  1.00  0.00     0.029 A 
ATOM     61  C   UNL     1       6.300 -13.033  16.004  1.00  0.00     0.049 A 
ATOM     62  H   UNL     1       6.529 -14.594  14.642  1.00  0.00     0.167 HD
ATOM     63  C   UNL     1       7.074 -17.782  11.649  1.00  0.00     0.034 A 
ATOM     64  C   UNL     1       5.987 -13.590  17.193  1.00  0.00     0.034 A 
ATOM     65  C   UNL     1       6.803 -18.466  12.888  1.00  0.00     0.049 A 
ATOM     66  C   UNL     1       5.896 -15.098  17.289  1.00  0.00     0.074 A 
ATOM     67  C   UNL     1       6.755 -19.827  13.129  1.00  0.00     0.029 A 
ATOM     68  N   UNL     1       6.530 -17.839  14.097  1.00  0.00    -0.354 N 
ATOM     69  N   UNL     1       6.093 -16.004  16.357  1.00  0.00    -0.248 NA
ATOM     70  C   UNL     1       5.557 -15.659  18.604  1.00  0.00     0.031 C 
ATOM     71  C   UNL     1       6.386 -20.024  14.463  1.00  0.00     0.029 A 
ATOM     72  C   UNL     1       6.290 -18.787  15.080  1.00  0.00     0.049 A 
ATOM     73  H   UNL     1       6.510 -16.865  14.236  1.00  0.00     0.167 HD
ATOM     74  C   UNL     1       5.939 -17.238  16.986  1.00  0.00     0.074 A 
ATOM     75  C   UNL     1       5.664 -16.959  18.380  1.00  0.00     0.031 C 
ATOM     76  C   UNL     1       6.013 -18.491  16.465  1.00  0.00     0.034 A 
BRANCH  63  77
ATOM     77  C   UNL     1       7.343 -18.599  10.409  1.00  0.00     0.023 A 
ATOM     78  C   UNL     1       8.583 -18.549   9.748  1.00  0.00     0.031 A 
ATOM     79  C   UNL     1       6.344 -19.429   9.873  1.00  0.00     0.131 A 
ATOM     80  C   UNL     1       8.772 -19.270   8.559  1.00  0.00     0.055 A 
ATOM     81  C   UNL     1       6.564 -20.205   8.733  1.00  0.00     0.041 A 
ATOM     82  F   UNL     1       5.130 -19.495  10.444  1.00  0.00    -0.206 F 
ATOM     83  C   UNL     1       7.781 -20.120   8.063  1.00  0.00     0.022 A 
BRANCH  80  84
ATOM     84  S   UNL     1      10.285 -18.983   7.601  1.00  0.00     0.124 S 
ATOM     85  O   UNL     1      10.178 -17.557   7.302  1.00  0.00    -0.237 OA
ATOM     86  O   UNL     1      11.332 -19.362   8.542  1.00  0.00    -0.237 OA
ATOM     87  O   UNL     1      10.132 -19.867   6.447  1.00  0.00    -0.744 OA
ENDBRANCH  80  84
ENDBRANCH  63  77
BRANCH  64  88
ATOM     88  C   UNL     1       5.680 -12.740  18.383  1.00  0.00     0.023 A 
ATOM     89  C   UNL     1       6.412 -12.856  19.576  1.00  0.00     0.031 A 
ATOM     90  C   UNL     1       4.573 -11.871  18.378  1.00  0.00     0.131 A 
ATOM     91  C   UNL     1       5.985 -12.180  20.731  1.00  0.00     0.055 A 
ATOM     92  C   UNL     1       4.195 -11.145  19.509  1.00  0.00     0.041 A 
ATOM     93  F   UNL     1       3.829 -11.724  17.270  1.00  0.00    -0.206 F 
ATOM     94  C   UNL     1       4.890 -11.314  20.701  1.00  0.00     0.022 A 
BRANCH  91  95
ATOM     95  S   UNL     1       6.794 -12.561  22.310  1.00  0.00     0.124 S 
ATOM     96  O   UNL     1       6.626 -14.007  22.388  1.00  0.00    -0.237 OA
ATOM     97  O   UNL     1       8.153 -12.084  22.075  1.00  0.00    -0.237 OA
ATOM     98  O   UNL     1       6.023 -11.788  23.282  1.00  0.00    -0.744 OA
ENDBRANCH  91  95
ENDBRANCH  64  88
BRANCH  76  99
ATOM     99  C   UNL     1       5.845 -19.647  17.425  1.00  0.00     0.023 A 
ATOM    100  C   UNL     1       4.645 -19.858  18.128  1.00  0.00     0.031 A 
ATOM    101  C   UNL     1       6.913 -20.530  17.668  1.00  0.00     0.131 A 
ATOM    102  C   UNL     1       4.571 -20.868  19.099  1.00  0.00     0.055 A 
ATOM    103  C   UNL     1       6.805 -21.584  18.576  1.00  0.00     0.041 A 
ATOM    104  F   UNL     1       8.084 -20.381  17.028  1.00  0.00    -0.206 F 
ATOM    105  C   UNL     1       5.636 -21.745  19.314  1.00  0.00     0.022 A 
BRANCH 102 106
ATOM    106  S   UNL     1       3.113 -20.928  20.176  1.00  0.00     0.124 S 
ATOM    107  O   UNL     1       3.100 -19.583  20.742  1.00  0.00    -0.237 OA
ATOM    108  O   UNL     1       2.042 -21.233  19.233  1.00  0.00    -0.237 OA
ATOM    109  O   UNL     1       3.429 -21.997  21.122  1.00  0.00    -0.744 OA
ENDBRANCH 102 106
ENDBRANCH  76  99
ENDBRANCH  50  51
ENDBRANCH  43  45
ENDBRANCH  42  43
ENDBRANCH  41  42
ENDBRANCH  40  41
ENDBRANCH  39  40
ENDBRANCH  38  39
ENDBRANCH  37  38
ENDBRANCH   1  37
TORSDOF 27
