REMARK SMILES [NH3+]Cc1c(-c2ccccc2)c(C(=O)OCCOCCOCCOCCOC(=O)c2ccc(-c3c4nc(c(-c5cc(S(=O)(=O)[O-])ccc5F)c5ccc([nH]5)c(-c5cc(S(=O)(=O)[O-])ccc5F)c5nc(c(-c6cc(S(=O)(=O)[O-])ccc6F)c6ccc3[nH]6)C=C5)C=C4)cc2)c2ccccn12
REMARK SMILES IDX 21 1 20 2 19 3 18 4 17 5 16 6 15 7 14 8 12 9 13 10 11 11
REMARK SMILES IDX 3 12 4 13 97 14 92 15 96 16 93 17 95 18 94 19 2 20 1 21 5 25
REMARK SMILES IDX 6 26 10 27 7 28 9 29 8 30 22 31 23 32 24 33 25 34 26 35
REMARK SMILES IDX 27 36 28 37 29 38 30 39 91 40 31 41 90 42 32 43 33 44 34 45
REMARK SMILES IDX 84 46 35 47 89 48 83 49 85 50 36 51 88 52 82 53 81 54 37 56
REMARK SMILES IDX 69 57 49 58 68 59 50 60 53 61 67 62 86 63 51 64 52 65 66 67
REMARK SMILES IDX 87 68 54 69 38 70 39 71 47 72 40 73 46 74 48 75 45 76 41 77
REMARK SMILES IDX 42 78 43 79 44 80 70 81 71 82 79 83 72 84 78 85 80 86 77 87
REMARK SMILES IDX 73 88 74 89 75 90 76 91 55 92 56 93 64 94 57 95 63 96 65 97
REMARK SMILES IDX 62 98 58 99 59 100 60 101 61 102
REMARK H PARENT 1 22 1 23 1 24 85 55 53 66
REMARK Flexibility Score: inf
ROOT
ATOM      1  C   UNL     1       3.912  -7.226  -2.462  1.00  0.00     0.188 C 
ENDROOT
BRANCH   1   2
ATOM      2  O   UNL     1       3.704  -5.827  -2.391  1.00  0.00    -0.377 OA
BRANCH   2   3
ATOM      3  C   UNL     1       2.475  -5.332  -1.880  1.00  0.00     0.188 C 
BRANCH   3   4
ATOM      4  C   UNL     1       1.264  -6.249  -1.627  1.00  0.00     0.188 C 
BRANCH   4   5
ATOM      5  O   UNL     1       1.110  -7.298  -2.579  1.00  0.00    -0.376 OA
BRANCH   5   6
ATOM      6  C   UNL     1      -0.046  -7.214  -3.403  1.00  0.00     0.202 C 
BRANCH   6   7
ATOM      7  C   UNL     1       0.221  -6.410  -4.677  1.00  0.00     0.261 C 
BRANCH   7   8
ATOM      8  O   UNL     1       0.593  -5.045  -4.432  1.00  0.00    -0.460 OA
BRANCH   8   9
ATOM      9  C   UNL     1      -0.336  -4.237  -3.857  1.00  0.00     0.341 C 
ATOM     10  O   UNL     1      -1.484  -4.583  -3.599  1.00  0.00    -0.246 OA
BRANCH   9  11
ATOM     11  C   UNL     1       0.211  -2.933  -3.496  1.00  0.00     0.093 A 
ATOM     12  C   UNL     1       0.599  -0.964  -2.391  1.00  0.00     0.086 A 
ATOM     13  C   UNL     1      -0.080  -2.175  -2.319  1.00  0.00     0.024 A 
ATOM     14  N   UNL     1       1.402  -1.008  -3.524  1.00  0.00    -0.314 N 
ATOM     15  C   UNL     1       1.186  -2.221  -4.179  1.00  0.00     0.061 A 
ATOM     16  C   UNL     1       2.321  -0.060  -3.994  1.00  0.00     0.092 A 
ATOM     17  C   UNL     1       1.971  -2.484  -5.347  1.00  0.00     0.027 A 
ATOM     18  C   UNL     1       3.041  -0.310  -5.099  1.00  0.00     0.018 A 
ATOM     19  C   UNL     1       2.862  -1.575  -5.781  1.00  0.00     0.004 A 
BRANCH  12  20
ATOM     20  C   UNL     1       0.538   0.217  -1.481  1.00  0.00     0.315 C 
BRANCH  20  21
ATOM     21  N   UNL     1       1.333  -0.005  -0.282  1.00  0.00    -0.353 N 
ATOM     22  H   UNL     1       1.274   0.816   0.322  1.00  0.00     0.344 HD
ATOM     23  H   UNL     1       2.305  -0.165  -0.543  1.00  0.00     0.344 HD
ATOM     24  H   UNL     1       0.976  -0.820   0.217  1.00  0.00     0.344 HD
ENDBRANCH  20  21
ENDBRANCH  12  20
BRANCH  13  25
ATOM     25  C   UNL     1      -0.833  -2.591  -1.147  1.00  0.00    -0.015 A 
ATOM     26  C   UNL     1      -0.159  -3.226  -0.093  1.00  0.00     0.009 A 
ATOM     27  C   UNL     1      -2.211  -2.399  -1.067  1.00  0.00     0.009 A 
ATOM     28  C   UNL     1      -0.858  -3.678   1.026  1.00  0.00     0.001 A 
ATOM     29  C   UNL     1      -2.909  -2.843   0.060  1.00  0.00     0.001 A 
ATOM     30  C   UNL     1      -2.235  -3.485   1.101  1.00  0.00     0.000 A 
ENDBRANCH  13  25
ENDBRANCH   9  11
ENDBRANCH   8   9
ENDBRANCH   7   8
ENDBRANCH   6   7
ENDBRANCH   5   6
ENDBRANCH   4   5
ENDBRANCH   3   4
ENDBRANCH   2   3
ENDBRANCH   1   2
BRANCH   1  31
ATOM     31  C   UNL     1       3.787  -7.997  -1.140  1.00  0.00     0.188 C 
BRANCH  31  32
ATOM     32  O   UNL     1       3.716  -7.152   0.011  1.00  0.00    -0.376 OA
BRANCH  32  33
ATOM     33  C   UNL     1       4.912  -7.069   0.780  1.00  0.00     0.202 C 
BRANCH  33  34
ATOM     34  C   UNL     1       5.994  -6.173   0.166  1.00  0.00     0.261 C 
BRANCH  34  35
ATOM     35  O   UNL     1       6.574  -6.666  -1.051  1.00  0.00    -0.460 OA
BRANCH  35  36
ATOM     36  C   UNL     1       7.178  -7.874  -1.014  1.00  0.00     0.338 C 
ATOM     37  O   UNL     1       7.337  -8.592  -0.045  1.00  0.00    -0.246 OA
BRANCH  36  38
ATOM     38  C   UNL     1       7.455  -8.259  -2.411  1.00  0.00     0.060 A 
ATOM     39  C   UNL     1       6.916  -9.453  -2.908  1.00  0.00     0.016 A 
ATOM     40  C   UNL     1       8.201  -7.414  -3.236  1.00  0.00     0.016 A 
ATOM     41  C   UNL     1       7.135  -9.809  -4.239  1.00  0.00     0.010 A 
ATOM     42  C   UNL     1       8.439  -7.784  -4.559  1.00  0.00     0.010 A 
ATOM     43  C   UNL     1       7.925  -8.992  -5.059  1.00  0.00    -0.014 A 
BRANCH  43  44
ATOM     44  C   UNL     1       8.393  -9.480  -6.377  1.00  0.00     0.031 A 
ATOM     45  C   UNL     1       9.698 -10.223  -6.426  1.00  0.00     0.074 A 
ATOM     46  C   UNL     1       7.700  -9.236  -7.502  1.00  0.00     0.049 A 
ATOM     47  N   UNL     1      10.366 -10.665  -7.458  1.00  0.00    -0.248 NA
ATOM     48  C   UNL     1      10.335 -10.495  -5.128  1.00  0.00     0.031 C 
ATOM     49  C   UNL     1       6.407  -8.556  -7.570  1.00  0.00     0.029 A 
ATOM     50  N   UNL     1       8.002  -9.520  -8.810  1.00  0.00    -0.354 N 
ATOM     51  C   UNL     1      11.499 -11.278  -6.935  1.00  0.00     0.074 A 
ATOM     52  C   UNL     1      11.444 -11.113  -5.498  1.00  0.00     0.031 C 
ATOM     53  C   UNL     1       6.036  -8.458  -8.859  1.00  0.00     0.029 A 
ATOM     54  C   UNL     1       7.081  -9.033  -9.707  1.00  0.00     0.049 A 
ATOM     55  H   UNL     1       8.803 -10.024  -9.081  1.00  0.00     0.167 HD
ATOM     56  C   UNL     1      12.492 -11.924  -7.593  1.00  0.00     0.034 A 
ATOM     57  C   UNL     1       7.101  -9.026 -11.055  1.00  0.00     0.034 A 
ATOM     58  C   UNL     1      12.558 -12.035  -9.028  1.00  0.00     0.049 A 
ATOM     59  C   UNL     1       8.279  -9.640 -11.774  1.00  0.00     0.074 A 
ATOM     60  C   UNL     1      13.518 -12.661  -9.803  1.00  0.00     0.029 A 
ATOM     61  N   UNL     1      11.634 -11.483  -9.907  1.00  0.00    -0.354 N 
ATOM     62  N   UNL     1       9.341 -10.228 -11.271  1.00  0.00    -0.248 NA
ATOM     63  C   UNL     1       8.263  -9.585 -13.242  1.00  0.00     0.031 C 
ATOM     64  C   UNL     1      13.210 -12.431 -11.149  1.00  0.00     0.029 A 
ATOM     65  C   UNL     1      12.021 -11.722 -11.216  1.00  0.00     0.049 A 
ATOM     66  H   UNL     1      10.823 -10.994  -9.638  1.00  0.00     0.167 HD
ATOM     67  C   UNL     1      10.103 -10.636 -12.363  1.00  0.00     0.074 A 
ATOM     68  C   UNL     1       9.378 -10.232 -13.550  1.00  0.00     0.031 C 
ATOM     69  C   UNL     1      11.291 -11.294 -12.386  1.00  0.00     0.034 A 
BRANCH  56  70
ATOM     70  C   UNL     1      13.603 -12.497  -6.751  1.00  0.00     0.023 A 
ATOM     71  C   UNL     1      13.365 -13.534  -5.832  1.00  0.00     0.031 A 
ATOM     72  C   UNL     1      14.897 -11.954  -6.815  1.00  0.00     0.131 A 
ATOM     73  C   UNL     1      14.385 -13.942  -4.959  1.00  0.00     0.055 A 
ATOM     74  C   UNL     1      15.928 -12.417  -5.997  1.00  0.00     0.041 A 
ATOM     75  F   UNL     1      15.174 -10.944  -7.655  1.00  0.00    -0.206 F 
ATOM     76  C   UNL     1      15.671 -13.405  -5.050  1.00  0.00     0.022 A 
BRANCH  73  77
ATOM     77  S   UNL     1      13.964 -15.070  -3.602  1.00  0.00     0.124 S 
ATOM     78  O   UNL     1      12.926 -14.317  -2.902  1.00  0.00    -0.237 OA
ATOM     79  O   UNL     1      13.519 -16.264  -4.312  1.00  0.00    -0.237 OA
ATOM     80  O   UNL     1      15.221 -15.211  -2.871  1.00  0.00    -0.744 OA
ENDBRANCH  73  77
ENDBRANCH  56  70
BRANCH  57  81
ATOM     81  C   UNL     1       6.005  -8.374 -11.826  1.00  0.00     0.023 A 
ATOM     82  C   UNL     1       5.158  -9.123 -12.658  1.00  0.00     0.031 A 
ATOM     83  C   UNL     1       5.827  -6.979 -11.786  1.00  0.00     0.131 A 
ATOM     84  C   UNL     1       4.197  -8.470 -13.446  1.00  0.00     0.055 A 
ATOM     85  C   UNL     1       4.841  -6.339 -12.539  1.00  0.00     0.041 A 
ATOM     86  F   UNL     1       6.612  -6.217 -11.008  1.00  0.00    -0.206 F 
ATOM     87  C   UNL     1       4.026  -7.085 -13.384  1.00  0.00     0.022 A 
BRANCH  84  88
ATOM     88  S   UNL     1       3.214  -9.454 -14.612  1.00  0.00     0.124 S 
ATOM     89  O   UNL     1       4.248 -10.019 -15.470  1.00  0.00    -0.237 OA
ATOM     90  O   UNL     1       2.535 -10.389 -13.721  1.00  0.00    -0.237 OA
ATOM     91  O   UNL     1       2.347  -8.463 -15.247  1.00  0.00    -0.744 OA
ENDBRANCH  84  88
ENDBRANCH  57  81
BRANCH  69  92
ATOM     92  C   UNL     1      11.852 -11.651 -13.739  1.00  0.00     0.023 A 
ATOM     93  C   UNL     1      12.357 -10.672 -14.613  1.00  0.00     0.031 A 
ATOM     94  C   UNL     1      11.887 -12.994 -14.155  1.00  0.00     0.131 A 
ATOM     95  C   UNL     1      12.838 -11.048 -15.877  1.00  0.00     0.055 A 
ATOM     96  C   UNL     1      12.412 -13.366 -15.392  1.00  0.00     0.041 A 
ATOM     97  F   UNL     1      11.418 -13.967 -13.357  1.00  0.00    -0.206 F 
ATOM     98  C   UNL     1      12.882 -12.390 -16.265  1.00  0.00     0.022 A 
BRANCH  95  99
ATOM     99  S   UNL     1      13.348  -9.751 -17.038  1.00  0.00     0.124 S 
ATOM    100  O   UNL     1      12.113  -8.993 -17.210  1.00  0.00    -0.237 OA
ATOM    101  O   UNL     1      14.414  -9.075 -16.305  1.00  0.00    -0.237 OA
ATOM    102  O   UNL     1      13.786 -10.498 -18.216  1.00  0.00    -0.744 OA
ENDBRANCH  95  99
ENDBRANCH  69  92
ENDBRANCH  43  44
ENDBRANCH  36  38
ENDBRANCH  35  36
ENDBRANCH  34  35
ENDBRANCH  33  34
ENDBRANCH  32  33
ENDBRANCH  31  32
ENDBRANCH   1  31
TORSDOF 26
