REMARK SMILES COCC(=O)N1[C@@H](C(=O)OCCOCCOCCOCCOC(=O)c2ccc(-c3c4nc(c(-c5cc(S(=O)(=O)[O-])ccc5F)c5ccc([nH]5)c(-c5cc(S(=O)(=O)[O-])ccc5F)c5nc(c(-c6cc(S(=O)(=O)[O-])ccc6F)c6ccc3[nH]6)C=C5)C=C4)cc2)CC[C@@H]2CCCC[C@H]21
REMARK SMILES IDX 16 1 15 2 14 3 13 4 12 5 11 6 10 7 8 8 9 9 7 10 6 11 95 12
REMARK SMILES IDX 88 13 90 14 94 15 89 16 91 17 93 18 92 19 4 20 5 21 3 22
REMARK SMILES IDX 2 23 1 24 17 25 18 26 19 27 20 28 21 29 22 30 23 31 24 32
REMARK SMILES IDX 25 33 26 34 87 35 27 36 86 37 28 38 29 39 30 40 80 41 31 42
REMARK SMILES IDX 85 43 79 44 81 45 32 46 84 47 78 48 77 49 33 51 65 52 45 53
REMARK SMILES IDX 64 54 46 55 49 56 63 57 82 58 47 59 48 60 62 62 83 63 50 64
REMARK SMILES IDX 34 65 35 66 43 67 36 68 42 69 44 70 41 71 37 72 38 73 39 74
REMARK SMILES IDX 40 75 66 76 67 77 75 78 68 79 74 80 76 81 73 82 69 83 70 84
REMARK SMILES IDX 71 85 72 86 51 87 52 88 60 89 53 90 59 91 61 92 58 93 54 94
REMARK SMILES IDX 55 95 56 96 57 97
REMARK H PARENT 81 50 49 61
REMARK Flexibility Score: inf
ROOT
ATOM      1  O   UNL     1      -2.763  -1.308   1.448  1.00  0.00    -0.377 OA
ENDROOT
BRANCH   1   2
ATOM      2  C   UNL     1      -3.404  -1.305   0.178  1.00  0.00     0.188 C 
BRANCH   2   3
ATOM      3  C   UNL     1      -2.765  -2.051  -1.003  1.00  0.00     0.188 C 
BRANCH   3   4
ATOM      4  O   UNL     1      -1.685  -2.888  -0.636  1.00  0.00    -0.376 OA
BRANCH   4   5
ATOM      5  C   UNL     1      -0.407  -2.494  -1.089  1.00  0.00     0.202 C 
BRANCH   5   6
ATOM      6  C   UNL     1       0.216  -1.224  -0.502  1.00  0.00     0.261 C 
BRANCH   6   7
ATOM      7  O   UNL     1      -0.646  -0.145  -0.103  1.00  0.00    -0.462 OA
BRANCH   7   8
ATOM      8  C   UNL     1      -0.997   0.765  -1.042  1.00  0.00     0.328 C 
ATOM      9  O   UNL     1      -0.847   0.606  -2.250  1.00  0.00    -0.250 OA
BRANCH   8  10
ATOM     10  C   UNL     1      -1.552   2.073  -0.427  1.00  0.00     0.195 C 
ATOM     11  N   UNL     1      -0.728   3.289  -0.640  1.00  0.00    -0.324 N 
ATOM     12  C   UNL     1      -1.444   4.542  -0.340  1.00  0.00     0.089 C 
ATOM     13  C   UNL     1      -2.018   2.031   1.039  1.00  0.00     0.037 C 
ATOM     14  C   UNL     1      -2.048   4.555   1.083  1.00  0.00     0.012 C 
ATOM     15  C   UNL     1      -0.614   5.817  -0.581  1.00  0.00     0.025 C 
ATOM     16  C   UNL     1      -2.858   3.279   1.349  1.00  0.00     0.008 C 
ATOM     17  C   UNL     1      -2.913   5.810   1.274  1.00  0.00     0.006 C 
ATOM     18  C   UNL     1      -1.436   7.081  -0.340  1.00  0.00     0.002 C 
ATOM     19  C   UNL     1      -2.097   7.079   1.037  1.00  0.00     0.000 C 
BRANCH  11  20
ATOM     20  C   UNL     1       0.624   3.196  -0.290  1.00  0.00     0.249 C 
ATOM     21  O   UNL     1       1.094   3.704   0.726  1.00  0.00    -0.272 OA
BRANCH  20  22
ATOM     22  C   UNL     1       1.518   2.504  -1.338  1.00  0.00     0.259 C 
BRANCH  22  23
ATOM     23  O   UNL     1       1.982   1.198  -1.064  1.00  0.00    -0.375 OA
ATOM     24  C   UNL     1       2.737   1.099   0.134  1.00  0.00     0.195 C 
ENDBRANCH  22  23
ENDBRANCH  20  22
ENDBRANCH  11  20
ENDBRANCH   8  10
ENDBRANCH   7   8
ENDBRANCH   6   7
ENDBRANCH   5   6
ENDBRANCH   4   5
ENDBRANCH   3   4
ENDBRANCH   2   3
ENDBRANCH   1   2
BRANCH   1  25
ATOM     25  C   UNL     1      -2.225  -2.524   1.970  1.00  0.00     0.188 C 
BRANCH  25  26
ATOM     26  C   UNL     1      -2.965  -3.849   1.692  1.00  0.00     0.188 C 
BRANCH  26  27
ATOM     27  O   UNL     1      -4.265  -3.680   1.150  1.00  0.00    -0.376 OA
BRANCH  27  28
ATOM     28  C   UNL     1      -5.353  -3.718   2.062  1.00  0.00     0.202 C 
BRANCH  28  29
ATOM     29  C   UNL     1      -5.350  -2.722   3.234  1.00  0.00     0.261 C 
BRANCH  29  30
ATOM     30  O   UNL     1      -4.240  -2.788   4.146  1.00  0.00    -0.460 OA
BRANCH  30  31
ATOM     31  C   UNL     1      -4.017  -3.957   4.788  1.00  0.00     0.338 C 
ATOM     32  O   UNL     1      -4.670  -4.977   4.700  1.00  0.00    -0.246 OA
BRANCH  31  33
ATOM     33  C   UNL     1      -2.729  -3.832   5.505  1.00  0.00     0.060 A 
ATOM     34  C   UNL     1      -1.646  -4.635   5.123  1.00  0.00     0.016 A 
ATOM     35  C   UNL     1      -2.608  -2.940   6.572  1.00  0.00     0.016 A 
ATOM     36  C   UNL     1      -0.449  -4.578   5.839  1.00  0.00     0.010 A 
ATOM     37  C   UNL     1      -1.415  -2.899   7.299  1.00  0.00     0.010 A 
ATOM     38  C   UNL     1      -0.345  -3.746   6.961  1.00  0.00    -0.014 A 
BRANCH  38  39
ATOM     39  C   UNL     1       0.781  -3.928   7.912  1.00  0.00     0.031 A 
ATOM     40  C   UNL     1       0.546  -4.781   9.130  1.00  0.00     0.074 A 
ATOM     41  C   UNL     1       1.982  -3.361   7.704  1.00  0.00     0.049 A 
ATOM     42  N   UNL     1       1.336  -5.030  10.141  1.00  0.00    -0.248 NA
ATOM     43  C   UNL     1      -0.771  -5.431   9.218  1.00  0.00     0.031 C 
ATOM     44  C   UNL     1       2.343  -2.552   6.542  1.00  0.00     0.029 A 
ATOM     45  N   UNL     1       3.118  -3.369   8.476  1.00  0.00    -0.354 N 
ATOM     46  C   UNL     1       0.608  -5.855  10.994  1.00  0.00     0.074 A 
ATOM     47  C   UNL     1      -0.697  -6.032  10.394  1.00  0.00     0.031 C 
ATOM     48  C   UNL     1       3.608  -2.121   6.688  1.00  0.00     0.029 A 
ATOM     49  C   UNL     1       4.132  -2.589   7.971  1.00  0.00     0.049 A 
ATOM     50  H   UNL     1       3.198  -3.883   9.311  1.00  0.00     0.167 HD
ATOM     51  C   UNL     1       0.995  -6.414  12.167  1.00  0.00     0.034 A 
ATOM     52  C   UNL     1       5.329  -2.263   8.502  1.00  0.00     0.034 A 
ATOM     53  C   UNL     1       2.296  -6.213  12.755  1.00  0.00     0.049 A 
ATOM     54  C   UNL     1       5.714  -2.831   9.848  1.00  0.00     0.074 A 
ATOM     55  C   UNL     1       2.807  -6.751  13.923  1.00  0.00     0.029 A 
ATOM     56  N   UNL     1       3.287  -5.389  12.233  1.00  0.00    -0.354 N 
ATOM     57  N   UNL     1       5.029  -3.626  10.638  1.00  0.00    -0.248 NA
ATOM     58  C   UNL     1       7.037  -2.464  10.369  1.00  0.00     0.031 C 
ATOM     59  C   UNL     1       4.069  -6.189  14.149  1.00  0.00     0.029 A 
ATOM     60  C   UNL     1       4.388  -5.371  13.076  1.00  0.00     0.049 A 
ATOM     61  H   UNL     1       3.218  -4.892  11.386  1.00  0.00     0.167 HD
ATOM     62  C   UNL     1       5.850  -3.875  11.737  1.00  0.00     0.074 A 
ATOM     63  C   UNL     1       7.085  -3.156  11.499  1.00  0.00     0.031 C 
ATOM     64  C   UNL     1       5.609  -4.634  12.837  1.00  0.00     0.034 A 
BRANCH  51  65
ATOM     65  C   UNL     1      -0.033  -7.232  12.915  1.00  0.00     0.023 A 
ATOM     66  C   UNL     1      -0.594  -8.402  12.374  1.00  0.00     0.031 A 
ATOM     67  C   UNL     1      -0.500  -6.800  14.170  1.00  0.00     0.131 A 
ATOM     68  C   UNL     1      -1.645  -9.049  13.043  1.00  0.00     0.055 A 
ATOM     69  C   UNL     1      -1.484  -7.499  14.871  1.00  0.00     0.041 A 
ATOM     70  F   UNL     1      -0.023  -5.676  14.727  1.00  0.00    -0.206 F 
ATOM     71  C   UNL     1      -2.076  -8.620  14.300  1.00  0.00     0.022 A 
BRANCH  68  72
ATOM     72  S   UNL     1      -2.556 -10.354  12.170  1.00  0.00     0.124 S 
ATOM     73  O   UNL     1      -2.994  -9.654  10.965  1.00  0.00    -0.237 OA
ATOM     74  O   UNL     1      -1.534 -11.377  11.979  1.00  0.00    -0.237 OA
ATOM     75  O   UNL     1      -3.627 -10.706  13.101  1.00  0.00    -0.744 OA
ENDBRANCH  68  72
ENDBRANCH  51  65
BRANCH  52  76
ATOM     76  C   UNL     1       6.229  -1.309   7.790  1.00  0.00     0.023 A 
ATOM     77  C   UNL     1       7.486  -1.705   7.307  1.00  0.00     0.031 A 
ATOM     78  C   UNL     1       5.849   0.035   7.615  1.00  0.00     0.131 A 
ATOM     79  C   UNL     1       8.331  -0.760   6.700  1.00  0.00     0.055 A 
ATOM     80  C   UNL     1       6.671   0.957   6.966  1.00  0.00     0.041 A 
ATOM     81  F   UNL     1       4.660   0.468   8.063  1.00  0.00    -0.206 F 
ATOM     82  C   UNL     1       7.926   0.563   6.513  1.00  0.00     0.022 A 
BRANCH  79  83
ATOM     83  S   UNL     1      10.003  -1.272   6.213  1.00  0.00     0.124 S 
ATOM     84  O   UNL     1      10.570  -1.689   7.490  1.00  0.00    -0.237 OA
ATOM     85  O   UNL     1       9.727  -2.336   5.254  1.00  0.00    -0.237 OA
ATOM     86  O   UNL     1      10.578  -0.056   5.641  1.00  0.00    -0.744 OA
ENDBRANCH  79  83
ENDBRANCH  52  76
BRANCH  64  87
ATOM     87  C   UNL     1       6.725  -4.762  13.849  1.00  0.00     0.023 A 
ATOM     88  C   UNL     1       7.178  -3.664  14.601  1.00  0.00     0.031 A 
ATOM     89  C   UNL     1       7.346  -6.007  14.060  1.00  0.00     0.131 A 
ATOM     90  C   UNL     1       8.256  -3.820  15.487  1.00  0.00     0.055 A 
ATOM     91  C   UNL     1       8.373  -6.170  14.991  1.00  0.00     0.041 A 
ATOM     92  F   UNL     1       6.960  -7.090  13.368  1.00  0.00    -0.206 F 
ATOM     93  C   UNL     1       8.843  -5.069  15.701  1.00  0.00     0.022 A 
BRANCH  90  94
ATOM     94  S   UNL     1       8.949  -2.346  16.286  1.00  0.00     0.124 S 
ATOM     95  O   UNL     1       9.317  -1.524  15.138  1.00  0.00    -0.237 OA
ATOM     96  O   UNL     1       7.826  -1.863  17.082  1.00  0.00    -0.237 OA
ATOM     97  O   UNL     1      10.075  -2.871  17.058  1.00  0.00    -0.744 OA
ENDBRANCH  90  94
ENDBRANCH  64  87
ENDBRANCH  38  39
ENDBRANCH  31  33
ENDBRANCH  30  31
ENDBRANCH  29  30
ENDBRANCH  28  29
ENDBRANCH  27  28
ENDBRANCH  26  27
ENDBRANCH  25  26
ENDBRANCH   1  25
TORSDOF 26
