REMARK SMILES Cc1cccc2c1[C@H]1c3c(C)cccc3[C@H](CC(=O)OCCOCCOCCOCCOC(=O)c3ccc(-c4c5nc(c(-c6cc(S(=O)(=O)[O-])ccc6F)c6ccc([nH]6)c(-c6cc(S(=O)(=O)[O-])ccc6F)c6nc(c(-c7cc(S(=O)(=O)[O-])ccc7F)c7ccc4[nH]7)C=C6)C=C5)cc3)C[C@H]1CC2
REMARK SMILES IDX 27 1 26 2 25 3 24 4 23 5 22 6 21 7 20 8 18 9 19 10 17 11
REMARK SMILES IDX 16 12 1 13 2 14 3 15 7 16 4 17 6 18 8 19 5 20 101 21 9 22
REMARK SMILES IDX 99 23 100 24 10 25 15 26 98 27 12 28 11 29 14 30 13 31 28 32
REMARK SMILES IDX 29 33 30 34 31 35 32 36 33 37 34 38 35 39 36 40 97 41 37 42
REMARK SMILES IDX 96 43 38 44 39 45 40 46 90 47 41 48 95 49 89 50 91 51 42 52
REMARK SMILES IDX 94 53 88 54 87 55 43 57 75 58 55 59 74 60 56 61 59 62 73 63
REMARK SMILES IDX 92 64 57 65 58 66 72 68 93 69 60 70 44 71 45 72 53 73 46 74
REMARK SMILES IDX 52 75 54 76 51 77 47 78 48 79 49 80 50 81 76 82 77 83 85 84
REMARK SMILES IDX 78 85 84 86 86 87 83 88 79 89 80 90 81 91 82 92 61 93 62 94
REMARK SMILES IDX 70 95 63 96 69 97 71 98 68 99 64 100 65 101 66 102 67 103
REMARK H PARENT 91 56 59 67
REMARK Flexibility Score: inf
ROOT
ATOM      1  C   UNL     1       1.058   2.867   3.768  1.00  0.00     0.188 C 
ENDROOT
BRANCH   1   2
ATOM      2  O   UNL     1       0.159   2.158   4.599  1.00  0.00    -0.377 OA
BRANCH   2   3
ATOM      3  C   UNL     1      -0.721   1.296   3.899  1.00  0.00     0.188 C 
BRANCH   3   4
ATOM      4  C   UNL     1      -2.184   1.789   3.844  1.00  0.00     0.188 C 
BRANCH   4   5
ATOM      5  O   UNL     1      -2.564   2.990   4.504  1.00  0.00    -0.376 OA
BRANCH   5   6
ATOM      6  C   UNL     1      -1.995   3.263   5.776  1.00  0.00     0.202 C 
BRANCH   6   7
ATOM      7  C   UNL     1      -2.042   2.179   6.873  1.00  0.00     0.261 C 
BRANCH   7   8
ATOM      8  O   UNL     1      -1.558   0.860   6.524  1.00  0.00    -0.463 OA
BRANCH   8   9
ATOM      9  C   UNL     1      -2.474  -0.134   6.344  1.00  0.00     0.306 C 
ATOM     10  O   UNL     1      -3.687   0.016   6.448  1.00  0.00    -0.252 OA
BRANCH   9  11
ATOM     11  C   UNL     1      -1.820  -1.491   6.082  1.00  0.00     0.131 C 
BRANCH  11  12
ATOM     12  C   UNL     1      -1.657  -2.162   4.665  1.00  0.00     0.031 C 
ATOM     13  C   UNL     1       2.007  -1.230  -0.217  1.00  0.00     0.044 C 
ATOM     14  C   UNL     1       0.906  -2.225  -0.452  1.00  0.00    -0.047 A 
ATOM     15  C   UNL     1       0.811  -2.704  -1.775  1.00  0.00     0.004 A 
ATOM     16  C   UNL     1       0.101  -2.800   0.562  1.00  0.00    -0.034 A 
ATOM     17  C   UNL     1       0.064  -3.834  -2.071  1.00  0.00     0.001 A 
ATOM     18  C   UNL     1      -0.421  -4.079   0.294  1.00  0.00    -0.044 A 
ATOM     19  C   UNL     1      -0.263  -2.130   1.907  1.00  0.00     0.053 C 
ATOM     20  C   UNL     1      -0.479  -4.565  -1.024  1.00  0.00     0.004 A 
ATOM     21  C   UNL     1      -0.678  -5.048   1.420  1.00  0.00     0.036 C 
ATOM     22  C   UNL     1      -1.735  -1.597   2.090  1.00  0.00    -0.034 A 
ATOM     23  C   UNL     1       0.036  -3.164   3.016  1.00  0.00     0.002 C 
ATOM     24  C   UNL     1      -0.820  -4.434   2.808  1.00  0.00     0.009 C 
ATOM     25  C   UNL     1      -2.510  -1.060   1.018  1.00  0.00    -0.047 A 
ATOM     26  C   UNL     1      -2.347  -1.625   3.405  1.00  0.00    -0.040 A 
ATOM     27  C   UNL     1      -0.183  -2.522   4.398  1.00  0.00     0.013 C 
ATOM     28  C   UNL     1      -3.844  -0.659   1.244  1.00  0.00     0.004 A 
ATOM     29  C   UNL     1      -2.062  -0.934  -0.413  1.00  0.00     0.044 C 
ATOM     30  C   UNL     1      -3.706  -1.284   3.546  1.00  0.00     0.004 A 
ATOM     31  C   UNL     1      -4.442  -0.782   2.486  1.00  0.00     0.001 A 
ENDBRANCH  11  12
ENDBRANCH   9  11
ENDBRANCH   8   9
ENDBRANCH   7   8
ENDBRANCH   6   7
ENDBRANCH   5   6
ENDBRANCH   4   5
ENDBRANCH   3   4
ENDBRANCH   2   3
ENDBRANCH   1   2
BRANCH   1  32
ATOM     32  C   UNL     1       0.405   3.760   2.692  1.00  0.00     0.188 C 
BRANCH  32  33
ATOM     33  O   UNL     1      -0.623   3.112   1.958  1.00  0.00    -0.376 OA
BRANCH  33  34
ATOM     34  C   UNL     1      -0.367   2.644   0.649  1.00  0.00     0.202 C 
BRANCH  34  35
ATOM     35  C   UNL     1       0.767   1.648   0.421  1.00  0.00     0.261 C 
BRANCH  35  36
ATOM     36  O   UNL     1       1.923   1.810   1.244  1.00  0.00    -0.460 OA
BRANCH  36  37
ATOM     37  C   UNL     1       3.026   2.391   0.737  1.00  0.00     0.338 C 
ATOM     38  O   UNL     1       3.192   2.798  -0.399  1.00  0.00    -0.246 OA
BRANCH  37  39
ATOM     39  C   UNL     1       3.963   2.571   1.865  1.00  0.00     0.060 A 
ATOM     40  C   UNL     1       3.924   3.782   2.566  1.00  0.00     0.016 A 
ATOM     41  C   UNL     1       4.838   1.552   2.260  1.00  0.00     0.016 A 
ATOM     42  C   UNL     1       4.755   3.982   3.663  1.00  0.00     0.010 A 
ATOM     43  C   UNL     1       5.718   1.778   3.327  1.00  0.00     0.010 A 
ATOM     44  C   UNL     1       5.698   3.007   4.008  1.00  0.00    -0.014 A 
BRANCH  44  45
ATOM     45  C   UNL     1       6.824   3.436   4.869  1.00  0.00     0.031 A 
ATOM     46  C   UNL     1       7.988   4.104   4.191  1.00  0.00     0.074 A 
ATOM     47  C   UNL     1       6.771   3.345   6.209  1.00  0.00     0.049 A 
ATOM     48  N   UNL     1       9.045   4.657   4.719  1.00  0.00    -0.248 NA
ATOM     49  C   UNL     1       7.942   4.176   2.718  1.00  0.00     0.031 C 
ATOM     50  C   UNL     1       5.668   2.766   6.972  1.00  0.00     0.029 A 
ATOM     51  N   UNL     1       7.671   3.747   7.165  1.00  0.00    -0.354 N 
ATOM     52  C   UNL     1       9.779   5.153   3.649  1.00  0.00     0.074 A 
ATOM     53  C   UNL     1       9.067   4.818   2.440  1.00  0.00     0.031 C 
ATOM     54  C   UNL     1       5.968   2.829   8.281  1.00  0.00     0.029 A 
ATOM     55  C   UNL     1       7.290   3.436   8.448  1.00  0.00     0.049 A 
ATOM     56  H   UNL     1       8.511   4.215   6.951  1.00  0.00     0.167 HD
ATOM     57  C   UNL     1      10.943   5.838   3.678  1.00  0.00     0.034 A 
ATOM     58  C   UNL     1       7.942   3.603   9.619  1.00  0.00     0.034 A 
ATOM     59  C   UNL     1      11.650   6.157   4.885  1.00  0.00     0.049 A 
ATOM     60  C   UNL     1       9.273   4.316   9.623  1.00  0.00     0.074 A 
ATOM     61  C   UNL     1      12.837   6.853   5.015  1.00  0.00     0.029 A 
ATOM     62  N   UNL     1      11.248   5.799   6.162  1.00  0.00    -0.354 N 
ATOM     63  N   UNL     1       9.934   4.827   8.610  1.00  0.00    -0.248 NA
ATOM     64  C   UNL     1       9.944   4.494  10.919  1.00  0.00     0.031 C 
ATOM     65  C   UNL     1      13.186   6.861   6.364  1.00  0.00     0.029 A 
ATOM     66  C   UNL     1      12.180   6.236   7.085  1.00  0.00     0.049 A 
ATOM     67  H   UNL     1      10.423   5.307   6.379  1.00  0.00     0.167 HD
ATOM     68  C   UNL     1      11.082   5.404   9.147  1.00  0.00     0.074 A 
ATOM     69  C   UNL     1      11.019   5.196  10.578  1.00  0.00     0.031 C 
ATOM     70  C   UNL     1      12.094   6.045   8.511  1.00  0.00     0.034 A 
BRANCH  57  71
ATOM     71  C   UNL     1      11.547   6.289   2.379  1.00  0.00     0.023 A 
ATOM     72  C   UNL     1      12.771   5.742   1.958  1.00  0.00     0.031 A 
ATOM     73  C   UNL     1      10.999   7.356   1.647  1.00  0.00     0.131 A 
ATOM     74  C   UNL     1      13.442   6.305   0.869  1.00  0.00     0.055 A 
ATOM     75  C   UNL     1      11.653   7.889   0.537  1.00  0.00     0.041 A 
ATOM     76  F   UNL     1       9.823   7.897   2.007  1.00  0.00    -0.206 F 
ATOM     77  C   UNL     1      12.889   7.373   0.154  1.00  0.00     0.022 A 
BRANCH  74  78
ATOM     78  S   UNL     1      15.080   5.705   0.378  1.00  0.00     0.124 S 
ATOM     79  O   UNL     1      14.904   5.479  -1.055  1.00  0.00    -0.237 OA
ATOM     80  O   UNL     1      15.934   6.833   0.734  1.00  0.00    -0.237 OA
ATOM     81  O   UNL     1      15.261   4.495   1.174  1.00  0.00    -0.744 OA
ENDBRANCH  74  78
ENDBRANCH  57  71
BRANCH  58  82
ATOM     82  C   UNL     1       7.325   3.080  10.871  1.00  0.00     0.023 A 
ATOM     83  C   UNL     1       7.099   1.699  11.022  1.00  0.00     0.031 A 
ATOM     84  C   UNL     1       6.877   3.938  11.888  1.00  0.00     0.131 A 
ATOM     85  C   UNL     1       6.383   1.224  12.127  1.00  0.00     0.055 A 
ATOM     86  C   UNL     1       6.219   3.453  13.022  1.00  0.00     0.041 A 
ATOM     87  F   UNL     1       7.067   5.262  11.789  1.00  0.00    -0.206 F 
ATOM     88  C   UNL     1       5.955   2.090  13.137  1.00  0.00     0.022 A 
BRANCH  85  89
ATOM     89  S   UNL     1       5.898  -0.520  12.235  1.00  0.00     0.124 S 
ATOM     90  O   UNL     1       6.429  -0.908  13.538  1.00  0.00    -0.237 OA
ATOM     91  O   UNL     1       4.442  -0.427  12.149  1.00  0.00    -0.237 OA
ATOM     92  O   UNL     1       6.550  -1.132  11.083  1.00  0.00    -0.744 OA
ENDBRANCH  85  89
ENDBRANCH  58  82
BRANCH  70  93
ATOM     93  C   UNL     1      13.236   6.600   9.325  1.00  0.00     0.023 A 
ATOM     94  C   UNL     1      13.471   7.989   9.335  1.00  0.00     0.031 A 
ATOM     95  C   UNL     1      14.190   5.756   9.914  1.00  0.00     0.131 A 
ATOM     96  C   UNL     1      14.661   8.489   9.875  1.00  0.00     0.055 A 
ATOM     97  C   UNL     1      15.353   6.264  10.494  1.00  0.00     0.041 A 
ATOM     98  F   UNL     1      14.014   4.425   9.916  1.00  0.00    -0.206 F 
ATOM     99  C   UNL     1      15.600   7.634  10.461  1.00  0.00     0.022 A 
BRANCH  96 100
ATOM    100  S   UNL     1      15.071  10.252   9.759  1.00  0.00     0.124 S 
ATOM    101  O   UNL     1      15.300  10.602  11.159  1.00  0.00    -0.237 OA
ATOM    102  O   UNL     1      16.263  10.235   8.917  1.00  0.00    -0.237 OA
ATOM    103  O   UNL     1      13.884  10.851   9.158  1.00  0.00    -0.744 OA
ENDBRANCH  96 100
ENDBRANCH  70  93
ENDBRANCH  44  45
ENDBRANCH  37  39
ENDBRANCH  36  37
ENDBRANCH  35  36
ENDBRANCH  34  35
ENDBRANCH  33  34
ENDBRANCH  32  33
ENDBRANCH   1  32
TORSDOF 24
