REMARK SMILES Cc1ccnc(C(=O)c2[nH]c3ccc(C(C)(C)C)cc3c2CC(=O)OCCOCCOCCOCCOC(=O)c2ccc(-c3c4nc(c(-c5cc(S(=O)(=O)[O-])ccc5F)c5ccc([nH]5)c(-c5cc(S(=O)(=O)[O-])ccc5F)c5nc(c(-c6cc(S(=O)(=O)[O-])ccc6F)c6ccc3[nH]6)C=C5)C=C4)cc2)c1
REMARK SMILES IDX 31 1 30 2 29 3 28 4 27 5 26 6 25 7 23 8 24 9 22 10 21 11
REMARK SMILES IDX 9 12 10 13 11 14 20 16 12 17 19 18 13 19 14 20 7 21 8 22
REMARK SMILES IDX 6 23 1 24 2 25 3 26 103 27 4 28 5 29 15 30 16 31 17 32 18 33
REMARK SMILES IDX 32 34 33 35 34 36 35 37 36 38 37 39 38 40 39 41 40 42 41 43
REMARK SMILES IDX 102 44 42 45 101 46 43 47 44 48 45 49 95 50 46 51 100 52
REMARK SMILES IDX 94 53 96 54 47 55 99 56 93 57 92 58 48 60 80 61 60 62 79 63
REMARK SMILES IDX 61 64 64 65 78 66 97 67 62 68 63 69 77 71 98 72 65 73 49 74
REMARK SMILES IDX 50 75 58 76 51 77 57 78 59 79 56 80 52 81 53 82 54 83 55 84
REMARK SMILES IDX 81 85 82 86 90 87 83 88 89 89 91 90 88 91 84 92 85 93 86 94
REMARK SMILES IDX 87 95 66 96 67 97 75 98 68 99 74 100 76 101 73 102 69 103
REMARK SMILES IDX 70 104 71 105 72 106
REMARK H PARENT 10 15 96 59 64 70
REMARK Flexibility Score: inf
ROOT
ATOM      1  O   UNL     1       3.978  -3.918  -0.550  1.00  0.00    -0.377 OA
ENDROOT
BRANCH   1   2
ATOM      2  C   UNL     1       4.217  -2.847   0.346  1.00  0.00     0.188 C 
BRANCH   2   3
ATOM      3  C   UNL     1       5.429  -2.916   1.274  1.00  0.00     0.188 C 
BRANCH   3   4
ATOM      4  O   UNL     1       6.565  -3.624   0.822  1.00  0.00    -0.376 OA
BRANCH   4   5
ATOM      5  C   UNL     1       6.427  -5.034   0.642  1.00  0.00     0.202 C 
BRANCH   5   6
ATOM      6  C   UNL     1       5.537  -5.853   1.599  1.00  0.00     0.261 C 
BRANCH   6   7
ATOM      7  O   UNL     1       4.120  -5.537   1.540  1.00  0.00    -0.463 OA
BRANCH   7   8
ATOM      8  C   UNL     1       3.476  -5.459   2.731  1.00  0.00     0.310 C 
ATOM      9  O   UNL     1       4.033  -5.689   3.807  1.00  0.00    -0.252 OA
BRANCH   8  10
ATOM     10  C   UNL     1       2.027  -5.007   2.730  1.00  0.00     0.161 C 
BRANCH  10  11
ATOM     11  C   UNL     1       1.219  -4.868   1.460  1.00  0.00     0.000 A 
ATOM     12  C   UNL     1       0.811  -3.690   0.810  1.00  0.00     0.093 A 
ATOM     13  N   UNL     1       0.161  -4.098  -0.341  1.00  0.00    -0.352 N 
ATOM     14  C   UNL     1      -0.281  -5.391  -0.188  1.00  0.00     0.046 A 
ATOM     15  H   UNL     1       0.034  -3.547  -1.147  1.00  0.00     0.167 HD
ATOM     16  C   UNL     1       0.387  -5.903   0.915  1.00  0.00     0.004 A 
ATOM     17  C   UNL     1      -1.224  -6.132  -0.908  1.00  0.00     0.027 A 
ATOM     18  C   UNL     1       0.059  -7.202   1.351  1.00  0.00     0.015 A 
ATOM     19  C   UNL     1      -1.584  -7.392  -0.401  1.00  0.00     0.006 A 
ATOM     20  C   UNL     1      -0.989  -7.931   0.750  1.00  0.00    -0.042 A 
BRANCH  12  21
ATOM     21  C   UNL     1       1.006  -2.308   1.249  1.00  0.00     0.227 C 
ATOM     22  O   UNL     1       1.617  -2.019   2.279  1.00  0.00    -0.285 OA
BRANCH  21  23
ATOM     23  C   UNL     1       0.399  -1.155   0.525  1.00  0.00     0.113 A 
ATOM     24  C   UNL     1      -3.013   0.309  -0.197  1.00  0.00     0.044 C 
ATOM     25  C   UNL     1      -1.528   0.131  -0.084  1.00  0.00    -0.047 A 
ATOM     26  C   UNL     1      -0.679   1.224  -0.279  1.00  0.00     0.023 A 
ATOM     27  C   UNL     1      -0.977  -1.087   0.331  1.00  0.00     0.036 A 
ATOM     28  C   UNL     1       0.681   1.055  -0.086  1.00  0.00     0.112 A 
ATOM     29  N   UNL     1       1.236  -0.108   0.301  1.00  0.00    -0.253 NA
ENDBRANCH  21  23
ENDBRANCH  12  21
BRANCH  20  30
ATOM     30  C   UNL     1      -1.477  -9.222   1.433  1.00  0.00    -0.013 C 
ATOM     31  C   UNL     1      -0.315 -10.228   1.555  1.00  0.00     0.016 C 
ATOM     32  C   UNL     1      -1.996  -8.868   2.849  1.00  0.00     0.016 C 
ATOM     33  C   UNL     1      -2.634  -9.930   0.697  1.00  0.00     0.016 C 
ENDBRANCH  20  30
ENDBRANCH  10  11
ENDBRANCH   8  10
ENDBRANCH   7   8
ENDBRANCH   6   7
ENDBRANCH   5   6
ENDBRANCH   4   5
ENDBRANCH   3   4
ENDBRANCH   2   3
ENDBRANCH   1   2
BRANCH   1  34
ATOM     34  C   UNL     1       4.457  -3.841  -1.887  1.00  0.00     0.188 C 
BRANCH  34  35
ATOM     35  C   UNL     1       5.122  -2.541  -2.339  1.00  0.00     0.188 C 
BRANCH  35  36
ATOM     36  O   UNL     1       4.329  -1.351  -2.350  1.00  0.00    -0.376 OA
BRANCH  36  37
ATOM     37  C   UNL     1       2.918  -1.463  -2.512  1.00  0.00     0.202 C 
BRANCH  37  38
ATOM     38  C   UNL     1       2.447  -1.519  -3.962  1.00  0.00     0.261 C 
BRANCH  38  39
ATOM     39  O   UNL     1       2.734  -2.793  -4.553  1.00  0.00    -0.460 OA
BRANCH  39  40
ATOM     40  C   UNL     1       3.831  -2.828  -5.346  1.00  0.00     0.338 C 
ATOM     41  O   UNL     1       4.540  -1.888  -5.668  1.00  0.00    -0.246 OA
BRANCH  40  42
ATOM     42  C   UNL     1       4.160  -4.236  -5.628  1.00  0.00     0.060 A 
ATOM     43  C   UNL     1       5.482  -4.659  -5.444  1.00  0.00     0.016 A 
ATOM     44  C   UNL     1       3.183  -5.125  -6.081  1.00  0.00     0.016 A 
ATOM     45  C   UNL     1       5.837  -5.975  -5.724  1.00  0.00     0.010 A 
ATOM     46  C   UNL     1       3.544  -6.438  -6.383  1.00  0.00     0.010 A 
ATOM     47  C   UNL     1       4.875  -6.859  -6.225  1.00  0.00    -0.014 A 
BRANCH  47  48
ATOM     48  C   UNL     1       5.285  -8.183  -6.738  1.00  0.00     0.031 A 
ATOM     49  C   UNL     1       5.522  -8.331  -8.213  1.00  0.00     0.074 A 
ATOM     50  C   UNL     1       5.424  -9.226  -5.902  1.00  0.00     0.049 A 
ATOM     51  N   UNL     1       5.767  -9.408  -8.910  1.00  0.00    -0.248 NA
ATOM     52  C   UNL     1       5.471  -7.094  -9.009  1.00  0.00     0.031 C 
ATOM     53  C   UNL     1       5.278  -9.165  -4.447  1.00  0.00     0.029 A 
ATOM     54  N   UNL     1       5.705 -10.543  -6.158  1.00  0.00    -0.354 N 
ATOM     55  C   UNL     1       5.886  -8.983 -10.229  1.00  0.00     0.074 A 
ATOM     56  C   UNL     1       5.666  -7.553 -10.236  1.00  0.00     0.031 C 
ATOM     57  C   UNL     1       5.453 -10.398  -3.942  1.00  0.00     0.029 A 
ATOM     58  C   UNL     1       5.668 -11.340  -5.038  1.00  0.00     0.049 A 
ATOM     59  H   UNL     1       5.912 -10.885  -7.058  1.00  0.00     0.167 HD
ATOM     60  C   UNL     1       6.151  -9.727 -11.329  1.00  0.00     0.034 A 
ATOM     61  C   UNL     1       5.756 -12.681  -4.926  1.00  0.00     0.034 A 
ATOM     62  C   UNL     1       6.351 -11.154 -11.291  1.00  0.00     0.049 A 
ATOM     63  C   UNL     1       5.938 -13.499  -6.185  1.00  0.00     0.074 A 
ATOM     64  C   UNL     1       6.651 -12.010 -12.335  1.00  0.00     0.029 A 
ATOM     65  N   UNL     1       6.251 -11.940 -10.149  1.00  0.00    -0.354 N 
ATOM     66  N   UNL     1       6.064 -13.089  -7.427  1.00  0.00    -0.248 NA
ATOM     67  C   UNL     1       5.983 -14.958  -6.026  1.00  0.00     0.031 C 
ATOM     68  C   UNL     1       6.644 -13.318 -11.842  1.00  0.00     0.029 A 
ATOM     69  C   UNL     1       6.431 -13.275 -10.473  1.00  0.00     0.049 A 
ATOM     70  H   UNL     1       6.078 -11.598  -9.242  1.00  0.00     0.167 HD
ATOM     71  C   UNL     1       6.233 -14.241  -8.192  1.00  0.00     0.074 A 
ATOM     72  C   UNL     1       6.213 -15.357  -7.268  1.00  0.00     0.031 C 
ATOM     73  C   UNL     1       6.391 -14.371  -9.534  1.00  0.00     0.034 A 
BRANCH  60  74
ATOM     74  C   UNL     1       6.169  -9.024 -12.663  1.00  0.00     0.023 A 
ATOM     75  C   UNL     1       7.131  -8.049 -12.980  1.00  0.00     0.031 A 
ATOM     76  C   UNL     1       5.197  -9.331 -13.631  1.00  0.00     0.131 A 
ATOM     77  C   UNL     1       7.066  -7.379 -14.212  1.00  0.00     0.055 A 
ATOM     78  C   UNL     1       5.183  -8.714 -14.883  1.00  0.00     0.041 A 
ATOM     79  F   UNL     1       4.235 -10.231 -13.372  1.00  0.00    -0.206 F 
ATOM     80  C   UNL     1       6.116  -7.724 -15.176  1.00  0.00     0.022 A 
BRANCH  77  81
ATOM     81  S   UNL     1       8.165  -5.963 -14.491  1.00  0.00     0.124 S 
ATOM     82  O   UNL     1       7.782  -5.072 -13.399  1.00  0.00    -0.237 OA
ATOM     83  O   UNL     1       9.489  -6.566 -14.389  1.00  0.00    -0.237 OA
ATOM     84  O   UNL     1       7.793  -5.498 -15.825  1.00  0.00    -0.744 OA
ENDBRANCH  77  81
ENDBRANCH  60  74
BRANCH  61  85
ATOM     85  C   UNL     1       5.618 -13.350  -3.599  1.00  0.00     0.023 A 
ATOM     86  C   UNL     1       6.653 -14.141  -3.079  1.00  0.00     0.031 A 
ATOM     87  C   UNL     1       4.419 -13.274  -2.867  1.00  0.00     0.131 A 
ATOM     88  C   UNL     1       6.453 -14.870  -1.897  1.00  0.00     0.055 A 
ATOM     89  C   UNL     1       4.247 -13.948  -1.656  1.00  0.00     0.041 A 
ATOM     90  F   UNL     1       3.389 -12.540  -3.320  1.00  0.00    -0.206 F 
ATOM     91  C   UNL     1       5.263 -14.767  -1.173  1.00  0.00     0.022 A 
BRANCH  88  92
ATOM     92  S   UNL     1       7.730 -16.050  -1.381  1.00  0.00     0.124 S 
ATOM     93  O   UNL     1       7.826 -16.912  -2.553  1.00  0.00    -0.237 OA
ATOM     94  O   UNL     1       8.870 -15.173  -1.134  1.00  0.00    -0.237 OA
ATOM     95  O   UNL     1       7.156 -16.674  -0.191  1.00  0.00    -0.744 OA
ENDBRANCH  88  92
ENDBRANCH  61  85
BRANCH  73  96
ATOM     96  C   UNL     1       6.587 -15.769 -10.070  1.00  0.00     0.023 A 
ATOM     97  C   UNL     1       5.564 -16.731 -10.010  1.00  0.00     0.031 A 
ATOM     98  C   UNL     1       7.813 -16.142 -10.649  1.00  0.00     0.131 A 
ATOM     99  C   UNL     1       5.803 -18.034 -10.469  1.00  0.00     0.055 A 
ATOM    100  C   UNL     1       8.023 -17.421 -11.166  1.00  0.00     0.041 A 
ATOM    101  F   UNL     1       8.826 -15.264 -10.730  1.00  0.00    -0.206 F 
ATOM    102  C   UNL     1       7.019 -18.380 -11.065  1.00  0.00     0.022 A 
BRANCH  99 103
ATOM    103  S   UNL     1       4.535 -19.300 -10.192  1.00  0.00     0.124 S 
ATOM    104  O   UNL     1       4.414 -19.295  -8.738  1.00  0.00    -0.237 OA
ATOM    105  O   UNL     1       3.394 -18.767 -10.928  1.00  0.00    -0.237 OA
ATOM    106  O   UNL     1       5.128 -20.510 -10.761  1.00  0.00    -0.744 OA
ENDBRANCH  99 103
ENDBRANCH  73  96
ENDBRANCH  47  48
ENDBRANCH  40  42
ENDBRANCH  39  40
ENDBRANCH  38  39
ENDBRANCH  37  38
ENDBRANCH  36  37
ENDBRANCH  35  36
ENDBRANCH  34  35
ENDBRANCH   1  34
TORSDOF 27
