REMARK SMILES O=C(Cn1cnc(-c2ccccc2)c1-c1ccccc1)OCCOCCOCCOCCOC(=O)c1ccc(-c2c3nc(c(-c4cc(S(=O)(=O)[O-])ccc4F)c4ccc([nH]4)c(-c4cc(S(=O)(=O)[O-])ccc4F)c4nc(c(-c5cc(S(=O)(=O)[O-])ccc5F)c5ccc2[nH]5)C=C4)C=C3)cc1
REMARK SMILES IDX 28 1 27 2 26 3 25 4 24 5 23 6 22 7 21 8 2 9 1 10 3 11 4 12
REMARK SMILES IDX 5 13 14 14 6 15 7 16 15 17 16 18 20 19 17 20 19 21 18 22
REMARK SMILES IDX 8 23 9 24 13 25 10 26 12 27 11 28 29 29 30 30 31 31 32 32
REMARK SMILES IDX 33 33 34 34 35 35 36 36 37 37 98 38 38 39 97 40 39 41 40 42
REMARK SMILES IDX 41 43 91 44 42 45 96 46 90 47 92 48 43 49 95 50 89 51 88 52
REMARK SMILES IDX 44 54 76 55 56 56 75 57 57 58 60 59 74 60 93 61 58 62 59 63
REMARK SMILES IDX 73 65 94 66 61 67 45 68 46 69 54 70 47 71 53 72 55 73 52 74
REMARK SMILES IDX 48 75 49 76 50 77 51 78 77 79 78 80 86 81 79 82 85 83 87 84
REMARK SMILES IDX 84 85 80 86 81 87 82 88 83 89 62 90 63 91 71 92 64 93 70 94
REMARK SMILES IDX 72 95 69 96 65 97 66 98 67 99 68 100
REMARK H PARENT 92 53 60 64
REMARK Flexibility Score: inf
ROOT
ATOM      1  C   UNL     1       4.457   2.548   2.602  1.00  0.00     0.188 C 
ENDROOT
BRANCH   1   2
ATOM      2  O   UNL     1       3.070   2.715   2.809  1.00  0.00    -0.377 OA
BRANCH   2   3
ATOM      3  C   UNL     1       2.155   1.694   2.459  1.00  0.00     0.188 C 
BRANCH   3   4
ATOM      4  C   UNL     1       2.514   0.599   1.440  1.00  0.00     0.188 C 
BRANCH   4   5
ATOM      5  O   UNL     1       3.869   0.201   1.438  1.00  0.00    -0.376 OA
BRANCH   5   6
ATOM      6  C   UNL     1       4.616   0.090   0.234  1.00  0.00     0.202 C 
BRANCH   6   7
ATOM      7  C   UNL     1       4.249   0.984  -0.949  1.00  0.00     0.261 C 
BRANCH   7   8
ATOM      8  O   UNL     1       2.975   0.811  -1.631  1.00  0.00    -0.462 OA
BRANCH   8   9
ATOM      9  C   UNL     1       2.136  -0.228  -1.794  1.00  0.00     0.326 C 
ATOM     10  O   UNL     1       1.088  -0.059  -2.418  1.00  0.00    -0.250 OA
BRANCH   9  11
ATOM     11  C   UNL     1       2.456  -1.575  -1.225  1.00  0.00     0.246 C 
BRANCH  11  12
ATOM     12  N   UNL     1       3.431  -2.343  -1.971  1.00  0.00    -0.319 N 
ATOM     13  C   UNL     1       4.321  -1.838  -2.880  1.00  0.00     0.201 A 
ATOM     14  C   UNL     1       3.664  -3.706  -1.859  1.00  0.00     0.076 A 
ATOM     15  N   UNL     1       5.118  -2.760  -3.351  1.00  0.00    -0.236 NA
ATOM     16  C   UNL     1       4.682  -3.926  -2.780  1.00  0.00     0.096 A 
BRANCH  14  17
ATOM     17  C   UNL     1       2.965  -4.643  -0.970  1.00  0.00     0.000 A 
ATOM     18  C   UNL     1       3.701  -5.498  -0.135  1.00  0.00     0.010 A 
ATOM     19  C   UNL     1       1.569  -4.756  -0.969  1.00  0.00     0.010 A 
ATOM     20  C   UNL     1       3.058  -6.433   0.682  1.00  0.00     0.001 A 
ATOM     21  C   UNL     1       0.923  -5.671  -0.132  1.00  0.00     0.001 A 
ATOM     22  C   UNL     1       1.668  -6.513   0.689  1.00  0.00     0.000 A 
ENDBRANCH  14  17
BRANCH  16  23
ATOM     23  C   UNL     1       5.185  -5.207  -3.219  1.00  0.00     0.002 A 
ATOM     24  C   UNL     1       6.555  -5.480  -3.185  1.00  0.00     0.010 A 
ATOM     25  C   UNL     1       4.302  -6.138  -3.778  1.00  0.00     0.010 A 
ATOM     26  C   UNL     1       7.036  -6.683  -3.704  1.00  0.00     0.001 A 
ATOM     27  C   UNL     1       4.785  -7.333  -4.305  1.00  0.00     0.001 A 
ATOM     28  C   UNL     1       6.152  -7.604  -4.269  1.00  0.00     0.000 A 
ENDBRANCH  16  23
ENDBRANCH  11  12
ENDBRANCH   9  11
ENDBRANCH   8   9
ENDBRANCH   7   8
ENDBRANCH   6   7
ENDBRANCH   5   6
ENDBRANCH   4   5
ENDBRANCH   3   4
ENDBRANCH   2   3
ENDBRANCH   1   2
BRANCH   1  29
ATOM     29  C   UNL     1       5.330   1.643   3.510  1.00  0.00     0.188 C 
BRANCH  29  30
ATOM     30  O   UNL     1       4.996   0.351   3.991  1.00  0.00    -0.376 OA
BRANCH  30  31
ATOM     31  C   UNL     1       3.820   0.024   4.710  1.00  0.00     0.202 C 
BRANCH  31  32
ATOM     32  C   UNL     1       3.311   0.845   5.892  1.00  0.00     0.261 C 
BRANCH  32  33
ATOM     33  O   UNL     1       3.237   2.223   5.603  1.00  0.00    -0.460 OA
BRANCH  33  34
ATOM     34  C   UNL     1       4.320   2.909   6.026  1.00  0.00     0.338 C 
ATOM     35  O   UNL     1       5.306   2.453   6.576  1.00  0.00    -0.246 OA
BRANCH  34  36
ATOM     36  C   UNL     1       4.129   4.333   5.742  1.00  0.00     0.060 A 
ATOM     37  C   UNL     1       5.177   5.170   6.125  1.00  0.00     0.016 A 
ATOM     38  C   UNL     1       2.857   4.818   5.408  1.00  0.00     0.016 A 
ATOM     39  C   UNL     1       4.869   6.460   6.468  1.00  0.00     0.010 A 
ATOM     40  C   UNL     1       2.545   6.103   5.768  1.00  0.00     0.010 A 
ATOM     41  C   UNL     1       3.532   6.857   6.396  1.00  0.00    -0.014 A 
BRANCH  41  42
ATOM     42  C   UNL     1       3.176   8.069   7.089  1.00  0.00     0.031 A 
ATOM     43  C   UNL     1       3.396   9.294   6.318  1.00  0.00     0.074 A 
ATOM     44  C   UNL     1       2.631   8.042   8.317  1.00  0.00     0.049 A 
ATOM     45  N   UNL     1       4.282  10.205   6.528  1.00  0.00    -0.248 NA
ATOM     46  C   UNL     1       2.644   9.445   5.066  1.00  0.00     0.031 C 
ATOM     47  C   UNL     1       2.108   6.877   9.034  1.00  0.00     0.029 A 
ATOM     48  N   UNL     1       2.321   9.085   9.131  1.00  0.00    -0.354 N 
ATOM     49  C   UNL     1       4.027  11.177   5.574  1.00  0.00     0.074 A 
ATOM     50  C   UNL     1       3.194  10.556   4.581  1.00  0.00     0.031 C 
ATOM     51  C   UNL     1       1.351   7.306  10.067  1.00  0.00     0.029 A 
ATOM     52  C   UNL     1       1.432   8.757  10.142  1.00  0.00     0.049 A 
ATOM     53  H   UNL     1       2.692   9.989   9.013  1.00  0.00     0.167 HD
ATOM     54  C   UNL     1       4.280  12.486   5.833  1.00  0.00     0.034 A 
ATOM     55  C   UNL     1       0.735   9.627  10.914  1.00  0.00     0.034 A 
ATOM     56  C   UNL     1       5.221  12.631   6.926  1.00  0.00     0.049 A 
ATOM     57  C   UNL     1       1.454  10.927  10.881  1.00  0.00     0.074 A 
ATOM     58  C   UNL     1       6.489  12.137   7.174  1.00  0.00     0.029 A 
ATOM     59  N   UNL     1       4.759  13.084   8.143  1.00  0.00    -0.354 N 
ATOM     60  N   UNL     1       2.638  11.115  11.399  1.00  0.00    -0.248 NA
ATOM     61  C   UNL     1       1.054  11.923   9.897  1.00  0.00     0.031 C 
ATOM     62  C   UNL     1       6.532  11.889   8.577  1.00  0.00     0.029 A 
ATOM     63  C   UNL     1       5.312  12.293   9.122  1.00  0.00     0.049 A 
ATOM     64  H   UNL     1       4.143  13.839   8.286  1.00  0.00     0.167 HD
ATOM     65  C   UNL     1       3.287  11.971  10.523  1.00  0.00     0.074 A 
ATOM     66  C   UNL     1       2.226  12.532   9.693  1.00  0.00     0.031 C 
ATOM     67  C   UNL     1       4.643  11.926  10.359  1.00  0.00     0.034 A 
BRANCH  54  68
ATOM     68  C   UNL     1       3.398  13.614   5.346  1.00  0.00     0.023 A 
ATOM     69  C   UNL     1       3.791  14.916   5.692  1.00  0.00     0.031 A 
ATOM     70  C   UNL     1       2.087  13.489   4.823  1.00  0.00     0.131 A 
ATOM     71  C   UNL     1       2.882  15.985   5.625  1.00  0.00     0.055 A 
ATOM     72  C   UNL     1       1.215  14.571   4.680  1.00  0.00     0.041 A 
ATOM     73  F   UNL     1       1.530  12.315   4.506  1.00  0.00    -0.206 F 
ATOM     74  C   UNL     1       1.597  15.824   5.117  1.00  0.00     0.022 A 
BRANCH  71  75
ATOM     75  S   UNL     1       3.354  17.544   6.410  1.00  0.00     0.124 S 
ATOM     76  O   UNL     1       3.760  17.089   7.736  1.00  0.00    -0.237 OA
ATOM     77  O   UNL     1       4.421  18.007   5.531  1.00  0.00    -0.237 OA
ATOM     78  O   UNL     1       2.122  18.328   6.368  1.00  0.00    -0.744 OA
ENDBRANCH  71  75
ENDBRANCH  54  68
BRANCH  55  79
ATOM     79  C   UNL     1      -0.648   9.445  11.423  1.00  0.00     0.023 A 
ATOM     80  C   UNL     1      -1.166  10.228  12.471  1.00  0.00     0.031 A 
ATOM     81  C   UNL     1      -1.569   8.623  10.731  1.00  0.00     0.131 A 
ATOM     82  C   UNL     1      -2.538  10.159  12.797  1.00  0.00     0.055 A 
ATOM     83  C   UNL     1      -2.918   8.536  11.076  1.00  0.00     0.041 A 
ATOM     84  F   UNL     1      -1.210   7.936   9.636  1.00  0.00    -0.206 F 
ATOM     85  C   UNL     1      -3.412   9.312  12.110  1.00  0.00     0.022 A 
BRANCH  82  86
ATOM     86  S   UNL     1      -3.233  11.280  14.050  1.00  0.00     0.124 S 
ATOM     87  O   UNL     1      -2.725  10.708  15.291  1.00  0.00    -0.237 OA
ATOM     88  O   UNL     1      -2.682  12.571  13.655  1.00  0.00    -0.237 OA
ATOM     89  O   UNL     1      -4.678  11.149  13.857  1.00  0.00    -0.744 OA
ENDBRANCH  82  86
ENDBRANCH  55  79
BRANCH  67  90
ATOM     90  C   UNL     1       5.479  11.224  11.412  1.00  0.00     0.023 A 
ATOM     91  C   UNL     1       5.305   9.881  11.812  1.00  0.00     0.031 A 
ATOM     92  C   UNL     1       6.574  11.925  11.949  1.00  0.00     0.131 A 
ATOM     93  C   UNL     1       6.199   9.296  12.729  1.00  0.00     0.055 A 
ATOM     94  C   UNL     1       7.469  11.336  12.843  1.00  0.00     0.041 A 
ATOM     95  F   UNL     1       6.815  13.196  11.586  1.00  0.00    -0.206 F 
ATOM     96  C   UNL     1       7.280  10.019  13.242  1.00  0.00     0.022 A 
BRANCH  93  97
ATOM     97  S   UNL     1       5.963   7.577  13.284  1.00  0.00     0.124 S 
ATOM     98  O   UNL     1       4.535   7.502  13.571  1.00  0.00    -0.237 OA
ATOM     99  O   UNL     1       6.426   6.811  12.130  1.00  0.00    -0.237 OA
ATOM    100  O   UNL     1       6.827   7.481  14.462  1.00  0.00    -0.744 OA
ENDBRANCH  93  97
ENDBRANCH  67  90
ENDBRANCH  41  42
ENDBRANCH  34  36
ENDBRANCH  33  34
ENDBRANCH  32  33
ENDBRANCH  31  32
ENDBRANCH  30  31
ENDBRANCH  29  30
ENDBRANCH   1  29
TORSDOF 26
