REMARK SMILES CCN(c1ccnc(C(=O)OCCOCCOCCOCCOC(=O)c2ccc(-c3c4nc(c(-c5cc(S(=O)(=O)[O-])ccc5F)c5ccc([nH]5)c(-c5cc(S(=O)(=O)[O-])ccc5F)c5nc(c(-c6cc(S(=O)(=O)[O-])ccc6F)c6ccc3[nH]6)C=C5)C=C4)cc2)c1)S(=O)(=O)c1ccccc1
REMARK SMILES IDX 17 1 16 2 15 3 14 4 13 5 12 6 11 7 9 8 10 9 8 10 4 11 5 12
REMARK SMILES IDX 89 13 6 14 7 15 3 16 2 17 1 18 90 19 91 20 92 21 93 22 94 23
REMARK SMILES IDX 98 24 95 25 97 26 96 27 18 28 19 29 20 30 21 31 22 32 23 33
REMARK SMILES IDX 24 34 25 35 26 36 27 37 88 38 28 39 87 40 29 41 30 42 31 43
REMARK SMILES IDX 81 44 32 45 86 46 80 47 82 48 33 49 85 50 79 51 78 52 34 54
REMARK SMILES IDX 66 55 46 56 65 57 47 58 50 59 64 60 83 61 48 62 49 63 63 65
REMARK SMILES IDX 84 66 51 67 35 68 36 69 44 70 37 71 43 72 45 73 42 74 38 75
REMARK SMILES IDX 39 76 40 77 41 78 67 79 68 80 76 81 69 82 75 83 77 84 74 85
REMARK SMILES IDX 70 86 71 87 72 88 73 89 52 90 53 91 61 92 54 93 60 94 62 95
REMARK SMILES IDX 59 96 55 97 56 98 57 99 58 100
REMARK H PARENT 82 53 50 64
REMARK Flexibility Score: inf
ROOT
ATOM      1  O   UNL     1      -0.758   3.284  -5.565  1.00  0.00    -0.377 OA
ENDROOT
BRANCH   1   2
ATOM      2  C   UNL     1      -1.903   3.770  -4.888  1.00  0.00     0.188 C 
BRANCH   2   3
ATOM      3  C   UNL     1      -2.269   5.228  -5.228  1.00  0.00     0.188 C 
BRANCH   3   4
ATOM      4  O   UNL     1      -1.788   5.695  -6.473  1.00  0.00    -0.376 OA
BRANCH   4   5
ATOM      5  C   UNL     1      -0.495   6.248  -6.655  1.00  0.00     0.202 C 
BRANCH   5   6
ATOM      6  C   UNL     1       0.740   6.014  -5.766  1.00  0.00     0.261 C 
BRANCH   6   7
ATOM      7  O   UNL     1       0.530   5.405  -4.501  1.00  0.00    -0.459 OA
BRANCH   7   8
ATOM      8  C   UNL     1       0.131   6.203  -3.488  1.00  0.00     0.357 C 
ATOM      9  O   UNL     1       0.001   7.415  -3.534  1.00  0.00    -0.244 OA
BRANCH   8  10
ATOM     10  C   UNL     1      -0.257   5.320  -2.342  1.00  0.00     0.150 A 
ATOM     11  C   UNL     1       0.176   3.442  -0.933  1.00  0.00     0.056 A 
ATOM     12  C   UNL     1      -0.791   3.929  -0.057  1.00  0.00     0.047 A 
ATOM     13  C   UNL     1       0.377   4.101  -2.140  1.00  0.00     0.063 A 
ATOM     14  C   UNL     1      -1.496   5.066  -0.420  1.00  0.00     0.114 A 
ATOM     15  N   UNL     1      -1.221   5.797  -1.516  1.00  0.00    -0.249 NA
BRANCH  11  16
ATOM     16  N   UNL     1       1.091   2.367  -0.597  1.00  0.00    -0.266 N 
BRANCH  16  17
ATOM     17  C   UNL     1       0.549   1.305   0.319  1.00  0.00     0.132 C 
ATOM     18  C   UNL     1       1.014  -0.082  -0.077  1.00  0.00     0.028 C 
ENDBRANCH  16  17
BRANCH  16  19
ATOM     19  S   UNL     1       2.708   2.869  -0.122  1.00  0.00     0.264 S 
ATOM     20  O   UNL     1       2.626   3.335   1.250  1.00  0.00    -0.201 OA
ATOM     21  O   UNL     1       3.612   1.794  -0.474  1.00  0.00    -0.201 OA
BRANCH  19  22
ATOM     22  C   UNL     1       3.138   4.286  -1.121  1.00  0.00     0.088 A 
ATOM     23  C   UNL     1       3.856   4.139  -2.312  1.00  0.00     0.022 A 
ATOM     24  C   UNL     1       2.713   5.556  -0.700  1.00  0.00     0.022 A 
ATOM     25  C   UNL     1       4.073   5.260  -3.121  1.00  0.00     0.001 A 
ATOM     26  C   UNL     1       2.912   6.662  -1.525  1.00  0.00     0.001 A 
ATOM     27  C   UNL     1       3.583   6.511  -2.738  1.00  0.00     0.000 A 
ENDBRANCH  19  22
ENDBRANCH  16  19
ENDBRANCH  11  16
ENDBRANCH   8  10
ENDBRANCH   7   8
ENDBRANCH   6   7
ENDBRANCH   5   6
ENDBRANCH   4   5
ENDBRANCH   3   4
ENDBRANCH   2   3
ENDBRANCH   1   2
BRANCH   1  28
ATOM     28  C   UNL     1      -0.907   2.838  -6.914  1.00  0.00     0.188 C 
BRANCH  28  29
ATOM     29  C   UNL     1      -2.146   3.205  -7.768  1.00  0.00     0.188 C 
BRANCH  29  30
ATOM     30  O   UNL     1      -3.369   3.276  -7.049  1.00  0.00    -0.376 OA
BRANCH  30  31
ATOM     31  C   UNL     1      -4.287   2.204  -7.160  1.00  0.00     0.202 C 
BRANCH  31  32
ATOM     32  C   UNL     1      -3.842   0.846  -6.599  1.00  0.00     0.261 C 
BRANCH  32  33
ATOM     33  O   UNL     1      -2.626   0.309  -7.138  1.00  0.00    -0.460 OA
BRANCH  33  34
ATOM     34  C   UNL     1      -2.612   0.033  -8.465  1.00  0.00     0.338 C 
ATOM     35  O   UNL     1      -3.528   0.163  -9.245  1.00  0.00    -0.246 OA
BRANCH  34  36
ATOM     36  C   UNL     1      -1.211  -0.276  -8.835  1.00  0.00     0.060 A 
ATOM     37  C   UNL     1      -0.561   0.535  -9.774  1.00  0.00     0.016 A 
ATOM     38  C   UNL     1      -0.545  -1.353  -8.248  1.00  0.00     0.016 A 
ATOM     39  C   UNL     1       0.754   0.252 -10.149  1.00  0.00     0.010 A 
ATOM     40  C   UNL     1       0.764  -1.647  -8.641  1.00  0.00     0.010 A 
ATOM     41  C   UNL     1       1.410  -0.864  -9.614  1.00  0.00    -0.014 A 
BRANCH  41  42
ATOM     42  C   UNL     1       2.698  -1.319 -10.198  1.00  0.00     0.031 A 
ATOM     43  C   UNL     1       2.671  -2.454 -11.187  1.00  0.00     0.074 A 
ATOM     44  C   UNL     1       3.864  -0.736  -9.863  1.00  0.00     0.049 A 
ATOM     45  N   UNL     1       3.664  -3.076 -11.765  1.00  0.00    -0.248 NA
ATOM     46  C   UNL     1       1.341  -2.956 -11.570  1.00  0.00     0.031 C 
ATOM     47  C   UNL     1       4.010   0.399  -8.953  1.00  0.00     0.029 A 
ATOM     48  N   UNL     1       5.152  -1.031 -10.239  1.00  0.00    -0.354 N 
ATOM     49  C   UNL     1       3.084  -4.055 -12.565  1.00  0.00     0.074 A 
ATOM     50  C   UNL     1       1.652  -3.956 -12.382  1.00  0.00     0.031 C 
ATOM     51  C   UNL     1       5.316   0.690  -8.825  1.00  0.00     0.029 A 
ATOM     52  C   UNL     1       6.104  -0.266  -9.603  1.00  0.00     0.049 A 
ATOM     53  H   UNL     1       5.374  -1.725 -10.901  1.00  0.00     0.167 HD
ATOM     54  C   UNL     1       3.693  -4.954 -13.375  1.00  0.00     0.034 A 
ATOM     55  C   UNL     1       7.451  -0.354  -9.617  1.00  0.00     0.034 A 
ATOM     56  C   UNL     1       5.122  -5.038 -13.546  1.00  0.00     0.049 A 
ATOM     57  C   UNL     1       8.106  -1.419 -10.471  1.00  0.00     0.074 A 
ATOM     58  C   UNL     1       5.837  -5.883 -14.376  1.00  0.00     0.029 A 
ATOM     59  N   UNL     1       6.054  -4.269 -12.863  1.00  0.00    -0.354 N 
ATOM     60  N   UNL     1       7.544  -2.318 -11.248  1.00  0.00    -0.248 NA
ATOM     61  C   UNL     1       9.574  -1.477 -10.455  1.00  0.00     0.031 C 
ATOM     62  C   UNL     1       7.199  -5.692 -14.125  1.00  0.00     0.029 A 
ATOM     63  C   UNL     1       7.338  -4.655 -13.216  1.00  0.00     0.049 A 
ATOM     64  H   UNL     1       5.836  -3.554 -12.222  1.00  0.00     0.167 HD
ATOM     65  C   UNL     1       8.595  -3.022 -11.837  1.00  0.00     0.074 A 
ATOM     66  C   UNL     1       9.819  -2.431 -11.341  1.00  0.00     0.031 C 
ATOM     67  C   UNL     1       8.553  -4.061 -12.710  1.00  0.00     0.034 A 
BRANCH  54  68
ATOM     68  C   UNL     1       2.826  -5.962 -14.088  1.00  0.00     0.023 A 
ATOM     69  C   UNL     1       1.902  -5.589 -15.079  1.00  0.00     0.031 A 
ATOM     70  C   UNL     1       2.945  -7.329 -13.777  1.00  0.00     0.131 A 
ATOM     71  C   UNL     1       1.103  -6.568 -15.692  1.00  0.00     0.055 A 
ATOM     72  C   UNL     1       2.201  -8.304 -14.441  1.00  0.00     0.041 A 
ATOM     73  F   UNL     1       3.790  -7.739 -12.818  1.00  0.00    -0.206 F 
ATOM     74  C   UNL     1       1.267  -7.925 -15.400  1.00  0.00     0.022 A 
BRANCH  71  75
ATOM     75  S   UNL     1      -0.234  -6.035 -16.795  1.00  0.00     0.124 S 
ATOM     76  O   UNL     1      -1.037  -5.200 -15.905  1.00  0.00    -0.237 OA
ATOM     77  O   UNL     1       0.488  -5.334 -17.851  1.00  0.00    -0.237 OA
ATOM     78  O   UNL     1      -0.866  -7.290 -17.199  1.00  0.00    -0.744 OA
ENDBRANCH  71  75
ENDBRANCH  54  68
BRANCH  55  79
ATOM     79  C   UNL     1       8.285   0.533  -8.749  1.00  0.00     0.023 A 
ATOM     80  C   UNL     1       9.254   1.390  -9.295  1.00  0.00     0.031 A 
ATOM     81  C   UNL     1       8.188   0.464  -7.347  1.00  0.00     0.131 A 
ATOM     82  C   UNL     1      10.128   2.090  -8.447  1.00  0.00     0.055 A 
ATOM     83  C   UNL     1       9.013   1.216  -6.508  1.00  0.00     0.041 A 
ATOM     84  F   UNL     1       7.287  -0.345  -6.766  1.00  0.00    -0.206 F 
ATOM     85  C   UNL     1      10.004   2.022  -7.058  1.00  0.00     0.022 A 
BRANCH  82  86
ATOM     86  S   UNL     1      11.518   2.992  -9.187  1.00  0.00     0.124 S 
ATOM     87  O   UNL     1      12.181   1.940  -9.949  1.00  0.00    -0.237 OA
ATOM     88  O   UNL     1      10.832   4.015  -9.969  1.00  0.00    -0.237 OA
ATOM     89  O   UNL     1      12.258   3.487  -8.028  1.00  0.00    -0.744 OA
ENDBRANCH  82  86
ENDBRANCH  55  79
BRANCH  67  90
ATOM     90  C   UNL     1       9.871  -4.588 -13.229  1.00  0.00     0.023 A 
ATOM     91  C   UNL     1      10.806  -5.214 -12.386  1.00  0.00     0.031 A 
ATOM     92  C   UNL     1      10.193  -4.463 -14.593  1.00  0.00     0.131 A 
ATOM     93  C   UNL     1      12.040  -5.638 -12.904  1.00  0.00     0.055 A 
ATOM     94  C   UNL     1      11.391  -4.951 -15.115  1.00  0.00     0.041 A 
ATOM     95  F   UNL     1       9.341  -3.871 -15.445  1.00  0.00    -0.206 F 
ATOM     96  C   UNL     1      12.329  -5.530 -14.267  1.00  0.00     0.022 A 
BRANCH  93  97
ATOM     97  S   UNL     1      13.307  -6.242 -11.755  1.00  0.00     0.124 S 
ATOM     98  O   UNL     1      13.473  -5.101 -10.861  1.00  0.00    -0.237 OA
ATOM     99  O   UNL     1      12.667  -7.419 -11.175  1.00  0.00    -0.237 OA
ATOM    100  O   UNL     1      14.450  -6.523 -12.621  1.00  0.00    -0.744 OA
ENDBRANCH  93  97
ENDBRANCH  67  90
ENDBRANCH  41  42
ENDBRANCH  34  36
ENDBRANCH  33  34
ENDBRANCH  32  33
ENDBRANCH  31  32
ENDBRANCH  30  31
ENDBRANCH  29  30
ENDBRANCH  28  29
ENDBRANCH   1  28
TORSDOF 27
