REMARK SMILES Cn1c(=O)c2c(-c3ccc(Cl)cc3)n(CC(=O)OCCOCCOCCOCCOC(=O)c3ccc(-c4c5nc(c(-c6cc(S(=O)(=O)[O-])ccc6F)c6ccc([nH]6)c(-c6cc(S(=O)(=O)[O-])ccc6F)c6nc(c(-c7cc(S(=O)(=O)[O-])ccc7F)c7ccc4[nH]7)C=C6)C=C5)cc3)cc2n(C)c1=O
REMARK SMILES IDX 25 1 24 2 23 3 22 4 21 5 20 6 19 7 18 8 16 9 17 10 15 11
REMARK SMILES IDX 14 12 1 13 2 14 3 15 100 16 4 17 5 18 98 19 101 20 6 21
REMARK SMILES IDX 97 22 99 23 96 24 7 25 8 26 13 27 9 28 12 29 10 30 11 31
REMARK SMILES IDX 26 32 27 33 28 34 29 35 30 36 31 37 32 38 33 39 34 40 95 41
REMARK SMILES IDX 35 42 94 43 36 44 37 45 38 46 88 47 39 48 93 49 87 50 89 51
REMARK SMILES IDX 40 52 92 53 86 54 85 55 41 57 73 58 53 59 72 60 54 61 57 62
REMARK SMILES IDX 71 63 90 64 55 65 56 66 70 68 91 69 58 70 42 71 43 72 51 73
REMARK SMILES IDX 44 74 50 75 52 76 49 77 45 78 46 79 47 80 48 81 74 82 75 83
REMARK SMILES IDX 83 84 76 85 82 86 84 87 81 88 77 89 78 90 79 91 80 92 59 93
REMARK SMILES IDX 60 94 68 95 61 96 67 97 69 98 66 99 62 100 63 101 64 102
REMARK SMILES IDX 65 103
REMARK H PARENT 89 56 57 67
REMARK Flexibility Score: inf
ROOT
ATOM      1  C   UNL     1       2.860  -2.698   7.196  1.00  0.00     0.188 C 
ENDROOT
BRANCH   1   2
ATOM      2  O   UNL     1       2.502  -3.816   6.401  1.00  0.00    -0.377 OA
BRANCH   2   3
ATOM      3  C   UNL     1       1.116  -4.038   6.215  1.00  0.00     0.188 C 
BRANCH   3   4
ATOM      4  C   UNL     1       0.493  -5.223   7.000  1.00  0.00     0.188 C 
BRANCH   4   5
ATOM      5  O   UNL     1       1.301  -6.172   7.692  1.00  0.00    -0.376 OA
BRANCH   5   6
ATOM      6  C   UNL     1       2.654  -6.331   7.302  1.00  0.00     0.202 C 
BRANCH   6   7
ATOM      7  C   UNL     1       2.916  -6.809   5.858  1.00  0.00     0.261 C 
BRANCH   7   8
ATOM      8  O   UNL     1       2.054  -6.231   4.842  1.00  0.00    -0.462 OA
BRANCH   8   9
ATOM      9  C   UNL     1       1.133  -7.039   4.264  1.00  0.00     0.326 C 
ATOM     10  O   UNL     1       1.110  -8.259   4.433  1.00  0.00    -0.250 OA
BRANCH   9  11
ATOM     11  C   UNL     1      -0.014  -6.353   3.537  1.00  0.00     0.244 C 
BRANCH  11  12
ATOM     12  N   UNL     1       0.110  -4.997   2.975  1.00  0.00    -0.333 N 
ATOM     13  C   UNL     1       1.119  -0.013  -0.090  1.00  0.00     0.158 C 
ATOM     14  N   UNL     1       0.649  -0.991   0.876  1.00  0.00    -0.263 N 
ATOM     15  C   UNL     1       1.037  -2.319   0.651  1.00  0.00     0.265 A 
ATOM     16  C   UNL     1      -0.127  -0.526   1.945  1.00  0.00     0.330 A 
ATOM     17  O   UNL     1       1.708  -2.669  -0.317  1.00  0.00    -0.268 OA
ATOM     18  C   UNL     1       0.565  -3.247   1.660  1.00  0.00     0.090 A 
ATOM     19  N   UNL     1      -0.647  -1.482   2.830  1.00  0.00    -0.295 N 
ATOM     20  O   UNL     1      -0.352   0.676   2.113  1.00  0.00    -0.248 OA
ATOM     21  C   UNL     1       0.761  -4.620   1.806  1.00  0.00     0.064 A 
ATOM     22  C   UNL     1      -0.281  -2.812   2.691  1.00  0.00     0.076 A 
ATOM     23  C   UNL     1      -1.481  -0.977   3.903  1.00  0.00     0.155 C 
ATOM     24  C   UNL     1      -0.639  -3.916   3.425  1.00  0.00     0.114 A 
BRANCH  21  25
ATOM     25  C   UNL     1       1.488  -5.556   0.952  1.00  0.00    -0.001 A 
ATOM     26  C   UNL     1       0.818  -6.636   0.363  1.00  0.00     0.012 A 
ATOM     27  C   UNL     1       2.853  -5.382   0.705  1.00  0.00     0.012 A 
ATOM     28  C   UNL     1       1.514  -7.571  -0.401  1.00  0.00     0.021 A 
ATOM     29  C   UNL     1       3.547  -6.299  -0.088  1.00  0.00     0.021 A 
ATOM     30  C   UNL     1       2.878  -7.400  -0.621  1.00  0.00     0.041 A 
ATOM     31  Cl  UNL     1       3.737  -8.556  -1.560  1.00  0.00    -0.084 Cl
ENDBRANCH  21  25
ENDBRANCH  11  12
ENDBRANCH   9  11
ENDBRANCH   8   9
ENDBRANCH   7   8
ENDBRANCH   6   7
ENDBRANCH   5   6
ENDBRANCH   4   5
ENDBRANCH   3   4
ENDBRANCH   2   3
ENDBRANCH   1   2
BRANCH   1  32
ATOM     32  C   UNL     1       2.187  -2.616   8.575  1.00  0.00     0.188 C 
BRANCH  32  33
ATOM     33  O   UNL     1       0.802  -2.938   8.550  1.00  0.00    -0.376 OA
BRANCH  33  34
ATOM     34  C   UNL     1      -0.177  -1.922   8.642  1.00  0.00     0.202 C 
BRANCH  34  35
ATOM     35  C   UNL     1      -0.363  -0.933   7.488  1.00  0.00     0.261 C 
BRANCH  35  36
ATOM     36  O   UNL     1       0.794  -0.520   6.778  1.00  0.00    -0.460 OA
BRANCH  36  37
ATOM     37  C   UNL     1       1.569   0.348   7.464  1.00  0.00     0.338 C 
ATOM     38  O   UNL     1       1.567   0.501   8.669  1.00  0.00    -0.246 OA
BRANCH  37  39
ATOM     39  C   UNL     1       2.351   1.169   6.525  1.00  0.00     0.060 A 
ATOM     40  C   UNL     1       3.329   1.981   7.093  1.00  0.00     0.016 A 
ATOM     41  C   UNL     1       1.956   1.327   5.186  1.00  0.00     0.016 A 
ATOM     42  C   UNL     1       3.752   3.085   6.384  1.00  0.00     0.010 A 
ATOM     43  C   UNL     1       2.389   2.433   4.475  1.00  0.00     0.010 A 
ATOM     44  C   UNL     1       3.219   3.350   5.111  1.00  0.00    -0.014 A 
BRANCH  44  45
ATOM     45  C   UNL     1       3.682   4.554   4.439  1.00  0.00     0.031 A 
ATOM     46  C   UNL     1       5.141   4.535   4.206  1.00  0.00     0.074 A 
ATOM     47  C   UNL     1       2.925   5.615   4.095  1.00  0.00     0.049 A 
ATOM     48  N   UNL     1       6.025   5.132   4.930  1.00  0.00    -0.248 NA
ATOM     49  C   UNL     1       5.698   3.591   3.230  1.00  0.00     0.031 C 
ATOM     50  C   UNL     1       1.471   5.764   4.134  1.00  0.00     0.029 A 
ATOM     51  N   UNL     1       3.338   6.814   3.588  1.00  0.00    -0.354 N 
ATOM     52  C   UNL     1       7.247   4.846   4.348  1.00  0.00     0.074 A 
ATOM     53  C   UNL     1       7.007   3.754   3.440  1.00  0.00     0.031 C 
ATOM     54  C   UNL     1       1.116   6.899   3.482  1.00  0.00     0.029 A 
ATOM     55  C   UNL     1       2.317   7.627   3.098  1.00  0.00     0.049 A 
ATOM     56  H   UNL     1       4.284   7.084   3.570  1.00  0.00     0.167 HD
ATOM     57  C   UNL     1       8.284   5.714   4.484  1.00  0.00     0.034 A 
ATOM     58  C   UNL     1       2.448   8.820   2.451  1.00  0.00     0.034 A 
ATOM     59  C   UNL     1       8.070   6.617   5.595  1.00  0.00     0.049 A 
ATOM     60  C   UNL     1       3.720   9.410   2.941  1.00  0.00     0.074 A 
ATOM     61  C   UNL     1       7.848   6.453   6.950  1.00  0.00     0.029 A 
ATOM     62  N   UNL     1       7.674   7.907   5.314  1.00  0.00    -0.354 N 
ATOM     63  N   UNL     1       3.893   9.794   4.178  1.00  0.00    -0.248 NA
ATOM     64  C   UNL     1       4.938   9.116   2.201  1.00  0.00     0.031 C 
ATOM     65  C   UNL     1       6.877   7.442   7.287  1.00  0.00     0.029 A 
ATOM     66  C   UNL     1       6.623   8.201   6.144  1.00  0.00     0.049 A 
ATOM     67  H   UNL     1       8.072   8.506   4.641  1.00  0.00     0.167 HD
ATOM     68  C   UNL     1       5.171   9.369   4.502  1.00  0.00     0.074 A 
ATOM     69  C   UNL     1       5.794   9.025   3.223  1.00  0.00     0.031 C 
ATOM     70  C   UNL     1       5.522   9.073   5.787  1.00  0.00     0.034 A 
BRANCH  57  71
ATOM     71  C   UNL     1       9.257   6.030   3.375  1.00  0.00     0.023 A 
ATOM     72  C   UNL     1      10.263   6.969   3.664  1.00  0.00     0.031 A 
ATOM     73  C   UNL     1       9.056   5.736   2.007  1.00  0.00     0.131 A 
ATOM     74  C   UNL     1      10.916   7.660   2.632  1.00  0.00     0.055 A 
ATOM     75  C   UNL     1       9.756   6.381   0.985  1.00  0.00     0.041 A 
ATOM     76  F   UNL     1       8.115   4.890   1.575  1.00  0.00    -0.206 F 
ATOM     77  C   UNL     1      10.665   7.377   1.293  1.00  0.00     0.022 A 
BRANCH  74  78
ATOM     78  S   UNL     1      11.971   9.059   3.080  1.00  0.00     0.124 S 
ATOM     79  O   UNL     1      11.025   9.923   3.778  1.00  0.00    -0.237 OA
ATOM     80  O   UNL     1      12.987   8.416   3.907  1.00  0.00    -0.237 OA
ATOM     81  O   UNL     1      12.440   9.556   1.789  1.00  0.00    -0.744 OA
ENDBRANCH  74  78
ENDBRANCH  57  71
BRANCH  58  82
ATOM     82  C   UNL     1       1.770   9.261   1.189  1.00  0.00     0.023 A 
ATOM     83  C   UNL     1       1.955  10.552   0.632  1.00  0.00     0.031 A 
ATOM     84  C   UNL     1       1.119   8.318   0.362  1.00  0.00     0.131 A 
ATOM     85  C   UNL     1       1.518  10.842  -0.686  1.00  0.00     0.055 A 
ATOM     86  C   UNL     1       0.696   8.609  -0.939  1.00  0.00     0.041 A 
ATOM     87  F   UNL     1       0.944   7.048   0.755  1.00  0.00    -0.206 F 
ATOM     88  C   UNL     1       0.905   9.868  -1.474  1.00  0.00     0.022 A 
BRANCH  85  89
ATOM     89  S   UNL     1       1.838  12.469  -1.454  1.00  0.00     0.124 S 
ATOM     90  O   UNL     1       0.818  13.306  -0.834  1.00  0.00    -0.237 OA
ATOM     91  O   UNL     1       3.219  12.739  -1.071  1.00  0.00    -0.237 OA
ATOM     92  O   UNL     1       1.640  12.216  -2.882  1.00  0.00    -0.744 OA
ENDBRANCH  85  89
ENDBRANCH  58  82
BRANCH  70  93
ATOM     93  C   UNL     1       4.626   9.511   6.922  1.00  0.00     0.023 A 
ATOM     94  C   UNL     1       3.325   9.020   7.170  1.00  0.00     0.031 A 
ATOM     95  C   UNL     1       5.221  10.327   7.901  1.00  0.00     0.131 A 
ATOM     96  C   UNL     1       2.677   9.346   8.382  1.00  0.00     0.055 A 
ATOM     97  C   UNL     1       4.587  10.626   9.103  1.00  0.00     0.041 A 
ATOM     98  F   UNL     1       6.468  10.797   7.726  1.00  0.00    -0.206 F 
ATOM     99  C   UNL     1       3.312  10.133   9.350  1.00  0.00     0.022 A 
BRANCH  96 100
ATOM    100  S   UNL     1       1.010   8.702   8.751  1.00  0.00     0.124 S 
ATOM    101  O   UNL     1       0.189   9.287   7.697  1.00  0.00    -0.237 OA
ATOM    102  O   UNL     1       1.198   7.256   8.690  1.00  0.00    -0.237 OA
ATOM    103  O   UNL     1       0.731   9.218  10.093  1.00  0.00    -0.744 OA
ENDBRANCH  96 100
ENDBRANCH  70  93
ENDBRANCH  44  45
ENDBRANCH  37  39
ENDBRANCH  36  37
ENDBRANCH  35  36
ENDBRANCH  34  35
ENDBRANCH  33  34
ENDBRANCH  32  33
ENDBRANCH   1  32
TORSDOF 25
