REMARK SMILES CS(=O)(=O)c1ccc(N2N=C(C(=O)OCCOCCOCCOCCOC(=O)c3ccc(-c4c5nc(c(-c6cc(S(=O)(=O)[O-])ccc6F)c6ccc([nH]6)c(-c6cc(S(=O)(=O)[O-])ccc6F)c6nc(c(-c7cc(S(=O)(=O)[O-])ccc7F)c7ccc4[nH]7)C=C6)C=C5)cc3)C[C@H]2c2cccs2)cc1
REMARK SMILES IDX 21 1 20 2 19 3 18 4 17 5 16 6 15 7 14 8 12 9 13 10 11 11
REMARK SMILES IDX 9 12 10 13 93 14 92 15 8 16 5 17 6 18 100 19 7 20 99 21 2 22
REMARK SMILES IDX 1 23 3 24 4 25 94 26 95 27 98 28 96 29 97 30 22 31 23 32
REMARK SMILES IDX 24 33 25 34 26 35 27 36 28 37 29 38 30 39 91 40 31 41 90 42
REMARK SMILES IDX 32 43 33 44 34 45 84 46 35 47 89 48 83 49 85 50 36 51 88 52
REMARK SMILES IDX 82 53 81 54 37 56 69 57 49 58 68 59 50 60 53 61 67 62 86 63
REMARK SMILES IDX 51 64 52 65 66 67 87 68 54 69 38 70 39 71 47 72 40 73 46 74
REMARK SMILES IDX 48 75 45 76 41 77 42 78 43 79 44 80 70 81 71 82 79 83 72 84
REMARK SMILES IDX 78 85 80 86 77 87 73 88 74 89 75 90 76 91 55 92 56 93 64 94
REMARK SMILES IDX 57 95 63 96 65 97 62 98 58 99 59 100 60 101 61 102
REMARK H PARENT 85 55 53 66
REMARK Flexibility Score: inf
ROOT
ATOM      1  C   UNL     1       4.287  -2.813 -12.267  1.00  0.00     0.188 C 
ENDROOT
BRANCH   1   2
ATOM      2  O   UNL     1       3.823  -1.956 -11.222  1.00  0.00    -0.377 OA
BRANCH   2   3
ATOM      3  C   UNL     1       3.057  -2.534 -10.179  1.00  0.00     0.188 C 
BRANCH   3   4
ATOM      4  C   UNL     1       1.550  -2.596 -10.476  1.00  0.00     0.188 C 
BRANCH   4   5
ATOM      5  O   UNL     1       1.186  -2.642 -11.841  1.00  0.00    -0.376 OA
BRANCH   5   6
ATOM      6  C   UNL     1       1.147  -1.494 -12.675  1.00  0.00     0.202 C 
BRANCH   6   7
ATOM      7  C   UNL     1       1.672  -0.082 -12.343  1.00  0.00     0.261 C 
BRANCH   7   8
ATOM      8  O   UNL     1       2.210   0.120 -11.043  1.00  0.00    -0.459 OA
BRANCH   8   9
ATOM      9  C   UNL     1       1.399   0.666 -10.128  1.00  0.00     0.354 C 
ATOM     10  O   UNL     1       0.274   1.100 -10.276  1.00  0.00    -0.245 OA
BRANCH   9  11
ATOM     11  C   UNL     1       2.059   0.503  -8.786  1.00  0.00     0.148 C 
ATOM     12  N   UNL     1       2.334   0.061  -6.738  1.00  0.00    -0.256 N 
ATOM     13  N   UNL     1       1.429   0.020  -7.757  1.00  0.00    -0.169 NA
ATOM     14  C   UNL     1       3.473   0.951  -7.058  1.00  0.00     0.154 C 
ATOM     15  C   UNL     1       3.517   0.790  -8.585  1.00  0.00     0.099 C 
BRANCH  12  16
ATOM     16  C   UNL     1       1.887  -0.250  -5.464  1.00  0.00     0.060 A 
ATOM     17  C   UNL     1       0.916  -0.936  -2.917  1.00  0.00     0.067 A 
ATOM     18  C   UNL     1       1.612  -1.884  -3.670  1.00  0.00     0.022 A 
ATOM     19  C   UNL     1       0.670   0.336  -3.435  1.00  0.00     0.022 A 
ATOM     20  C   UNL     1       2.092  -1.534  -4.938  1.00  0.00     0.029 A 
ATOM     21  C   UNL     1       1.147   0.664  -4.705  1.00  0.00     0.029 A 
BRANCH  17  22
ATOM     22  S   UNL     1       0.314  -1.347  -1.299  1.00  0.00     0.175 S 
ATOM     23  C   UNL     1       0.993  -0.091  -0.245  1.00  0.00     0.163 C 
ATOM     24  O   UNL     1       0.918  -2.605  -0.903  1.00  0.00    -0.224 OA
ATOM     25  O   UNL     1      -1.127  -1.185  -1.322  1.00  0.00    -0.224 OA
ENDBRANCH  17  22
ENDBRANCH  12  16
BRANCH  14  26
ATOM     26  C   UNL     1       3.347   2.406  -6.609  1.00  0.00     0.030 A 
ATOM     27  C   UNL     1       3.531   2.904  -5.329  1.00  0.00     0.017 A 
ATOM     28  S   UNL     1       2.927   3.682  -7.688  1.00  0.00    -0.147 S 
ATOM     29  C   UNL     1       3.318   4.311  -5.244  1.00  0.00     0.012 A 
ATOM     30  C   UNL     1       3.022   4.862  -6.468  1.00  0.00     0.065 A 
ENDBRANCH  14  26
ENDBRANCH   9  11
ENDBRANCH   8   9
ENDBRANCH   7   8
ENDBRANCH   6   7
ENDBRANCH   5   6
ENDBRANCH   4   5
ENDBRANCH   3   4
ENDBRANCH   2   3
ENDBRANCH   1   2
BRANCH   1  31
ATOM     31  C   UNL     1       3.583  -4.154 -12.578  1.00  0.00     0.188 C 
BRANCH  31  32
ATOM     32  O   UNL     1       3.193  -4.896 -11.430  1.00  0.00    -0.376 OA
BRANCH  32  33
ATOM     33  C   UNL     1       3.985  -6.009 -11.045  1.00  0.00     0.202 C 
BRANCH  33  34
ATOM     34  C   UNL     1       5.402  -5.705 -10.537  1.00  0.00     0.261 C 
BRANCH  34  35
ATOM     35  O   UNL     1       6.264  -5.009 -11.448  1.00  0.00    -0.460 OA
BRANCH  35  36
ATOM     36  C   UNL     1       6.536  -5.606 -12.629  1.00  0.00     0.338 C 
ATOM     37  O   UNL     1       6.147  -6.698 -13.004  1.00  0.00    -0.246 OA
BRANCH  36  38
ATOM     38  C   UNL     1       7.239  -4.617 -13.472  1.00  0.00     0.060 A 
ATOM     39  C   UNL     1       6.678  -4.234 -14.697  1.00  0.00     0.016 A 
ATOM     40  C   UNL     1       8.448  -4.066 -13.042  1.00  0.00     0.016 A 
ATOM     41  C   UNL     1       7.347  -3.320 -15.515  1.00  0.00     0.010 A 
ATOM     42  C   UNL     1       9.123  -3.167 -13.869  1.00  0.00     0.010 A 
ATOM     43  C   UNL     1       8.593  -2.814 -15.124  1.00  0.00    -0.014 A 
BRANCH  43  44
ATOM     44  C   UNL     1       9.456  -2.097 -16.096  1.00  0.00     0.031 A 
ATOM     45  C   UNL     1      10.545  -2.879 -16.779  1.00  0.00     0.074 A 
ATOM     46  C   UNL     1       9.298  -0.787 -16.355  1.00  0.00     0.049 A 
ATOM     47  N   UNL     1      11.514  -2.462 -17.549  1.00  0.00    -0.248 NA
ATOM     48  C   UNL     1      10.541  -4.332 -16.545  1.00  0.00     0.031 C 
ATOM     49  C   UNL     1       8.243   0.063 -15.805  1.00  0.00     0.029 A 
ATOM     50  N   UNL     1      10.041   0.062 -17.137  1.00  0.00    -0.354 N 
ATOM     51  C   UNL     1      12.244  -3.598 -17.884  1.00  0.00     0.074 A 
ATOM     52  C   UNL     1      11.625  -4.713 -17.201  1.00  0.00     0.031 C 
ATOM     53  C   UNL     1       8.418   1.318 -16.256  1.00  0.00     0.029 A 
ATOM     54  C   UNL     1       9.625   1.373 -17.081  1.00  0.00     0.049 A 
ATOM     55  H   UNL     1      10.800  -0.238 -17.688  1.00  0.00     0.167 HD
ATOM     56  C   UNL     1      13.327  -3.701 -18.692  1.00  0.00     0.034 A 
ATOM     57  C   UNL     1      10.179   2.488 -17.602  1.00  0.00     0.034 A 
ATOM     58  C   UNL     1      13.941  -2.576 -19.352  1.00  0.00     0.049 A 
ATOM     59  C   UNL     1      11.454   2.368 -18.408  1.00  0.00     0.074 A 
ATOM     60  C   UNL     1      15.040  -2.565 -20.192  1.00  0.00     0.029 A 
ATOM     61  N   UNL     1      13.517  -1.258 -19.236  1.00  0.00    -0.354 N 
ATOM     62  N   UNL     1      12.145   1.291 -18.710  1.00  0.00    -0.248 NA
ATOM     63  C   UNL     1      12.024   3.612 -18.944  1.00  0.00     0.031 C 
ATOM     64  C   UNL     1      15.329  -1.236 -20.516  1.00  0.00     0.029 A 
ATOM     65  C   UNL     1      14.354  -0.424 -19.960  1.00  0.00     0.049 A 
ATOM     66  H   UNL     1      12.736  -0.961 -18.715  1.00  0.00     0.167 HD
ATOM     67  C   UNL     1      13.202   1.727 -19.508  1.00  0.00     0.074 A 
ATOM     68  C   UNL     1      13.057   3.161 -19.641  1.00  0.00     0.031 C 
ATOM     69  C   UNL     1      14.195   1.006 -20.088  1.00  0.00     0.034 A 
BRANCH  56  70
ATOM     70  C   UNL     1      13.945  -5.069 -18.852  1.00  0.00     0.023 A 
ATOM     71  C   UNL     1      13.239  -6.137 -19.433  1.00  0.00     0.031 A 
ATOM     72  C   UNL     1      15.248  -5.319 -18.385  1.00  0.00     0.131 A 
ATOM     73  C   UNL     1      13.809  -7.419 -19.462  1.00  0.00     0.055 A 
ATOM     74  C   UNL     1      15.843  -6.576 -18.497  1.00  0.00     0.041 A 
ATOM     75  F   UNL     1      15.960  -4.346 -17.795  1.00  0.00    -0.206 F 
ATOM     76  C   UNL     1      15.117  -7.640 -19.024  1.00  0.00     0.022 A 
BRANCH  73  77
ATOM     77  S   UNL     1      12.760  -8.821 -19.933  1.00  0.00     0.124 S 
ATOM     78  O   UNL     1      11.686  -8.729 -18.948  1.00  0.00    -0.237 OA
ATOM     79  O   UNL     1      12.396  -8.495 -21.307  1.00  0.00    -0.237 OA
ATOM     80  O   UNL     1      13.642  -9.976 -19.777  1.00  0.00    -0.744 OA
ENDBRANCH  73  77
ENDBRANCH  56  70
BRANCH  57  81
ATOM     81  C   UNL     1       9.573   3.829 -17.347  1.00  0.00     0.023 A 
ATOM     82  C   UNL     1       9.108   4.628 -18.404  1.00  0.00     0.031 A 
ATOM     83  C   UNL     1       9.516   4.363 -16.046  1.00  0.00     0.131 A 
ATOM     84  C   UNL     1       8.657   5.933 -18.150  1.00  0.00     0.055 A 
ATOM     85  C   UNL     1       9.008   5.639 -15.792  1.00  0.00     0.041 A 
ATOM     86  F   UNL     1       9.954   3.648 -14.998  1.00  0.00    -0.206 F 
ATOM     87  C   UNL     1       8.588   6.438 -16.850  1.00  0.00     0.022 A 
BRANCH  84  88
ATOM     88  S   UNL     1       8.259   7.003 -19.560  1.00  0.00     0.124 S 
ATOM     89  O   UNL     1       9.522   7.011 -20.289  1.00  0.00    -0.237 OA
ATOM     90  O   UNL     1       7.158   6.280 -20.187  1.00  0.00    -0.237 OA
ATOM     91  O   UNL     1       7.893   8.271 -18.931  1.00  0.00    -0.744 OA
ENDBRANCH  84  88
ENDBRANCH  57  81
BRANCH  69  92
ATOM     92  C   UNL     1      15.164   1.742 -20.984  1.00  0.00     0.023 A 
ATOM     93  C   UNL     1      16.071   2.694 -20.487  1.00  0.00     0.031 A 
ATOM     94  C   UNL     1      15.191   1.463 -22.363  1.00  0.00     0.131 A 
ATOM     95  C   UNL     1      16.936   3.362 -21.369  1.00  0.00     0.055 A 
ATOM     96  C   UNL     1      16.096   2.084 -23.225  1.00  0.00     0.041 A 
ATOM     97  F   UNL     1      14.345   0.566 -22.895  1.00  0.00    -0.206 F 
ATOM     98  C   UNL     1      16.968   3.048 -22.730  1.00  0.00     0.022 A 
BRANCH  95  99
ATOM     99  S   UNL     1      17.967   4.710 -20.728  1.00  0.00     0.124 S 
ATOM    100  O   UNL     1      16.967   5.631 -20.197  1.00  0.00    -0.237 OA
ATOM    101  O   UNL     1      18.794   4.028 -19.738  1.00  0.00    -0.237 OA
ATOM    102  O   UNL     1      18.682   5.187 -21.910  1.00  0.00    -0.744 OA
ENDBRANCH  95  99
ENDBRANCH  69  92
ENDBRANCH  43  44
ENDBRANCH  36  38
ENDBRANCH  35  36
ENDBRANCH  34  35
ENDBRANCH  33  34
ENDBRANCH  32  33
ENDBRANCH  31  32
ENDBRANCH   1  31
TORSDOF 26
