REMARK SMILES CCC(CC)(CC)NC(=O)NC[C@@H]1CC[C@H](C(=O)OCCOCCOCCOCCOC(=O)c2ccc(-c3c4nc(c(-c5cc(S(=O)(=O)[O-])ccc5F)c5ccc([nH]5)c(-c5cc(S(=O)(=O)[O-])ccc5F)c5nc(c(-c6cc(S(=O)(=O)[O-])ccc6F)c6ccc3[nH]6)C=C5)C=C4)cc2)O1
REMARK SMILES IDX 24 1 23 2 22 3 21 4 20 5 19 6 17 7 18 8 16 9 13 10 14 11
REMARK SMILES IDX 97 12 15 13 12 14 11 15 8 16 9 17 10 19 3 21 2 22 1 23 4 24
REMARK SMILES IDX 5 25 6 26 7 27 25 28 26 29 27 30 28 31 29 32 30 33 31 34
REMARK SMILES IDX 32 35 33 36 34 37 35 38 96 39 36 40 95 41 37 42 38 43 39 44
REMARK SMILES IDX 89 45 40 46 94 47 88 48 90 49 41 50 93 51 87 52 86 53 42 55
REMARK SMILES IDX 74 56 54 57 73 58 55 59 58 60 72 61 91 62 56 63 57 64 71 66
REMARK SMILES IDX 92 67 59 68 43 69 44 70 52 71 45 72 51 73 53 74 50 75 46 76
REMARK SMILES IDX 47 77 48 78 49 79 75 80 76 81 84 82 77 83 83 84 85 85 82 86
REMARK SMILES IDX 78 87 79 88 80 89 81 90 60 91 61 92 69 93 62 94 68 95 70 96
REMARK SMILES IDX 67 97 63 98 64 99 65 100 66 101
REMARK H PARENT 8 18 11 20 90 54 58 65
REMARK Flexibility Score: inf
ROOT
ATOM      1  C   UNL     1      -0.418   5.077  -3.811  1.00  0.00     0.188 C 
ENDROOT
BRANCH   1   2
ATOM      2  C   UNL     1       0.861   5.841  -4.166  1.00  0.00     0.188 C 
BRANCH   2   3
ATOM      3  O   UNL     1       1.622   5.543  -5.322  1.00  0.00    -0.376 OA
BRANCH   3   4
ATOM      4  C   UNL     1       1.987   4.223  -5.697  1.00  0.00     0.202 C 
BRANCH   4   5
ATOM      5  C   UNL     1       2.499   3.176  -4.701  1.00  0.00     0.261 C 
BRANCH   5   6
ATOM      6  O   UNL     1       1.617   2.886  -3.617  1.00  0.00    -0.461 OA
BRANCH   6   7
ATOM      7  C   UNL     1       1.905   3.466  -2.427  1.00  0.00     0.335 C 
ATOM      8  O   UNL     1       2.870   4.197  -2.228  1.00  0.00    -0.249 OA
BRANCH   7   9
ATOM      9  C   UNL     1       0.968   3.018  -1.311  1.00  0.00     0.228 C 
ATOM     10  C   UNL     1       0.754   0.729  -1.409  1.00  0.00     0.138 C 
ATOM     11  C   UNL     1      -0.417   1.296  -2.184  1.00  0.00     0.037 C 
ATOM     12  O   UNL     1       1.610   1.785  -0.958  1.00  0.00    -0.361 OA
ATOM     13  C   UNL     1      -0.498   2.646  -1.523  1.00  0.00     0.047 C 
BRANCH  10  14
ATOM     14  C   UNL     1       1.535  -0.386  -2.094  1.00  0.00     0.149 C 
BRANCH  14  15
ATOM     15  N   UNL     1       2.712  -0.848  -1.354  1.00  0.00    -0.336 N 
ATOM     16  N   UNL     1       2.344  -2.628   0.219  1.00  0.00    -0.333 N 
ATOM     17  C   UNL     1       3.097  -1.792  -0.500  1.00  0.00     0.315 C 
ATOM     18  H   UNL     1       2.921  -3.251   0.718  1.00  0.00     0.165 HD
ATOM     19  O   UNL     1       4.319  -1.888  -0.322  1.00  0.00    -0.249 OA
ATOM     20  H   UNL     1       3.476  -0.262  -1.558  1.00  0.00     0.165 HD
BRANCH  16  21
ATOM     21  C   UNL     1       0.919  -2.920   0.508  1.00  0.00     0.041 C 
BRANCH  21  22
ATOM     22  C   UNL     1       0.089  -1.641   0.547  1.00  0.00     0.025 C 
ATOM     23  C   UNL     1       0.687  -0.565   1.486  1.00  0.00     0.006 C 
ENDBRANCH  21  22
BRANCH  21  24
ATOM     24  C   UNL     1       0.800  -3.545   1.956  1.00  0.00     0.025 C 
ATOM     25  C   UNL     1      -0.624  -3.548   2.539  1.00  0.00     0.006 C 
ENDBRANCH  21  24
BRANCH  21  26
ATOM     26  C   UNL     1       0.365  -3.990  -0.483  1.00  0.00     0.025 C 
ATOM     27  C   UNL     1       0.836  -3.957  -1.931  1.00  0.00     0.006 C 
ENDBRANCH  21  26
ENDBRANCH  16  21
ENDBRANCH  14  15
ENDBRANCH  10  14
ENDBRANCH   7   9
ENDBRANCH   6   7
ENDBRANCH   5   6
ENDBRANCH   4   5
ENDBRANCH   3   4
ENDBRANCH   2   3
ENDBRANCH   1   2
BRANCH   1  28
ATOM     28  O   UNL     1      -0.604   3.838  -4.463  1.00  0.00    -0.377 OA
BRANCH  28  29
ATOM     29  C   UNL     1      -1.319   3.823  -5.695  1.00  0.00     0.188 C 
BRANCH  29  30
ATOM     30  C   UNL     1      -1.390   5.124  -6.515  1.00  0.00     0.188 C 
BRANCH  30  31
ATOM     31  O   UNL     1      -1.740   6.270  -5.754  1.00  0.00    -0.376 OA
BRANCH  31  32
ATOM     32  C   UNL     1      -3.105   6.631  -5.609  1.00  0.00     0.202 C 
BRANCH  32  33
ATOM     33  C   UNL     1      -4.106   5.608  -5.044  1.00  0.00     0.261 C 
BRANCH  33  34
ATOM     34  O   UNL     1      -4.268   4.373  -5.758  1.00  0.00    -0.460 OA
BRANCH  34  35
ATOM     35  C   UNL     1      -4.508   4.423  -7.089  1.00  0.00     0.338 C 
ATOM     36  O   UNL     1      -4.673   5.409  -7.766  1.00  0.00    -0.246 OA
BRANCH  35  37
ATOM     37  C   UNL     1      -4.337   3.047  -7.608  1.00  0.00     0.060 A 
ATOM     38  C   UNL     1      -3.355   2.791  -8.575  1.00  0.00     0.016 A 
ATOM     39  C   UNL     1      -5.160   2.020  -7.144  1.00  0.00     0.016 A 
ATOM     40  C   UNL     1      -3.220   1.510  -9.114  1.00  0.00     0.010 A 
ATOM     41  C   UNL     1      -5.042   0.747  -7.702  1.00  0.00     0.010 A 
ATOM     42  C   UNL     1      -4.098   0.495  -8.716  1.00  0.00    -0.014 A 
BRANCH  42  43
ATOM     43  C   UNL     1      -4.216  -0.755  -9.504  1.00  0.00     0.031 A 
ATOM     44  C   UNL     1      -5.337  -0.844 -10.504  1.00  0.00     0.074 A 
ATOM     45  C   UNL     1      -3.379  -1.792  -9.325  1.00  0.00     0.049 A 
ATOM     46  N   UNL     1      -5.778  -1.876 -11.171  1.00  0.00    -0.248 NA
ATOM     47  C   UNL     1      -6.066   0.406 -10.771  1.00  0.00     0.031 C 
ATOM     48  C   UNL     1      -2.210  -1.794  -8.449  1.00  0.00     0.029 A 
ATOM     49  N   UNL     1      -3.404  -3.056  -9.860  1.00  0.00    -0.354 N 
ATOM     50  C   UNL     1      -6.847  -1.405 -11.927  1.00  0.00     0.074 A 
ATOM     51  C   UNL     1      -7.006  -0.003 -11.607  1.00  0.00     0.031 C 
ATOM     52  C   UNL     1      -1.641  -3.013  -8.489  1.00  0.00     0.029 A 
ATOM     53  C   UNL     1      -2.440  -3.891  -9.345  1.00  0.00     0.049 A 
ATOM     54  H   UNL     1      -4.050  -3.338 -10.548  1.00  0.00     0.167 HD
ATOM     55  C   UNL     1      -7.623  -2.083 -12.807  1.00  0.00     0.034 A 
ATOM     56  C   UNL     1      -2.257  -5.218  -9.511  1.00  0.00     0.034 A 
ATOM     57  C   UNL     1      -7.457  -3.484 -13.098  1.00  0.00     0.049 A 
ATOM     58  C   UNL     1      -3.211  -5.985 -10.403  1.00  0.00     0.074 A 
ATOM     59  C   UNL     1      -8.192  -4.277 -13.962  1.00  0.00     0.029 A 
ATOM     60  N   UNL     1      -6.494  -4.306 -12.525  1.00  0.00    -0.354 N 
ATOM     61  N   UNL     1      -4.242  -5.542 -11.086  1.00  0.00    -0.248 NA
ATOM     62  C   UNL     1      -2.978  -7.430 -10.547  1.00  0.00     0.031 C 
ATOM     63  C   UNL     1      -7.728  -5.590 -13.850  1.00  0.00     0.029 A 
ATOM     64  C   UNL     1      -6.636  -5.600 -12.996  1.00  0.00     0.049 A 
ATOM     65  H   UNL     1      -5.812  -4.011 -11.880  1.00  0.00     0.167 HD
ATOM     66  C   UNL     1      -4.739  -6.643 -11.783  1.00  0.00     0.074 A 
ATOM     67  C   UNL     1      -3.905  -7.770 -11.431  1.00  0.00     0.031 C 
ATOM     68  C   UNL     1      -5.782  -6.712 -12.649  1.00  0.00     0.034 A 
BRANCH  55  69
ATOM     69  C   UNL     1      -8.751  -1.329 -13.465  1.00  0.00     0.023 A 
ATOM     70  C   UNL     1      -8.514  -0.239 -14.320  1.00  0.00     0.031 A 
ATOM     71  C   UNL     1     -10.086  -1.692 -13.216  1.00  0.00     0.131 A 
ATOM     72  C   UNL     1      -9.594   0.490 -14.839  1.00  0.00     0.055 A 
ATOM     73  C   UNL     1     -11.156  -1.017 -13.806  1.00  0.00     0.041 A 
ATOM     74  F   UNL     1     -10.376  -2.705 -12.384  1.00  0.00    -0.206 F 
ATOM     75  C   UNL     1     -10.913   0.091 -14.613  1.00  0.00     0.022 A 
BRANCH  72  76
ATOM     76  S   UNL     1      -9.251   2.054 -15.691  1.00  0.00     0.124 S 
ATOM     77  O   UNL     1      -8.551   2.807 -14.653  1.00  0.00    -0.237 OA
ATOM     78  O   UNL     1      -8.441   1.625 -16.825  1.00  0.00    -0.237 OA
ATOM     79  O   UNL     1     -10.580   2.559 -16.027  1.00  0.00    -0.744 OA
ENDBRANCH  72  76
ENDBRANCH  55  69
BRANCH  56  80
ATOM     80  C   UNL     1      -1.162  -5.933  -8.789  1.00  0.00     0.023 A 
ATOM     81  C   UNL     1      -0.156  -6.611  -9.496  1.00  0.00     0.031 A 
ATOM     82  C   UNL     1      -1.147  -6.016  -7.385  1.00  0.00     0.131 A 
ATOM     83  C   UNL     1       0.782  -7.392  -8.803  1.00  0.00     0.055 A 
ATOM     84  C   UNL     1      -0.169  -6.738  -6.697  1.00  0.00     0.041 A 
ATOM     85  F   UNL     1      -2.087  -5.394  -6.656  1.00  0.00    -0.206 F 
ATOM     86  C   UNL     1       0.793  -7.447  -7.408  1.00  0.00     0.022 A 
BRANCH  83  87
ATOM     87  S   UNL     1       1.911  -8.439  -9.763  1.00  0.00     0.124 S 
ATOM     88  O   UNL     1       0.975  -9.252 -10.531  1.00  0.00    -0.237 OA
ATOM     89  O   UNL     1       2.672  -7.449 -10.517  1.00  0.00    -0.237 OA
ATOM     90  O   UNL     1       2.664  -9.155  -8.736  1.00  0.00    -0.744 OA
ENDBRANCH  83  87
ENDBRANCH  56  80
BRANCH  68  91
ATOM     91  C   UNL     1      -6.026  -8.022 -13.359  1.00  0.00     0.023 A 
ATOM     92  C   UNL     1      -6.476  -9.172 -12.690  1.00  0.00     0.031 A 
ATOM     93  C   UNL     1      -5.841  -8.098 -14.753  1.00  0.00     0.131 A 
ATOM     94  C   UNL     1      -6.696 -10.357 -13.410  1.00  0.00     0.055 A 
ATOM     95  C   UNL     1      -6.119  -9.260 -15.472  1.00  0.00     0.041 A 
ATOM     96  F   UNL     1      -5.409  -7.030 -15.443  1.00  0.00    -0.206 F 
ATOM     97  C   UNL     1      -6.541 -10.402 -14.799  1.00  0.00     0.022 A 
BRANCH  94  98
ATOM     98  S   UNL     1      -7.125 -11.868 -12.502  1.00  0.00     0.124 S 
ATOM     99  O   UNL     1      -5.975 -12.029 -11.619  1.00  0.00    -0.237 OA
ATOM    100  O   UNL     1      -8.380 -11.498 -11.855  1.00  0.00    -0.237 OA
ATOM    101  O   UNL     1      -7.246 -12.878 -13.553  1.00  0.00    -0.744 OA
ENDBRANCH  94  98
ENDBRANCH  68  91
ENDBRANCH  42  43
ENDBRANCH  35  37
ENDBRANCH  34  35
ENDBRANCH  33  34
ENDBRANCH  32  33
ENDBRANCH  31  32
ENDBRANCH  30  31
ENDBRANCH  29  30
ENDBRANCH  28  29
ENDBRANCH   1  28
TORSDOF 29
