REMARK SMILES CC(=O)N[C@@H](C(=O)N(CC(=O)OCCOCCOCCOCCOC(=O)c1ccc(-c2c3nc(c(-c4cc(S(=O)(=O)[O-])ccc4F)c4ccc([nH]4)c(-c4cc(S(=O)(=O)[O-])ccc4F)c4nc(c(-c5cc(S(=O)(=O)[O-])ccc5F)c5ccc2[nH]5)C=C4)C=C3)cc1)C(C)(C)C)C(C)C
REMARK SMILES IDX 17 1 16 2 15 3 14 4 13 5 12 6 10 7 11 8 9 9 8 10 6 11 7 12
REMARK SMILES IDX 5 13 4 14 1 15 2 16 3 17 94 19 95 20 96 21 90 22 91 23 92 24
REMARK SMILES IDX 93 25 18 26 19 27 20 28 21 29 22 30 23 31 24 32 25 33 26 34
REMARK SMILES IDX 27 35 28 36 89 37 29 38 88 39 30 40 31 41 32 42 82 43 33 44
REMARK SMILES IDX 87 45 81 46 83 47 34 48 86 49 80 50 79 51 35 53 67 54 47 55
REMARK SMILES IDX 66 56 48 57 51 58 65 59 84 60 49 61 50 62 64 64 85 65 52 66
REMARK SMILES IDX 36 67 37 68 45 69 38 70 44 71 46 72 43 73 39 74 40 75 41 76
REMARK SMILES IDX 42 77 68 78 69 79 77 80 70 81 76 82 78 83 75 84 71 85 72 86
REMARK SMILES IDX 73 87 74 88 53 89 54 90 62 91 55 92 61 93 63 94 60 95 56 96
REMARK SMILES IDX 57 97 58 98 59 99
REMARK H PARENT 4 18 83 52 51 63
REMARK Flexibility Score: inf
ROOT
ATOM      1  C   UNL     1       4.509   5.011   0.366  1.00  0.00     0.188 C 
ENDROOT
BRANCH   1   2
ATOM      2  C   UNL     1       4.877   4.675  -1.091  1.00  0.00     0.188 C 
BRANCH   2   3
ATOM      3  O   UNL     1       4.002   5.021  -2.160  1.00  0.00    -0.376 OA
BRANCH   3   4
ATOM      4  C   UNL     1       2.644   5.320  -1.873  1.00  0.00     0.202 C 
BRANCH   4   5
ATOM      5  C   UNL     1       1.771   4.176  -1.319  1.00  0.00     0.261 C 
BRANCH   5   6
ATOM      6  O   UNL     1       2.346   3.378  -0.250  1.00  0.00    -0.462 OA
BRANCH   6   7
ATOM      7  C   UNL     1       2.862   2.169  -0.582  1.00  0.00     0.325 C 
ATOM      8  O   UNL     1       2.802   1.681  -1.709  1.00  0.00    -0.250 OA
BRANCH   7   9
ATOM      9  C   UNL     1       3.614   1.405   0.555  1.00  0.00     0.242 C 
BRANCH   9  10
ATOM     10  N   UNL     1       3.765   1.808   1.984  1.00  0.00    -0.325 N 
BRANCH  10  11
ATOM     11  C   UNL     1       2.718   1.642   2.913  1.00  0.00     0.246 C 
ATOM     12  O   UNL     1       2.779   2.148   4.037  1.00  0.00    -0.272 OA
BRANCH  11  13
ATOM     13  C   UNL     1       1.493   0.752   2.549  1.00  0.00     0.174 C 
BRANCH  13  14
ATOM     14  N   UNL     1       0.661   1.508   1.617  1.00  0.00    -0.344 N 
ATOM     15  C   UNL     1       0.294  -0.305  -0.021  1.00  0.00     0.114 C 
ATOM     16  C   UNL     1       0.065   1.101   0.462  1.00  0.00     0.217 C 
ATOM     17  O   UNL     1      -0.617   1.897  -0.179  1.00  0.00    -0.275 OA
ATOM     18  H   UNL     1       0.509   2.450   1.859  1.00  0.00     0.164 HD
ENDBRANCH  13  14
BRANCH  13  19
ATOM     19  C   UNL     1       0.701   0.364   3.837  1.00  0.00     0.015 C 
ATOM     20  C   UNL     1      -0.624  -0.342   3.535  1.00  0.00     0.010 C 
ATOM     21  C   UNL     1       1.528  -0.548   4.760  1.00  0.00     0.010 C 
ENDBRANCH  13  19
ENDBRANCH  11  13
ENDBRANCH  10  11
BRANCH  10  22
ATOM     22  C   UNL     1       5.123   2.196   2.560  1.00  0.00     0.035 C 
ATOM     23  C   UNL     1       5.051   3.525   3.357  1.00  0.00     0.034 C 
ATOM     24  C   UNL     1       5.614   1.096   3.541  1.00  0.00     0.034 C 
ATOM     25  C   UNL     1       6.266   2.301   1.518  1.00  0.00     0.034 C 
ENDBRANCH  10  22
ENDBRANCH   9  10
ENDBRANCH   7   9
ENDBRANCH   6   7
ENDBRANCH   5   6
ENDBRANCH   4   5
ENDBRANCH   3   4
ENDBRANCH   2   3
ENDBRANCH   1   2
BRANCH   1  26
ATOM     26  O   UNL     1       3.673   6.138   0.498  1.00  0.00    -0.377 OA
BRANCH  26  27
ATOM     27  C   UNL     1       4.266   7.265   1.111  1.00  0.00     0.188 C 
BRANCH  27  28
ATOM     28  C   UNL     1       5.555   7.752   0.428  1.00  0.00     0.188 C 
BRANCH  28  29
ATOM     29  O   UNL     1       6.533   6.726   0.330  1.00  0.00    -0.376 OA
BRANCH  29  30
ATOM     30  C   UNL     1       7.621   6.656   1.229  1.00  0.00     0.202 C 
BRANCH  30  31
ATOM     31  C   UNL     1       7.451   6.649   2.761  1.00  0.00     0.261 C 
BRANCH  31  32
ATOM     32  O   UNL     1       6.279   7.252   3.307  1.00  0.00    -0.460 OA
BRANCH  32  33
ATOM     33  C   UNL     1       6.339   8.586   3.514  1.00  0.00     0.338 C 
ATOM     34  O   UNL     1       7.291   9.310   3.263  1.00  0.00    -0.246 OA
BRANCH  33  35
ATOM     35  C   UNL     1       4.993   9.073   3.882  1.00  0.00     0.060 A 
ATOM     36  C   UNL     1       4.362   9.964   3.006  1.00  0.00     0.016 A 
ATOM     37  C   UNL     1       4.353   8.665   5.056  1.00  0.00     0.016 A 
ATOM     38  C   UNL     1       3.099  10.466   3.305  1.00  0.00     0.010 A 
ATOM     39  C   UNL     1       3.099   9.204   5.377  1.00  0.00     0.010 A 
ATOM     40  C   UNL     1       2.483  10.129   4.515  1.00  0.00    -0.014 A 
BRANCH  40  41
ATOM     41  C   UNL     1       1.309  10.925   4.949  1.00  0.00     0.031 A 
ATOM     42  C   UNL     1       1.549  12.117   5.833  1.00  0.00     0.074 A 
ATOM     43  C   UNL     1       0.072  10.645   4.502  1.00  0.00     0.049 A 
ATOM     44  N   UNL     1       0.698  12.983   6.315  1.00  0.00    -0.248 NA
ATOM     45  C   UNL     1       2.947  12.365   6.220  1.00  0.00     0.031 C 
ATOM     46  C   UNL     1      -0.269   9.550   3.596  1.00  0.00     0.029 A 
ATOM     47  N   UNL     1      -1.127  11.265   4.750  1.00  0.00    -0.354 N 
ATOM     48  C   UNL     1       1.454  13.877   7.066  1.00  0.00     0.074 A 
ATOM     49  C   UNL     1       2.827  13.425   7.002  1.00  0.00     0.031 C 
ATOM     50  C   UNL     1      -1.595   9.568   3.374  1.00  0.00     0.029 A 
ATOM     51  C   UNL     1      -2.200  10.651   4.148  1.00  0.00     0.049 A 
ATOM     52  H   UNL     1      -1.211  12.073   5.306  1.00  0.00     0.167 HD
ATOM     53  C   UNL     1       1.038  14.976   7.742  1.00  0.00     0.034 A 
ATOM     54  C   UNL     1      -3.519  10.917   4.237  1.00  0.00     0.034 A 
ATOM     55  C   UNL     1      -0.341  15.396   7.811  1.00  0.00     0.049 A 
ATOM     56  C   UNL     1      -3.972  12.091   5.073  1.00  0.00     0.074 A 
ATOM     57  C   UNL     1      -0.874  16.502   8.448  1.00  0.00     0.029 A 
ATOM     58  N   UNL     1      -1.410  14.712   7.243  1.00  0.00    -0.354 N 
ATOM     59  N   UNL     1      -3.248  12.945   5.762  1.00  0.00    -0.248 NA
ATOM     60  C   UNL     1      -5.417  12.342   5.135  1.00  0.00     0.031 C 
ATOM     61  C   UNL     1      -2.268  16.436   8.347  1.00  0.00     0.029 A 
ATOM     62  C   UNL     1      -2.604  15.345   7.559  1.00  0.00     0.049 A 
ATOM     63  H   UNL     1      -1.332  13.898   6.696  1.00  0.00     0.167 HD
ATOM     64  C   UNL     1      -4.152  13.849   6.318  1.00  0.00     0.074 A 
ATOM     65  C   UNL     1      -5.468  13.446   5.866  1.00  0.00     0.031 C 
ATOM     66  C   UNL     1      -3.915  14.918   7.123  1.00  0.00     0.034 A 
BRANCH  53  67
ATOM     67  C   UNL     1       2.081  15.746   8.520  1.00  0.00     0.023 A 
ATOM     68  C   UNL     1       3.173  16.370   7.891  1.00  0.00     0.031 A 
ATOM     69  C   UNL     1       2.006  15.811   9.923  1.00  0.00     0.131 A 
ATOM     70  C   UNL     1       4.184  16.959   8.667  1.00  0.00     0.055 A 
ATOM     71  C   UNL     1       2.969  16.477  10.683  1.00  0.00     0.041 A 
ATOM     72  F   UNL     1       1.004  15.210  10.583  1.00  0.00    -0.206 F 
ATOM     73  C   UNL     1       4.076  17.041  10.057  1.00  0.00     0.022 A 
BRANCH  70  74
ATOM     74  S   UNL     1       5.723  17.465   7.848  1.00  0.00     0.124 S 
ATOM     75  O   UNL     1       6.145  16.217   7.215  1.00  0.00    -0.237 OA
ATOM     76  O   UNL     1       5.269  18.517   6.946  1.00  0.00    -0.237 OA
ATOM     77  O   UNL     1       6.569  17.911   8.953  1.00  0.00    -0.744 OA
ENDBRANCH  70  74
ENDBRANCH  53  67
BRANCH  54  78
ATOM     78  C   UNL     1      -4.511  10.026   3.565  1.00  0.00     0.023 A 
ATOM     79  C   UNL     1      -5.359  10.499   2.552  1.00  0.00     0.031 A 
ATOM     80  C   UNL     1      -4.649   8.684   3.966  1.00  0.00     0.131 A 
ATOM     81  C   UNL     1      -6.330   9.647   1.999  1.00  0.00     0.055 A 
ATOM     82  C   UNL     1      -5.577   7.827   3.375  1.00  0.00     0.041 A 
ATOM     83  F   UNL     1      -3.871   8.183   4.939  1.00  0.00    -0.206 F 
ATOM     84  C   UNL     1      -6.433   8.310   2.391  1.00  0.00     0.022 A 
BRANCH  81  85
ATOM     85  S   UNL     1      -7.517  10.333   0.810  1.00  0.00     0.124 S 
ATOM     86  O   UNL     1      -8.153  11.383   1.597  1.00  0.00    -0.237 OA
ATOM     87  O   UNL     1      -6.643  10.781  -0.269  1.00  0.00    -0.237 OA
ATOM     88  O   UNL     1      -8.371   9.193   0.484  1.00  0.00    -0.744 OA
ENDBRANCH  81  85
ENDBRANCH  54  78
BRANCH  66  89
ATOM     89  C   UNL     1      -5.110  15.747   7.538  1.00  0.00     0.023 A 
ATOM     90  C   UNL     1      -6.135  15.222   8.344  1.00  0.00     0.031 A 
ATOM     91  C   UNL     1      -5.229  17.082   7.110  1.00  0.00     0.131 A 
ATOM     92  C   UNL     1      -7.263  16.003   8.641  1.00  0.00     0.055 A 
ATOM     93  C   UNL     1      -6.318  17.878   7.470  1.00  0.00     0.041 A 
ATOM     94  F   UNL     1      -4.285  17.640   6.335  1.00  0.00    -0.206 F 
ATOM     95  C   UNL     1      -7.351  17.334   8.227  1.00  0.00     0.022 A 
BRANCH  92  96
ATOM     96  S   UNL     1      -8.670  15.220   9.477  1.00  0.00     0.124 S 
ATOM     97  O   UNL     1      -8.989  14.123   8.569  1.00  0.00    -0.237 OA
ATOM     98  O   UNL     1      -8.096  14.838  10.763  1.00  0.00    -0.237 OA
ATOM     99  O   UNL     1      -9.669  16.285   9.537  1.00  0.00    -0.744 OA
ENDBRANCH  92  96
ENDBRANCH  66  89
ENDBRANCH  40  41
ENDBRANCH  33  35
ENDBRANCH  32  33
ENDBRANCH  31  32
ENDBRANCH  30  31
ENDBRANCH  29  30
ENDBRANCH  28  29
ENDBRANCH  27  28
ENDBRANCH  26  27
ENDBRANCH   1  26
TORSDOF 29
