REMARK SMILES O=C(OCCOCCOCCOCCOC(=O)[C@H]1CC2(CC[NH+](C(=O)C3CC3)CC2)CN1C(=O)CCn1cccn1)c1ccc(-c2c3nc(c(-c4cc(S(=O)(=O)[O-])ccc4F)c4ccc([nH]4)c(-c4cc(S(=O)(=O)[O-])ccc4F)c4nc(c(-c5cc(S(=O)(=O)[O-])ccc5F)c5ccc2[nH]5)C=C4)C=C3)cc1
REMARK SMILES IDX 10 1 9 2 8 3 7 4 6 5 5 6 4 7 3 8 2 9 1 10 42 11 43 12 104 13
REMARK SMILES IDX 44 14 103 15 45 16 46 17 47 18 97 19 48 20 102 21 96 22
REMARK SMILES IDX 98 23 49 24 101 25 95 26 94 27 50 29 82 30 62 31 81 32 63 33
REMARK SMILES IDX 66 34 80 35 99 36 64 37 65 38 79 40 100 41 67 42 51 43 52 44
REMARK SMILES IDX 60 45 53 46 59 47 61 48 58 49 54 50 55 51 56 52 57 53 83 54
REMARK SMILES IDX 84 55 92 56 85 57 91 58 93 59 90 60 86 61 87 62 88 63 89 64
REMARK SMILES IDX 68 65 69 66 77 67 70 68 76 69 78 70 75 71 71 72 72 73 73 74
REMARK SMILES IDX 74 75 11 76 12 77 13 78 14 79 15 80 16 81 17 82 18 83 19 84
REMARK SMILES IDX 32 85 20 86 31 87 21 88 30 89 22 90 29 91 23 92 33 94 34 95
REMARK SMILES IDX 35 96 36 97 37 98 38 99 41 100 39 101 40 102 24 103 25 104
REMARK SMILES IDX 26 105 27 106 28 107
REMARK H PARENT 98 28 66 39 23 93
REMARK Flexibility Score: inf
ROOT
ATOM      1  C   UNL     1       5.768   4.943  -0.275  1.00  0.00     0.188 C 
ENDROOT
BRANCH   1   2
ATOM      2  O   UNL     1       5.454   6.293  -0.494  1.00  0.00    -0.377 OA
BRANCH   2   3
ATOM      3  C   UNL     1       5.481   6.565  -1.883  1.00  0.00     0.188 C 
BRANCH   3   4
ATOM      4  C   UNL     1       5.936   5.504  -2.955  1.00  0.00     0.188 C 
BRANCH   4   5
ATOM      5  O   UNL     1       6.407   4.144  -2.887  1.00  0.00    -0.376 OA
BRANCH   5   6
ATOM      6  C   UNL     1       7.415   3.421  -2.166  1.00  0.00     0.202 C 
BRANCH   6   7
ATOM      7  C   UNL     1       8.862   3.885  -1.979  1.00  0.00     0.261 C 
BRANCH   7   8
ATOM      8  O   UNL     1       9.023   5.289  -1.910  1.00  0.00    -0.460 OA
BRANCH   8   9
ATOM      9  C   UNL     1       8.932   6.123  -2.962  1.00  0.00     0.338 C 
ATOM     10  O   UNL     1       9.001   7.333  -2.745  1.00  0.00    -0.246 OA
BRANCH   9  11
ATOM     11  C   UNL     1       8.639   5.674  -4.358  1.00  0.00     0.060 A 
ATOM     12  C   UNL     1       8.671   4.372  -4.870  1.00  0.00     0.016 A 
ATOM     13  C   UNL     1       8.137   6.703  -5.184  1.00  0.00     0.016 A 
ATOM     14  C   UNL     1       8.583   4.176  -6.221  1.00  0.00     0.010 A 
ATOM     15  C   UNL     1       7.929   6.490  -6.515  1.00  0.00     0.010 A 
ATOM     16  C   UNL     1       8.373   5.290  -7.018  1.00  0.00    -0.014 A 
BRANCH  16  17
ATOM     17  C   UNL     1       8.555   5.173  -8.435  1.00  0.00     0.031 A 
ATOM     18  C   UNL     1       7.548   4.229  -8.971  1.00  0.00     0.074 A 
ATOM     19  C   UNL     1       9.573   5.853  -9.013  1.00  0.00     0.049 A 
ATOM     20  N   UNL     1       7.761   2.987  -9.245  1.00  0.00    -0.248 NA
ATOM     21  C   UNL     1       6.111   4.542  -8.828  1.00  0.00     0.031 C 
ATOM     22  C   UNL     1      10.509   6.834  -8.437  1.00  0.00     0.029 A 
ATOM     23  N   UNL     1       9.978   5.823 -10.310  1.00  0.00    -0.354 N 
ATOM     24  C   UNL     1       6.545   2.489  -9.684  1.00  0.00     0.074 A 
ATOM     25  C   UNL     1       5.550   3.375  -9.155  1.00  0.00     0.031 C 
ATOM     26  C   UNL     1      11.155   7.500  -9.429  1.00  0.00     0.029 A 
ATOM     27  C   UNL     1      10.814   6.891 -10.700  1.00  0.00     0.049 A 
ATOM     28  H   UNL     1       9.707   5.110 -10.932  1.00  0.00     0.167 HD
ATOM     29  C   UNL     1       6.541   1.628 -10.736  1.00  0.00     0.034 A 
ATOM     30  C   UNL     1      11.147   7.187 -11.999  1.00  0.00     0.034 A 
ATOM     31  C   UNL     1       7.851   1.018 -10.871  1.00  0.00     0.049 A 
ATOM     32  C   UNL     1      10.935   5.895 -12.734  1.00  0.00     0.074 A 
ATOM     33  C   UNL     1       8.618   0.209 -10.055  1.00  0.00     0.029 A 
ATOM     34  N   UNL     1       8.733   1.630 -11.739  1.00  0.00    -0.354 N 
ATOM     35  N   UNL     1      11.654   4.829 -12.467  1.00  0.00    -0.248 NA
ATOM     36  C   UNL     1       9.580   5.628 -13.216  1.00  0.00     0.031 C 
ATOM     37  C   UNL     1       9.937   0.748 -10.141  1.00  0.00     0.029 A 
ATOM     38  C   UNL     1       9.957   1.746 -11.119  1.00  0.00     0.049 A 
ATOM     39  H   UNL     1       8.522   1.934 -12.651  1.00  0.00     0.167 HD
ATOM     40  C   UNL     1      10.733   3.796 -12.326  1.00  0.00     0.074 A 
ATOM     41  C   UNL     1       9.464   4.354 -12.815  1.00  0.00     0.031 C 
ATOM     42  C   UNL     1      10.967   2.722 -11.507  1.00  0.00     0.034 A 
BRANCH  29  43
ATOM     43  C   UNL     1       5.586   1.748 -11.902  1.00  0.00     0.023 A 
ATOM     44  C   UNL     1       5.809   0.870 -12.978  1.00  0.00     0.031 A 
ATOM     45  C   UNL     1       4.722   2.837 -12.164  1.00  0.00     0.131 A 
ATOM     46  C   UNL     1       5.305   1.155 -14.256  1.00  0.00     0.055 A 
ATOM     47  C   UNL     1       4.175   3.084 -13.426  1.00  0.00     0.041 A 
ATOM     48  F   UNL     1       4.423   3.770 -11.255  1.00  0.00    -0.206 F 
ATOM     49  C   UNL     1       4.491   2.259 -14.490  1.00  0.00     0.022 A 
BRANCH  46  50
ATOM     50  S   UNL     1       5.897   0.155 -15.642  1.00  0.00     0.124 S 
ATOM     51  O   UNL     1       7.341   0.328 -15.531  1.00  0.00    -0.237 OA
ATOM     52  O   UNL     1       5.377  -1.165 -15.300  1.00  0.00    -0.237 OA
ATOM     53  O   UNL     1       5.277   0.789 -16.803  1.00  0.00    -0.744 OA
ENDBRANCH  46  50
ENDBRANCH  29  43
BRANCH  30  54
ATOM     54  C   UNL     1      11.090   8.544 -12.662  1.00  0.00     0.023 A 
ATOM     55  C   UNL     1      11.692   8.892 -13.907  1.00  0.00     0.031 A 
ATOM     56  C   UNL     1      10.190   9.497 -12.132  1.00  0.00     0.131 A 
ATOM     57  C   UNL     1      11.384  10.136 -14.540  1.00  0.00     0.055 A 
ATOM     58  C   UNL     1       9.877  10.701 -12.769  1.00  0.00     0.041 A 
ATOM     59  F   UNL     1       9.514   9.254 -10.998  1.00  0.00    -0.206 F 
ATOM     60  C   UNL     1      10.465  11.023 -13.978  1.00  0.00     0.022 A 
BRANCH  57  61
ATOM     61  S   UNL     1      12.147  10.654 -16.132  1.00  0.00     0.124 S 
ATOM     62  O   UNL     1      13.559  10.761 -15.784  1.00  0.00    -0.237 OA
ATOM     63  O   UNL     1      11.780   9.569 -17.034  1.00  0.00    -0.237 OA
ATOM     64  O   UNL     1      11.498  11.934 -16.427  1.00  0.00    -0.744 OA
ENDBRANCH  57  61
ENDBRANCH  30  54
BRANCH  42  65
ATOM     65  C   UNL     1      12.348   2.548 -10.886  1.00  0.00     0.023 A 
ATOM     66  C   UNL     1      12.970   3.384  -9.920  1.00  0.00     0.031 A 
ATOM     67  C   UNL     1      12.999   1.347 -11.213  1.00  0.00     0.131 A 
ATOM     68  C   UNL     1      14.205   2.994  -9.341  1.00  0.00     0.055 A 
ATOM     69  C   UNL     1      14.191   0.952 -10.614  1.00  0.00     0.041 A 
ATOM     70  F   UNL     1      12.449   0.501 -12.100  1.00  0.00    -0.206 F 
ATOM     71  C   UNL     1      14.802   1.776  -9.680  1.00  0.00     0.022 A 
BRANCH  68  72
ATOM     72  S   UNL     1      15.098   4.071  -8.159  1.00  0.00     0.124 S 
ATOM     73  O   UNL     1      15.134   5.358  -8.843  1.00  0.00    -0.237 OA
ATOM     74  O   UNL     1      14.259   4.003  -6.966  1.00  0.00    -0.237 OA
ATOM     75  O   UNL     1      16.402   3.419  -8.019  1.00  0.00    -0.744 OA
ENDBRANCH  68  72
ENDBRANCH  42  65
ENDBRANCH  16  17
ENDBRANCH   9  11
ENDBRANCH   8   9
ENDBRANCH   7   8
ENDBRANCH   6   7
ENDBRANCH   5   6
ENDBRANCH   4   5
ENDBRANCH   3   4
ENDBRANCH   2   3
ENDBRANCH   1   2
BRANCH   1  76
ATOM     76  C   UNL     1       4.671   3.936  -0.784  1.00  0.00     0.188 C 
BRANCH  76  77
ATOM     77  O   UNL     1       3.761   4.495  -1.711  1.00  0.00    -0.376 OA
BRANCH  77  78
ATOM     78  C   UNL     1       2.530   4.980  -1.208  1.00  0.00     0.202 C 
BRANCH  78  79
ATOM     79  C   UNL     1       2.416   5.669   0.161  1.00  0.00     0.261 C 
BRANCH  79  80
ATOM     80  O   UNL     1       3.174   4.922   1.424  1.00  0.00    -0.462 OA
BRANCH  80  81
ATOM     81  C   UNL     1       3.256   4.651   3.409  1.00  0.00     0.328 C 
ATOM     82  O   UNL     1       2.343   4.367   4.251  1.00  0.00    -0.250 OA
BRANCH  81  83
ATOM     83  C   UNL     1       4.791   4.879   4.322  1.00  0.00     0.195 C 
ATOM     84  C   UNL     1       6.283   4.654   3.868  1.00  0.00     0.046 C 
ATOM     85  N   UNL     1       4.906   6.079   5.166  1.00  0.00    -0.328 N 
ATOM     86  C   UNL     1       7.173   5.164   5.009  1.00  0.00     0.001 C 
ATOM     87  C   UNL     1       6.204   6.035   5.858  1.00  0.00     0.128 C 
ATOM     88  C   UNL     1       8.342   6.049   4.503  1.00  0.00     0.071 C 
ATOM     89  C   UNL     1       7.782   3.933   5.715  1.00  0.00     0.071 C 
ATOM     90  C   UNL     1       9.369   5.295   3.655  1.00  0.00     0.270 C 
ATOM     91  C   UNL     1       8.818   3.214   4.821  1.00  0.00     0.270 C 
ATOM     92  N   UNL     1       9.868   4.128   4.368  1.00  0.00    -0.272 N 
ATOM     93  H   UNL     1      10.834   4.102   4.558  1.00  0.00     0.356 HD
BRANCH  85  94
ATOM     94  C   UNL     1       4.090   7.191   5.271  1.00  0.00     0.225 C 
ATOM     95  O   UNL     1       4.488   8.186   5.892  1.00  0.00    -0.275 OA
BRANCH  94  96
ATOM     96  C   UNL     1       2.666   7.264   4.708  1.00  0.00     0.124 C 
BRANCH  96  97
ATOM     97  C   UNL     1       2.538   7.488   3.216  1.00  0.00     0.154 C 
BRANCH  97  98
ATOM     98  N   UNL     1       2.789   6.269   2.490  1.00  0.00    -0.272 N 
ATOM     99  C   UNL     1       4.531   5.684   2.242  1.00  0.00     0.108 A 
ATOM    100  N   UNL     1       1.608   4.822   2.322  1.00  0.00    -0.182 NA
ATOM    101  C   UNL     1       4.459   3.864   2.071  1.00  0.00     0.042 A 
ATOM    102  C   UNL     1       2.565   3.383   2.068  1.00  0.00     0.135 A 
ENDBRANCH  97  98
ENDBRANCH  96  97
ENDBRANCH  94  96
ENDBRANCH  85  94
BRANCH  92 103
ATOM    103  C   UNL     1      11.193   3.764   4.622  1.00  0.00     0.315 C 
ATOM    104  O   UNL     1      11.441   2.753   5.281  1.00  0.00    -0.231 OA
BRANCH 103 105
ATOM    105  C   UNL     1      12.399   4.528   4.177  1.00  0.00     0.119 C 
ATOM    106  C   UNL     1      12.595   5.562   3.109  1.00  0.00     0.019 C 
ATOM    107  C   UNL     1      12.576   5.978   4.556  1.00  0.00     0.019 C 
ENDBRANCH 103 105
ENDBRANCH  92 103
ENDBRANCH  81  83
ENDBRANCH  80  81
ENDBRANCH  79  80
ENDBRANCH  78  79
ENDBRANCH  77  78
ENDBRANCH  76  77
ENDBRANCH   1  76
TORSDOF 29
