REMARK SMILES C[C@@H](Sc1nc2ccccc2c(=O)n1N)C(=O)OCCOCCOCCOCCOC(=O)c1ccc(-c2c3nc(c(-c4cc(S(=O)(=O)[O-])ccc4F)c4ccc([nH]4)c(-c4cc(S(=O)(=O)[O-])ccc4F)c4nc(c(-c5cc(S(=O)(=O)[O-])ccc5F)c5ccc2[nH]5)C=C4)C=C3)cc1
REMARK SMILES IDX 24 1 23 2 22 3 21 4 20 5 19 6 18 7 16 8 17 9 2 10 1 11 3 12
REMARK SMILES IDX 4 13 5 14 14 15 6 16 12 17 7 18 11 19 13 20 8 21 10 22 9 23
REMARK SMILES IDX 15 24 25 27 26 28 27 29 28 30 29 31 30 32 31 33 32 34 33 35
REMARK SMILES IDX 34 36 95 37 35 38 94 39 36 40 37 41 38 42 88 43 39 44 93 45
REMARK SMILES IDX 87 46 89 47 40 48 92 49 86 50 85 51 41 53 73 54 53 55 72 56
REMARK SMILES IDX 54 57 57 58 71 59 90 60 55 61 56 62 70 64 91 65 58 66 42 67
REMARK SMILES IDX 43 68 51 69 44 70 50 71 52 72 49 73 45 74 46 75 47 76 48 77
REMARK SMILES IDX 74 78 75 79 83 80 76 81 82 82 84 83 81 84 77 85 78 86 79 87
REMARK SMILES IDX 80 88 59 89 60 90 68 91 61 92 67 93 69 94 66 95 62 96 63 97
REMARK SMILES IDX 64 98 65 99
REMARK H PARENT 15 25 15 26 89 52 57 63
REMARK Flexibility Score: inf
ROOT
ATOM      1  O   UNL     1      -1.951   0.070   0.774  1.00  0.00    -0.377 OA
ENDROOT
BRANCH   1   2
ATOM      2  C   UNL     1      -1.326   1.201   0.208  1.00  0.00     0.188 C 
BRANCH   2   3
ATOM      3  C   UNL     1      -1.976   1.722  -1.085  1.00  0.00     0.188 C 
BRANCH   3   4
ATOM      4  O   UNL     1      -3.275   1.324  -1.497  1.00  0.00    -0.376 OA
BRANCH   4   5
ATOM      5  C   UNL     1      -3.747  -0.010  -1.375  1.00  0.00     0.202 C 
BRANCH   5   6
ATOM      6  C   UNL     1      -2.944  -1.226  -1.855  1.00  0.00     0.261 C 
BRANCH   6   7
ATOM      7  O   UNL     1      -1.569  -1.272  -1.462  1.00  0.00    -0.462 OA
BRANCH   7   8
ATOM      8  C   UNL     1      -0.682  -0.861  -2.393  1.00  0.00     0.319 C 
ATOM      9  O   UNL     1      -0.996  -0.452  -3.510  1.00  0.00    -0.251 OA
BRANCH   8  10
ATOM     10  C   UNL     1       0.772  -0.927  -1.929  1.00  0.00     0.161 C 
ATOM     11  C   UNL     1       1.065  -1.276  -0.466  1.00  0.00     0.032 C 
BRANCH  10  12
ATOM     12  S   UNL     1       1.579  -2.088  -3.086  1.00  0.00    -0.071 SA
BRANCH  12  13
ATOM     13  C   UNL     1       3.246  -1.786  -2.701  1.00  0.00     0.191 A 
ATOM     14  N   UNL     1       3.873  -2.739  -2.097  1.00  0.00    -0.222 NA
ATOM     15  N   UNL     1       3.839  -0.598  -3.116  1.00  0.00    -0.202 N 
ATOM     16  C   UNL     1       5.241  -2.591  -1.876  1.00  0.00     0.079 A 
ATOM     17  C   UNL     1       5.215  -0.402  -3.001  1.00  0.00     0.280 A 
ATOM     18  C   UNL     1       5.916  -3.619  -1.218  1.00  0.00     0.029 A 
ATOM     19  C   UNL     1       5.963  -1.494  -2.348  1.00  0.00     0.068 A 
ATOM     20  O   UNL     1       5.800   0.593  -3.428  1.00  0.00    -0.267 OA
ATOM     21  C   UNL     1       7.302  -3.572  -1.072  1.00  0.00     0.002 A 
ATOM     22  C   UNL     1       7.353  -1.442  -2.213  1.00  0.00     0.016 A 
ATOM     23  C   UNL     1       8.022  -2.492  -1.583  1.00  0.00     0.001 A 
BRANCH  15  24
ATOM     24  N   UNL     1       3.076   0.478  -3.680  1.00  0.00    -0.334 N 
ATOM     25  H   UNL     1       2.101   0.389  -3.783  1.00  0.00     0.178 HD
ATOM     26  H   UNL     1       3.527   1.305  -3.964  1.00  0.00     0.178 HD
ENDBRANCH  15  24
ENDBRANCH  12  13
ENDBRANCH  10  12
ENDBRANCH   8  10
ENDBRANCH   7   8
ENDBRANCH   6   7
ENDBRANCH   5   6
ENDBRANCH   4   5
ENDBRANCH   3   4
ENDBRANCH   2   3
ENDBRANCH   1   2
BRANCH   1  27
ATOM     27  C   UNL     1      -2.875   0.301   1.834  1.00  0.00     0.188 C 
BRANCH  27  28
ATOM     28  C   UNL     1      -3.739   1.579   1.787  1.00  0.00     0.188 C 
BRANCH  28  29
ATOM     29  O   UNL     1      -2.994   2.773   1.575  1.00  0.00    -0.376 OA
BRANCH  29  30
ATOM     30  C   UNL     1      -2.653   3.560   2.708  1.00  0.00     0.202 C 
BRANCH  30  31
ATOM     31  C   UNL     1      -1.657   2.953   3.711  1.00  0.00     0.261 C 
BRANCH  31  32
ATOM     32  O   UNL     1      -2.057   1.732   4.353  1.00  0.00    -0.460 OA
BRANCH  32  33
ATOM     33  C   UNL     1      -3.227   1.741   5.024  1.00  0.00     0.338 C 
ATOM     34  O   UNL     1      -3.949   2.710   5.211  1.00  0.00    -0.246 OA
BRANCH  33  35
ATOM     35  C   UNL     1      -3.615   0.346   5.316  1.00  0.00     0.060 A 
ATOM     36  C   UNL     1      -4.875  -0.097   4.896  1.00  0.00     0.016 A 
ATOM     37  C   UNL     1      -2.770  -0.504   6.035  1.00  0.00     0.016 A 
ATOM     38  C   UNL     1      -5.330  -1.360   5.266  1.00  0.00     0.010 A 
ATOM     39  C   UNL     1      -3.234  -1.766   6.421  1.00  0.00     0.010 A 
ATOM     40  C   UNL     1      -4.541  -2.171   6.091  1.00  0.00    -0.014 A 
BRANCH  40  41
ATOM     41  C   UNL     1      -5.197  -3.280   6.829  1.00  0.00     0.031 A 
ATOM     42  C   UNL     1      -5.642  -3.013   8.246  1.00  0.00     0.074 A 
ATOM     43  C   UNL     1      -5.470  -4.459   6.244  1.00  0.00     0.049 A 
ATOM     44  N   UNL     1      -6.255  -3.798   9.092  1.00  0.00    -0.248 NA
ATOM     45  C   UNL     1      -5.348  -1.672   8.777  1.00  0.00     0.031 C 
ATOM     46  C   UNL     1      -5.148  -4.811   4.862  1.00  0.00     0.029 A 
ATOM     47  N   UNL     1      -6.096  -5.576   6.739  1.00  0.00    -0.354 N 
ATOM     48  C   UNL     1      -6.410  -3.051  10.257  1.00  0.00     0.074 A 
ATOM     49  C   UNL     1      -5.785  -1.769  10.021  1.00  0.00     0.031 C 
ATOM     50  C   UNL     1      -5.586  -6.059   4.619  1.00  0.00     0.029 A 
ATOM     51  C   UNL     1      -6.187  -6.607   5.834  1.00  0.00     0.049 A 
ATOM     52  H   UNL     1      -6.446  -5.633   7.657  1.00  0.00     0.167 HD
ATOM     53  C   UNL     1      -7.028  -3.398  11.413  1.00  0.00     0.034 A 
ATOM     54  C   UNL     1      -6.687  -7.852   5.979  1.00  0.00     0.034 A 
ATOM     55  C   UNL     1      -7.642  -4.684  11.634  1.00  0.00     0.049 A 
ATOM     56  C   UNL     1      -7.293  -8.247   7.307  1.00  0.00     0.074 A 
ATOM     57  C   UNL     1      -8.303  -5.141  12.760  1.00  0.00     0.029 A 
ATOM     58  N   UNL     1      -7.658  -5.726  10.714  1.00  0.00    -0.354 N 
ATOM     59  N   UNL     1      -7.438  -7.532   8.401  1.00  0.00    -0.248 NA
ATOM     60  C   UNL     1      -7.818  -9.615   7.412  1.00  0.00     0.031 C 
ATOM     61  C   UNL     1      -8.639  -6.483  12.556  1.00  0.00     0.029 A 
ATOM     62  C   UNL     1      -8.285  -6.835  11.263  1.00  0.00     0.049 A 
ATOM     63  H   UNL     1      -7.280  -5.683   9.806  1.00  0.00     0.167 HD
ATOM     64  C   UNL     1      -8.117  -8.350   9.303  1.00  0.00     0.074 A 
ATOM     65  C   UNL     1      -8.357  -9.605   8.621  1.00  0.00     0.031 C 
ATOM     66  C   UNL     1      -8.518  -8.084  10.574  1.00  0.00     0.034 A 
BRANCH  53  67
ATOM     67  C   UNL     1      -7.000  -2.393  12.543  1.00  0.00     0.023 A 
ATOM     68  C   UNL     1      -7.601  -1.125  12.433  1.00  0.00     0.031 A 
ATOM     69  C   UNL     1      -6.316  -2.693  13.735  1.00  0.00     0.131 A 
ATOM     70  C   UNL     1      -7.434  -0.180  13.457  1.00  0.00     0.055 A 
ATOM     71  C   UNL     1      -6.235  -1.781  14.788  1.00  0.00     0.041 A 
ATOM     72  F   UNL     1      -5.697  -3.873  13.889  1.00  0.00    -0.206 F 
ATOM     73  C   UNL     1      -6.780  -0.509  14.646  1.00  0.00     0.022 A 
BRANCH  70  74
ATOM     74  S   UNL     1      -7.934   1.536  13.144  1.00  0.00     0.124 S 
ATOM     75  O   UNL     1      -7.145   1.860  11.958  1.00  0.00    -0.237 OA
ATOM     76  O   UNL     1      -9.372   1.414  12.942  1.00  0.00    -0.237 OA
ATOM     77  O   UNL     1      -7.530   2.238  14.361  1.00  0.00    -0.744 OA
ENDBRANCH  70  74
ENDBRANCH  53  67
BRANCH  54  78
ATOM     78  C   UNL     1      -6.628  -8.832   4.854  1.00  0.00     0.023 A 
ATOM     79  C   UNL     1      -7.799  -9.368   4.295  1.00  0.00     0.031 A 
ATOM     80  C   UNL     1      -5.394  -9.300   4.368  1.00  0.00     0.131 A 
ATOM     81  C   UNL     1      -7.713 -10.378   3.323  1.00  0.00     0.055 A 
ATOM     82  C   UNL     1      -5.314 -10.260   3.358  1.00  0.00     0.041 A 
ATOM     83  F   UNL     1      -4.242  -8.827   4.871  1.00  0.00    -0.206 F 
ATOM     84  C   UNL     1      -6.478 -10.817   2.840  1.00  0.00     0.022 A 
BRANCH  81  85
ATOM     85  S   UNL     1      -9.241 -11.185   2.769  1.00  0.00     0.124 S 
ATOM     86  O   UNL     1      -9.768 -11.712   4.022  1.00  0.00    -0.237 OA
ATOM     87  O   UNL     1      -9.976 -10.070   2.181  1.00  0.00    -0.237 OA
ATOM     88  O   UNL     1      -8.770 -12.189   1.817  1.00  0.00    -0.744 OA
ENDBRANCH  81  85
ENDBRANCH  54  78
BRANCH  66  89
ATOM     89  C   UNL     1      -9.330  -9.147  11.282  1.00  0.00     0.023 A 
ATOM     90  C   UNL     1      -8.807 -10.417  11.582  1.00  0.00     0.031 A 
ATOM     91  C   UNL     1     -10.666  -8.886  11.640  1.00  0.00     0.131 A 
ATOM     92  C   UNL     1      -9.635 -11.400  12.146  1.00  0.00     0.055 A 
ATOM     93  C   UNL     1     -11.461  -9.841  12.274  1.00  0.00     0.041 A 
ATOM     94  F   UNL     1     -11.225  -7.693  11.378  1.00  0.00    -0.206 F 
ATOM     95  C   UNL     1     -10.953 -11.114  12.513  1.00  0.00     0.022 A 
BRANCH  92  96
ATOM     96  S   UNL     1      -9.011 -13.099  12.269  1.00  0.00     0.124 S 
ATOM     97  O   UNL     1      -8.623 -13.379  10.890  1.00  0.00    -0.237 OA
ATOM     98  O   UNL     1      -7.916 -12.960  13.223  1.00  0.00    -0.237 OA
ATOM     99  O   UNL     1     -10.164 -13.854  12.754  1.00  0.00    -0.744 OA
ENDBRANCH  92  96
ENDBRANCH  66  89
ENDBRANCH  40  41
ENDBRANCH  33  35
ENDBRANCH  32  33
ENDBRANCH  31  32
ENDBRANCH  30  31
ENDBRANCH  29  30
ENDBRANCH  28  29
ENDBRANCH  27  28
ENDBRANCH   1  27
TORSDOF 26
