REMARK SMILES CCc1ccccc1NC(=O)c1cc(S(=O)(=O)N2CCC[C@H](C(=O)OCCOCCOCCOCCOC(=O)c3ccc(-c4c5nc(c(-c6cc(S(=O)(=O)[O-])ccc6F)c6ccc([nH]6)c(-c6cc(S(=O)(=O)[O-])ccc6F)c6nc(c(-c7cc(S(=O)(=O)[O-])ccc7F)c7ccc4[nH]7)C=C6)C=C5)cc3)C2)ccc1F
REMARK SMILES IDX 30 1 29 2 28 3 27 4 26 5 25 6 23 7 24 8 22 9 18 10 19 11
REMARK SMILES IDX 103 12 20 13 21 14 15 15 16 16 17 17 14 18 12 19 13 20
REMARK SMILES IDX 106 21 105 22 107 23 104 24 10 25 9 26 11 28 8 29 3 30 4 31
REMARK SMILES IDX 5 32 7 33 6 34 2 35 1 36 31 37 32 38 33 39 34 40 35 41 36 42
REMARK SMILES IDX 37 43 38 44 39 45 40 46 41 47 102 48 42 49 101 50 43 51
REMARK SMILES IDX 44 52 45 53 95 54 46 55 100 56 94 57 96 58 47 59 99 60 93 61
REMARK SMILES IDX 92 62 48 64 80 65 60 66 79 67 61 68 64 69 78 70 97 71 62 72
REMARK SMILES IDX 63 73 77 75 98 76 65 77 49 78 50 79 58 80 51 81 57 82 59 83
REMARK SMILES IDX 56 84 52 85 53 86 54 87 55 88 81 89 82 90 90 91 83 92 89 93
REMARK SMILES IDX 91 94 88 95 84 96 85 97 86 98 87 99 66 100 67 101 75 102
REMARK SMILES IDX 68 103 74 104 76 105 73 106 69 107 70 108 71 109 72 110
REMARK H PARENT 9 27 96 63 64 74
REMARK Flexibility Score: inf
ROOT
ATOM      1  C   UNL     1       3.979  10.153  10.348  1.00  0.00     0.188 C 
ENDROOT
BRANCH   1   2
ATOM      2  C   UNL     1       3.933  11.441   9.514  1.00  0.00     0.188 C 
BRANCH   2   3
ATOM      3  O   UNL     1       2.699  12.146   9.566  1.00  0.00    -0.376 OA
BRANCH   3   4
ATOM      4  C   UNL     1       2.033  12.276   8.316  1.00  0.00     0.202 C 
BRANCH   4   5
ATOM      5  C   UNL     1       1.075  11.123   7.998  1.00  0.00     0.261 C 
BRANCH   5   6
ATOM      6  O   UNL     1       1.591   9.804   8.225  1.00  0.00    -0.463 OA
BRANCH   6   7
ATOM      7  C   UNL     1       2.548   9.373   7.387  1.00  0.00     0.310 C 
ATOM      8  O   UNL     1       3.113  10.073   6.550  1.00  0.00    -0.252 OA
BRANCH   7   9
ATOM      9  C   UNL     1       2.803   7.886   7.479  1.00  0.00     0.114 C 
ATOM     10  N   UNL     1       0.656   6.832   6.684  1.00  0.00    -0.197 NA
ATOM     11  C   UNL     1       0.388   6.224   8.005  1.00  0.00     0.102 C 
ATOM     12  C   UNL     1       2.035   7.263   6.330  1.00  0.00     0.117 C 
ATOM     13  C   UNL     1       1.117   6.937   9.126  1.00  0.00     0.018 C 
ATOM     14  C   UNL     1       2.583   7.130   8.787  1.00  0.00     0.018 C 
BRANCH  10  15
ATOM     15  S   UNL     1      -0.277   6.232   5.393  1.00  0.00     0.243 S 
ATOM     16  O   UNL     1      -0.238   7.227   4.344  1.00  0.00    -0.207 OA
ATOM     17  O   UNL     1      -1.520   5.702   5.909  1.00  0.00    -0.207 OA
BRANCH  15  18
ATOM     18  C   UNL     1       0.631   4.833   4.755  1.00  0.00     0.083 A 
ATOM     19  C   UNL     1       1.031   3.400   2.870  1.00  0.00     0.077 A 
ATOM     20  C   UNL     1       0.279   4.405   3.476  1.00  0.00     0.038 A 
ATOM     21  C   UNL     1       2.212   2.946   3.456  1.00  0.00     0.136 A 
ATOM     22  C   UNL     1       2.533   3.333   4.751  1.00  0.00     0.041 A 
ATOM     23  F   UNL     1       3.005   2.063   2.832  1.00  0.00    -0.206 F 
ATOM     24  C   UNL     1       1.704   4.231   5.425  1.00  0.00     0.025 A 
BRANCH  19  25
ATOM     25  C   UNL     1       0.462   2.770   1.678  1.00  0.00     0.258 C 
ATOM     26  N   UNL     1       0.190   1.420   1.641  1.00  0.00    -0.322 N 
ATOM     27  H   UNL     1      -0.230   1.118   0.803  1.00  0.00     0.170 HD
ATOM     28  O   UNL     1       0.208   3.481   0.707  1.00  0.00    -0.269 OA
BRANCH  26  29
ATOM     29  C   UNL     1       0.402   0.389   2.581  1.00  0.00     0.044 A 
ATOM     30  C   UNL     1       0.660  -0.913   2.110  1.00  0.00    -0.025 A 
ATOM     31  C   UNL     1       1.065  -1.899   3.034  1.00  0.00     0.006 A 
ATOM     32  C   UNL     1       1.159  -1.623   4.398  1.00  0.00     0.000 A 
ATOM     33  C   UNL     1       0.385   0.613   3.965  1.00  0.00     0.026 A 
ATOM     34  C   UNL     1       0.788  -0.373   4.868  1.00  0.00     0.002 A 
BRANCH  30  35
ATOM     35  C   UNL     1       0.507  -1.324   0.660  1.00  0.00     0.034 C 
ATOM     36  C   UNL     1       1.498  -0.697  -0.312  1.00  0.00     0.009 C 
ENDBRANCH  30  35
ENDBRANCH  26  29
ENDBRANCH  19  25
ENDBRANCH  15  18
ENDBRANCH  10  15
ENDBRANCH   7   9
ENDBRANCH   6   7
ENDBRANCH   5   6
ENDBRANCH   4   5
ENDBRANCH   3   4
ENDBRANCH   2   3
ENDBRANCH   1   2
BRANCH   1  37
ATOM     37  O   UNL     1       2.775   9.638  10.894  1.00  0.00    -0.377 OA
BRANCH  37  38
ATOM     38  C   UNL     1       1.935  10.501  11.660  1.00  0.00     0.188 C 
BRANCH  38  39
ATOM     39  C   UNL     1       2.588  11.614  12.498  1.00  0.00     0.188 C 
BRANCH  39  40
ATOM     40  O   UNL     1       3.938  11.348  12.864  1.00  0.00    -0.376 OA
BRANCH  40  41
ATOM     41  C   UNL     1       4.151  10.824  14.169  1.00  0.00     0.202 C 
BRANCH  41  42
ATOM     42  C   UNL     1       3.575   9.423  14.411  1.00  0.00     0.261 C 
BRANCH  42  43
ATOM     43  O   UNL     1       2.140   9.358  14.477  1.00  0.00    -0.460 OA
BRANCH  43  44
ATOM     44  C   UNL     1       1.530  10.134  15.401  1.00  0.00     0.338 C 
ATOM     45  O   UNL     1       2.060  10.834  16.243  1.00  0.00    -0.246 OA
BRANCH  44  46
ATOM     46  C   UNL     1       0.085  10.117  15.117  1.00  0.00     0.060 A 
ATOM     47  C   UNL     1      -0.558  11.316  14.791  1.00  0.00     0.016 A 
ATOM     48  C   UNL     1      -0.632   8.923  15.222  1.00  0.00     0.016 A 
ATOM     49  C   UNL     1      -1.941  11.332  14.614  1.00  0.00     0.010 A 
ATOM     50  C   UNL     1      -2.018   8.945  15.063  1.00  0.00     0.010 A 
ATOM     51  C   UNL     1      -2.680  10.156  14.798  1.00  0.00    -0.014 A 
BRANCH  51  52
ATOM     52  C   UNL     1      -4.153  10.228  14.941  1.00  0.00     0.031 A 
ATOM     53  C   UNL     1      -4.721  10.364  16.328  1.00  0.00     0.074 A 
ATOM     54  C   UNL     1      -4.964  10.173  13.872  1.00  0.00     0.049 A 
ATOM     55  N   UNL     1      -5.967  10.398  16.718  1.00  0.00    -0.248 NA
ATOM     56  C   UNL     1      -3.741  10.469  17.421  1.00  0.00     0.031 C 
ATOM     57  C   UNL     1      -4.525  10.076  12.481  1.00  0.00     0.029 A 
ATOM     58  N   UNL     1      -6.333  10.180  13.795  1.00  0.00    -0.354 N 
ATOM     59  C   UNL     1      -5.924  10.534  18.102  1.00  0.00     0.074 A 
ATOM     60  C   UNL     1      -4.528  10.533  18.483  1.00  0.00     0.031 C 
ATOM     61  C   UNL     1      -5.609  10.016  11.687  1.00  0.00     0.029 A 
ATOM     62  C   UNL     1      -6.814  10.038  12.515  1.00  0.00     0.049 A 
ATOM     63  H   UNL     1      -6.917  10.276  14.582  1.00  0.00     0.167 HD
ATOM     64  C   UNL     1      -6.954  10.657  18.974  1.00  0.00     0.034 A 
ATOM     65  C   UNL     1      -8.081   9.917  12.071  1.00  0.00     0.034 A 
ATOM     66  C   UNL     1      -8.341  10.622  18.582  1.00  0.00     0.049 A 
ATOM     67  C   UNL     1      -9.214   9.962  13.069  1.00  0.00     0.074 A 
ATOM     68  C   UNL     1      -9.467  10.739  19.377  1.00  0.00     0.029 A 
ATOM     69  N   UNL     1      -8.791  10.438  17.280  1.00  0.00    -0.354 N 
ATOM     70  N   UNL     1      -9.164  10.108  14.373  1.00  0.00    -0.248 NA
ATOM     71  C   UNL     1     -10.576   9.832  12.531  1.00  0.00     0.031 C 
ATOM     72  C   UNL     1     -10.595  10.560  18.567  1.00  0.00     0.029 A 
ATOM     73  C   UNL     1     -10.176  10.404  17.255  1.00  0.00     0.049 A 
ATOM     74  H   UNL     1      -8.210  10.346  16.491  1.00  0.00     0.167 HD
ATOM     75  C   UNL     1     -10.488  10.116  14.807  1.00  0.00     0.074 A 
ATOM     76  C   UNL     1     -11.312   9.970  13.625  1.00  0.00     0.031 C 
ATOM     77  C   UNL     1     -10.980  10.242  16.066  1.00  0.00     0.034 A 
BRANCH  64  78
ATOM     78  C   UNL     1      -6.601  10.779  20.436  1.00  0.00     0.023 A 
ATOM     79  C   UNL     1      -5.882  11.883  20.931  1.00  0.00     0.031 A 
ATOM     80  C   UNL     1      -6.931   9.751  21.335  1.00  0.00     0.131 A 
ATOM     81  C   UNL     1      -5.449  11.894  22.265  1.00  0.00     0.055 A 
ATOM     82  C   UNL     1      -6.565   9.805  22.681  1.00  0.00     0.041 A 
ATOM     83  F   UNL     1      -7.593   8.661  20.914  1.00  0.00    -0.206 F 
ATOM     84  C   UNL     1      -5.806  10.873  23.150  1.00  0.00     0.022 A 
BRANCH  81  85
ATOM     85  S   UNL     1      -4.284  13.182  22.788  1.00  0.00     0.124 S 
ATOM     86  O   UNL     1      -3.174  12.970  21.862  1.00  0.00    -0.237 OA
ATOM     87  O   UNL     1      -5.055  14.404  22.591  1.00  0.00    -0.237 OA
ATOM     88  O   UNL     1      -3.998  12.842  24.180  1.00  0.00    -0.744 OA
ENDBRANCH  81  85
ENDBRANCH  64  78
BRANCH  65  89
ATOM     89  C   UNL     1      -8.356   9.700  10.622  1.00  0.00     0.023 A 
ATOM     90  C   UNL     1      -9.050  10.654   9.862  1.00  0.00     0.031 A 
ATOM     91  C   UNL     1      -7.970   8.504   9.990  1.00  0.00     0.131 A 
ATOM     92  C   UNL     1      -9.373  10.380   8.524  1.00  0.00     0.055 A 
ATOM     93  C   UNL     1      -8.253   8.256   8.646  1.00  0.00     0.041 A 
ATOM     94  F   UNL     1      -7.306   7.559  10.673  1.00  0.00    -0.206 F 
ATOM     95  C   UNL     1      -8.969   9.193   7.907  1.00  0.00     0.022 A 
BRANCH  92  96
ATOM     96  S   UNL     1     -10.399  11.571   7.617  1.00  0.00     0.124 S 
ATOM     97  O   UNL     1     -11.607  11.605   8.434  1.00  0.00    -0.237 OA
ATOM     98  O   UNL     1      -9.569  12.771   7.649  1.00  0.00    -0.237 OA
ATOM     99  O   UNL     1     -10.552  10.956   6.301  1.00  0.00    -0.744 OA
ENDBRANCH  92  96
ENDBRANCH  65  89
BRANCH  77 100
ATOM    100  C   UNL     1     -12.482  10.270  16.217  1.00  0.00     0.023 A 
ATOM    101  C   UNL     1     -13.272   9.133  15.972  1.00  0.00     0.031 A 
ATOM    102  C   UNL     1     -13.128  11.456  16.609  1.00  0.00     0.131 A 
ATOM    103  C   UNL     1     -14.669   9.220  16.076  1.00  0.00     0.055 A 
ATOM    104  C   UNL     1     -14.514  11.521  16.762  1.00  0.00     0.041 A 
ATOM    105  F   UNL     1     -12.421  12.570  16.855  1.00  0.00    -0.206 F 
ATOM    106  C   UNL     1     -15.293  10.402  16.484  1.00  0.00     0.022 A 
BRANCH 103 107
ATOM    107  S   UNL     1     -15.671   7.786  15.595  1.00  0.00     0.124 S 
ATOM    108  O   UNL     1     -15.275   7.591  14.204  1.00  0.00    -0.237 OA
ATOM    109  O   UNL     1     -15.223   6.763  16.534  1.00  0.00    -0.237 OA
ATOM    110  O   UNL     1     -17.045   8.246  15.790  1.00  0.00    -0.744 OA
ENDBRANCH 103 107
ENDBRANCH  77 100
ENDBRANCH  51  52
ENDBRANCH  44  46
ENDBRANCH  43  44
ENDBRANCH  42  43
ENDBRANCH  41  42
ENDBRANCH  40  41
ENDBRANCH  39  40
ENDBRANCH  38  39
ENDBRANCH  37  38
ENDBRANCH   1  37
TORSDOF 28
