REMARK SMILES COc1cccc(/C=C2/C(=O)N(c3cccc(C(=O)OCCOCCOCCOCCOC(=O)c4ccc(-c5c6nc(c(-c7cc(S(=O)(=O)[O-])ccc7F)c7ccc([nH]7)c(-c7cc(S(=O)(=O)[O-])ccc7F)c7nc(c(-c8cc(S(=O)(=O)[O-])ccc8F)c8ccc5[nH]8)C=C7)C=C6)cc4)c3)N=C2C)c1
REMARK SMILES IDX 26 1 25 2 24 3 23 4 22 5 21 6 20 7 18 8 19 9 17 10 13 11
REMARK SMILES IDX 14 12 98 13 15 14 16 15 12 16 8 17 9 18 10 19 100 20 11 21
REMARK SMILES IDX 99 22 101 23 7 24 3 25 4 26 102 27 5 28 6 29 2 30 1 31 27 32
REMARK SMILES IDX 28 33 29 34 30 35 31 36 32 37 33 38 34 39 35 40 36 41 97 42
REMARK SMILES IDX 37 43 96 44 38 45 39 46 40 47 90 48 41 49 95 50 89 51 91 52
REMARK SMILES IDX 42 53 94 54 88 55 87 56 43 58 75 59 55 60 74 61 56 62 59 63
REMARK SMILES IDX 73 64 92 65 57 66 58 67 72 69 93 70 60 71 44 72 45 73 53 74
REMARK SMILES IDX 46 75 52 76 54 77 51 78 47 79 48 80 49 81 50 82 76 83 77 84
REMARK SMILES IDX 85 85 78 86 84 87 86 88 83 89 79 90 80 91 81 92 82 93 61 94
REMARK SMILES IDX 62 95 70 96 63 97 69 98 71 99 68 100 64 101 65 102 66 103
REMARK SMILES IDX 67 104
REMARK H PARENT 91 57 59 68
REMARK Flexibility Score: inf
ROOT
ATOM      1  O   UNL     1      10.337  -0.215  -0.577  1.00  0.00    -0.377 OA
ENDROOT
BRANCH   1   2
ATOM      2  C   UNL     1      11.016   0.326   0.543  1.00  0.00     0.188 C 
BRANCH   2   3
ATOM      3  C   UNL     1      12.467  -0.158   0.728  1.00  0.00     0.188 C 
BRANCH   3   4
ATOM      4  O   UNL     1      13.002  -0.777  -0.429  1.00  0.00    -0.376 OA
BRANCH   4   5
ATOM      5  C   UNL     1      13.032  -2.189  -0.527  1.00  0.00     0.202 C 
BRANCH   5   6
ATOM      6  C   UNL     1      11.813  -3.062  -0.182  1.00  0.00     0.261 C 
BRANCH   6   7
ATOM      7  O   UNL     1      11.025  -2.667   0.945  1.00  0.00    -0.460 OA
BRANCH   7   8
ATOM      8  C   UNL     1      11.491  -2.903   2.189  1.00  0.00     0.338 C 
ATOM      9  O   UNL     1      12.546  -3.433   2.496  1.00  0.00    -0.246 OA
BRANCH   8  10
ATOM     10  C   UNL     1      10.601  -2.159   3.114  1.00  0.00     0.062 A 
ATOM     11  C   UNL     1       8.377  -1.369   3.692  1.00  0.00     0.070 A 
ATOM     12  C   UNL     1       8.960  -0.417   4.540  1.00  0.00     0.028 A 
ATOM     13  C   UNL     1       9.211  -2.231   2.969  1.00  0.00     0.044 A 
ATOM     14  C   UNL     1      10.346  -0.376   4.722  1.00  0.00     0.003 A 
ATOM     15  C   UNL     1      11.168  -1.257   4.020  1.00  0.00     0.016 A 
BRANCH  11  16
ATOM     16  N   UNL     1       6.975  -1.452   3.561  1.00  0.00    -0.196 N 
ATOM     17  C   UNL     1       3.840  -2.925   2.904  1.00  0.00     0.024 C 
ATOM     18  C   UNL     1       4.853  -2.094   3.184  1.00  0.00     0.065 C 
ATOM     19  C   UNL     1       6.251  -2.577   3.148  1.00  0.00     0.280 C 
ATOM     20  C   UNL     1       4.960  -0.683   3.601  1.00  0.00     0.071 C 
ATOM     21  O   UNL     1       6.607  -3.708   2.873  1.00  0.00    -0.267 OA
ATOM     22  N   UNL     1       6.197  -0.337   3.851  1.00  0.00    -0.169 NA
ATOM     23  C   UNL     1       3.819   0.272   3.714  1.00  0.00     0.069 C 
BRANCH  17  24
ATOM     24  C   UNL     1       2.427  -2.564   2.909  1.00  0.00    -0.021 A 
ATOM     25  C   UNL     1       0.591  -1.312   1.945  1.00  0.00     0.119 A 
ATOM     26  C   UNL     1      -0.235  -1.761   2.979  1.00  0.00     0.046 A 
ATOM     27  C   UNL     1       1.917  -1.739   1.899  1.00  0.00     0.054 A 
ATOM     28  C   UNL     1       0.254  -2.630   3.956  1.00  0.00     0.004 A 
ATOM     29  C   UNL     1       1.589  -3.028   3.925  1.00  0.00     0.008 A 
BRANCH  25  30
ATOM     30  O   UNL     1       0.004  -0.440   1.071  1.00  0.00    -0.497 OA
ATOM     31  C   UNL     1       0.748  -0.098  -0.094  1.00  0.00     0.278 C 
ENDBRANCH  25  30
ENDBRANCH  17  24
ENDBRANCH  11  16
ENDBRANCH   8  10
ENDBRANCH   7   8
ENDBRANCH   6   7
ENDBRANCH   5   6
ENDBRANCH   4   5
ENDBRANCH   3   4
ENDBRANCH   2   3
ENDBRANCH   1   2
BRANCH   1  32
ATOM     32  C   UNL     1      10.745   0.166  -1.892  1.00  0.00     0.188 C 
BRANCH  32  33
ATOM     33  C   UNL     1      11.952   1.098  -2.173  1.00  0.00     0.188 C 
BRANCH  33  34
ATOM     34  O   UNL     1      12.274   2.000  -1.123  1.00  0.00    -0.376 OA
BRANCH  34  35
ATOM     35  C   UNL     1      12.006   3.376  -1.328  1.00  0.00     0.202 C 
BRANCH  35  36
ATOM     36  C   UNL     1      10.522   3.762  -1.322  1.00  0.00     0.261 C 
BRANCH  36  37
ATOM     37  O   UNL     1       9.701   3.081  -2.281  1.00  0.00    -0.460 OA
BRANCH  37  38
ATOM     38  C   UNL     1       9.995   3.298  -3.583  1.00  0.00     0.338 C 
ATOM     39  O   UNL     1      10.870   4.022  -4.022  1.00  0.00    -0.246 OA
BRANCH  38  40
ATOM     40  C   UNL     1       9.194   2.360  -4.393  1.00  0.00     0.060 A 
ATOM     41  C   UNL     1       9.854   1.494  -5.274  1.00  0.00     0.016 A 
ATOM     42  C   UNL     1       7.800   2.352  -4.297  1.00  0.00     0.016 A 
ATOM     43  C   UNL     1       9.114   0.662  -6.113  1.00  0.00     0.010 A 
ATOM     44  C   UNL     1       7.060   1.530  -5.150  1.00  0.00     0.010 A 
ATOM     45  C   UNL     1       7.715   0.723  -6.098  1.00  0.00    -0.014 A 
BRANCH  45  46
ATOM     46  C   UNL     1       6.957   0.162  -7.245  1.00  0.00     0.031 A 
ATOM     47  C   UNL     1       6.550   1.109  -8.344  1.00  0.00     0.074 A 
ATOM     48  C   UNL     1       6.685  -1.151  -7.341  1.00  0.00     0.049 A 
ATOM     49  N   UNL     1       5.870   0.879  -9.437  1.00  0.00    -0.248 NA
ATOM     50  C   UNL     1       6.963   2.512  -8.177  1.00  0.00     0.031 C 
ATOM     51  C   UNL     1       7.074  -2.169  -6.368  1.00  0.00     0.029 A 
ATOM     52  N   UNL     1       6.015  -1.851  -8.313  1.00  0.00    -0.354 N 
ATOM     53  C   UNL     1       5.773   2.106 -10.085  1.00  0.00     0.074 A 
ATOM     54  C   UNL     1       6.417   3.084  -9.237  1.00  0.00     0.031 C 
ATOM     55  C   UNL     1       6.634  -3.367  -6.793  1.00  0.00     0.029 A 
ATOM     56  C   UNL     1       5.902  -3.196  -8.047  1.00  0.00     0.049 A 
ATOM     57  H   UNL     1       5.651  -1.430  -9.125  1.00  0.00     0.167 HD
ATOM     58  C   UNL     1       5.211   2.390 -11.286  1.00  0.00     0.034 A 
ATOM     59  C   UNL     1       5.264  -4.168  -8.732  1.00  0.00     0.034 A 
ATOM     60  C   UNL     1       4.561   1.404 -12.114  1.00  0.00     0.049 A 
ATOM     61  C   UNL     1       4.571  -3.814 -10.029  1.00  0.00     0.074 A 
ATOM     62  C   UNL     1       3.950   1.577 -13.343  1.00  0.00     0.029 A 
ATOM     63  N   UNL     1       4.428   0.059 -11.792  1.00  0.00    -0.354 N 
ATOM     64  N   UNL     1       4.479  -2.649 -10.632  1.00  0.00    -0.248 NA
ATOM     65  C   UNL     1       3.911  -4.912 -10.746  1.00  0.00     0.031 C 
ATOM     66  C   UNL     1       3.381   0.358 -13.726  1.00  0.00     0.029 A 
ATOM     67  C   UNL     1       3.723  -0.602 -12.786  1.00  0.00     0.049 A 
ATOM     68  H   UNL     1       4.784  -0.364 -10.977  1.00  0.00     0.167 HD
ATOM     69  C   UNL     1       3.794  -2.889 -11.822  1.00  0.00     0.074 A 
ATOM     70  C   UNL     1       3.507  -4.309 -11.853  1.00  0.00     0.031 C 
ATOM     71  C   UNL     1       3.442  -2.019 -12.806  1.00  0.00     0.034 A 
BRANCH  58  72
ATOM     72  C   UNL     1       5.228   3.833 -11.734  1.00  0.00     0.023 A 
ATOM     73  C   UNL     1       6.431   4.524 -11.969  1.00  0.00     0.031 A 
ATOM     74  C   UNL     1       4.024   4.543 -11.882  1.00  0.00     0.131 A 
ATOM     75  C   UNL     1       6.404   5.897 -12.260  1.00  0.00     0.055 A 
ATOM     76  C   UNL     1       4.001   5.886 -12.261  1.00  0.00     0.041 A 
ATOM     77  F   UNL     1       2.845   3.947 -11.642  1.00  0.00    -0.206 F 
ATOM     78  C   UNL     1       5.197   6.576 -12.436  1.00  0.00     0.022 A 
BRANCH  75  79
ATOM     79  S   UNL     1       7.968   6.818 -12.245  1.00  0.00     0.124 S 
ATOM     80  O   UNL     1       8.443   6.567 -10.886  1.00  0.00    -0.237 OA
ATOM     81  O   UNL     1       8.723   6.176 -13.314  1.00  0.00    -0.237 OA
ATOM     82  O   UNL     1       7.557   8.195 -12.509  1.00  0.00    -0.744 OA
ENDBRANCH  75  79
ENDBRANCH  58  72
BRANCH  59  83
ATOM     83  C   UNL     1       5.219  -5.564  -8.206  1.00  0.00     0.023 A 
ATOM     84  C   UNL     1       5.780  -6.634  -8.924  1.00  0.00     0.031 A 
ATOM     85  C   UNL     1       4.548  -5.860  -7.006  1.00  0.00     0.131 A 
ATOM     86  C   UNL     1       5.611  -7.950  -8.466  1.00  0.00     0.055 A 
ATOM     87  C   UNL     1       4.436  -7.165  -6.523  1.00  0.00     0.041 A 
ATOM     88  F   UNL     1       3.988  -4.878  -6.281  1.00  0.00    -0.206 F 
ATOM     89  C   UNL     1       4.956  -8.222  -7.263  1.00  0.00     0.022 A 
BRANCH  86  90
ATOM     90  S   UNL     1       6.172  -9.317  -9.520  1.00  0.00     0.124 S 
ATOM     91  O   UNL     1       5.410  -9.080 -10.741  1.00  0.00    -0.237 OA
ATOM     92  O   UNL     1       7.607  -9.067  -9.601  1.00  0.00    -0.237 OA
ATOM     93  O   UNL     1       5.790 -10.508  -8.765  1.00  0.00    -0.744 OA
ENDBRANCH  86  90
ENDBRANCH  59  83
BRANCH  71  94
ATOM     94  C   UNL     1       2.775  -2.597 -14.035  1.00  0.00     0.023 A 
ATOM     95  C   UNL     1       1.523  -3.235 -13.980  1.00  0.00     0.031 A 
ATOM     96  C   UNL     1       3.425  -2.531 -15.282  1.00  0.00     0.131 A 
ATOM     97  C   UNL     1       1.000  -3.850 -15.128  1.00  0.00     0.055 A 
ATOM     98  C   UNL     1       2.862  -3.076 -16.437  1.00  0.00     0.041 A 
ATOM     99  F   UNL     1       4.623  -1.937 -15.399  1.00  0.00    -0.206 F 
ATOM    100  C   UNL     1       1.652  -3.758 -16.360  1.00  0.00     0.022 A 
BRANCH  97 101
ATOM    101  S   UNL     1      -0.476  -4.891 -14.960  1.00  0.00     0.124 S 
ATOM    102  O   UNL     1      -0.070  -5.829 -13.919  1.00  0.00    -0.237 OA
ATOM    103  O   UNL     1      -1.499  -3.922 -14.581  1.00  0.00    -0.237 OA
ATOM    104  O   UNL     1      -0.637  -5.474 -16.291  1.00  0.00    -0.744 OA
ENDBRANCH  97 101
ENDBRANCH  71  94
ENDBRANCH  45  46
ENDBRANCH  38  40
ENDBRANCH  37  38
ENDBRANCH  36  37
ENDBRANCH  35  36
ENDBRANCH  34  35
ENDBRANCH  33  34
ENDBRANCH  32  33
ENDBRANCH   1  32
TORSDOF 26
