REMARK SMILES CCOc1ccc(C#N)cc1NC(=O)[C@@H]1[C@@H](C(=O)OCCOCCOCCOCCOC(=O)c2ccc(-c3c4nc(c(-c5cc(S(=O)(=O)[O-])ccc5F)c5ccc([nH]5)c(-c5cc(S(=O)(=O)[O-])ccc5F)c5nc(c(-c6cc(S(=O)(=O)[O-])ccc6F)c6ccc3[nH]6)C=C5)C=C4)cc2)[C@H]2C=C[C@@H]1C2
REMARK SMILES IDX 24 1 23 2 22 3 21 4 20 5 19 6 17 7 18 8 16 9 15 10 100 11
REMARK SMILES IDX 97 12 99 13 101 14 98 15 13 16 12 17 14 19 11 20 4 21 5 22
REMARK SMILES IDX 6 23 10 24 7 25 3 26 2 27 1 28 8 29 9 30 25 31 26 32 27 33
REMARK SMILES IDX 28 34 29 35 30 36 31 37 32 38 33 39 34 40 35 41 96 42 36 43
REMARK SMILES IDX 95 44 37 45 38 46 39 47 89 48 40 49 94 50 88 51 90 52 41 53
REMARK SMILES IDX 93 54 87 55 86 56 42 58 74 59 54 60 73 61 55 62 58 63 72 64
REMARK SMILES IDX 91 65 56 66 57 67 71 69 92 70 59 71 43 72 44 73 52 74 45 75
REMARK SMILES IDX 51 76 53 77 50 78 46 79 47 80 48 81 49 82 75 83 76 84 84 85
REMARK SMILES IDX 77 86 83 87 85 88 82 89 78 90 79 91 80 92 81 93 60 94 61 95
REMARK SMILES IDX 69 96 62 97 68 98 70 99 67 100 63 101 64 102 65 103 66 104
REMARK H PARENT 12 18 90 57 58 68
REMARK Flexibility Score: inf
ROOT
ATOM      1  C   UNL     1       4.508  -0.175   4.263  1.00  0.00     0.188 C 
ENDROOT
BRANCH   1   2
ATOM      2  C   UNL     1       5.625   0.852   4.160  1.00  0.00     0.188 C 
BRANCH   2   3
ATOM      3  O   UNL     1       6.422   0.881   2.994  1.00  0.00    -0.376 OA
BRANCH   3   4
ATOM      4  C   UNL     1       7.727   1.452   3.048  1.00  0.00     0.202 C 
BRANCH   4   5
ATOM      5  C   UNL     1       8.391   1.846   4.385  1.00  0.00     0.261 C 
BRANCH   5   6
ATOM      6  O   UNL     1       7.529   2.376   5.410  1.00  0.00    -0.463 OA
BRANCH   6   7
ATOM      7  C   UNL     1       6.702   3.398   5.072  1.00  0.00     0.310 C 
ATOM      8  O   UNL     1       6.870   4.129   4.109  1.00  0.00    -0.252 OA
BRANCH   7   9
ATOM      9  C   UNL     1       5.460   3.367   5.969  1.00  0.00     0.119 C 
ATOM     10  C   UNL     1       4.357   4.407   5.551  1.00  0.00     0.100 C 
ATOM     11  C   UNL     1       4.289   5.235   6.874  1.00  0.00     0.025 C 
ATOM     12  C   UNL     1       5.833   3.720   7.426  1.00  0.00     0.027 C 
ATOM     13  C   UNL     1       5.622   5.957   7.040  1.00  0.00    -0.027 C 
ATOM     14  C   UNL     1       4.481   4.168   7.965  1.00  0.00     0.017 C 
ATOM     15  C   UNL     1       6.536   5.047   7.409  1.00  0.00    -0.027 C 
BRANCH  10  16
ATOM     16  C   UNL     1       2.976   3.789   5.192  1.00  0.00     0.229 C 
ATOM     17  N   UNL     1       2.547   3.382   3.954  1.00  0.00    -0.323 N 
ATOM     18  H   UNL     1       1.619   3.053   3.989  1.00  0.00     0.170 HD
ATOM     19  O   UNL     1       2.144   3.619   6.098  1.00  0.00    -0.274 OA
BRANCH  17  20
ATOM     20  C   UNL     1       3.067   3.303   2.639  1.00  0.00     0.085 A 
ATOM     21  C   UNL     1       2.297   2.667   1.619  1.00  0.00     0.142 A 
ATOM     22  C   UNL     1       2.848   2.495   0.343  1.00  0.00     0.050 A 
ATOM     23  C   UNL     1       4.154   2.895   0.067  1.00  0.00     0.023 A 
ATOM     24  C   UNL     1       4.319   3.804   2.296  1.00  0.00     0.049 A 
ATOM     25  C   UNL     1       4.881   3.578   1.034  1.00  0.00     0.054 A 
BRANCH  21  26
ATOM     26  O   UNL     1       0.962   2.417   1.836  1.00  0.00    -0.492 OA
BRANCH  26  27
ATOM     27  C   UNL     1       0.408   1.119   1.547  1.00  0.00     0.226 C 
ATOM     28  C   UNL     1       0.303   0.657   0.092  1.00  0.00     0.049 C 
ENDBRANCH  26  27
ENDBRANCH  21  26
BRANCH  25  29
ATOM     29  C   UNL     1       6.188   4.077   0.729  1.00  0.00     0.099 C 
ATOM     30  N   UNL     1       7.239   4.496   0.457  1.00  0.00    -0.192 NA
ENDBRANCH  25  29
ENDBRANCH  17  20
ENDBRANCH  10  16
ENDBRANCH   7   9
ENDBRANCH   6   7
ENDBRANCH   5   6
ENDBRANCH   4   5
ENDBRANCH   3   4
ENDBRANCH   2   3
ENDBRANCH   1   2
BRANCH   1  31
ATOM     31  O   UNL     1       4.926  -1.532   4.198  1.00  0.00    -0.377 OA
BRANCH  31  32
ATOM     32  C   UNL     1       5.963  -1.796   3.255  1.00  0.00     0.188 C 
BRANCH  32  33
ATOM     33  C   UNL     1       5.650  -1.473   1.777  1.00  0.00     0.188 C 
BRANCH  33  34
ATOM     34  O   UNL     1       4.584  -0.555   1.583  1.00  0.00    -0.376 OA
BRANCH  34  35
ATOM     35  C   UNL     1       3.350  -1.094   1.133  1.00  0.00     0.202 C 
BRANCH  35  36
ATOM     36  C   UNL     1       2.542  -2.008   2.072  1.00  0.00     0.261 C 
BRANCH  36  37
ATOM     37  O   UNL     1       3.216  -3.187   2.504  1.00  0.00    -0.460 OA
BRANCH  37  38
ATOM     38  C   UNL     1       3.653  -4.024   1.540  1.00  0.00     0.338 C 
ATOM     39  O   UNL     1       3.422  -3.957   0.347  1.00  0.00    -0.246 OA
BRANCH  38  40
ATOM     40  C   UNL     1       4.698  -4.847   2.175  1.00  0.00     0.060 A 
ATOM     41  C   UNL     1       5.963  -4.895   1.573  1.00  0.00     0.016 A 
ATOM     42  C   UNL     1       4.465  -5.445   3.417  1.00  0.00     0.016 A 
ATOM     43  C   UNL     1       7.007  -5.545   2.218  1.00  0.00     0.010 A 
ATOM     44  C   UNL     1       5.497  -6.135   4.041  1.00  0.00     0.010 A 
ATOM     45  C   UNL     1       6.756  -6.210   3.424  1.00  0.00    -0.014 A 
BRANCH  45  46
ATOM     46  C   UNL     1       7.712  -7.238   3.870  1.00  0.00     0.031 A 
ATOM     47  C   UNL     1       7.459  -8.639   3.392  1.00  0.00     0.074 A 
ATOM     48  C   UNL     1       8.767  -6.928   4.639  1.00  0.00     0.049 A 
ATOM     49  N   UNL     1       8.101  -9.740   3.667  1.00  0.00    -0.248 NA
ATOM     50  C   UNL     1       6.313  -8.818   2.482  1.00  0.00     0.031 C 
ATOM     51  C   UNL     1       9.112  -5.584   5.102  1.00  0.00     0.029 A 
ATOM     52  N   UNL     1       9.739  -7.731   5.171  1.00  0.00    -0.354 N 
ATOM     53  C   UNL     1       7.436 -10.740   2.966  1.00  0.00     0.074 A 
ATOM     54  C   UNL     1       6.317 -10.125   2.293  1.00  0.00     0.031 C 
ATOM     55  C   UNL     1      10.220  -5.660   5.861  1.00  0.00     0.029 A 
ATOM     56  C   UNL     1      10.632  -7.058   5.970  1.00  0.00     0.049 A 
ATOM     57  H   UNL     1       9.794  -8.698   4.997  1.00  0.00     0.167 HD
ATOM     58  C   UNL     1       7.745 -12.055   2.889  1.00  0.00     0.034 A 
ATOM     59  C   UNL     1      11.644  -7.536   6.720  1.00  0.00     0.034 A 
ATOM     60  C   UNL     1       8.853 -12.639   3.598  1.00  0.00     0.049 A 
ATOM     61  C   UNL     1      11.908  -9.025   6.698  1.00  0.00     0.074 A 
ATOM     62  C   UNL     1       9.269 -13.957   3.610  1.00  0.00     0.029 A 
ATOM     63  N   UNL     1       9.712 -11.939   4.436  1.00  0.00    -0.354 N 
ATOM     64  N   UNL     1      11.283  -9.969   6.028  1.00  0.00    -0.248 NA
ATOM     65  C   UNL     1      13.019  -9.512   7.524  1.00  0.00     0.031 C 
ATOM     66  C   UNL     1      10.326 -14.067   4.518  1.00  0.00     0.029 A 
ATOM     67  C   UNL     1      10.635 -12.803   4.999  1.00  0.00     0.049 A 
ATOM     68  H   UNL     1       9.670 -10.970   4.606  1.00  0.00     0.167 HD
ATOM     69  C   UNL     1      11.951 -11.155   6.324  1.00  0.00     0.074 A 
ATOM     70  C   UNL     1      13.034 -10.802   7.220  1.00  0.00     0.031 C 
ATOM     71  C   UNL     1      11.701 -12.420   5.896  1.00  0.00     0.034 A 
BRANCH  58  72
ATOM     72  C   UNL     1       6.833 -12.932   2.069  1.00  0.00     0.023 A 
ATOM     73  C   UNL     1       6.669 -12.743   0.685  1.00  0.00     0.031 A 
ATOM     74  C   UNL     1       6.077 -13.941   2.690  1.00  0.00     0.131 A 
ATOM     75  C   UNL     1       5.721 -13.502  -0.018  1.00  0.00     0.055 A 
ATOM     76  C   UNL     1       5.199 -14.752   1.968  1.00  0.00     0.041 A 
ATOM     77  F   UNL     1       6.163 -14.143   4.014  1.00  0.00    -0.206 F 
ATOM     78  C   UNL     1       5.006 -14.526   0.609  1.00  0.00     0.022 A 
BRANCH  75  79
ATOM     79  S   UNL     1       5.324 -13.032  -1.724  1.00  0.00     0.124 S 
ATOM     80  O   UNL     1       4.864 -11.656  -1.552  1.00  0.00    -0.237 OA
ATOM     81  O   UNL     1       6.604 -13.197  -2.403  1.00  0.00    -0.237 OA
ATOM     82  O   UNL     1       4.285 -13.985  -2.110  1.00  0.00    -0.744 OA
ENDBRANCH  75  79
ENDBRANCH  58  72
BRANCH  59  83
ATOM     83  C   UNL     1      12.456  -6.625   7.577  1.00  0.00     0.023 A 
ATOM     84  C   UNL     1      13.839  -6.486   7.382  1.00  0.00     0.031 A 
ATOM     85  C   UNL     1      11.870  -5.923   8.646  1.00  0.00     0.131 A 
ATOM     86  C   UNL     1      14.598  -5.713   8.274  1.00  0.00     0.055 A 
ATOM     87  C   UNL     1      12.620  -5.105   9.494  1.00  0.00     0.041 A 
ATOM     88  F   UNL     1      10.552  -6.021   8.883  1.00  0.00    -0.206 F 
ATOM     89  C   UNL     1      13.996  -5.009   9.319  1.00  0.00     0.022 A 
BRANCH  86  90
ATOM     90  S   UNL     1      16.405  -5.727   8.112  1.00  0.00     0.124 S 
ATOM     91  O   UNL     1      16.701  -7.150   8.229  1.00  0.00    -0.237 OA
ATOM     92  O   UNL     1      16.594  -5.137   6.791  1.00  0.00    -0.237 OA
ATOM     93  O   UNL     1      16.853  -4.901   9.232  1.00  0.00    -0.744 OA
ENDBRANCH  86  90
ENDBRANCH  59  83
BRANCH  71  94
ATOM     94  C   UNL     1      12.654 -13.499   6.350  1.00  0.00     0.023 A 
ATOM     95  C   UNL     1      12.767 -13.870   7.700  1.00  0.00     0.031 A 
ATOM     96  C   UNL     1      13.463 -14.165   5.411  1.00  0.00     0.131 A 
ATOM     97  C   UNL     1      13.715 -14.830   8.082  1.00  0.00     0.055 A 
ATOM     98  C   UNL     1      14.349 -15.174   5.787  1.00  0.00     0.041 A 
ATOM     99  F   UNL     1      13.399 -13.850   4.107  1.00  0.00    -0.206 F 
ATOM    100  C   UNL     1      14.490 -15.500   7.132  1.00  0.00     0.022 A 
BRANCH  97 101
ATOM    101  S   UNL     1      14.002 -15.110   9.850  1.00  0.00     0.124 S 
ATOM    102  O   UNL     1      14.366 -13.774  10.312  1.00  0.00    -0.237 OA
ATOM    103  O   UNL     1      12.707 -15.609  10.302  1.00  0.00    -0.237 OA
ATOM    104  O   UNL     1      15.086 -16.090   9.870  1.00  0.00    -0.744 OA
ENDBRANCH  97 101
ENDBRANCH  71  94
ENDBRANCH  45  46
ENDBRANCH  38  40
ENDBRANCH  37  38
ENDBRANCH  36  37
ENDBRANCH  35  36
ENDBRANCH  34  35
ENDBRANCH  33  34
ENDBRANCH  32  33
ENDBRANCH  31  32
ENDBRANCH   1  31
TORSDOF 28
