REMARK SMILES Cc1c(-c2nn(-c3ccccc3)cc2/C=N/O)nnn1-c1ccc(C(=O)OCCOCCOCCOCCOC(=O)c2ccc(-c3c4nc(c(-c5cc(S(=O)(=O)[O-])ccc5F)c5ccc([nH]5)c(-c5cc(S(=O)(=O)[O-])ccc5F)c5nc(c(-c6cc(S(=O)(=O)[O-])ccc6F)c6ccc3[nH]6)C=C5)C=C4)cc2)cc1
REMARK SMILES IDX 32 1 31 2 30 3 29 4 28 5 27 6 25 7 26 8 24 9 21 10 22 11
REMARK SMILES IDX 106 12 23 13 105 14 20 15 1 16 2 17 3 18 18 19 19 20 4 21
REMARK SMILES IDX 5 22 14 23 6 24 13 25 15 26 16 27 17 28 7 30 8 31 12 32 9 33
REMARK SMILES IDX 11 34 10 35 33 36 34 37 35 38 36 39 37 40 38 41 39 42 40 43
REMARK SMILES IDX 41 44 42 45 43 46 104 47 44 48 103 49 45 50 46 51 47 52
REMARK SMILES IDX 97 53 48 54 102 55 96 56 98 57 49 58 101 59 95 60 94 61
REMARK SMILES IDX 50 63 82 64 62 65 81 66 63 67 66 68 80 69 99 70 64 71 65 72
REMARK SMILES IDX 79 74 100 75 67 76 51 77 52 78 60 79 53 80 59 81 61 82 58 83
REMARK SMILES IDX 54 84 55 85 56 86 57 87 83 88 84 89 92 90 85 91 91 92 93 93
REMARK SMILES IDX 90 94 86 95 87 96 88 97 89 98 68 99 69 100 77 101 70 102
REMARK SMILES IDX 76 103 78 104 75 105 71 106 72 107 73 108 74 109
REMARK H PARENT 17 29 98 62 66 73
REMARK Flexibility Score: inf
ROOT
ATOM      1  C   UNL     1       2.524   6.406  -3.813  1.00  0.00     0.188 C 
ENDROOT
BRANCH   1   2
ATOM      2  C   UNL     1       4.047   6.278  -3.581  1.00  0.00     0.188 C 
BRANCH   2   3
ATOM      3  O   UNL     1       4.970   6.184  -4.657  1.00  0.00    -0.376 OA
BRANCH   3   4
ATOM      4  C   UNL     1       4.725   5.403  -5.814  1.00  0.00     0.202 C 
BRANCH   4   5
ATOM      5  C   UNL     1       4.082   4.007  -5.780  1.00  0.00     0.261 C 
BRANCH   5   6
ATOM      6  O   UNL     1       3.269   3.693  -4.652  1.00  0.00    -0.460 OA
BRANCH   6   7
ATOM      7  C   UNL     1       3.921   3.135  -3.611  1.00  0.00     0.338 C 
ATOM      8  O   UNL     1       5.098   2.821  -3.556  1.00  0.00    -0.246 OA
BRANCH   7   9
ATOM      9  C   UNL     1       3.007   3.092  -2.451  1.00  0.00     0.060 A 
ATOM     10  C   UNL     1       1.446   2.805  -0.185  1.00  0.00     0.067 A 
ATOM     11  C   UNL     1       2.714   3.376  -0.060  1.00  0.00     0.029 A 
ATOM     12  C   UNL     1       0.904   2.503  -1.444  1.00  0.00     0.029 A 
ATOM     13  C   UNL     1       3.509   3.481  -1.198  1.00  0.00     0.018 A 
ATOM     14  C   UNL     1       1.681   2.670  -2.587  1.00  0.00     0.018 A 
BRANCH  10  15
ATOM     15  N   UNL     1       0.800   2.344   0.978  1.00  0.00    -0.217 N 
ATOM     16  C   UNL     1       0.715  -0.111   0.336  1.00  0.00     0.069 C 
ATOM     17  C   UNL     1       0.432   1.036   1.234  1.00  0.00     0.071 A 
ATOM     18  C   UNL     1      -0.071   1.097   2.516  1.00  0.00     0.137 A 
ATOM     19  N   UNL     1       0.090   2.353   3.026  1.00  0.00    -0.128 NA
ATOM     20  N   UNL     1       0.703   3.088   2.103  1.00  0.00    -0.061 NA
BRANCH  18  21
ATOM     21  C   UNL     1      -0.582  -0.007   3.319  1.00  0.00     0.124 A 
ATOM     22  N   UNL     1       0.213  -1.000   3.735  1.00  0.00    -0.165 NA
ATOM     23  C   UNL     1      -1.936  -0.215   3.666  1.00  0.00     0.044 A 
ATOM     24  N   UNL     1      -0.632  -1.913   4.259  1.00  0.00    -0.240 N 
ATOM     25  C   UNL     1      -1.938  -1.479   4.228  1.00  0.00     0.125 A 
BRANCH  23  26
ATOM     26  C   UNL     1      -3.105   0.611   3.497  1.00  0.00     0.166 C 
ATOM     27  N   UNL     1      -3.030   1.711   2.827  1.00  0.00    -0.097 NA
BRANCH  27  28
ATOM     28  O   UNL     1      -4.278   2.345   2.839  1.00  0.00    -0.411 OA
ATOM     29  H   UNL     1      -4.393   3.162   2.394  1.00  0.00     0.330 HD
ENDBRANCH  27  28
ENDBRANCH  23  26
BRANCH  24  30
ATOM     30  C   UNL     1      -0.149  -3.156   4.730  1.00  0.00     0.065 A 
ATOM     31  C   UNL     1       1.137  -3.224   5.283  1.00  0.00     0.028 A 
ATOM     32  C   UNL     1      -0.935  -4.311   4.631  1.00  0.00     0.028 A 
ATOM     33  C   UNL     1       1.622  -4.440   5.763  1.00  0.00     0.002 A 
ATOM     34  C   UNL     1      -0.420  -5.534   5.067  1.00  0.00     0.002 A 
ATOM     35  C   UNL     1       0.850  -5.596   5.644  1.00  0.00     0.000 A 
ENDBRANCH  24  30
ENDBRANCH  18  21
ENDBRANCH  10  15
ENDBRANCH   7   9
ENDBRANCH   6   7
ENDBRANCH   5   6
ENDBRANCH   4   5
ENDBRANCH   3   4
ENDBRANCH   2   3
ENDBRANCH   1   2
BRANCH   1  36
ATOM     36  O   UNL     1       2.126   6.203  -5.158  1.00  0.00    -0.377 OA
BRANCH  36  37
ATOM     37  C   UNL     1       1.979   7.380  -5.951  1.00  0.00     0.188 C 
BRANCH  37  38
ATOM     38  C   UNL     1       3.063   8.485  -5.852  1.00  0.00     0.188 C 
BRANCH  38  39
ATOM     39  O   UNL     1       3.537   8.736  -4.534  1.00  0.00    -0.376 OA
BRANCH  39  40
ATOM     40  C   UNL     1       3.203   9.918  -3.828  1.00  0.00     0.202 C 
BRANCH  40  41
ATOM     41  C   UNL     1       1.757  10.063  -3.373  1.00  0.00     0.261 C 
BRANCH  41  42
ATOM     42  O   UNL     1       0.820   9.692  -4.364  1.00  0.00    -0.460 OA
BRANCH  42  43
ATOM     43  C   UNL     1       0.775  10.502  -5.433  1.00  0.00     0.338 C 
ATOM     44  O   UNL     1       1.591  11.367  -5.744  1.00  0.00    -0.246 OA
BRANCH  43  45
ATOM     45  C   UNL     1      -0.493  10.274  -6.114  1.00  0.00     0.060 A 
ATOM     46  C   UNL     1      -0.712  11.023  -7.269  1.00  0.00     0.016 A 
ATOM     47  C   UNL     1      -1.533   9.688  -5.375  1.00  0.00     0.016 A 
ATOM     48  C   UNL     1      -1.993  11.445  -7.509  1.00  0.00     0.010 A 
ATOM     49  C   UNL     1      -2.801  10.146  -5.590  1.00  0.00     0.010 A 
ATOM     50  C   UNL     1      -2.987  11.095  -6.589  1.00  0.00    -0.014 A 
BRANCH  50  51
ATOM     51  C   UNL     1      -4.295  11.673  -6.750  1.00  0.00     0.031 A 
ATOM     52  C   UNL     1      -5.053  10.980  -7.805  1.00  0.00     0.074 A 
ATOM     53  C   UNL     1      -4.755  12.643  -5.941  1.00  0.00     0.049 A 
ATOM     54  N   UNL     1      -5.277  11.399  -9.004  1.00  0.00    -0.248 NA
ATOM     55  C   UNL     1      -5.350   9.551  -7.603  1.00  0.00     0.031 C 
ATOM     56  C   UNL     1      -4.150  13.167  -4.714  1.00  0.00     0.029 A 
ATOM     57  N   UNL     1      -5.939  13.302  -5.999  1.00  0.00    -0.354 N 
ATOM     58  C   UNL     1      -6.003  10.381  -9.603  1.00  0.00     0.074 A 
ATOM     59  C   UNL     1      -5.742   9.203  -8.828  1.00  0.00     0.031 C 
ATOM     60  C   UNL     1      -5.078  13.881  -4.032  1.00  0.00     0.029 A 
ATOM     61  C   UNL     1      -6.294  13.962  -4.829  1.00  0.00     0.049 A 
ATOM     62  H   UNL     1      -6.502  13.312  -6.807  1.00  0.00     0.167 HD
ATOM     63  C   UNL     1      -7.017  10.671 -10.460  1.00  0.00     0.034 A 
ATOM     64  C   UNL     1      -7.528  14.449  -4.519  1.00  0.00     0.034 A 
ATOM     65  C   UNL     1      -6.901  12.034 -10.939  1.00  0.00     0.049 A 
ATOM     66  C   UNL     1      -8.264  14.592  -5.807  1.00  0.00     0.074 A 
ATOM     67  C   UNL     1      -5.913  12.737 -11.605  1.00  0.00     0.029 A 
ATOM     68  N   UNL     1      -7.726  12.989 -10.381  1.00  0.00    -0.354 N 
ATOM     69  N   UNL     1      -7.914  15.438  -6.739  1.00  0.00    -0.248 NA
ATOM     70  C   UNL     1      -9.045  13.454  -6.278  1.00  0.00     0.031 C 
ATOM     71  C   UNL     1      -5.919  14.034 -11.015  1.00  0.00     0.029 A 
ATOM     72  C   UNL     1      -6.965  14.096 -10.091  1.00  0.00     0.049 A 
ATOM     73  H   UNL     1      -8.693  12.894 -10.219  1.00  0.00     0.167 HD
ATOM     74  C   UNL     1      -8.040  14.740  -7.933  1.00  0.00     0.074 A 
ATOM     75  C   UNL     1      -8.828  13.556  -7.594  1.00  0.00     0.031 C 
ATOM     76  C   UNL     1      -7.247  15.027  -9.009  1.00  0.00     0.034 A 
BRANCH  63  77
ATOM     77  C   UNL     1      -8.312   9.889 -10.526  1.00  0.00     0.023 A 
ATOM     78  C   UNL     1      -9.278  10.360 -11.430  1.00  0.00     0.031 A 
ATOM     79  C   UNL     1      -8.767   8.920  -9.598  1.00  0.00     0.131 A 
ATOM     80  C   UNL     1     -10.624   9.980 -11.311  1.00  0.00     0.055 A 
ATOM     81  C   UNL     1     -10.095   8.495  -9.527  1.00  0.00     0.041 A 
ATOM     82  F   UNL     1      -7.994   8.383  -8.649  1.00  0.00    -0.206 F 
ATOM     83  C   UNL     1     -11.042   9.053 -10.362  1.00  0.00     0.022 A 
BRANCH  80  84
ATOM     84  S   UNL     1     -11.845  10.867 -12.304  1.00  0.00     0.124 S 
ATOM     85  O   UNL     1     -11.564  12.251 -11.940  1.00  0.00    -0.237 OA
ATOM     86  O   UNL     1     -11.474  10.466 -13.657  1.00  0.00    -0.237 OA
ATOM     87  O   UNL     1     -13.118  10.338 -11.822  1.00  0.00    -0.744 OA
ENDBRANCH  80  84
ENDBRANCH  63  77
BRANCH  64  88
ATOM     88  C   UNL     1      -8.188  14.410  -3.179  1.00  0.00     0.023 A 
ATOM     89  C   UNL     1      -9.278  15.235  -2.822  1.00  0.00     0.031 A 
ATOM     90  C   UNL     1      -7.874  13.363  -2.281  1.00  0.00     0.131 A 
ATOM     91  C   UNL     1      -9.986  15.001  -1.615  1.00  0.00     0.055 A 
ATOM     92  C   UNL     1      -8.570  13.142  -1.091  1.00  0.00     0.041 A 
ATOM     93  F   UNL     1      -6.925  12.459  -2.571  1.00  0.00    -0.206 F 
ATOM     94  C   UNL     1      -9.636  13.957  -0.755  1.00  0.00     0.022 A 
BRANCH  91  95
ATOM     95  S   UNL     1     -11.437  16.016  -1.168  1.00  0.00     0.124 S 
ATOM     96  O   UNL     1     -10.854  17.343  -1.011  1.00  0.00    -0.237 OA
ATOM     97  O   UNL     1     -12.317  15.823  -2.314  1.00  0.00    -0.237 OA
ATOM     98  O   UNL     1     -11.912  15.406   0.075  1.00  0.00    -0.744 OA
ENDBRANCH  91  95
ENDBRANCH  64  88
BRANCH  76  99
ATOM     99  C   UNL     1      -6.451  16.319  -9.001  1.00  0.00     0.023 A 
ATOM    100  C   UNL     1      -5.486  16.681  -8.032  1.00  0.00     0.031 A 
ATOM    101  C   UNL     1      -6.598  17.162 -10.118  1.00  0.00     0.131 A 
ATOM    102  C   UNL     1      -4.718  17.852  -8.206  1.00  0.00     0.055 A 
ATOM    103  C   UNL     1      -5.821  18.305 -10.297  1.00  0.00     0.041 A 
ATOM    104  F   UNL     1      -7.481  16.861 -11.085  1.00  0.00    -0.206 F 
ATOM    105  C   UNL     1      -4.880  18.657  -9.339  1.00  0.00     0.022 A 
BRANCH 102 106
ATOM    106  S   UNL     1      -3.498  18.367  -6.953  1.00  0.00     0.124 S 
ATOM    107  O   UNL     1      -4.227  18.245  -5.696  1.00  0.00    -0.237 OA
ATOM    108  O   UNL     1      -2.412  17.413  -7.160  1.00  0.00    -0.237 OA
ATOM    109  O   UNL     1      -3.176  19.744  -7.338  1.00  0.00    -0.744 OA
ENDBRANCH 102 106
ENDBRANCH  76  99
ENDBRANCH  50  51
ENDBRANCH  43  45
ENDBRANCH  42  43
ENDBRANCH  41  42
ENDBRANCH  40  41
ENDBRANCH  39  40
ENDBRANCH  38  39
ENDBRANCH  37  38
ENDBRANCH  36  37
ENDBRANCH   1  36
TORSDOF 28
