REMARK SMILES O=C(OCCOCCOCCOCCOC(=O)c1ccc(-c2c3nc(c(-c4cc(S(=O)(=O)[O-])ccc4F)c4ccc([nH]4)c(-c4cc(S(=O)(=O)[O-])ccc4F)c4nc(c(-c5cc(S(=O)(=O)[O-])ccc5F)c5ccc2[nH]5)C=C4)C=C3)cc1)c1ccc(N[C@H]2OC[C@@H](O)[C@@H](O)[C@H]2O)cc1
REMARK SMILES IDX 9 1 8 2 7 3 6 4 5 5 4 6 3 7 2 8 1 9 81 10 82 11 96 12 83 13
REMARK SMILES IDX 95 14 84 15 85 16 86 18 87 19 93 20 88 21 91 22 89 23 94 24
REMARK SMILES IDX 92 26 90 28 10 30 11 31 12 32 13 33 14 34 15 35 16 36 17 37
REMARK SMILES IDX 18 38 19 39 80 40 20 41 79 42 21 43 22 44 23 45 73 46 24 47
REMARK SMILES IDX 78 48 72 49 74 50 25 51 77 52 71 53 70 54 26 56 58 57 38 58
REMARK SMILES IDX 57 59 39 60 42 61 56 62 75 63 40 64 41 65 55 67 76 68 43 69
REMARK SMILES IDX 27 70 28 71 36 72 29 73 35 74 37 75 34 76 30 77 31 78 32 79
REMARK SMILES IDX 33 80 59 81 60 82 68 83 61 84 67 85 69 86 66 87 62 88 63 89
REMARK SMILES IDX 64 90 65 91 44 92 45 93 53 94 46 95 52 96 54 97 51 98 47 99
REMARK SMILES IDX 48 100 49 101 50 102
REMARK H PARENT 85 17 94 25 92 27 90 29 74 55 42 66
REMARK Flexibility Score: inf
ROOT
ATOM      1  O   UNL     1       1.740  -6.955 -10.129  1.00  0.00    -0.377 OA
ENDROOT
BRANCH   1   2
ATOM      2  C   UNL     1       3.159  -7.065 -10.190  1.00  0.00     0.188 C 
BRANCH   2   3
ATOM      3  C   UNL     1       3.892  -5.857 -10.776  1.00  0.00     0.188 C 
BRANCH   3   4
ATOM      4  O   UNL     1       3.763  -4.727  -9.913  1.00  0.00    -0.376 OA
BRANCH   4   5
ATOM      5  C   UNL     1       3.623  -3.468 -10.565  1.00  0.00     0.202 C 
BRANCH   5   6
ATOM      6  C   UNL     1       4.932  -2.877 -11.087  1.00  0.00     0.261 C 
BRANCH   6   7
ATOM      7  O   UNL     1       5.922  -3.876 -11.373  1.00  0.00    -0.460 OA
BRANCH   7   8
ATOM      8  C   UNL     1       6.923  -4.283 -10.557  1.00  0.00     0.338 C 
ATOM      9  O   UNL     1       7.764  -5.073 -10.986  1.00  0.00    -0.246 OA
BRANCH   8  10
ATOM     10  C   UNL     1       7.101  -3.776  -9.166  1.00  0.00     0.060 A 
ATOM     11  C   UNL     1       6.079  -3.651  -8.229  1.00  0.00     0.018 A 
ATOM     12  C   UNL     1       8.413  -3.570  -8.726  1.00  0.00     0.018 A 
ATOM     13  C   UNL     1       6.346  -3.275  -6.909  1.00  0.00     0.026 A 
ATOM     14  C   UNL     1       8.678  -3.214  -7.395  1.00  0.00     0.026 A 
ATOM     15  C   UNL     1       7.645  -3.033  -6.469  1.00  0.00     0.036 A 
BRANCH  15  16
ATOM     16  N   UNL     1       7.944  -2.676  -5.165  1.00  0.00    -0.358 N 
ATOM     17  H   UNL     1       8.863  -2.800  -4.834  1.00  0.00     0.163 HD
BRANCH  16  18
ATOM     18  C   UNL     1       6.939  -2.122  -4.270  1.00  0.00     0.244 C 
ATOM     19  O   UNL     1       6.086  -3.174  -3.812  1.00  0.00    -0.353 OA
ATOM     20  C   UNL     1       7.645  -1.521  -3.037  1.00  0.00     0.195 C 
ATOM     21  C   UNL     1       5.004  -2.688  -3.004  1.00  0.00     0.197 C 
ATOM     22  C   UNL     1       6.575  -0.938  -2.106  1.00  0.00     0.178 C 
ATOM     23  C   UNL     1       5.522  -1.996  -1.737  1.00  0.00     0.171 C 
BRANCH  20  24
ATOM     24  O   UNL     1       8.384  -2.561  -2.344  1.00  0.00    -0.386 OA
ATOM     25  H   UNL     1       7.773  -3.262  -2.067  1.00  0.00     0.211 HD
ENDBRANCH  20  24
BRANCH  22  26
ATOM     26  O   UNL     1       7.191  -0.418  -0.925  1.00  0.00    -0.387 OA
ATOM     27  H   UNL     1       7.645  -1.134  -0.455  1.00  0.00     0.211 HD
ENDBRANCH  22  26
BRANCH  23  28
ATOM     28  O   UNL     1       6.101  -2.971  -0.855  1.00  0.00    -0.388 OA
ATOM     29  H   UNL     1       6.843  -3.409  -1.299  1.00  0.00     0.211 HD
ENDBRANCH  23  28
ENDBRANCH  16  18
ENDBRANCH  15  16
ENDBRANCH   8  10
ENDBRANCH   7   8
ENDBRANCH   6   7
ENDBRANCH   5   6
ENDBRANCH   4   5
ENDBRANCH   3   4
ENDBRANCH   2   3
ENDBRANCH   1   2
BRANCH   1  30
ATOM     30  C   UNL     1       1.208  -5.763  -9.561  1.00  0.00     0.188 C 
BRANCH  30  31
ATOM     31  C   UNL     1       1.577  -5.396  -8.106  1.00  0.00     0.188 C 
BRANCH  31  32
ATOM     32  O   UNL     1       2.511  -6.261  -7.470  1.00  0.00    -0.376 OA
BRANCH  32  33
ATOM     33  C   UNL     1       1.965  -7.098  -6.452  1.00  0.00     0.202 C 
BRANCH  33  34
ATOM     34  C   UNL     1       1.178  -8.304  -6.984  1.00  0.00     0.261 C 
BRANCH  34  35
ATOM     35  O   UNL     1       0.012  -7.966  -7.752  1.00  0.00    -0.460 OA
BRANCH  35  36
ATOM     36  C   UNL     1      -0.966  -7.273  -7.125  1.00  0.00     0.338 C 
ATOM     37  O   UNL     1      -1.013  -6.991  -5.940  1.00  0.00    -0.246 OA
BRANCH  36  38
ATOM     38  C   UNL     1      -1.836  -6.687  -8.173  1.00  0.00     0.060 A 
ATOM     39  C   UNL     1      -2.181  -5.332  -8.070  1.00  0.00     0.016 A 
ATOM     40  C   UNL     1      -2.211  -7.425  -9.303  1.00  0.00     0.016 A 
ATOM     41  C   UNL     1      -2.927  -4.722  -9.081  1.00  0.00     0.010 A 
ATOM     42  C   UNL     1      -2.969  -6.817 -10.308  1.00  0.00     0.010 A 
ATOM     43  C   UNL     1      -3.362  -5.473 -10.183  1.00  0.00    -0.014 A 
BRANCH  43  44
ATOM     44  C   UNL     1      -4.464  -4.947 -11.027  1.00  0.00     0.031 A 
ATOM     45  C   UNL     1      -5.868  -5.301 -10.610  1.00  0.00     0.074 A 
ATOM     46  C   UNL     1      -4.251  -4.164 -12.100  1.00  0.00     0.049 A 
ATOM     47  N   UNL     1      -7.010  -4.962 -11.146  1.00  0.00    -0.248 NA
ATOM     48  C   UNL     1      -5.989  -6.163  -9.423  1.00  0.00     0.031 C 
ATOM     49  C   UNL     1      -2.945  -3.728 -12.589  1.00  0.00     0.029 A 
ATOM     50  N   UNL     1      -5.144  -3.595 -12.975  1.00  0.00    -0.354 N 
ATOM     51  C   UNL     1      -7.985  -5.560 -10.355  1.00  0.00     0.074 A 
ATOM     52  C   UNL     1      -7.297  -6.326  -9.339  1.00  0.00     0.031 C 
ATOM     53  C   UNL     1      -3.124  -2.957 -13.679  1.00  0.00     0.029 A 
ATOM     54  C   UNL     1      -4.553  -2.865 -13.979  1.00  0.00     0.049 A 
ATOM     55  H   UNL     1      -6.120  -3.701 -12.890  1.00  0.00     0.167 HD
ATOM     56  C   UNL     1      -9.333  -5.469 -10.451  1.00  0.00     0.034 A 
ATOM     57  C   UNL     1      -5.107  -2.210 -15.022  1.00  0.00     0.034 A 
ATOM     58  C   UNL     1     -10.011  -4.736 -11.489  1.00  0.00     0.049 A 
ATOM     59  C   UNL     1      -6.614  -2.208 -15.173  1.00  0.00     0.074 A 
ATOM     60  C   UNL     1     -11.370  -4.577 -11.685  1.00  0.00     0.029 A 
ATOM     61  N   UNL     1      -9.377  -4.056 -12.521  1.00  0.00    -0.354 N 
ATOM     62  N   UNL     1      -7.527  -2.748 -14.399  1.00  0.00    -0.248 NA
ATOM     63  C   UNL     1      -7.161  -1.496 -16.337  1.00  0.00     0.031 C 
ATOM     64  C   UNL     1     -11.559  -3.864 -12.874  1.00  0.00     0.029 A 
ATOM     65  C   UNL     1     -10.318  -3.505 -13.376  1.00  0.00     0.049 A 
ATOM     66  H   UNL     1      -8.401  -3.976 -12.629  1.00  0.00     0.167 HD
ATOM     67  C   UNL     1      -8.756  -2.405 -14.962  1.00  0.00     0.074 A 
ATOM     68  C   UNL     1      -8.465  -1.605 -16.133  1.00  0.00     0.031 C 
ATOM     69  C   UNL     1     -10.012  -2.713 -14.545  1.00  0.00     0.034 A 
BRANCH  56  70
ATOM     70  C   UNL     1     -10.141  -6.237  -9.434  1.00  0.00     0.023 A 
ATOM     71  C   UNL     1     -10.069  -5.939  -8.061  1.00  0.00     0.031 A 
ATOM     72  C   UNL     1     -10.932  -7.327  -9.832  1.00  0.00     0.131 A 
ATOM     73  C   UNL     1     -10.703  -6.775  -7.130  1.00  0.00     0.055 A 
ATOM     74  C   UNL     1     -11.633  -8.102  -8.906  1.00  0.00     0.041 A 
ATOM     75  F   UNL     1     -11.015  -7.676 -11.125  1.00  0.00    -0.206 F 
ATOM     76  C   UNL     1     -11.506  -7.840  -7.545  1.00  0.00     0.022 A 
BRANCH  73  77
ATOM     77  S   UNL     1     -10.326  -6.553  -5.370  1.00  0.00     0.124 S 
ATOM     78  O   UNL     1      -8.876  -6.728  -5.354  1.00  0.00    -0.237 OA
ATOM     79  O   UNL     1     -10.809  -5.201  -5.112  1.00  0.00    -0.237 OA
ATOM     80  O   UNL     1     -11.082  -7.621  -4.720  1.00  0.00    -0.744 OA
ENDBRANCH  73  77
ENDBRANCH  56  70
BRANCH  57  81
ATOM     81  C   UNL     1      -4.254  -1.516 -16.033  1.00  0.00     0.023 A 
ATOM     82  C   UNL     1      -4.335  -0.126 -16.221  1.00  0.00     0.031 A 
ATOM     83  C   UNL     1      -3.405  -2.246 -16.884  1.00  0.00     0.131 A 
ATOM     84  C   UNL     1      -3.621   0.484 -17.266  1.00  0.00     0.055 A 
ATOM     85  C   UNL     1      -2.659  -1.628 -17.890  1.00  0.00     0.041 A 
ATOM     86  F   UNL     1      -3.293  -3.577 -16.753  1.00  0.00    -0.206 F 
ATOM     87  C   UNL     1      -2.775  -0.257 -18.094  1.00  0.00     0.022 A 
BRANCH  84  88
ATOM     88  S   UNL     1      -3.879   2.252 -17.583  1.00  0.00     0.124 S 
ATOM     89  O   UNL     1      -5.311   2.299 -17.856  1.00  0.00    -0.237 OA
ATOM     90  O   UNL     1      -3.445   2.851 -16.325  1.00  0.00    -0.237 OA
ATOM     91  O   UNL     1      -3.014   2.522 -18.729  1.00  0.00    -0.744 OA
ENDBRANCH  84  88
ENDBRANCH  57  81
BRANCH  69  92
ATOM     92  C   UNL     1     -11.165  -2.133 -15.331  1.00  0.00     0.023 A 
ATOM     93  C   UNL     1     -11.428  -2.510 -16.659  1.00  0.00     0.031 A 
ATOM     94  C   UNL     1     -12.012  -1.179 -14.736  1.00  0.00     0.131 A 
ATOM     95  C   UNL     1     -12.473  -1.895 -17.367  1.00  0.00     0.055 A 
ATOM     96  C   UNL     1     -13.088  -0.618 -15.424  1.00  0.00     0.041 A 
ATOM     97  F   UNL     1     -11.809  -0.780 -13.470  1.00  0.00    -0.206 F 
ATOM     98  C   UNL     1     -13.314  -0.964 -16.753  1.00  0.00     0.022 A 
BRANCH  95  99
ATOM     99  S   UNL     1     -12.657  -2.253 -19.136  1.00  0.00     0.124 S 
ATOM    100  O   UNL     1     -11.347  -1.881 -19.660  1.00  0.00    -0.237 OA
ATOM    101  O   UNL     1     -12.961  -3.681 -19.135  1.00  0.00    -0.237 OA
ATOM    102  O   UNL     1     -13.759  -1.386 -19.549  1.00  0.00    -0.744 OA
ENDBRANCH  95  99
ENDBRANCH  69  92
ENDBRANCH  43  44
ENDBRANCH  36  38
ENDBRANCH  35  36
ENDBRANCH  34  35
ENDBRANCH  33  34
ENDBRANCH  32  33
ENDBRANCH  31  32
ENDBRANCH  30  31
ENDBRANCH   1  30
TORSDOF 28
