REMARK SMILES CC[C@@H](C)CNc1cc(C)ccc1C(=O)OCCOCCOCCOCCOC(=O)c1ccc(-c2c3nc(c(-c4cc(S(=O)(=O)[O-])ccc4F)c4ccc([nH]4)c(-c4cc(S(=O)(=O)[O-])ccc4F)c4nc(c(-c5cc(S(=O)(=O)[O-])ccc5F)c5ccc2[nH]5)C=C4)C=C3)cc1
REMARK SMILES IDX 21 1 20 2 19 3 18 4 17 5 16 6 14 7 15 8 13 9 7 10 8 11 9 12
REMARK SMILES IDX 12 13 10 14 11 15 6 16 5 18 3 19 4 20 2 21 1 22 22 23 23 24
REMARK SMILES IDX 24 25 25 26 26 27 27 28 28 29 29 30 30 31 31 32 32 33 93 34
REMARK SMILES IDX 33 35 92 36 34 37 35 38 36 39 86 40 37 41 91 42 85 43 87 44
REMARK SMILES IDX 38 45 90 46 84 47 83 48 39 50 71 51 51 52 70 53 52 54 55 55
REMARK SMILES IDX 69 56 88 57 53 58 54 59 68 61 89 62 56 63 40 64 41 65 49 66
REMARK SMILES IDX 42 67 48 68 50 69 47 70 43 71 44 72 45 73 46 74 72 75 73 76
REMARK SMILES IDX 81 77 74 78 80 79 82 80 79 81 75 82 76 83 77 84 78 85 57 86
REMARK SMILES IDX 58 87 66 88 59 89 65 90 67 91 64 92 60 93 61 94 62 95 63 96
REMARK H PARENT 6 17 87 49 55 60
REMARK Flexibility Score: inf
ROOT
ATOM      1  C   UNL     1       5.106  -2.508  -4.263  1.00  0.00     0.188 C 
ENDROOT
BRANCH   1   2
ATOM      2  C   UNL     1       6.146  -1.798  -5.160  1.00  0.00     0.188 C 
BRANCH   2   3
ATOM      3  O   UNL     1       6.352  -0.388  -5.167  1.00  0.00    -0.376 OA
BRANCH   3   4
ATOM      4  C   UNL     1       5.280   0.463  -4.832  1.00  0.00     0.202 C 
BRANCH   4   5
ATOM      5  C   UNL     1       4.414   0.857  -5.989  1.00  0.00     0.261 C 
BRANCH   5   6
ATOM      6  O   UNL     1       3.259   0.030  -5.769  1.00  0.00    -0.460 OA
BRANCH   6   7
ATOM      7  C   UNL     1       2.784  -0.564  -6.860  1.00  0.00     0.340 C 
ATOM      8  O   UNL     1       2.913  -0.166  -7.996  1.00  0.00    -0.246 OA
BRANCH   7   9
ATOM      9  C   UNL     1       2.557  -1.995  -6.526  1.00  0.00     0.083 A 
ATOM     10  C   UNL     1       1.668  -2.645  -5.617  1.00  0.00     0.049 A 
ATOM     11  C   UNL     1       1.329  -3.944  -6.038  1.00  0.00     0.030 A 
ATOM     12  C   UNL     1       1.998  -4.620  -7.084  1.00  0.00    -0.049 A 
ATOM     13  C   UNL     1       3.362  -2.737  -7.430  1.00  0.00     0.018 A 
ATOM     14  C   UNL     1       1.516  -5.930  -7.611  1.00  0.00     0.044 C 
ATOM     15  C   UNL     1       3.108  -4.057  -7.684  1.00  0.00     0.004 A 
BRANCH  10  16
ATOM     16  N   UNL     1       1.159  -2.152  -4.378  1.00  0.00    -0.384 N 
ATOM     17  H   UNL     1       1.499  -1.293  -4.039  1.00  0.00     0.160 HD
BRANCH  16  18
ATOM     18  C   UNL     1       0.117  -2.892  -3.557  1.00  0.00     0.116 C 
BRANCH  18  19
ATOM     19  C   UNL     1       0.073  -2.692  -1.991  1.00  0.00     0.005 C 
ATOM     20  C   UNL     1      -0.130  -4.037  -1.253  1.00  0.00     0.009 C 
BRANCH  19  21
ATOM     21  C   UNL     1      -1.016  -1.716  -1.442  1.00  0.00     0.002 C 
ATOM     22  C   UNL     1      -1.069  -1.550   0.096  1.00  0.00     0.004 C 
ENDBRANCH  19  21
ENDBRANCH  18  19
ENDBRANCH  16  18
ENDBRANCH  10  16
ENDBRANCH   7   9
ENDBRANCH   6   7
ENDBRANCH   5   6
ENDBRANCH   4   5
ENDBRANCH   3   4
ENDBRANCH   2   3
ENDBRANCH   1   2
BRANCH   1  23
ATOM     23  O   UNL     1       5.213  -2.558  -2.856  1.00  0.00    -0.377 OA
BRANCH  23  24
ATOM     24  C   UNL     1       5.439  -1.371  -2.143  1.00  0.00     0.188 C 
BRANCH  24  25
ATOM     25  C   UNL     1       6.875  -0.934  -2.287  1.00  0.00     0.188 C 
BRANCH  25  26
ATOM     26  O   UNL     1       7.854  -1.944  -2.325  1.00  0.00    -0.376 OA
BRANCH  26  27
ATOM     27  C   UNL     1       7.895  -2.785  -1.174  1.00  0.00     0.202 C 
BRANCH  27  28
ATOM     28  C   UNL     1       7.419  -2.250   0.214  1.00  0.00     0.261 C 
BRANCH  28  29
ATOM     29  O   UNL     1       7.842  -0.883   0.481  1.00  0.00    -0.460 OA
BRANCH  29  30
ATOM     30  C   UNL     1       7.059  -0.142   1.336  1.00  0.00     0.338 C 
ATOM     31  O   UNL     1       6.733  -0.475   2.460  1.00  0.00    -0.246 OA
BRANCH  30  32
ATOM     32  C   UNL     1       6.575   1.123   0.662  1.00  0.00     0.060 A 
ATOM     33  C   UNL     1       5.331   1.670   0.984  1.00  0.00     0.016 A 
ATOM     34  C   UNL     1       7.208   1.599  -0.476  1.00  0.00     0.016 A 
ATOM     35  C   UNL     1       4.599   2.387   0.015  1.00  0.00     0.010 A 
ATOM     36  C   UNL     1       6.426   2.160  -1.484  1.00  0.00     0.010 A 
ATOM     37  C   UNL     1       5.080   2.477  -1.286  1.00  0.00    -0.014 A 
BRANCH  37  38
ATOM     38  C   UNL     1       4.258   2.800  -2.479  1.00  0.00     0.031 A 
ATOM     39  C   UNL     1       4.734   3.831  -3.432  1.00  0.00     0.074 A 
ATOM     40  C   UNL     1       3.270   1.959  -2.891  1.00  0.00     0.049 A 
ATOM     41  N   UNL     1       4.160   4.093  -4.546  1.00  0.00    -0.248 NA
ATOM     42  C   UNL     1       6.002   4.536  -3.308  1.00  0.00     0.031 C 
ATOM     43  C   UNL     1       2.388   1.960  -4.068  1.00  0.00     0.029 A 
ATOM     44  N   UNL     1       2.736   0.879  -2.209  1.00  0.00    -0.354 N 
ATOM     45  C   UNL     1       5.077   4.643  -5.412  1.00  0.00     0.074 A 
ATOM     46  C   UNL     1       6.199   4.955  -4.564  1.00  0.00     0.031 C 
ATOM     47  C   UNL     1       1.276   1.233  -3.847  1.00  0.00     0.029 A 
ATOM     48  C   UNL     1       1.347   0.960  -2.440  1.00  0.00     0.049 A 
ATOM     49  H   UNL     1       3.219   0.204  -1.679  1.00  0.00     0.167 HD
ATOM     50  C   UNL     1       4.767   4.637  -6.746  1.00  0.00     0.034 A 
ATOM     51  C   UNL     1       0.640   1.603  -1.471  1.00  0.00     0.034 A 
ATOM     52  C   UNL     1       3.344   4.268  -6.947  1.00  0.00     0.049 A 
ATOM     53  C   UNL     1       0.072   2.901  -2.163  1.00  0.00     0.074 A 
ATOM     54  C   UNL     1       2.632   3.341  -7.691  1.00  0.00     0.029 A 
ATOM     55  N   UNL     1       2.402   4.841  -6.088  1.00  0.00    -0.354 N 
ATOM     56  N   UNL     1       0.737   3.698  -2.999  1.00  0.00    -0.248 NA
ATOM     57  C   UNL     1      -1.373   3.045  -2.347  1.00  0.00     0.031 C 
ATOM     58  C   UNL     1       1.296   3.285  -7.157  1.00  0.00     0.029 A 
ATOM     59  C   UNL     1       1.198   4.175  -6.089  1.00  0.00     0.049 A 
ATOM     60  H   UNL     1       2.581   5.639  -5.539  1.00  0.00     0.167 HD
ATOM     61  C   UNL     1      -0.141   4.236  -3.956  1.00  0.00     0.074 A 
ATOM     62  C   UNL     1      -1.451   3.832  -3.436  1.00  0.00     0.031 C 
ATOM     63  C   UNL     1       0.104   4.678  -5.258  1.00  0.00     0.034 A 
BRANCH  50  64
ATOM     64  C   UNL     1       5.737   4.853  -7.905  1.00  0.00     0.023 A 
ATOM     65  C   UNL     1       5.252   4.788  -9.233  1.00  0.00     0.031 A 
ATOM     66  C   UNL     1       7.131   5.065  -7.807  1.00  0.00     0.131 A 
ATOM     67  C   UNL     1       6.102   4.928 -10.352  1.00  0.00     0.055 A 
ATOM     68  C   UNL     1       7.971   5.244  -8.918  1.00  0.00     0.041 A 
ATOM     69  F   UNL     1       7.777   5.083  -6.639  1.00  0.00    -0.206 F 
ATOM     70  C   UNL     1       7.461   5.174 -10.201  1.00  0.00     0.022 A 
BRANCH  67  71
ATOM     71  S   UNL     1       5.407   4.793 -12.024  1.00  0.00     0.124 S 
ATOM     72  O   UNL     1       5.045   3.382 -12.094  1.00  0.00    -0.237 OA
ATOM     73  O   UNL     1       4.303   5.745 -11.982  1.00  0.00    -0.237 OA
ATOM     74  O   UNL     1       6.522   5.186 -12.887  1.00  0.00    -0.744 OA
ENDBRANCH  67  71
ENDBRANCH  50  64
BRANCH  51  75
ATOM     75  C   UNL     1       1.173   1.145  -0.092  1.00  0.00     0.023 A 
ATOM     76  C   UNL     1       1.711  -0.200  -0.010  1.00  0.00     0.031 A 
ATOM     77  C   UNL     1       1.361   1.855   1.082  1.00  0.00     0.131 A 
ATOM     78  C   UNL     1       2.394  -0.782   1.068  1.00  0.00     0.055 A 
ATOM     79  C   UNL     1       2.079   1.294   2.189  1.00  0.00     0.041 A 
ATOM     80  F   UNL     1       0.975   3.133   1.173  1.00  0.00    -0.206 F 
ATOM     81  C   UNL     1       2.610  -0.012   2.183  1.00  0.00     0.022 A 
BRANCH  78  82
ATOM     82  S   UNL     1       2.987  -2.512   0.983  1.00  0.00     0.124 S 
ATOM     83  O   UNL     1       1.979  -3.216   1.769  1.00  0.00    -0.237 OA
ATOM     84  O   UNL     1       2.985  -2.814  -0.444  1.00  0.00    -0.237 OA
ATOM     85  O   UNL     1       4.314  -2.445   1.581  1.00  0.00    -0.744 OA
ENDBRANCH  78  82
ENDBRANCH  51  75
BRANCH  63  86
ATOM     86  C   UNL     1      -0.637   5.874  -5.875  1.00  0.00     0.023 A 
ATOM     87  C   UNL     1      -1.898   6.284  -5.460  1.00  0.00     0.031 A 
ATOM     88  C   UNL     1      -0.014   6.735  -6.833  1.00  0.00     0.131 A 
ATOM     89  C   UNL     1      -2.441   7.510  -5.876  1.00  0.00     0.055 A 
ATOM     90  C   UNL     1      -0.554   7.953  -7.249  1.00  0.00     0.041 A 
ATOM     91  F   UNL     1       1.176   6.475  -7.389  1.00  0.00    -0.206 F 
ATOM     92  C   UNL     1      -1.771   8.364  -6.747  1.00  0.00     0.022 A 
BRANCH  89  93
ATOM     93  S   UNL     1      -4.030   7.974  -5.164  1.00  0.00     0.124 S 
ATOM     94  O   UNL     1      -4.896   6.895  -5.630  1.00  0.00    -0.237 OA
ATOM     95  O   UNL     1      -3.732   7.971  -3.735  1.00  0.00    -0.237 OA
ATOM     96  O   UNL     1      -4.297   9.288  -5.743  1.00  0.00    -0.744 OA
ENDBRANCH  89  93
ENDBRANCH  63  86
ENDBRANCH  37  38
ENDBRANCH  30  32
ENDBRANCH  29  30
ENDBRANCH  28  29
ENDBRANCH  27  28
ENDBRANCH  26  27
ENDBRANCH  25  26
ENDBRANCH  24  25
ENDBRANCH  23  24
ENDBRANCH   1  23
TORSDOF 27
