REMARK SMILES Cc1cc(C)c2c(OCCCC(=O)OCCOCCOCCOCCOC(=O)c3ccc(-c4c5nc(c(-c6cc(S(=O)(=O)[O-])ccc6F)c6ccc([nH]6)c(-c6cc(S(=O)(=O)[O-])ccc6F)c6nc(c(-c7cc(S(=O)(=O)[O-])ccc7F)c7ccc4[nH]7)C=C6)C=C5)cc3)nsc2n1
REMARK SMILES IDX 19 1 18 2 17 3 16 4 15 5 14 6 12 7 13 8 11 9 10 10 9 11 8 12
REMARK SMILES IDX 7 13 1 14 2 15 3 16 95 17 4 18 94 19 5 20 6 21 93 22 92 23
REMARK SMILES IDX 20 24 21 25 22 26 23 27 24 28 25 29 26 30 27 31 28 32 29 33
REMARK SMILES IDX 30 34 91 35 31 36 90 37 32 38 33 39 34 40 84 41 35 42 89 43
REMARK SMILES IDX 83 44 85 45 36 46 88 47 82 48 81 49 37 51 69 52 49 53 68 54
REMARK SMILES IDX 50 55 53 56 67 57 86 58 51 59 52 60 66 62 87 63 54 64 38 65
REMARK SMILES IDX 39 66 47 67 40 68 46 69 48 70 45 71 41 72 42 73 43 74 44 75
REMARK SMILES IDX 70 76 71 77 79 78 72 79 78 80 80 81 77 82 73 83 74 84 75 85
REMARK SMILES IDX 76 86 55 87 56 88 64 89 57 90 63 91 65 92 62 93 58 94 59 95
REMARK SMILES IDX 60 96 61 97
REMARK H PARENT 85 50 53 61
REMARK Flexibility Score: inf
ROOT
ATOM      1  C   UNL     1      -3.070   1.418   4.526  1.00  0.00     0.188 C 
ENDROOT
BRANCH   1   2
ATOM      2  C   UNL     1      -3.025   0.024   3.848  1.00  0.00     0.188 C 
BRANCH   2   3
ATOM      3  O   UNL     1      -1.980  -0.883   4.181  1.00  0.00    -0.376 OA
BRANCH   3   4
ATOM      4  C   UNL     1      -0.658  -0.379   4.171  1.00  0.00     0.202 C 
BRANCH   4   5
ATOM      5  C   UNL     1      -0.244   0.399   2.927  1.00  0.00     0.261 C 
BRANCH   5   6
ATOM      6  O   UNL     1      -0.994   1.616   2.625  1.00  0.00    -0.463 OA
BRANCH   6   7
ATOM      7  C   UNL     1      -1.573   1.691   1.404  1.00  0.00     0.305 C 
ATOM      8  O   UNL     1      -1.556   0.757   0.603  1.00  0.00    -0.252 OA
BRANCH   7   9
ATOM      9  C   UNL     1      -2.214   3.022   0.996  1.00  0.00     0.126 C 
BRANCH   9  10
ATOM     10  C   UNL     1      -2.778   4.147   1.876  1.00  0.00     0.053 C 
BRANCH  10  11
ATOM     11  C   UNL     1      -1.927   5.157   2.669  1.00  0.00     0.232 C 
BRANCH  11  12
ATOM     12  O   UNL     1      -1.136   6.149   2.017  1.00  0.00    -0.477 OA
BRANCH  12  13
ATOM     13  C   UNL     1      -0.285   5.742   1.054  1.00  0.00     0.235 A 
ATOM     14  C   UNL     1       1.873   0.935  -0.526  1.00  0.00     0.067 C 
ATOM     15  C   UNL     1       1.704   2.327   0.015  1.00  0.00     0.039 A 
ATOM     16  C   UNL     1       1.716   2.534   1.389  1.00  0.00     0.027 A 
ATOM     17  N   UNL     1       1.443   3.299  -0.872  1.00  0.00    -0.240 NA
ATOM     18  C   UNL     1       1.139   3.688   1.954  1.00  0.00    -0.034 A 
ATOM     19  C   UNL     1       0.937   4.414  -0.316  1.00  0.00     0.147 A 
ATOM     20  C   UNL     1       1.005   3.774   3.453  1.00  0.00     0.045 C 
ATOM     21  C   UNL     1       0.625   4.629   1.028  1.00  0.00     0.078 A 
ATOM     22  S   UNL     1       0.504   5.777  -1.237  1.00  0.00    -0.012 S 
ATOM     23  N   UNL     1      -0.344   6.521  -0.025  1.00  0.00    -0.153 NA
ENDBRANCH  12  13
ENDBRANCH  11  12
ENDBRANCH  10  11
ENDBRANCH   9  10
ENDBRANCH   7   9
ENDBRANCH   6   7
ENDBRANCH   5   6
ENDBRANCH   4   5
ENDBRANCH   3   4
ENDBRANCH   2   3
ENDBRANCH   1   2
BRANCH   1  24
ATOM     24  O   UNL     1      -1.910   1.815   5.245  1.00  0.00    -0.377 OA
BRANCH  24  25
ATOM     25  C   UNL     1      -1.974   1.602   6.659  1.00  0.00     0.188 C 
BRANCH  25  26
ATOM     26  C   UNL     1      -2.420   0.196   7.139  1.00  0.00     0.188 C 
BRANCH  26  27
ATOM     27  O   UNL     1      -3.514  -0.360   6.420  1.00  0.00    -0.376 OA
BRANCH  27  28
ATOM     28  C   UNL     1      -4.869  -0.341   6.839  1.00  0.00     0.202 C 
BRANCH  28  29
ATOM     29  C   UNL     1      -5.567   1.004   7.053  1.00  0.00     0.261 C 
BRANCH  29  30
ATOM     30  O   UNL     1      -4.758   1.941   7.726  1.00  0.00    -0.460 OA
BRANCH  30  31
ATOM     31  C   UNL     1      -4.383   1.520   8.951  1.00  0.00     0.338 C 
ATOM     32  O   UNL     1      -4.622   0.449   9.473  1.00  0.00    -0.246 OA
BRANCH  31  33
ATOM     33  C   UNL     1      -3.647   2.604   9.595  1.00  0.00     0.060 A 
ATOM     34  C   UNL     1      -3.014   2.227  10.780  1.00  0.00     0.016 A 
ATOM     35  C   UNL     1      -4.190   3.870   9.366  1.00  0.00     0.016 A 
ATOM     36  C   UNL     1      -3.285   2.986  11.883  1.00  0.00     0.010 A 
ATOM     37  C   UNL     1      -4.530   4.578  10.475  1.00  0.00     0.010 A 
ATOM     38  C   UNL     1      -4.145   4.073  11.717  1.00  0.00    -0.014 A 
BRANCH  38  39
ATOM     39  C   UNL     1      -4.567   4.790  12.887  1.00  0.00     0.031 A 
ATOM     40  C   UNL     1      -3.555   5.793  13.261  1.00  0.00     0.074 A 
ATOM     41  C   UNL     1      -5.793   4.611  13.406  1.00  0.00     0.049 A 
ATOM     42  N   UNL     1      -2.730   5.742  14.251  1.00  0.00    -0.248 NA
ATOM     43  C   UNL     1      -3.216   6.821  12.255  1.00  0.00     0.031 C 
ATOM     44  C   UNL     1      -6.901   3.815  12.871  1.00  0.00     0.029 A 
ATOM     45  N   UNL     1      -6.349   5.215  14.481  1.00  0.00    -0.354 N 
ATOM     46  C   UNL     1      -1.977   6.900  14.126  1.00  0.00     0.074 A 
ATOM     47  C   UNL     1      -2.083   7.306  12.756  1.00  0.00     0.031 C 
ATOM     48  C   UNL     1      -8.046   4.184  13.491  1.00  0.00     0.029 A 
ATOM     49  C   UNL     1      -7.737   5.162  14.522  1.00  0.00     0.049 A 
ATOM     50  H   UNL     1      -5.813   5.656  15.179  1.00  0.00     0.167 HD
ATOM     51  C   UNL     1      -1.656   7.639  15.218  1.00  0.00     0.034 A 
ATOM     52  C   UNL     1      -8.539   5.961  15.278  1.00  0.00     0.034 A 
ATOM     53  C   UNL     1      -1.766   6.851  16.424  1.00  0.00     0.049 A 
ATOM     54  C   UNL     1      -7.671   6.508  16.363  1.00  0.00     0.074 A 
ATOM     55  C   UNL     1      -1.198   5.659  16.836  1.00  0.00     0.029 A 
ATOM     56  N   UNL     1      -2.885   7.027  17.209  1.00  0.00    -0.354 N 
ATOM     57  N   UNL     1      -7.101   5.762  17.275  1.00  0.00    -0.248 NA
ATOM     58  C   UNL     1      -7.018   7.791  16.128  1.00  0.00     0.031 C 
ATOM     59  C   UNL     1      -2.245   4.958  17.500  1.00  0.00     0.029 A 
ATOM     60  C   UNL     1      -3.372   5.784  17.543  1.00  0.00     0.049 A 
ATOM     61  H   UNL     1      -3.268   7.891  17.484  1.00  0.00     0.167 HD
ATOM     62  C   UNL     1      -5.818   6.276  17.421  1.00  0.00     0.074 A 
ATOM     63  C   UNL     1      -5.854   7.574  16.748  1.00  0.00     0.031 C 
ATOM     64  C   UNL     1      -4.771   5.483  17.800  1.00  0.00     0.034 A 
BRANCH  51  65
ATOM     65  C   UNL     1      -1.614   9.147  15.204  1.00  0.00     0.023 A 
ATOM     66  C   UNL     1      -1.114   9.786  16.347  1.00  0.00     0.031 A 
ATOM     67  C   UNL     1      -2.241   9.991  14.251  1.00  0.00     0.131 A 
ATOM     68  C   UNL     1      -1.281  11.170  16.524  1.00  0.00     0.055 A 
ATOM     69  C   UNL     1      -2.340  11.374  14.399  1.00  0.00     0.041 A 
ATOM     70  F   UNL     1      -2.880   9.532  13.169  1.00  0.00    -0.206 F 
ATOM     71  C   UNL     1      -1.879  11.971  15.554  1.00  0.00     0.022 A 
BRANCH  68  72
ATOM     72  S   UNL     1      -0.814  11.889  18.114  1.00  0.00     0.124 S 
ATOM     73  O   UNL     1      -1.665  11.144  19.035  1.00  0.00    -0.237 OA
ATOM     74  O   UNL     1       0.613  11.591  18.169  1.00  0.00    -0.237 OA
ATOM     75  O   UNL     1      -1.149  13.302  17.956  1.00  0.00    -0.744 OA
ENDBRANCH  68  72
ENDBRANCH  51  65
BRANCH  52  76
ATOM     76  C   UNL     1      -9.862   6.548  14.893  1.00  0.00     0.023 A 
ATOM     77  C   UNL     1     -10.691   7.218  15.821  1.00  0.00     0.031 A 
ATOM     78  C   UNL     1     -10.238   6.662  13.533  1.00  0.00     0.131 A 
ATOM     79  C   UNL     1     -11.823   7.948  15.381  1.00  0.00     0.055 A 
ATOM     80  C   UNL     1     -11.364   7.372  13.105  1.00  0.00     0.041 A 
ATOM     81  F   UNL     1      -9.477   6.164  12.548  1.00  0.00    -0.206 F 
ATOM     82  C   UNL     1     -12.157   8.028  14.028  1.00  0.00     0.022 A 
BRANCH  79  83
ATOM     83  S   UNL     1     -12.826   8.914  16.558  1.00  0.00     0.124 S 
ATOM     84  O   UNL     1     -13.607   7.875  17.219  1.00  0.00    -0.237 OA
ATOM     85  O   UNL     1     -11.811   9.577  17.369  1.00  0.00    -0.237 OA
ATOM     86  O   UNL     1     -13.596   9.809  15.694  1.00  0.00    -0.744 OA
ENDBRANCH  79  83
ENDBRANCH  52  76
BRANCH  64  87
ATOM     87  C   UNL     1      -5.064   4.100  18.355  1.00  0.00     0.023 A 
ATOM     88  C   UNL     1      -5.655   3.037  17.633  1.00  0.00     0.031 A 
ATOM     89  C   UNL     1      -4.544   3.813  19.630  1.00  0.00     0.131 A 
ATOM     90  C   UNL     1      -5.699   1.742  18.198  1.00  0.00     0.055 A 
ATOM     91  C   UNL     1      -4.569   2.530  20.173  1.00  0.00     0.041 A 
ATOM     92  F   UNL     1      -3.943   4.776  20.349  1.00  0.00    -0.206 F 
ATOM     93  C   UNL     1      -5.147   1.488  19.459  1.00  0.00     0.022 A 
BRANCH  90  94
ATOM     94  S   UNL     1      -6.443   0.348  17.285  1.00  0.00     0.124 S 
ATOM     95  O   UNL     1      -7.804   0.806  17.031  1.00  0.00    -0.237 OA
ATOM     96  O   UNL     1      -5.575   0.231  16.117  1.00  0.00    -0.237 OA
ATOM     97  O   UNL     1      -6.344  -0.770  18.226  1.00  0.00    -0.744 OA
ENDBRANCH  90  94
ENDBRANCH  64  87
ENDBRANCH  38  39
ENDBRANCH  31  33
ENDBRANCH  30  31
ENDBRANCH  29  30
ENDBRANCH  28  29
ENDBRANCH  27  28
ENDBRANCH  26  27
ENDBRANCH  25  26
ENDBRANCH  24  25
ENDBRANCH   1  24
TORSDOF 27
