REMARK SMILES Cc1cc(C(=O)OCCOCCOCCOCCOC(=O)c2ccc(-c3c4nc(c(-c5cc(S(=O)(=O)[O-])ccc5F)c5ccc([nH]5)c(-c5cc(S(=O)(=O)[O-])ccc5F)c5nc(c(-c6cc(S(=O)(=O)[O-])ccc6F)c6ccc3[nH]6)C=C5)C=C4)cc2)ccc1NC(=O)c1ccc(=O)n(CCOc2ccccc2)n1
REMARK SMILES IDX 11 1 10 2 9 3 8 4 7 5 5 6 6 7 4 8 1 9 2 10 3 11 87 12 86 13
REMARK SMILES IDX 85 14 88 15 89 16 90 18 91 19 92 20 106 21 93 22 96 23 94 24
REMARK SMILES IDX 95 25 97 26 98 27 99 28 100 29 101 30 105 31 102 32 104 33
REMARK SMILES IDX 103 34 12 35 13 36 14 37 15 38 16 39 17 40 18 41 19 42 20 43
REMARK SMILES IDX 21 44 22 45 23 46 84 47 24 48 83 49 25 50 26 51 27 52 77 53
REMARK SMILES IDX 28 54 82 55 76 56 78 57 29 58 81 59 75 60 74 61 30 63 62 64
REMARK SMILES IDX 42 65 61 66 43 67 46 68 60 69 79 70 44 71 45 72 59 74 80 75
REMARK SMILES IDX 47 76 31 77 32 78 40 79 33 80 39 81 41 82 38 83 34 84 35 85
REMARK SMILES IDX 36 86 37 87 63 88 64 89 72 90 65 91 71 92 73 93 70 94 66 95
REMARK SMILES IDX 67 96 68 97 69 98 48 99 49 100 57 101 50 102 56 103 58 104
REMARK SMILES IDX 55 105 51 106 52 107 53 108 54 109
REMARK H PARENT 88 17 78 62 46 73
REMARK Flexibility Score: inf
ROOT
ATOM      1  C   UNL     1       0.537  -2.342  -2.061  1.00  0.00     0.188 C 
ENDROOT
BRANCH   1   2
ATOM      2  O   UNL     1       0.319  -3.749  -2.074  1.00  0.00    -0.376 OA
BRANCH   2   3
ATOM      3  C   UNL     1      -0.574  -4.233  -1.066  1.00  0.00     0.202 C 
BRANCH   3   4
ATOM      4  C   UNL     1      -0.059  -4.180   0.374  1.00  0.00     0.261 C 
BRANCH   4   5
ATOM      5  O   UNL     1      -0.222  -2.855   0.878  1.00  0.00    -0.460 OA
BRANCH   5   6
ATOM      6  C   UNL     1       0.810  -2.380   1.605  1.00  0.00     0.338 C 
ATOM      7  O   UNL     1       1.688  -3.015   2.152  1.00  0.00    -0.246 OA
BRANCH   6   8
ATOM      8  C   UNL     1       0.904  -0.941   1.292  1.00  0.00     0.060 A 
ATOM      9  C   UNL     1       3.746   1.193   0.055  1.00  0.00     0.046 C 
ATOM     10  C   UNL     1       2.352   0.871   0.520  1.00  0.00    -0.027 A 
ATOM     11  C   UNL     1       2.176  -0.421   1.058  1.00  0.00     0.021 A 
ATOM     12  C   UNL     1       1.222   1.685   0.298  1.00  0.00     0.044 A 
ATOM     13  C   UNL     1      -0.031   1.087   0.438  1.00  0.00     0.027 A 
ATOM     14  C   UNL     1      -0.208  -0.193   0.950  1.00  0.00     0.018 A 
BRANCH  12  15
ATOM     15  N   UNL     1       1.390   3.063   0.013  1.00  0.00    -0.320 N 
ATOM     16  C   UNL     1       0.489   4.115  -0.064  1.00  0.00     0.276 C 
ATOM     17  H   UNL     1       2.323   3.323  -0.164  1.00  0.00     0.170 HD
ATOM     18  O   UNL     1       0.875   5.275  -0.179  1.00  0.00    -0.267 OA
BRANCH  16  19
ATOM     19  C   UNL     1      -0.999   3.837  -0.118  1.00  0.00     0.149 A 
ATOM     20  C   UNL     1      -1.522   3.622  -1.482  1.00  0.00     0.042 A 
ATOM     21  N   UNL     1      -1.684   3.716   0.981  1.00  0.00    -0.164 NA
ATOM     22  C   UNL     1      -2.644   2.906  -1.563  1.00  0.00     0.076 A 
ATOM     23  N   UNL     1      -2.938   3.114   0.843  1.00  0.00    -0.226 N 
ATOM     24  C   UNL     1      -3.344   2.473  -0.330  1.00  0.00     0.266 A 
ATOM     25  O   UNL     1      -4.265   1.667  -0.397  1.00  0.00    -0.268 OA
BRANCH  23  26
ATOM     26  C   UNL     1      -3.748   2.947   2.051  1.00  0.00     0.190 C 
BRANCH  26  27
ATOM     27  C   UNL     1      -4.603   4.181   2.374  1.00  0.00     0.253 C 
BRANCH  27  28
ATOM     28  O   UNL     1      -5.817   4.243   1.595  1.00  0.00    -0.492 OA
BRANCH  28  29
ATOM     29  C   UNL     1      -5.755   5.216   0.637  1.00  0.00     0.119 A 
ATOM     30  C   UNL     1      -6.113   6.529   0.922  1.00  0.00     0.046 A 
ATOM     31  C   UNL     1      -5.398   4.867  -0.659  1.00  0.00     0.046 A 
ATOM     32  C   UNL     1      -5.992   7.506  -0.072  1.00  0.00     0.004 A 
ATOM     33  C   UNL     1      -5.203   5.844  -1.630  1.00  0.00     0.004 A 
ATOM     34  C   UNL     1      -5.493   7.171  -1.333  1.00  0.00     0.000 A 
ENDBRANCH  28  29
ENDBRANCH  27  28
ENDBRANCH  26  27
ENDBRANCH  23  26
ENDBRANCH  16  19
ENDBRANCH  12  15
ENDBRANCH   6   8
ENDBRANCH   5   6
ENDBRANCH   4   5
ENDBRANCH   3   4
ENDBRANCH   2   3
ENDBRANCH   1   2
BRANCH   1  35
ATOM     35  C   UNL     1      -0.311  -1.481  -3.002  1.00  0.00     0.188 C 
BRANCH  35  36
ATOM     36  O   UNL     1      -1.604  -1.113  -2.549  1.00  0.00    -0.377 OA
BRANCH  36  37
ATOM     37  C   UNL     1      -2.725  -1.902  -2.969  1.00  0.00     0.188 C 
BRANCH  37  38
ATOM     38  C   UNL     1      -2.751  -2.374  -4.423  1.00  0.00     0.188 C 
BRANCH  38  39
ATOM     39  O   UNL     1      -1.930  -3.549  -4.533  1.00  0.00    -0.376 OA
BRANCH  39  40
ATOM     40  C   UNL     1      -1.308  -3.736  -5.798  1.00  0.00     0.202 C 
BRANCH  40  41
ATOM     41  C   UNL     1      -2.286  -4.096  -6.921  1.00  0.00     0.261 C 
BRANCH  41  42
ATOM     42  O   UNL     1      -2.795  -5.427  -6.716  1.00  0.00    -0.460 OA
BRANCH  42  43
ATOM     43  C   UNL     1      -4.110  -5.475  -6.371  1.00  0.00     0.338 C 
ATOM     44  O   UNL     1      -5.032  -5.175  -7.108  1.00  0.00    -0.246 OA
BRANCH  43  45
ATOM     45  C   UNL     1      -4.247  -5.883  -4.948  1.00  0.00     0.060 A 
ATOM     46  C   UNL     1      -5.445  -5.648  -4.258  1.00  0.00     0.016 A 
ATOM     47  C   UNL     1      -3.123  -6.318  -4.250  1.00  0.00     0.016 A 
ATOM     48  C   UNL     1      -5.470  -5.704  -2.856  1.00  0.00     0.010 A 
ATOM     49  C   UNL     1      -3.134  -6.295  -2.869  1.00  0.00     0.010 A 
ATOM     50  C   UNL     1      -4.282  -5.930  -2.151  1.00  0.00    -0.014 A 
BRANCH  50  51
ATOM     51  C   UNL     1      -4.050  -5.548  -0.741  1.00  0.00     0.031 A 
ATOM     52  C   UNL     1      -3.320  -6.440   0.217  1.00  0.00     0.074 A 
ATOM     53  C   UNL     1      -4.130  -4.221  -0.455  1.00  0.00     0.049 A 
ATOM     54  N   UNL     1      -3.084  -6.142   1.452  1.00  0.00    -0.248 NA
ATOM     55  C   UNL     1      -2.788  -7.762  -0.120  1.00  0.00     0.031 C 
ATOM     56  C   UNL     1      -3.399  -3.494   0.586  1.00  0.00     0.029 A 
ATOM     57  N   UNL     1      -4.888  -3.215  -1.050  1.00  0.00    -0.354 N 
ATOM     58  C   UNL     1      -2.075  -6.963   1.913  1.00  0.00     0.074 A 
ATOM     59  C   UNL     1      -2.049  -8.045   0.963  1.00  0.00     0.031 C 
ATOM     60  C   UNL     1      -3.826  -2.227   0.655  1.00  0.00     0.029 A 
ATOM     61  C   UNL     1      -5.027  -2.162  -0.139  1.00  0.00     0.049 A 
ATOM     62  H   UNL     1      -5.263  -3.241  -1.959  1.00  0.00     0.167 HD
ATOM     63  C   UNL     1      -1.275  -6.534   2.940  1.00  0.00     0.034 A 
ATOM     64  C   UNL     1      -6.232  -1.757   0.356  1.00  0.00     0.034 A 
ATOM     65  C   UNL     1      -1.794  -5.304   3.574  1.00  0.00     0.049 A 
ATOM     66  C   UNL     1      -6.321  -2.084   1.839  1.00  0.00     0.074 A 
ATOM     67  C   UNL     1      -1.242  -4.085   3.931  1.00  0.00     0.029 A 
ATOM     68  N   UNL     1      -3.166  -5.175   3.816  1.00  0.00    -0.354 N 
ATOM     69  N   UNL     1      -5.513  -2.938   2.424  1.00  0.00    -0.248 NA
ATOM     70  C   UNL     1      -7.211  -1.446   2.803  1.00  0.00     0.031 C 
ATOM     71  C   UNL     1      -2.307  -3.191   4.250  1.00  0.00     0.029 A 
ATOM     72  C   UNL     1      -3.502  -3.893   4.187  1.00  0.00     0.049 A 
ATOM     73  H   UNL     1      -3.813  -5.913   3.730  1.00  0.00     0.167 HD
ATOM     74  C   UNL     1      -5.670  -2.897   3.777  1.00  0.00     0.074 A 
ATOM     75  C   UNL     1      -6.788  -1.986   3.965  1.00  0.00     0.031 C 
ATOM     76  C   UNL     1      -4.854  -3.582   4.638  1.00  0.00     0.034 A 
BRANCH  63  77
ATOM     77  C   UNL     1       0.121  -7.087   3.270  1.00  0.00     0.023 A 
ATOM     78  C   UNL     1       0.797  -6.660   4.443  1.00  0.00     0.031 A 
ATOM     79  C   UNL     1       0.890  -7.922   2.426  1.00  0.00     0.131 A 
ATOM     80  C   UNL     1       2.131  -7.045   4.720  1.00  0.00     0.055 A 
ATOM     81  C   UNL     1       2.185  -8.367   2.741  1.00  0.00     0.041 A 
ATOM     82  F   UNL     1       0.467  -8.301   1.214  1.00  0.00    -0.206 F 
ATOM     83  C   UNL     1       2.816  -7.924   3.889  1.00  0.00     0.022 A 
BRANCH  80  84
ATOM     84  S   UNL     1       3.001  -6.370   6.171  1.00  0.00     0.124 S 
ATOM     85  O   UNL     1       3.252  -4.990   5.772  1.00  0.00    -0.237 OA
ATOM     86  O   UNL     1       2.034  -6.568   7.245  1.00  0.00    -0.237 OA
ATOM     87  O   UNL     1       4.198  -7.207   6.267  1.00  0.00    -0.744 OA
ENDBRANCH  80  84
ENDBRANCH  63  77
BRANCH  64  88
ATOM     88  C   UNL     1      -7.264  -1.662  -0.716  1.00  0.00     0.023 A 
ATOM     89  C   UNL     1      -6.994  -0.660  -1.685  1.00  0.00     0.031 A 
ATOM     90  C   UNL     1      -8.000  -2.787  -1.126  1.00  0.00     0.131 A 
ATOM     91  C   UNL     1      -7.240  -0.904  -3.044  1.00  0.00     0.055 A 
ATOM     92  C   UNL     1      -8.288  -3.004  -2.484  1.00  0.00     0.041 A 
ATOM     93  F   UNL     1      -8.247  -3.790  -0.271  1.00  0.00    -0.206 F 
ATOM     94  C   UNL     1      -7.858  -2.091  -3.450  1.00  0.00     0.022 A 
BRANCH  91  95
ATOM     95  S   UNL     1      -6.500   0.182  -4.312  1.00  0.00     0.124 S 
ATOM     96  O   UNL     1      -7.612   1.069  -4.637  1.00  0.00    -0.237 OA
ATOM     97  O   UNL     1      -5.369   0.808  -3.636  1.00  0.00    -0.237 OA
ATOM     98  O   UNL     1      -6.119  -0.761  -5.363  1.00  0.00    -0.744 OA
ENDBRANCH  91  95
ENDBRANCH  64  88
BRANCH  76  99
ATOM     99  C   UNL     1      -5.235  -3.990   6.042  1.00  0.00     0.023 A 
ATOM    100  C   UNL     1      -6.557  -3.952   6.496  1.00  0.00     0.031 A 
ATOM    101  C   UNL     1      -4.301  -4.605   6.917  1.00  0.00     0.131 A 
ATOM    102  C   UNL     1      -6.901  -4.436   7.767  1.00  0.00     0.055 A 
ATOM    103  C   UNL     1      -4.659  -5.157   8.148  1.00  0.00     0.041 A 
ATOM    104  F   UNL     1      -3.003  -4.731   6.605  1.00  0.00    -0.206 F 
ATOM    105  C   UNL     1      -5.968  -5.064   8.588  1.00  0.00     0.022 A 
BRANCH 102 106
ATOM    106  S   UNL     1      -8.597  -4.177   8.333  1.00  0.00     0.124 S 
ATOM    107  O   UNL     1      -8.682  -2.719   8.355  1.00  0.00    -0.237 OA
ATOM    108  O   UNL     1      -9.380  -4.840   7.295  1.00  0.00    -0.237 OA
ATOM    109  O   UNL     1      -8.626  -4.822   9.643  1.00  0.00    -0.744 OA
ENDBRANCH 102 106
ENDBRANCH  76  99
ENDBRANCH  50  51
ENDBRANCH  43  45
ENDBRANCH  42  43
ENDBRANCH  41  42
ENDBRANCH  40  41
ENDBRANCH  39  40
ENDBRANCH  38  39
ENDBRANCH  37  38
ENDBRANCH  36  37
ENDBRANCH  35  36
ENDBRANCH   1  35
TORSDOF 29
