REMARK SMILES CSCC[C@@H](CO)n1ccnc1-c1ccccc1C(=O)OCCOCCOCCOCCOC(=O)c1ccc(-c2c3nc(c(-c4cc(S(=O)(=O)[O-])ccc4F)c4ccc([nH]4)c(-c4cc(S(=O)(=O)[O-])ccc4F)c4nc(c(-c5cc(S(=O)(=O)[O-])ccc5F)c5ccc2[nH]5)C=C4)C=C3)cc1
REMARK SMILES IDX 26 1 25 2 24 3 23 4 22 5 21 6 19 7 20 8 18 9 13 10 14 11
REMARK SMILES IDX 15 12 17 13 16 14 12 15 8 16 9 17 10 18 11 19 5 20 4 21 3 22
REMARK SMILES IDX 2 23 1 24 6 25 7 26 27 28 28 29 29 30 30 31 31 32 32 33
REMARK SMILES IDX 33 34 34 35 35 36 36 37 37 38 98 39 38 40 97 41 39 42 40 43
REMARK SMILES IDX 41 44 91 45 42 46 96 47 90 48 92 49 43 50 95 51 89 52 88 53
REMARK SMILES IDX 44 55 76 56 56 57 75 58 57 59 60 60 74 61 93 62 58 63 59 64
REMARK SMILES IDX 73 66 94 67 61 68 45 69 46 70 54 71 47 72 53 73 55 74 52 75
REMARK SMILES IDX 48 76 49 77 50 78 51 79 77 80 78 81 86 82 79 83 85 84 87 85
REMARK SMILES IDX 84 86 80 87 81 88 82 89 83 90 62 91 63 92 71 93 64 94 70 95
REMARK SMILES IDX 72 96 69 97 65 98 66 99 67 100 68 101
REMARK H PARENT 7 27 92 54 60 65
REMARK Flexibility Score: inf
ROOT
ATOM      1  C   UNL     1       4.626   2.261  -4.640  1.00  0.00     0.188 C 
ENDROOT
BRANCH   1   2
ATOM      2  C   UNL     1       5.751   1.972  -3.614  1.00  0.00     0.188 C 
BRANCH   2   3
ATOM      3  O   UNL     1       6.386   0.693  -3.570  1.00  0.00    -0.376 OA
BRANCH   3   4
ATOM      4  C   UNL     1       5.564  -0.464  -3.458  1.00  0.00     0.202 C 
BRANCH   4   5
ATOM      5  C   UNL     1       4.552  -0.421  -2.321  1.00  0.00     0.261 C 
BRANCH   5   6
ATOM      6  O   UNL     1       3.571   0.607  -2.564  1.00  0.00    -0.460 OA
BRANCH   6   7
ATOM      7  C   UNL     1       2.864   0.995  -1.494  1.00  0.00     0.338 C 
ATOM      8  O   UNL     1       2.835   0.418  -0.419  1.00  0.00    -0.246 OA
BRANCH   7   9
ATOM      9  C   UNL     1       2.303   2.345  -1.678  1.00  0.00     0.071 A 
ATOM     10  C   UNL     1       1.221   2.734  -2.486  1.00  0.00     0.032 A 
ATOM     11  C   UNL     1       0.799   4.085  -2.354  1.00  0.00     0.013 A 
ATOM     12  C   UNL     1       1.443   5.011  -1.530  1.00  0.00     0.001 A 
ATOM     13  C   UNL     1       2.970   3.296  -0.868  1.00  0.00     0.016 A 
ATOM     14  C   UNL     1       2.555   4.623  -0.807  1.00  0.00     0.001 A 
BRANCH  10  15
ATOM     15  C   UNL     1       0.517   2.006  -3.572  1.00  0.00     0.141 A 
ATOM     16  N   UNL     1      -0.033   0.731  -3.631  1.00  0.00    -0.326 N 
ATOM     17  C   UNL     1      -0.737   0.627  -4.810  1.00  0.00     0.108 A 
ATOM     18  C   UNL     1      -0.551   1.815  -5.459  1.00  0.00     0.131 A 
ATOM     19  N   UNL     1       0.205   2.649  -4.694  1.00  0.00    -0.237 NA
BRANCH  16  20
ATOM     20  C   UNL     1       0.178  -0.391  -2.715  1.00  0.00     0.115 C 
BRANCH  20  21
ATOM     21  C   UNL     1      -1.091  -1.214  -2.402  1.00  0.00     0.039 C 
BRANCH  21  22
ATOM     22  C   UNL     1      -0.865  -2.337  -1.382  1.00  0.00     0.071 C 
BRANCH  22  23
ATOM     23  S   UNL     1      -1.093  -1.836   0.360  1.00  0.00    -0.165 SA
ATOM     24  C   UNL     1       0.491  -1.028   0.689  1.00  0.00     0.085 C 
ENDBRANCH  22  23
ENDBRANCH  21  22
ENDBRANCH  20  21
BRANCH  20  25
ATOM     25  C   UNL     1       1.329  -1.256  -3.264  1.00  0.00     0.181 C 
BRANCH  25  26
ATOM     26  O   UNL     1       0.878  -2.373  -4.024  1.00  0.00    -0.394 OA
ATOM     27  H   UNL     1       0.348  -2.957  -3.457  1.00  0.00     0.210 HD
ENDBRANCH  25  26
ENDBRANCH  20  25
ENDBRANCH  16  20
ENDBRANCH  10  15
ENDBRANCH   7   9
ENDBRANCH   6   7
ENDBRANCH   5   6
ENDBRANCH   4   5
ENDBRANCH   3   4
ENDBRANCH   2   3
ENDBRANCH   1   2
BRANCH   1  28
ATOM     28  O   UNL     1       3.992   1.112  -5.198  1.00  0.00    -0.377 OA
BRANCH  28  29
ATOM     29  C   UNL     1       4.307   0.906  -6.577  1.00  0.00     0.188 C 
BRANCH  29  30
ATOM     30  C   UNL     1       5.782   0.539  -6.846  1.00  0.00     0.188 C 
BRANCH  30  31
ATOM     31  O   UNL     1       6.706   1.424  -6.212  1.00  0.00    -0.376 OA
BRANCH  31  32
ATOM     32  C   UNL     1       7.484   2.300  -7.014  1.00  0.00     0.202 C 
BRANCH  32  33
ATOM     33  C   UNL     1       6.732   3.549  -7.474  1.00  0.00     0.261 C 
BRANCH  33  34
ATOM     34  O   UNL     1       5.526   3.264  -8.171  1.00  0.00    -0.460 OA
BRANCH  34  35
ATOM     35  C   UNL     1       5.678   2.499  -9.271  1.00  0.00     0.338 C 
ATOM     36  O   UNL     1       6.702   1.970  -9.663  1.00  0.00    -0.246 OA
BRANCH  35  37
ATOM     37  C   UNL     1       4.413   2.449 -10.006  1.00  0.00     0.060 A 
ATOM     38  C   UNL     1       4.481   1.759 -11.213  1.00  0.00     0.016 A 
ATOM     39  C   UNL     1       3.404   3.380  -9.715  1.00  0.00     0.016 A 
ATOM     40  C   UNL     1       3.752   2.258 -12.257  1.00  0.00     0.010 A 
ATOM     41  C   UNL     1       2.673   3.879 -10.764  1.00  0.00     0.010 A 
ATOM     42  C   UNL     1       2.958   3.389 -12.033  1.00  0.00    -0.014 A 
BRANCH  42  43
ATOM     43  C   UNL     1       2.489   4.066 -13.213  1.00  0.00     0.031 A 
ATOM     44  C   UNL     1       1.370   3.394 -13.875  1.00  0.00     0.074 A 
ATOM     45  C   UNL     1       3.058   5.182 -13.693  1.00  0.00     0.049 A 
ATOM     46  N   UNL     1       1.405   2.713 -14.967  1.00  0.00    -0.248 NA
ATOM     47  C   UNL     1       0.100   3.335 -13.147  1.00  0.00     0.031 C 
ATOM     48  C   UNL     1       3.985   6.094 -13.022  1.00  0.00     0.029 A 
ATOM     49  N   UNL     1       2.832   5.777 -14.893  1.00  0.00    -0.354 N 
ATOM     50  C   UNL     1       0.098   2.317 -15.190  1.00  0.00     0.074 A 
ATOM     51  C   UNL     1      -0.612   2.556 -13.959  1.00  0.00     0.031 C 
ATOM     52  C   UNL     1       4.067   7.236 -13.742  1.00  0.00     0.029 A 
ATOM     53  C   UNL     1       3.312   7.072 -14.976  1.00  0.00     0.049 A 
ATOM     54  H   UNL     1       2.368   5.328 -15.636  1.00  0.00     0.167 HD
ATOM     55  C   UNL     1      -0.344   2.044 -16.444  1.00  0.00     0.034 A 
ATOM     56  C   UNL     1       3.017   7.967 -15.949  1.00  0.00     0.034 A 
ATOM     57  C   UNL     1       0.755   1.784 -17.349  1.00  0.00     0.049 A 
ATOM     58  C   UNL     1       2.607   7.201 -17.154  1.00  0.00     0.074 A 
ATOM     59  C   UNL     1       1.796   0.873 -17.363  1.00  0.00     0.029 A 
ATOM     60  N   UNL     1       1.106   2.758 -18.257  1.00  0.00    -0.354 N 
ATOM     61  N   UNL     1       3.416   6.433 -17.833  1.00  0.00    -0.248 NA
ATOM     62  C   UNL     1       1.191   6.937 -17.371  1.00  0.00     0.031 C 
ATOM     63  C   UNL     1       2.907   1.578 -17.912  1.00  0.00     0.029 A 
ATOM     64  C   UNL     1       2.477   2.866 -18.238  1.00  0.00     0.049 A 
ATOM     65  H   UNL     1       0.489   3.281 -18.818  1.00  0.00     0.167 HD
ATOM     66  C   UNL     1       2.650   5.344 -18.219  1.00  0.00     0.074 A 
ATOM     67  C   UNL     1       1.269   5.767 -18.011  1.00  0.00     0.031 C 
ATOM     68  C   UNL     1       3.208   4.110 -18.406  1.00  0.00     0.034 A 
BRANCH  55  69
ATOM     69  C   UNL     1      -1.746   2.333 -16.910  1.00  0.00     0.023 A 
ATOM     70  C   UNL     1      -2.085   1.935 -18.214  1.00  0.00     0.031 A 
ATOM     71  C   UNL     1      -2.668   3.194 -16.268  1.00  0.00     0.131 A 
ATOM     72  C   UNL     1      -3.232   2.443 -18.844  1.00  0.00     0.055 A 
ATOM     73  C   UNL     1      -3.850   3.629 -16.869  1.00  0.00     0.041 A 
ATOM     74  F   UNL     1      -2.437   3.745 -15.070  1.00  0.00    -0.206 F 
ATOM     75  C   UNL     1      -4.124   3.278 -18.178  1.00  0.00     0.022 A 
BRANCH  72  76
ATOM     76  S   UNL     1      -3.430   2.145 -20.618  1.00  0.00     0.124 S 
ATOM     77  O   UNL     1      -2.134   2.572 -21.135  1.00  0.00    -0.237 OA
ATOM     78  O   UNL     1      -3.697   0.712 -20.651  1.00  0.00    -0.237 OA
ATOM     79  O   UNL     1      -4.558   3.001 -20.979  1.00  0.00    -0.744 OA
ENDBRANCH  72  76
ENDBRANCH  55  69
BRANCH  56  80
ATOM     80  C   UNL     1       2.755   9.412 -15.742  1.00  0.00     0.023 A 
ATOM     81  C   UNL     1       2.804  10.340 -16.797  1.00  0.00     0.031 A 
ATOM     82  C   UNL     1       2.229   9.872 -14.512  1.00  0.00     0.131 A 
ATOM     83  C   UNL     1       2.351  11.662 -16.597  1.00  0.00     0.055 A 
ATOM     84  C   UNL     1       1.803  11.185 -14.313  1.00  0.00     0.041 A 
ATOM     85  F   UNL     1       2.030   9.036 -13.480  1.00  0.00    -0.206 F 
ATOM     86  C   UNL     1       1.856  12.087 -15.361  1.00  0.00     0.022 A 
BRANCH  83  87
ATOM     87  S   UNL     1       2.296  12.823 -17.996  1.00  0.00     0.124 S 
ATOM     88  O   UNL     1       3.710  13.095 -18.227  1.00  0.00    -0.237 OA
ATOM     89  O   UNL     1       1.608  12.046 -19.020  1.00  0.00    -0.237 OA
ATOM     90  O   UNL     1       1.530  13.953 -17.469  1.00  0.00    -0.744 OA
ENDBRANCH  83  87
ENDBRANCH  56  80
BRANCH  68  91
ATOM     91  C   UNL     1       4.715   4.011 -18.541  1.00  0.00     0.023 A 
ATOM     92  C   UNL     1       5.637   4.466 -17.573  1.00  0.00     0.031 A 
ATOM     93  C   UNL     1       5.228   3.317 -19.652  1.00  0.00     0.131 A 
ATOM     94  C   UNL     1       7.015   4.234 -17.745  1.00  0.00     0.055 A 
ATOM     95  C   UNL     1       6.593   3.072 -19.811  1.00  0.00     0.041 A 
ATOM     96  F   UNL     1       4.402   2.830 -20.593  1.00  0.00    -0.206 F 
ATOM     97  C   UNL     1       7.493   3.537 -18.860  1.00  0.00     0.022 A 
BRANCH  94  98
ATOM     98  S   UNL     1       8.216   4.845 -16.520  1.00  0.00     0.124 S 
ATOM     99  O   UNL     1       7.801   6.223 -16.291  1.00  0.00    -0.237 OA
ATOM    100  O   UNL     1       8.019   3.923 -15.404  1.00  0.00    -0.237 OA
ATOM    101  O   UNL     1       9.502   4.702 -17.205  1.00  0.00    -0.744 OA
ENDBRANCH  94  98
ENDBRANCH  68  91
ENDBRANCH  42  43
ENDBRANCH  35  37
ENDBRANCH  34  35
ENDBRANCH  33  34
ENDBRANCH  32  33
ENDBRANCH  31  32
ENDBRANCH  30  31
ENDBRANCH  29  30
ENDBRANCH  28  29
ENDBRANCH   1  28
TORSDOF 30
