REMARK SMILES Cc1ccc(O)c(C(=O)NCc2ccc(C(=O)OCCOCCOCCOCCOC(=O)c3ccc(-c4c5nc(c(-c6cc(S(=O)(=O)[O-])ccc6F)c6ccc([nH]6)c(-c6cc(S(=O)(=O)[O-])ccc6F)c6nc(c(-c7cc(S(=O)(=O)[O-])ccc7F)c7ccc4[nH]7)C=C6)C=C5)cc3)o2)c1
REMARK SMILES IDX 23 1 22 2 21 3 20 4 19 5 18 6 16 7 17 8 15 9 12 10 13 11
REMARK SMILES IDX 96 12 14 13 11 14 10 15 8 16 9 17 7 19 1 20 2 21 3 22 97 23
REMARK SMILES IDX 4 24 5 25 6 26 24 28 25 29 26 30 27 31 28 32 29 33 30 34
REMARK SMILES IDX 31 35 32 36 33 37 34 38 95 39 35 40 94 41 36 42 37 43 38 44
REMARK SMILES IDX 88 45 39 46 93 47 87 48 89 49 40 50 92 51 86 52 85 53 41 55
REMARK SMILES IDX 73 56 53 57 72 58 54 59 57 60 71 61 90 62 55 63 56 64 70 66
REMARK SMILES IDX 91 67 58 68 42 69 43 70 51 71 44 72 50 73 52 74 49 75 45 76
REMARK SMILES IDX 46 77 47 78 48 79 74 80 75 81 83 82 76 83 82 84 84 85 81 86
REMARK SMILES IDX 77 87 78 88 79 89 80 90 59 91 60 92 68 93 61 94 67 95 69 96
REMARK SMILES IDX 66 97 62 98 63 99 64 100 65 101
REMARK H PARENT 10 18 6 27 89 54 57 65
REMARK Flexibility Score: inf
ROOT
ATOM      1  C   UNL     1       0.169  -7.427   4.005  1.00  0.00     0.188 C 
ENDROOT
BRANCH   1   2
ATOM      2  C   UNL     1       0.257  -8.393   2.805  1.00  0.00     0.188 C 
BRANCH   2   3
ATOM      3  O   UNL     1       1.140  -9.514   2.742  1.00  0.00    -0.376 OA
BRANCH   3   4
ATOM      4  C   UNL     1       1.951  -9.875   3.847  1.00  0.00     0.202 C 
BRANCH   4   5
ATOM      5  C   UNL     1       3.254  -9.075   3.999  1.00  0.00     0.261 C 
BRANCH   5   6
ATOM      6  O   UNL     1       3.147  -7.696   3.627  1.00  0.00    -0.457 OA
BRANCH   6   7
ATOM      7  C   UNL     1       3.377  -7.410   2.313  1.00  0.00     0.374 C 
ATOM      8  O   UNL     1       3.819  -8.196   1.482  1.00  0.00    -0.242 OA
BRANCH   7   9
ATOM      9  C   UNL     1       2.904  -6.071   2.045  1.00  0.00     0.211 A 
ATOM     10  C   UNL     1       1.783  -4.573   0.871  1.00  0.00     0.124 A 
ATOM     11  C   UNL     1       2.016  -4.008   2.110  1.00  0.00     0.048 A 
ATOM     12  O   UNL     1       2.366  -5.805   0.813  1.00  0.00    -0.452 OA
ATOM     13  C   UNL     1       2.748  -4.961   2.856  1.00  0.00     0.058 A 
BRANCH  10  14
ATOM     14  C   UNL     1       1.009  -4.160  -0.329  1.00  0.00     0.191 C 
BRANCH  14  15
ATOM     15  N   UNL     1      -0.326  -3.778   0.087  1.00  0.00    -0.345 N 
ATOM     16  C   UNL     1      -0.968  -2.579   0.230  1.00  0.00     0.255 C 
ATOM     17  O   UNL     1      -2.176  -2.619   0.487  1.00  0.00    -0.269 OA
ATOM     18  H   UNL     1      -0.894  -4.549   0.317  1.00  0.00     0.164 HD
BRANCH  16  19
ATOM     19  C   UNL     1      -0.335  -1.237   0.077  1.00  0.00     0.081 A 
ATOM     20  C   UNL     1       3.065   0.502   0.199  1.00  0.00     0.044 C 
ATOM     21  C   UNL     1       1.586   0.283   0.063  1.00  0.00    -0.050 A 
ATOM     22  C   UNL     1       0.734   1.367  -0.160  1.00  0.00     0.007 A 
ATOM     23  C   UNL     1       1.040  -1.004   0.203  1.00  0.00     0.021 A 
ATOM     24  C   UNL     1      -0.640   1.165  -0.256  1.00  0.00     0.047 A 
ATOM     25  C   UNL     1      -1.167  -0.121  -0.136  1.00  0.00     0.128 A 
BRANCH  25  26
ATOM     26  O   UNL     1      -2.535  -0.203  -0.224  1.00  0.00    -0.507 OA
ATOM     27  H   UNL     1      -3.042   0.572  -0.366  1.00  0.00     0.293 HD
ENDBRANCH  25  26
ENDBRANCH  16  19
ENDBRANCH  14  15
ENDBRANCH  10  14
ENDBRANCH   7   9
ENDBRANCH   6   7
ENDBRANCH   5   6
ENDBRANCH   4   5
ENDBRANCH   3   4
ENDBRANCH   2   3
ENDBRANCH   1   2
BRANCH   1  28
ATOM     28  O   UNL     1       0.542  -7.981   5.255  1.00  0.00    -0.377 OA
BRANCH  28  29
ATOM     29  C   UNL     1      -0.536  -8.269   6.138  1.00  0.00     0.188 C 
BRANCH  29  30
ATOM     30  C   UNL     1      -1.533  -9.298   5.593  1.00  0.00     0.188 C 
BRANCH  30  31
ATOM     31  O   UNL     1      -2.371  -8.736   4.577  1.00  0.00    -0.376 OA
BRANCH  31  32
ATOM     32  C   UNL     1      -3.719  -8.485   4.979  1.00  0.00     0.202 C 
BRANCH  32  33
ATOM     33  C   UNL     1      -3.900  -7.134   5.685  1.00  0.00     0.261 C 
BRANCH  33  34
ATOM     34  O   UNL     1      -3.237  -7.027   6.956  1.00  0.00    -0.460 OA
BRANCH  34  35
ATOM     35  C   UNL     1      -3.631  -7.892   7.919  1.00  0.00     0.338 C 
ATOM     36  O   UNL     1      -4.532  -8.707   7.839  1.00  0.00    -0.246 OA
BRANCH  35  37
ATOM     37  C   UNL     1      -2.658  -7.824   9.028  1.00  0.00     0.060 A 
ATOM     38  C   UNL     1      -2.112  -9.020   9.508  1.00  0.00     0.016 A 
ATOM     39  C   UNL     1      -2.302  -6.600   9.603  1.00  0.00     0.016 A 
ATOM     40  C   UNL     1      -1.240  -8.999  10.597  1.00  0.00     0.010 A 
ATOM     41  C   UNL     1      -1.442  -6.582  10.703  1.00  0.00     0.010 A 
ATOM     42  C   UNL     1      -0.935  -7.784  11.225  1.00  0.00    -0.014 A 
BRANCH  42  43
ATOM     43  C   UNL     1      -0.260  -7.786  12.545  1.00  0.00     0.031 A 
ATOM     44  C   UNL     1      -1.117  -7.796  13.781  1.00  0.00     0.074 A 
ATOM     45  C   UNL     1       1.081  -7.779  12.646  1.00  0.00     0.049 A 
ATOM     46  N   UNL     1      -0.765  -7.769  15.040  1.00  0.00    -0.248 NA
ATOM     47  C   UNL     1      -2.572  -7.836  13.561  1.00  0.00     0.031 C 
ATOM     48  C   UNL     1       2.014  -7.794  11.521  1.00  0.00     0.029 A 
ATOM     49  N   UNL     1       1.888  -7.747  13.755  1.00  0.00    -0.354 N 
ATOM     50  C   UNL     1      -1.952  -7.799  15.764  1.00  0.00     0.074 A 
ATOM     51  C   UNL     1      -3.033  -7.804  14.801  1.00  0.00     0.031 C 
ATOM     52  C   UNL     1       3.271  -7.752  12.000  1.00  0.00     0.029 A 
ATOM     53  C   UNL     1       3.229  -7.683  13.460  1.00  0.00     0.049 A 
ATOM     54  H   UNL     1       1.540  -7.768  14.676  1.00  0.00     0.167 HD
ATOM     55  C   UNL     1      -2.127  -7.829  17.108  1.00  0.00     0.034 A 
ATOM     56  C   UNL     1       4.295  -7.559  14.276  1.00  0.00     0.034 A 
ATOM     57  C   UNL     1      -1.045  -7.788  18.058  1.00  0.00     0.049 A 
ATOM     58  C   UNL     1       4.075  -7.507  15.770  1.00  0.00     0.074 A 
ATOM     59  C   UNL     1      -1.106  -7.816  19.440  1.00  0.00     0.029 A 
ATOM     60  N   UNL     1       0.299  -7.690  17.721  1.00  0.00    -0.354 N 
ATOM     61  N   UNL     1       2.948  -7.560  16.442  1.00  0.00    -0.248 NA
ATOM     62  C   UNL     1       5.273  -7.384  16.612  1.00  0.00     0.031 C 
ATOM     63  C   UNL     1       0.195  -7.674  19.939  1.00  0.00     0.029 A 
ATOM     64  C   UNL     1       1.074  -7.625  18.869  1.00  0.00     0.049 A 
ATOM     65  H   UNL     1       0.650  -7.670  16.802  1.00  0.00     0.167 HD
ATOM     66  C   UNL     1       3.306  -7.506  17.788  1.00  0.00     0.074 A 
ATOM     67  C   UNL     1       4.752  -7.423  17.830  1.00  0.00     0.031 C 
ATOM     68  C   UNL     1       2.514  -7.530  18.890  1.00  0.00     0.034 A 
BRANCH  55  69
ATOM     69  C   UNL     1      -3.548  -7.857  17.610  1.00  0.00     0.023 A 
ATOM     70  C   UNL     1      -4.390  -8.958  17.369  1.00  0.00     0.031 A 
ATOM     71  C   UNL     1      -4.085  -6.750  18.287  1.00  0.00     0.131 A 
ATOM     72  C   UNL     1      -5.742  -8.896  17.736  1.00  0.00     0.055 A 
ATOM     73  C   UNL     1      -5.413  -6.725  18.716  1.00  0.00     0.041 A 
ATOM     74  F   UNL     1      -3.333  -5.662  18.522  1.00  0.00    -0.206 F 
ATOM     75  C   UNL     1      -6.255  -7.796  18.428  1.00  0.00     0.022 A 
BRANCH  72  76
ATOM     76  S   UNL     1      -6.854 -10.214  17.173  1.00  0.00     0.124 S 
ATOM     77  O   UNL     1      -6.707 -10.124  15.722  1.00  0.00    -0.237 OA
ATOM     78  O   UNL     1      -6.283 -11.399  17.801  1.00  0.00    -0.237 OA
ATOM     79  O   UNL     1      -8.160  -9.803  17.686  1.00  0.00    -0.744 OA
ENDBRANCH  72  76
ENDBRANCH  55  69
BRANCH  56  80
ATOM     80  C   UNL     1       5.668  -7.433  13.713  1.00  0.00     0.023 A 
ATOM     81  C   UNL     1       6.637  -8.426  13.927  1.00  0.00     0.031 A 
ATOM     82  C   UNL     1       6.047  -6.282  13.000  1.00  0.00     0.131 A 
ATOM     83  C   UNL     1       7.950  -8.230  13.470  1.00  0.00     0.055 A 
ATOM     84  C   UNL     1       7.343  -6.111  12.510  1.00  0.00     0.041 A 
ATOM     85  F   UNL     1       5.157  -5.304  12.768  1.00  0.00    -0.206 F 
ATOM     86  C   UNL     1       8.307  -7.084  12.755  1.00  0.00     0.022 A 
BRANCH  83  87
ATOM     87  S   UNL     1       9.210  -9.466  13.888  1.00  0.00     0.124 S 
ATOM     88  O   UNL     1       9.170  -9.451  15.346  1.00  0.00    -0.237 OA
ATOM     89  O   UNL     1       8.682 -10.664  13.243  1.00  0.00    -0.237 OA
ATOM     90  O   UNL     1      10.429  -8.926  13.290  1.00  0.00    -0.744 OA
ENDBRANCH  83  87
ENDBRANCH  56  80
BRANCH  68  91
ATOM     91  C   UNL     1       3.205  -7.512  20.230  1.00  0.00     0.023 A 
ATOM     92  C   UNL     1       3.873  -6.369  20.702  1.00  0.00     0.031 A 
ATOM     93  C   UNL     1       3.195  -8.659  21.043  1.00  0.00     0.131 A 
ATOM     94  C   UNL     1       4.545  -6.414  21.934  1.00  0.00     0.055 A 
ATOM     95  C   UNL     1       3.822  -8.682  22.289  1.00  0.00     0.041 A 
ATOM     96  F   UNL     1       2.570  -9.777  20.639  1.00  0.00    -0.206 F 
ATOM     97  C   UNL     1       4.512  -7.558  22.735  1.00  0.00     0.022 A 
BRANCH  94  98
ATOM     98  S   UNL     1       5.527  -4.977  22.444  1.00  0.00     0.124 S 
ATOM     99  O   UNL     1       6.487  -4.860  21.351  1.00  0.00    -0.237 OA
ATOM    100  O   UNL     1       4.521  -3.923  22.525  1.00  0.00    -0.237 OA
ATOM    101  O   UNL     1       6.096  -5.388  23.727  1.00  0.00    -0.744 OA
ENDBRANCH  94  98
ENDBRANCH  68  91
ENDBRANCH  42  43
ENDBRANCH  35  37
ENDBRANCH  34  35
ENDBRANCH  33  34
ENDBRANCH  32  33
ENDBRANCH  31  32
ENDBRANCH  30  31
ENDBRANCH  29  30
ENDBRANCH  28  29
ENDBRANCH   1  28
TORSDOF 27
