REMARK SMILES C[C@H]1Oc2ccccc2C=C1/C=C/C(=O)N[C@H](C(=O)OCCOCCOCCOCCOC(=O)c1ccc(-c2c3nc(c(-c4cc(S(=O)(=O)[O-])ccc4F)c4ccc([nH]4)c(-c4cc(S(=O)(=O)[O-])ccc4F)c4nc(c(-c5cc(S(=O)(=O)[O-])ccc5F)c5ccc2[nH]5)C=C4)C=C3)cc1)c1ccccc1
REMARK SMILES IDX 26 1 25 2 24 3 23 4 22 5 21 6 20 7 18 8 19 9 17 10 16 11
REMARK SMILES IDX 14 12 15 13 13 15 12 16 11 17 1 18 2 19 3 20 4 21 10 22 5 23
REMARK SMILES IDX 9 24 6 25 8 26 7 27 98 28 99 29 103 30 100 31 102 32 101 33
REMARK SMILES IDX 27 34 28 35 29 36 30 37 31 38 32 39 33 40 34 41 35 42 36 43
REMARK SMILES IDX 97 44 37 45 96 46 38 47 39 48 40 49 90 50 41 51 95 52 89 53
REMARK SMILES IDX 91 54 42 55 94 56 88 57 87 58 43 60 75 61 55 62 74 63 56 64
REMARK SMILES IDX 59 65 73 66 92 67 57 68 58 69 72 71 93 72 60 73 44 74 45 75
REMARK SMILES IDX 53 76 46 77 52 78 54 79 51 80 47 81 48 82 49 83 50 84 76 85
REMARK SMILES IDX 77 86 85 87 78 88 84 89 86 90 83 91 79 92 80 93 81 94 82 95
REMARK SMILES IDX 61 96 62 97 70 98 63 99 69 100 71 101 68 102 64 103 65 104
REMARK SMILES IDX 66 105 67 106
REMARK H PARENT 16 14 91 59 59 70
REMARK Flexibility Score: inf
ROOT
ATOM      1  O   UNL     1       3.910  -5.826  -2.295  1.00  0.00    -0.377 OA
ENDROOT
BRANCH   1   2
ATOM      2  C   UNL     1       4.273  -4.729  -3.118  1.00  0.00     0.188 C 
BRANCH   2   3
ATOM      3  C   UNL     1       5.102  -4.857  -4.414  1.00  0.00     0.188 C 
BRANCH   3   4
ATOM      4  O   UNL     1       6.431  -5.369  -4.425  1.00  0.00    -0.376 OA
BRANCH   4   5
ATOM      5  C   UNL     1       7.428  -4.874  -3.538  1.00  0.00     0.202 C 
BRANCH   5   6
ATOM      6  C   UNL     1       7.665  -3.359  -3.466  1.00  0.00     0.261 C 
BRANCH   6   7
ATOM      7  O   UNL     1       6.468  -2.687  -3.061  1.00  0.00    -0.461 OA
BRANCH   7   8
ATOM      8  C   UNL     1       6.438  -1.334  -3.193  1.00  0.00     0.333 C 
ATOM      9  O   UNL     1       7.375  -0.648  -3.579  1.00  0.00    -0.249 OA
BRANCH   8  10
ATOM     10  C   UNL     1       5.019  -0.826  -2.833  1.00  0.00     0.223 C 
BRANCH  10  11
ATOM     11  N   UNL     1       5.082   0.277  -1.881  1.00  0.00    -0.335 N 
ATOM     12  C   UNL     1       5.439   0.266  -0.566  1.00  0.00     0.244 C 
ATOM     13  O   UNL     1       5.417   1.312   0.075  1.00  0.00    -0.270 OA
ATOM     14  H   UNL     1       4.828   1.158  -2.240  1.00  0.00     0.165 HD
BRANCH  12  15
ATOM     15  C   UNL     1       5.951  -0.976   0.059  1.00  0.00     0.071 C 
ATOM     16  C   UNL     1       5.148  -1.888   0.633  1.00  0.00     0.013 C 
BRANCH  16  17
ATOM     17  C   UNL     1       5.649  -3.103   1.273  1.00  0.00    -0.007 C 
ATOM     18  C   UNL     1       6.303  -4.751  -0.415  1.00  0.00     0.058 C 
ATOM     19  C   UNL     1       5.255  -4.418   0.629  1.00  0.00     0.200 C 
ATOM     20  O   UNL     1       5.203  -5.520   1.543  1.00  0.00    -0.485 OA
ATOM     21  C   UNL     1       6.379  -5.622   2.245  1.00  0.00     0.127 A 
ATOM     22  C   UNL     1       6.521  -3.142   2.299  1.00  0.00     0.019 C 
ATOM     23  C   UNL     1       6.849  -6.903   2.514  1.00  0.00     0.047 A 
ATOM     24  C   UNL     1       7.057  -4.467   2.672  1.00  0.00     0.017 A 
ATOM     25  C   UNL     1       8.007  -7.055   3.261  1.00  0.00     0.004 A 
ATOM     26  C   UNL     1       8.217  -4.633   3.428  1.00  0.00     0.012 A 
ATOM     27  C   UNL     1       8.681  -5.924   3.726  1.00  0.00     0.001 A 
ENDBRANCH  16  17
ENDBRANCH  12  15
ENDBRANCH  10  11
BRANCH  10  28
ATOM     28  C   UNL     1       4.308  -0.469  -4.144  1.00  0.00    -0.014 A 
ATOM     29  C   UNL     1       3.533  -1.441  -4.802  1.00  0.00     0.006 A 
ATOM     30  C   UNL     1       4.545   0.738  -4.821  1.00  0.00     0.006 A 
ATOM     31  C   UNL     1       3.080  -1.254  -6.111  1.00  0.00     0.000 A 
ATOM     32  C   UNL     1       4.060   0.942  -6.118  1.00  0.00     0.000 A 
ATOM     33  C   UNL     1       3.352  -0.063  -6.773  1.00  0.00     0.000 A 
ENDBRANCH  10  28
ENDBRANCH   8  10
ENDBRANCH   7   8
ENDBRANCH   6   7
ENDBRANCH   5   6
ENDBRANCH   4   5
ENDBRANCH   3   4
ENDBRANCH   2   3
ENDBRANCH   1   2
BRANCH   1  34
ATOM     34  C   UNL     1       4.623  -7.039  -2.392  1.00  0.00     0.188 C 
BRANCH  34  35
ATOM     35  C   UNL     1       3.793  -8.202  -2.939  1.00  0.00     0.188 C 
BRANCH  35  36
ATOM     36  O   UNL     1       2.853  -7.910  -3.964  1.00  0.00    -0.376 OA
BRANCH  36  37
ATOM     37  C   UNL     1       1.738  -7.083  -3.630  1.00  0.00     0.202 C 
BRANCH  37  38
ATOM     38  C   UNL     1       0.886  -7.410  -2.390  1.00  0.00     0.261 C 
BRANCH  38  39
ATOM     39  O   UNL     1       1.527  -7.172  -1.116  1.00  0.00    -0.460 OA
BRANCH  39  40
ATOM     40  C   UNL     1       1.629  -8.261  -0.308  1.00  0.00     0.338 C 
ATOM     41  O   UNL     1       1.325  -9.404  -0.605  1.00  0.00    -0.246 OA
BRANCH  40  42
ATOM     42  C   UNL     1       2.240  -7.933   1.002  1.00  0.00     0.060 A 
ATOM     43  C   UNL     1       1.673  -6.985   1.859  1.00  0.00     0.016 A 
ATOM     44  C   UNL     1       3.299  -8.727   1.452  1.00  0.00     0.016 A 
ATOM     45  C   UNL     1       2.155  -6.851   3.175  1.00  0.00     0.010 A 
ATOM     46  C   UNL     1       3.785  -8.578   2.758  1.00  0.00     0.010 A 
ATOM     47  C   UNL     1       3.219  -7.642   3.642  1.00  0.00    -0.014 A 
BRANCH  47  48
ATOM     48  C   UNL     1       3.627  -7.636   5.081  1.00  0.00     0.031 A 
ATOM     49  C   UNL     1       4.508  -6.579   5.689  1.00  0.00     0.074 A 
ATOM     50  C   UNL     1       3.175  -8.620   5.879  1.00  0.00     0.049 A 
ATOM     51  N   UNL     1       5.160  -6.579   6.827  1.00  0.00    -0.248 NA
ATOM     52  C   UNL     1       4.693  -5.364   4.904  1.00  0.00     0.031 C 
ATOM     53  C   UNL     1       2.251  -9.670   5.463  1.00  0.00     0.029 A 
ATOM     54  N   UNL     1       3.405  -8.871   7.207  1.00  0.00    -0.354 N 
ATOM     55  C   UNL     1       5.958  -5.432   6.817  1.00  0.00     0.074 A 
ATOM     56  C   UNL     1       5.635  -4.737   5.597  1.00  0.00     0.031 C 
ATOM     57  C   UNL     1       1.959 -10.433   6.527  1.00  0.00     0.029 A 
ATOM     58  C   UNL     1       2.700  -9.945   7.690  1.00  0.00     0.049 A 
ATOM     59  H   UNL     1       4.017  -8.334   7.761  1.00  0.00     0.167 HD
ATOM     60  C   UNL     1       6.871  -5.020   7.737  1.00  0.00     0.034 A 
ATOM     61  C   UNL     1       2.636 -10.463   8.934  1.00  0.00     0.034 A 
ATOM     62  C   UNL     1       6.936  -5.580   9.070  1.00  0.00     0.049 A 
ATOM     63  C   UNL     1       3.410  -9.807  10.047  1.00  0.00     0.074 A 
ATOM     64  C   UNL     1       7.711  -5.166  10.142  1.00  0.00     0.029 A 
ATOM     65  N   UNL     1       6.119  -6.595   9.545  1.00  0.00    -0.354 N 
ATOM     66  N   UNL     1       4.262  -8.811   9.983  1.00  0.00    -0.248 NA
ATOM     67  C   UNL     1       3.196 -10.320  11.407  1.00  0.00     0.031 C 
ATOM     68  C   UNL     1       7.365  -5.928  11.259  1.00  0.00     0.029 A 
ATOM     69  C   UNL     1       6.333  -6.779  10.901  1.00  0.00     0.049 A 
ATOM     70  H   UNL     1       5.481  -7.109   8.999  1.00  0.00     0.167 HD
ATOM     71  C   UNL     1       4.673  -8.570  11.291  1.00  0.00     0.074 A 
ATOM     72  C   UNL     1       3.946  -9.497  12.131  1.00  0.00     0.031 C 
ATOM     73  C   UNL     1       5.585  -7.675  11.747  1.00  0.00     0.034 A 
BRANCH  60  74
ATOM     74  C   UNL     1       7.860  -3.906   7.416  1.00  0.00     0.023 A 
ATOM     75  C   UNL     1       9.244  -4.147   7.597  1.00  0.00     0.031 A 
ATOM     76  C   UNL     1       7.476  -2.590   7.109  1.00  0.00     0.131 A 
ATOM     77  C   UNL     1      10.169  -3.094   7.522  1.00  0.00     0.055 A 
ATOM     78  C   UNL     1       8.411  -1.562   6.945  1.00  0.00     0.041 A 
ATOM     79  F   UNL     1       6.180  -2.264   6.984  1.00  0.00    -0.206 F 
ATOM     80  C   UNL     1       9.761  -1.806   7.171  1.00  0.00     0.022 A 
BRANCH  77  81
ATOM     81  S   UNL     1      11.906  -3.318   8.007  1.00  0.00     0.124 S 
ATOM     82  O   UNL     1      12.607  -2.994   6.766  1.00  0.00    -0.237 OA
ATOM     83  O   UNL     1      12.054  -2.337   9.079  1.00  0.00    -0.237 OA
ATOM     84  O   UNL     1      11.981  -4.715   8.417  1.00  0.00    -0.744 OA
ENDBRANCH  77  81
ENDBRANCH  60  74
BRANCH  61  85
ATOM     85  C   UNL     1       1.683 -11.581   9.176  1.00  0.00     0.023 A 
ATOM     86  C   UNL     1       1.849 -12.823   8.538  1.00  0.00     0.031 A 
ATOM     87  C   UNL     1       0.501 -11.355   9.899  1.00  0.00     0.131 A 
ATOM     88  C   UNL     1       0.806 -13.758   8.565  1.00  0.00     0.055 A 
ATOM     89  C   UNL     1      -0.501 -12.321   9.990  1.00  0.00     0.041 A 
ATOM     90  F   UNL     1       0.292 -10.175  10.502  1.00  0.00    -0.206 F 
ATOM     91  C   UNL     1      -0.361 -13.521   9.300  1.00  0.00     0.022 A 
BRANCH  88  92
ATOM     92  S   UNL     1       0.852 -15.228   7.502  1.00  0.00     0.124 S 
ATOM     93  O   UNL     1       0.814 -16.310   8.480  1.00  0.00    -0.237 OA
ATOM     94  O   UNL     1      -0.359 -15.056   6.703  1.00  0.00    -0.237 OA
ATOM     95  O   UNL     1       2.104 -15.083   6.767  1.00  0.00    -0.744 OA
ENDBRANCH  88  92
ENDBRANCH  61  85
BRANCH  73  96
ATOM     96  C   UNL     1       5.873  -7.611  13.228  1.00  0.00     0.023 A 
ATOM     97  C   UNL     1       5.621  -6.426  13.948  1.00  0.00     0.031 A 
ATOM     98  C   UNL     1       6.539  -8.659  13.886  1.00  0.00     0.131 A 
ATOM     99  C   UNL     1       6.055  -6.310  15.275  1.00  0.00     0.055 A 
ATOM    100  C   UNL     1       6.934  -8.553  15.220  1.00  0.00     0.041 A 
ATOM    101  F   UNL     1       6.823  -9.800  13.238  1.00  0.00    -0.206 F 
ATOM    102  C   UNL     1       6.703  -7.370  15.917  1.00  0.00     0.022 A 
BRANCH  99 103
ATOM    103  S   UNL     1       5.869  -4.757  16.196  1.00  0.00     0.124 S 
ATOM    104  O   UNL     1       5.028  -5.171  17.318  1.00  0.00    -0.237 OA
ATOM    105  O   UNL     1       7.252  -4.436  16.541  1.00  0.00    -0.237 OA
ATOM    106  O   UNL     1       5.233  -3.854  15.243  1.00  0.00    -0.744 OA
ENDBRANCH  99 103
ENDBRANCH  73  96
ENDBRANCH  47  48
ENDBRANCH  40  42
ENDBRANCH  39  40
ENDBRANCH  38  39
ENDBRANCH  37  38
ENDBRANCH  36  37
ENDBRANCH  35  36
ENDBRANCH  34  35
ENDBRANCH   1  34
TORSDOF 27
