REMARK SMILES Cc1nn(C(C)C)cc1-c1cnccc1C(=O)OCCOCCOCCOCCOC(=O)c1ccc(-c2c3nc(c(-c4cc(S(=O)(=O)[O-])ccc4F)c4ccc([nH]4)c(-c4cc(S(=O)(=O)[O-])ccc4F)c4nc(c(-c5cc(S(=O)(=O)[O-])ccc5F)c5ccc2[nH]5)C=C4)C=C3)cc1
REMARK SMILES IDX 25 1 24 2 23 3 22 4 21 5 20 6 19 7 18 8 16 9 17 10 15 11
REMARK SMILES IDX 10 12 11 13 12 14 14 15 13 16 9 17 1 18 2 19 3 20 4 21 8 22
REMARK SMILES IDX 5 23 6 24 7 25 26 26 27 27 28 28 29 29 30 30 31 31 32 32
REMARK SMILES IDX 33 33 34 34 95 35 35 36 94 37 36 38 37 39 38 40 88 41 39 42
REMARK SMILES IDX 93 43 87 44 89 45 40 46 92 47 86 48 85 49 41 51 73 52 53 53
REMARK SMILES IDX 72 54 54 55 57 56 71 57 90 58 55 59 56 60 70 62 91 63 58 64
REMARK SMILES IDX 42 65 43 66 51 67 44 68 50 69 52 70 49 71 45 72 46 73 47 74
REMARK SMILES IDX 48 75 74 76 75 77 83 78 76 79 82 80 84 81 81 82 77 83 78 84
REMARK SMILES IDX 79 85 80 86 59 87 60 88 68 89 61 90 67 91 69 92 66 93 62 94
REMARK SMILES IDX 63 95 64 96 65 97
REMARK H PARENT 89 50 57 61
REMARK Flexibility Score: inf
ROOT
ATOM      1  C   UNL     1      -3.918  -1.394   0.113  1.00  0.00     0.188 C 
ENDROOT
BRANCH   1   2
ATOM      2  O   UNL     1      -3.116  -0.727  -0.858  1.00  0.00    -0.377 OA
BRANCH   2   3
ATOM      3  C   UNL     1      -3.290   0.672  -0.980  1.00  0.00     0.188 C 
BRANCH   3   4
ATOM      4  C   UNL     1      -4.296   1.100  -2.078  1.00  0.00     0.188 C 
BRANCH   4   5
ATOM      5  O   UNL     1      -5.214   0.183  -2.664  1.00  0.00    -0.376 OA
BRANCH   5   6
ATOM      6  C   UNL     1      -4.812  -1.103  -3.106  1.00  0.00     0.202 C 
BRANCH   6   7
ATOM      7  C   UNL     1      -3.491  -1.340  -3.847  1.00  0.00     0.261 C 
BRANCH   7   8
ATOM      8  O   UNL     1      -2.430  -0.458  -3.488  1.00  0.00    -0.460 OA
BRANCH   8   9
ATOM      9  C   UNL     1      -2.071   0.472  -4.392  1.00  0.00     0.338 C 
ATOM     10  O   UNL     1      -2.546   0.630  -5.505  1.00  0.00    -0.246 OA
BRANCH   9  11
ATOM     11  C   UNL     1      -1.133   1.438  -3.773  1.00  0.00     0.071 A 
ATOM     12  C   UNL     1      -0.011   1.098  -3.002  1.00  0.00     0.018 A 
ATOM     13  C   UNL     1       0.742   2.171  -2.526  1.00  0.00     0.120 A 
ATOM     14  N   UNL     1       0.429   3.481  -2.689  1.00  0.00    -0.264 NA
ATOM     15  C   UNL     1      -1.484   2.787  -3.951  1.00  0.00     0.036 A 
ATOM     16  C   UNL     1      -0.693   3.759  -3.377  1.00  0.00     0.112 A 
BRANCH  12  17
ATOM     17  C   UNL     1       0.368  -0.252  -2.617  1.00  0.00     0.025 A 
ATOM     18  C   UNL     1       0.997  -0.086  -0.057  1.00  0.00     0.069 C 
ATOM     19  C   UNL     1       0.789  -0.778  -1.356  1.00  0.00     0.067 A 
ATOM     20  N   UNL     1       1.001  -2.098  -1.419  1.00  0.00    -0.177 NA
ATOM     21  N   UNL     1       0.629  -2.432  -2.664  1.00  0.00    -0.269 N 
ATOM     22  C   UNL     1       0.338  -1.353  -3.448  1.00  0.00     0.118 A 
BRANCH  21  23
ATOM     23  C   UNL     1       0.578  -3.834  -3.061  1.00  0.00     0.101 C 
ATOM     24  C   UNL     1       1.978  -4.440  -3.097  1.00  0.00     0.033 C 
ATOM     25  C   UNL     1      -0.363  -4.646  -2.169  1.00  0.00     0.033 C 
ENDBRANCH  21  23
ENDBRANCH  12  17
ENDBRANCH   9  11
ENDBRANCH   8   9
ENDBRANCH   7   8
ENDBRANCH   6   7
ENDBRANCH   5   6
ENDBRANCH   4   5
ENDBRANCH   3   4
ENDBRANCH   2   3
ENDBRANCH   1   2
BRANCH   1  26
ATOM     26  C   UNL     1      -5.393  -0.956   0.315  1.00  0.00     0.188 C 
BRANCH  26  27
ATOM     27  O   UNL     1      -5.629   0.441   0.188  1.00  0.00    -0.376 OA
BRANCH  27  28
ATOM     28  C   UNL     1      -5.911   1.256   1.313  1.00  0.00     0.202 C 
BRANCH  28  29
ATOM     29  C   UNL     1      -4.786   1.470   2.319  1.00  0.00     0.261 C 
BRANCH  29  30
ATOM     30  O   UNL     1      -4.076   0.289   2.632  1.00  0.00    -0.460 OA
BRANCH  30  31
ATOM     31  C   UNL     1      -4.781  -0.622   3.322  1.00  0.00     0.338 C 
ATOM     32  O   UNL     1      -6.000  -0.648   3.481  1.00  0.00    -0.246 OA
BRANCH  31  33
ATOM     33  C   UNL     1      -3.842  -1.517   3.983  1.00  0.00     0.060 A 
ATOM     34  C   UNL     1      -4.409  -2.533   4.749  1.00  0.00     0.016 A 
ATOM     35  C   UNL     1      -2.518  -1.080   4.154  1.00  0.00     0.016 A 
ATOM     36  C   UNL     1      -3.744  -2.903   5.889  1.00  0.00     0.010 A 
ATOM     37  C   UNL     1      -1.873  -1.427   5.308  1.00  0.00     0.010 A 
ATOM     38  C   UNL     1      -2.544  -2.254   6.201  1.00  0.00    -0.014 A 
BRANCH  38  39
ATOM     39  C   UNL     1      -1.923  -2.565   7.463  1.00  0.00     0.031 A 
ATOM     40  C   UNL     1      -1.285  -3.891   7.423  1.00  0.00     0.074 A 
ATOM     41  C   UNL     1      -1.882  -1.701   8.492  1.00  0.00     0.049 A 
ATOM     42  N   UNL     1      -1.727  -4.979   7.954  1.00  0.00    -0.248 NA
ATOM     43  C   UNL     1      -0.185  -4.090   6.464  1.00  0.00     0.031 C 
ATOM     44  C   UNL     1      -2.273  -0.291   8.511  1.00  0.00     0.029 A 
ATOM     45  N   UNL     1      -1.375  -1.895   9.736  1.00  0.00    -0.354 N 
ATOM     46  C   UNL     1      -0.782  -5.940   7.629  1.00  0.00     0.074 A 
ATOM     47  C   UNL     1      -0.054  -5.415   6.509  1.00  0.00     0.031 C 
ATOM     48  C   UNL     1      -1.774   0.291   9.627  1.00  0.00     0.029 A 
ATOM     49  C   UNL     1      -1.138  -0.726  10.451  1.00  0.00     0.049 A 
ATOM     50  H   UNL     1      -1.190  -2.789  10.102  1.00  0.00     0.167 HD
ATOM     51  C   UNL     1      -0.462  -6.911   8.524  1.00  0.00     0.034 A 
ATOM     52  C   UNL     1      -0.400  -0.613  11.590  1.00  0.00     0.034 A 
ATOM     53  C   UNL     1      -1.506  -7.049   9.523  1.00  0.00     0.049 A 
ATOM     54  C   UNL     1      -0.348  -1.968  12.202  1.00  0.00     0.074 A 
ATOM     55  C   UNL     1      -2.865  -7.298   9.465  1.00  0.00     0.029 A 
ATOM     56  N   UNL     1      -1.281  -6.521  10.777  1.00  0.00    -0.354 N 
ATOM     57  N   UNL     1      -1.400  -2.575  12.681  1.00  0.00    -0.248 NA
ATOM     58  C   UNL     1       0.748  -2.851  11.822  1.00  0.00     0.031 C 
ATOM     59  C   UNL     1      -3.440  -6.468  10.472  1.00  0.00     0.029 A 
ATOM     60  C   UNL     1      -2.405  -5.824  11.152  1.00  0.00     0.049 A 
ATOM     61  H   UNL     1      -0.460  -6.625  11.310  1.00  0.00     0.167 HD
ATOM     62  C   UNL     1      -1.284  -3.891  12.257  1.00  0.00     0.074 A 
ATOM     63  C   UNL     1       0.105  -4.024  11.819  1.00  0.00     0.031 C 
ATOM     64  C   UNL     1      -2.390  -4.659  12.022  1.00  0.00     0.034 A 
BRANCH  51  65
ATOM     65  C   UNL     1       0.954  -7.399   8.748  1.00  0.00     0.023 A 
ATOM     66  C   UNL     1       1.127  -8.356   9.761  1.00  0.00     0.031 A 
ATOM     67  C   UNL     1       2.142  -6.795   8.267  1.00  0.00     0.131 A 
ATOM     68  C   UNL     1       2.386  -8.567  10.343  1.00  0.00     0.055 A 
ATOM     69  C   UNL     1       3.403  -7.061   8.805  1.00  0.00     0.041 A 
ATOM     70  F   UNL     1       2.164  -5.857   7.316  1.00  0.00    -0.206 F 
ATOM     71  C   UNL     1       3.527  -7.921   9.877  1.00  0.00     0.022 A 
BRANCH  68  72
ATOM     72  S   UNL     1       2.460  -9.556  11.853  1.00  0.00     0.124 S 
ATOM     73  O   UNL     1       1.502  -8.856  12.702  1.00  0.00    -0.237 OA
ATOM     74  O   UNL     1       2.053 -10.870  11.366  1.00  0.00    -0.237 OA
ATOM     75  O   UNL     1       3.858  -9.446  12.259  1.00  0.00    -0.744 OA
ENDBRANCH  68  72
ENDBRANCH  51  65
BRANCH  52  76
ATOM     76  C   UNL     1       0.528   0.496  11.960  1.00  0.00     0.023 A 
ATOM     77  C   UNL     1       1.012   0.688  13.274  1.00  0.00     0.031 A 
ATOM     78  C   UNL     1       1.153   1.255  10.944  1.00  0.00     0.131 A 
ATOM     79  C   UNL     1       2.068   1.601  13.521  1.00  0.00     0.055 A 
ATOM     80  C   UNL     1       2.190   2.156  11.194  1.00  0.00     0.041 A 
ATOM     81  F   UNL     1       0.837   1.085   9.651  1.00  0.00    -0.206 F 
ATOM     82  C   UNL     1       2.660   2.326  12.485  1.00  0.00     0.022 A 
BRANCH  79  83
ATOM     83  S   UNL     1       2.758   1.798  15.198  1.00  0.00     0.124 S 
ATOM     84  O   UNL     1       1.663   2.445  15.912  1.00  0.00    -0.237 OA
ATOM     85  O   UNL     1       3.061   0.423  15.579  1.00  0.00    -0.237 OA
ATOM     86  O   UNL     1       3.935   2.644  14.987  1.00  0.00    -0.744 OA
ENDBRANCH  79  83
ENDBRANCH  52  76
BRANCH  64  87
ATOM     87  C   UNL     1      -3.731  -4.170  12.539  1.00  0.00     0.023 A 
ATOM     88  C   UNL     1      -4.336  -2.936  12.203  1.00  0.00     0.031 A 
ATOM     89  C   UNL     1      -4.476  -5.065  13.328  1.00  0.00     0.131 A 
ATOM     90  C   UNL     1      -5.634  -2.638  12.669  1.00  0.00     0.055 A 
ATOM     91  C   UNL     1      -5.766  -4.776  13.767  1.00  0.00     0.041 A 
ATOM     92  F   UNL     1      -3.968  -6.264  13.661  1.00  0.00    -0.206 F 
ATOM     93  C   UNL     1      -6.348  -3.557  13.444  1.00  0.00     0.022 A 
BRANCH  90  94
ATOM     94  S   UNL     1      -6.418  -1.035  12.293  1.00  0.00     0.124 S 
ATOM     95  O   UNL     1      -5.375  -0.063  12.597  1.00  0.00    -0.237 OA
ATOM     96  O   UNL     1      -6.768  -1.178  10.882  1.00  0.00    -0.237 OA
ATOM     97  O   UNL     1      -7.567  -0.997  13.200  1.00  0.00    -0.744 OA
ENDBRANCH  90  94
ENDBRANCH  64  87
ENDBRANCH  38  39
ENDBRANCH  31  33
ENDBRANCH  30  31
ENDBRANCH  29  30
ENDBRANCH  28  29
ENDBRANCH  27  28
ENDBRANCH  26  27
ENDBRANCH   1  26
TORSDOF 25
