REMARK SMILES O=C(OCCOCCOCCOCCOC(=O)c1cn(C2CC2)c2cc(N3CC[NH2+]CC3)ccc2c1=O)c1ccc(-c2c3nc(c(-c4cc(S(=O)(=O)[O-])ccc4F)c4ccc([nH]4)c(-c4cc(S(=O)(=O)[O-])ccc4F)c4nc(c(-c5cc(S(=O)(=O)[O-])ccc5F)c5ccc2[nH]5)C=C4)C=C3)cc1
REMARK SMILES IDX 8 1 7 2 6 3 5 4 4 5 3 6 2 7 1 8 38 9 39 10 100 11 40 12
REMARK SMILES IDX 99 13 41 14 42 15 43 16 93 17 44 18 98 19 92 20 94 21 45 22
REMARK SMILES IDX 97 23 91 24 90 25 46 27 78 28 58 29 77 30 59 31 62 32 76 33
REMARK SMILES IDX 95 34 60 35 61 36 75 38 96 39 63 40 47 41 48 42 56 43 49 44
REMARK SMILES IDX 55 45 57 46 54 47 50 48 51 49 52 50 53 51 79 52 80 53 88 54
REMARK SMILES IDX 81 55 87 56 89 57 86 58 82 59 83 60 84 61 85 62 64 63 65 64
REMARK SMILES IDX 73 65 66 66 72 67 74 68 71 69 67 70 68 71 69 72 70 73 9 74
REMARK SMILES IDX 10 75 11 76 12 77 13 78 14 79 15 80 16 81 17 82 18 83 19 84
REMARK SMILES IDX 36 85 20 86 35 87 37 88 24 89 34 90 25 91 33 92 26 93 21 94
REMARK SMILES IDX 22 95 23 96 27 97 28 98 32 99 29 100 31 101 30 102
REMARK H PARENT 94 26 62 37 30 103 30 104
REMARK Flexibility Score: inf
ROOT
ATOM      1  C   UNL     1       1.806  -2.221  -0.840  1.00  0.00     0.188 C 
ENDROOT
BRANCH   1   2
ATOM      2  C   UNL     1       2.302  -1.219   0.200  1.00  0.00     0.188 C 
BRANCH   2   3
ATOM      3  O   UNL     1       3.598  -0.726  -0.154  1.00  0.00    -0.376 OA
BRANCH   3   4
ATOM      4  C   UNL     1       4.530  -0.673   0.922  1.00  0.00     0.202 C 
BRANCH   4   5
ATOM      5  C   UNL     1       4.500   0.634   1.709  1.00  0.00     0.261 C 
BRANCH   5   6
ATOM      6  O   UNL     1       3.188   1.198   1.815  1.00  0.00    -0.460 OA
BRANCH   6   7
ATOM      7  C   UNL     1       2.526   1.991   0.936  1.00  0.00     0.338 C 
ATOM      8  O   UNL     1       1.425   2.414   1.296  1.00  0.00    -0.246 OA
BRANCH   7   9
ATOM      9  C   UNL     1       2.983   2.346  -0.458  1.00  0.00     0.060 A 
ATOM     10  C   UNL     1       2.073   3.095  -1.234  1.00  0.00     0.016 A 
ATOM     11  C   UNL     1       4.199   2.009  -1.060  1.00  0.00     0.016 A 
ATOM     12  C   UNL     1       2.374   3.504  -2.540  1.00  0.00     0.010 A 
ATOM     13  C   UNL     1       4.503   2.397  -2.368  1.00  0.00     0.010 A 
ATOM     14  C   UNL     1       3.603   3.165  -3.107  1.00  0.00    -0.014 A 
BRANCH  14  15
ATOM     15  C   UNL     1       4.069   3.771  -4.372  1.00  0.00     0.031 A 
ATOM     16  C   UNL     1       4.001   3.030  -5.669  1.00  0.00     0.074 A 
ATOM     17  C   UNL     1       4.686   4.964  -4.277  1.00  0.00     0.049 A 
ATOM     18  N   UNL     1       4.400   3.422  -6.849  1.00  0.00    -0.248 NA
ATOM     19  C   UNL     1       3.423   1.677  -5.646  1.00  0.00     0.031 C 
ATOM     20  C   UNL     1       4.863   5.706  -3.025  1.00  0.00     0.029 A 
ATOM     21  N   UNL     1       5.324   5.734  -5.214  1.00  0.00    -0.354 N 
ATOM     22  C   UNL     1       4.102   2.380  -7.719  1.00  0.00     0.074 A 
ATOM     23  C   UNL     1       3.525   1.319  -6.922  1.00  0.00     0.031 C 
ATOM     24  C   UNL     1       5.609   6.793  -3.262  1.00  0.00     0.029 A 
ATOM     25  C   UNL     1       5.965   6.826  -4.677  1.00  0.00     0.049 A 
ATOM     26  H   UNL     1       5.322   5.526  -6.176  1.00  0.00     0.167 HD
ATOM     27  C   UNL     1       4.290   2.339  -9.060  1.00  0.00     0.034 A 
ATOM     28  C   UNL     1       6.765   7.744  -5.253  1.00  0.00     0.034 A 
ATOM     29  C   UNL     1       4.894   3.418  -9.805  1.00  0.00     0.049 A 
ATOM     30  C   UNL     1       6.943   7.689  -6.746  1.00  0.00     0.074 A 
ATOM     31  C   UNL     1       5.045   3.527 -11.176  1.00  0.00     0.029 A 
ATOM     32  N   UNL     1       5.462   4.556  -9.249  1.00  0.00    -0.354 N 
ATOM     33  N   UNL     1       6.505   6.780  -7.586  1.00  0.00    -0.248 NA
ATOM     34  C   UNL     1       7.678   8.788  -7.383  1.00  0.00     0.031 C 
ATOM     35  C   UNL     1       5.769   4.687 -11.443  1.00  0.00     0.029 A 
ATOM     36  C   UNL     1       5.997   5.353 -10.247  1.00  0.00     0.049 A 
ATOM     37  H   UNL     1       5.482   4.766  -8.287  1.00  0.00     0.167 HD
ATOM     38  C   UNL     1       6.881   7.211  -8.851  1.00  0.00     0.074 A 
ATOM     39  C   UNL     1       7.572   8.471  -8.669  1.00  0.00     0.031 C 
ATOM     40  C   UNL     1       6.670   6.616 -10.052  1.00  0.00     0.034 A 
BRANCH  27  41
ATOM     41  C   UNL     1       3.812   1.143  -9.848  1.00  0.00     0.023 A 
ATOM     42  C   UNL     1       4.723   0.388 -10.614  1.00  0.00     0.031 A 
ATOM     43  C   UNL     1       2.439   0.888 -10.011  1.00  0.00     0.131 A 
ATOM     44  C   UNL     1       4.246  -0.541 -11.549  1.00  0.00     0.055 A 
ATOM     45  C   UNL     1       1.971  -0.068 -10.915  1.00  0.00     0.041 A 
ATOM     46  F   UNL     1       1.528   1.587  -9.315  1.00  0.00    -0.206 F 
ATOM     47  C   UNL     1       2.876  -0.775 -11.701  1.00  0.00     0.022 A 
BRANCH  44  48
ATOM     48  S   UNL     1       5.377  -1.422 -12.663  1.00  0.00     0.124 S 
ATOM     49  O   UNL     1       5.010  -2.817 -12.424  1.00  0.00    -0.237 OA
ATOM     50  O   UNL     1       4.993  -0.892 -13.968  1.00  0.00    -0.237 OA
ATOM     51  O   UNL     1       6.703  -1.041 -12.189  1.00  0.00    -0.744 OA
ENDBRANCH  44  48
ENDBRANCH  27  41
BRANCH  28  52
ATOM     52  C   UNL     1       7.362   8.808  -4.396  1.00  0.00     0.023 A 
ATOM     53  C   UNL     1       8.257   8.474  -3.360  1.00  0.00     0.031 A 
ATOM     54  C   UNL     1       6.920  10.138  -4.484  1.00  0.00     0.131 A 
ATOM     55  C   UNL     1       8.624   9.442  -2.415  1.00  0.00     0.055 A 
ATOM     56  C   UNL     1       7.342  11.114  -3.580  1.00  0.00     0.041 A 
ATOM     57  F   UNL     1       6.046  10.498  -5.437  1.00  0.00    -0.206 F 
ATOM     58  C   UNL     1       8.182  10.764  -2.527  1.00  0.00     0.022 A 
BRANCH  55  59
ATOM     59  S   UNL     1       9.550   8.982  -0.922  1.00  0.00     0.124 S 
ATOM     60  O   UNL     1      10.799   9.714  -1.102  1.00  0.00    -0.237 OA
ATOM     61  O   UNL     1       8.677   9.476   0.140  1.00  0.00    -0.237 OA
ATOM     62  O   UNL     1       9.650   7.529  -1.011  1.00  0.00    -0.744 OA
ENDBRANCH  55  59
ENDBRANCH  28  52
BRANCH  40  63
ATOM     63  C   UNL     1       7.178   7.299 -11.297  1.00  0.00     0.023 A 
ATOM     64  C   UNL     1       6.264   7.717 -12.284  1.00  0.00     0.031 A 
ATOM     65  C   UNL     1       8.550   7.350 -11.590  1.00  0.00     0.131 A 
ATOM     66  C   UNL     1       6.733   8.108 -13.543  1.00  0.00     0.055 A 
ATOM     67  C   UNL     1       9.015   7.790 -12.829  1.00  0.00     0.041 A 
ATOM     68  F   UNL     1       9.457   6.953 -10.682  1.00  0.00    -0.206 F 
ATOM     69  C   UNL     1       8.104   8.153 -13.819  1.00  0.00     0.022 A 
BRANCH  66  70
ATOM     70  S   UNL     1       5.582   8.472 -14.896  1.00  0.00     0.124 S 
ATOM     71  O   UNL     1       5.959   9.838 -15.255  1.00  0.00    -0.237 OA
ATOM     72  O   UNL     1       5.932   7.450 -15.879  1.00  0.00    -0.237 OA
ATOM     73  O   UNL     1       4.264   8.333 -14.287  1.00  0.00    -0.744 OA
ENDBRANCH  66  70
ENDBRANCH  40  63
ENDBRANCH  14  15
ENDBRANCH   7   9
ENDBRANCH   6   7
ENDBRANCH   5   6
ENDBRANCH   4   5
ENDBRANCH   3   4
ENDBRANCH   2   3
ENDBRANCH   1   2
BRANCH   1  74
ATOM     74  O   UNL     1       2.478  -3.478  -0.820  1.00  0.00    -0.377 OA
BRANCH  74  75
ATOM     75  C   UNL     1       3.896  -3.453  -0.963  1.00  0.00     0.188 C 
BRANCH  75  76
ATOM     76  C   UNL     1       4.517  -2.719  -2.170  1.00  0.00     0.188 C 
BRANCH  76  77
ATOM     77  O   UNL     1       3.579  -2.348  -3.174  1.00  0.00    -0.376 OA
BRANCH  77  78
ATOM     78  C   UNL     1       3.670  -3.091  -4.385  1.00  0.00     0.202 C 
BRANCH  78  79
ATOM     79  C   UNL     1       3.016  -4.473  -4.287  1.00  0.00     0.261 C 
BRANCH  79  80
ATOM     80  O   UNL     1       3.602  -5.330  -3.289  1.00  0.00    -0.459 OA
BRANCH  80  81
ATOM     81  C   UNL     1       4.848  -5.812  -3.518  1.00  0.00     0.343 C 
ATOM     82  O   UNL     1       5.491  -5.702  -4.548  1.00  0.00    -0.246 OA
BRANCH  81  83
ATOM     83  C   UNL     1       5.324  -6.456  -2.281  1.00  0.00     0.124 A 
ATOM     84  C   UNL     1       4.645  -7.500  -1.784  1.00  0.00     0.106 A 
ATOM     85  C   UNL     1       6.436  -5.907  -1.471  1.00  0.00     0.203 A 
ATOM     86  N   UNL     1       4.929  -8.166  -0.607  1.00  0.00    -0.343 N 
ATOM     87  C   UNL     1       6.770  -6.600  -0.202  1.00  0.00     0.047 A 
ATOM     88  O   UNL     1       7.040  -4.890  -1.789  1.00  0.00    -0.288 OA
ATOM     89  C   UNL     1       6.069  -7.762   0.153  1.00  0.00     0.054 A 
ATOM     90  C   UNL     1       7.790  -6.094   0.617  1.00  0.00     0.016 A 
ATOM     91  C   UNL     1       6.539  -8.485   1.260  1.00  0.00     0.053 A 
ATOM     92  C   UNL     1       8.192  -6.803   1.750  1.00  0.00     0.027 A 
ATOM     93  C   UNL     1       7.613  -8.037   2.050  1.00  0.00     0.039 A 
BRANCH  86  94
ATOM     94  C   UNL     1       3.992  -9.177  -0.066  1.00  0.00     0.087 C 
ATOM     95  C   UNL     1       2.711  -9.655  -0.699  1.00  0.00     0.027 C 
ATOM     96  C   UNL     1       3.918 -10.545  -0.692  1.00  0.00     0.027 C 
ENDBRANCH  86  94
BRANCH  93  97
ATOM     97  N   UNL     1       8.120  -8.876   3.025  1.00  0.00    -0.360 N 
ATOM     98  C   UNL     1       9.006  -9.950   2.555  1.00  0.00     0.178 C 
ATOM     99  C   UNL     1       8.253  -8.451   4.421  1.00  0.00     0.178 C 
ATOM    100  C   UNL     1      10.455  -9.728   3.042  1.00  0.00     0.282 C 
ATOM    101  C   UNL     1       9.730  -8.360   4.869  1.00  0.00     0.282 C 
ATOM    102  N   UNL     1      10.547  -9.538   4.506  1.00  0.00    -0.343 N 
ATOM    103  H   UNL     1      11.519  -9.381   4.774  1.00  0.00     0.346 HD
ATOM    104  H   UNL     1      10.207 -10.368   4.992  1.00  0.00     0.346 HD
ENDBRANCH  93  97
ENDBRANCH  81  83
ENDBRANCH  80  81
ENDBRANCH  79  80
ENDBRANCH  78  79
ENDBRANCH  77  78
ENDBRANCH  76  77
ENDBRANCH  75  76
ENDBRANCH  74  75
ENDBRANCH   1  74
TORSDOF 25
