REMARK SMILES O=C(Nc1ccc(N2CCCCC2)cc1C(=O)OCCOCCOCCOCCOC(=O)c1ccc(-c2c3nc(c(-c4cc(S(=O)(=O)[O-])ccc4F)c4ccc([nH]4)c(-c4cc(S(=O)(=O)[O-])ccc4F)c4nc(c(-c5cc(S(=O)(=O)[O-])ccc5F)c5ccc2[nH]5)C=C4)C=C3)cc1)c1ccccc1
REMARK SMILES IDX 25 1 24 2 23 3 22 4 21 5 20 6 19 7 18 8 16 9 17 10 15 11
REMARK SMILES IDX 4 12 5 13 6 14 14 15 7 16 3 17 1 18 2 19 96 21 97 22 101 23
REMARK SMILES IDX 98 24 100 25 99 26 8 27 9 28 13 29 10 30 12 31 11 32 26 33
REMARK SMILES IDX 27 34 28 35 29 36 30 37 31 38 32 39 33 40 34 41 95 42 35 43
REMARK SMILES IDX 94 44 36 45 37 46 38 47 88 48 39 49 93 50 87 51 89 52 40 53
REMARK SMILES IDX 92 54 86 55 85 56 41 58 73 59 53 60 72 61 54 62 57 63 71 64
REMARK SMILES IDX 90 65 55 66 56 67 70 69 91 70 58 71 42 72 43 73 51 74 44 75
REMARK SMILES IDX 50 76 52 77 49 78 45 79 46 80 47 81 48 82 74 83 75 84 83 85
REMARK SMILES IDX 76 86 82 87 84 88 81 89 77 90 78 91 79 92 80 93 59 94 60 95
REMARK SMILES IDX 68 96 61 97 67 98 69 99 66 100 62 101 63 102 64 103 65 104
REMARK H PARENT 3 20 89 57 57 68
REMARK Flexibility Score: inf
ROOT
ATOM      1  C   UNL     1       2.203   4.503   0.862  1.00  0.00     0.188 C 
ENDROOT
BRANCH   1   2
ATOM      2  O   UNL     1       3.280   4.132   1.709  1.00  0.00    -0.377 OA
BRANCH   2   3
ATOM      3  C   UNL     1       4.399   3.524   1.080  1.00  0.00     0.188 C 
BRANCH   3   4
ATOM      4  C   UNL     1       4.958   4.110  -0.239  1.00  0.00     0.188 C 
BRANCH   4   5
ATOM      5  O   UNL     1       3.989   4.568  -1.157  1.00  0.00    -0.376 OA
BRANCH   5   6
ATOM      6  C   UNL     1       3.501   3.803  -2.233  1.00  0.00     0.202 C 
BRANCH   6   7
ATOM      7  C   UNL     1       3.074   2.348  -2.070  1.00  0.00     0.261 C 
BRANCH   7   8
ATOM      8  O   UNL     1       3.648   1.609  -0.995  1.00  0.00    -0.460 OA
BRANCH   8   9
ATOM      9  C   UNL     1       4.866   1.070  -1.210  1.00  0.00     0.340 C 
ATOM     10  O   UNL     1       5.577   1.278  -2.180  1.00  0.00    -0.246 OA
BRANCH   9  11
ATOM     11  C   UNL     1       5.314   0.334   0.005  1.00  0.00     0.085 A 
ATOM     12  C   UNL     1       4.496  -0.388   0.903  1.00  0.00     0.056 A 
ATOM     13  C   UNL     1       5.074  -0.852   2.094  1.00  0.00     0.029 A 
ATOM     14  C   UNL     1       6.440  -0.708   2.335  1.00  0.00     0.028 A 
ATOM     15  C   UNL     1       6.689   0.497   0.286  1.00  0.00     0.043 A 
ATOM     16  C   UNL     1       7.268  -0.045   1.430  1.00  0.00     0.038 A 
BRANCH  12  17
ATOM     17  N   UNL     1       3.135  -0.747   0.763  1.00  0.00    -0.321 N 
ATOM     18  O   UNL     1       1.128  -1.149  -0.173  1.00  0.00    -0.269 OA
ATOM     19  C   UNL     1       2.342  -1.035  -0.326  1.00  0.00     0.255 C 
ATOM     20  H   UNL     1       2.655  -0.801   1.621  1.00  0.00     0.170 HD
BRANCH  19  21
ATOM     21  C   UNL     1       2.924  -1.265  -1.666  1.00  0.00     0.040 A 
ATOM     22  C   UNL     1       4.158  -1.900  -1.834  1.00  0.00     0.014 A 
ATOM     23  C   UNL     1       2.261  -0.714  -2.768  1.00  0.00     0.014 A 
ATOM     24  C   UNL     1       4.821  -1.796  -3.056  1.00  0.00     0.001 A 
ATOM     25  C   UNL     1       2.920  -0.632  -3.994  1.00  0.00     0.001 A 
ATOM     26  C   UNL     1       4.217  -1.128  -4.121  1.00  0.00     0.000 A 
ENDBRANCH  19  21
ENDBRANCH  12  17
BRANCH  16  27
ATOM     27  N   UNL     1       8.618   0.021   1.679  1.00  0.00    -0.372 N 
ATOM     28  C   UNL     1       9.428  -1.147   1.359  1.00  0.00     0.116 C 
ATOM     29  C   UNL     1       9.312   1.291   1.820  1.00  0.00     0.116 C 
ATOM     30  C   UNL     1      10.432  -1.353   2.489  1.00  0.00     0.021 C 
ATOM     31  C   UNL     1      10.334   1.142   2.952  1.00  0.00     0.021 C 
ATOM     32  C   UNL     1      11.240  -0.079   2.752  1.00  0.00     0.004 C 
ENDBRANCH  16  27
ENDBRANCH   9  11
ENDBRANCH   8   9
ENDBRANCH   7   8
ENDBRANCH   6   7
ENDBRANCH   5   6
ENDBRANCH   4   5
ENDBRANCH   3   4
ENDBRANCH   2   3
ENDBRANCH   1   2
BRANCH   1  33
ATOM     33  C   UNL     1       2.294   5.971   0.404  1.00  0.00     0.188 C 
BRANCH  33  34
ATOM     34  O   UNL     1       3.466   6.713   0.691  1.00  0.00    -0.376 OA
BRANCH  34  35
ATOM     35  C   UNL     1       4.003   6.792   2.000  1.00  0.00     0.202 C 
BRANCH  35  36
ATOM     36  C   UNL     1       3.242   6.529   3.319  1.00  0.00     0.261 C 
BRANCH  36  37
ATOM     37  O   UNL     1       1.897   6.059   3.272  1.00  0.00    -0.460 OA
BRANCH  37  38
ATOM     38  C   UNL     1       0.943   6.989   3.069  1.00  0.00     0.338 C 
ATOM     39  O   UNL     1       1.107   8.188   2.910  1.00  0.00    -0.246 OA
BRANCH  38  40
ATOM     40  C   UNL     1      -0.333   6.268   2.885  1.00  0.00     0.060 A 
ATOM     41  C   UNL     1      -1.010   6.374   1.661  1.00  0.00     0.016 A 
ATOM     42  C   UNL     1      -0.852   5.482   3.916  1.00  0.00     0.016 A 
ATOM     43  C   UNL     1      -2.224   5.720   1.474  1.00  0.00     0.010 A 
ATOM     44  C   UNL     1      -2.088   4.857   3.742  1.00  0.00     0.010 A 
ATOM     45  C   UNL     1      -2.794   5.008   2.534  1.00  0.00    -0.014 A 
BRANCH  45  46
ATOM     46  C   UNL     1      -4.228   4.645   2.473  1.00  0.00     0.031 A 
ATOM     47  C   UNL     1      -5.212   5.578   3.124  1.00  0.00     0.074 A 
ATOM     48  C   UNL     1      -4.648   3.538   1.840  1.00  0.00     0.049 A 
ATOM     49  N   UNL     1      -6.504   5.458   3.271  1.00  0.00    -0.248 NA
ATOM     50  C   UNL     1      -4.649   6.811   3.695  1.00  0.00     0.031 C 
ATOM     51  C   UNL     1      -3.792   2.603   1.113  1.00  0.00     0.029 A 
ATOM     52  N   UNL     1      -5.909   3.015   1.713  1.00  0.00    -0.354 N 
ATOM     53  C   UNL     1      -6.908   6.592   3.968  1.00  0.00     0.074 A 
ATOM     54  C   UNL     1      -5.716   7.363   4.246  1.00  0.00     0.031 C 
ATOM     55  C   UNL     1      -4.557   1.616   0.614  1.00  0.00     0.029 A 
ATOM     56  C   UNL     1      -5.944   1.824   1.028  1.00  0.00     0.049 A 
ATOM     57  H   UNL     1      -6.713   3.451   2.078  1.00  0.00     0.167 HD
ATOM     58  C   UNL     1      -8.161   6.955   4.338  1.00  0.00     0.034 A 
ATOM     59  C   UNL     1      -6.977   0.992   0.789  1.00  0.00     0.034 A 
ATOM     60  C   UNL     1      -9.332   6.159   4.065  1.00  0.00     0.049 A 
ATOM     61  C   UNL     1      -8.346   1.356   1.316  1.00  0.00     0.074 A 
ATOM     62  C   UNL     1     -10.652   6.432   4.374  1.00  0.00     0.029 A 
ATOM     63  N   UNL     1      -9.321   4.918   3.436  1.00  0.00    -0.354 N 
ATOM     64  N   UNL     1      -8.726   2.430   1.971  1.00  0.00    -0.248 NA
ATOM     65  C   UNL     1      -9.426   0.393   1.067  1.00  0.00     0.031 C 
ATOM     66  C   UNL     1     -11.423   5.320   4.020  1.00  0.00     0.029 A 
ATOM     67  C   UNL     1     -10.603   4.393   3.394  1.00  0.00     0.049 A 
ATOM     68  H   UNL     1      -8.519   4.478   3.073  1.00  0.00     0.167 HD
ATOM     69  C   UNL     1     -10.097   2.288   2.176  1.00  0.00     0.074 A 
ATOM     70  C   UNL     1     -10.475   1.028   1.569  1.00  0.00     0.031 C 
ATOM     71  C   UNL     1     -10.966   3.127   2.798  1.00  0.00     0.034 A 
BRANCH  58  72
ATOM     72  C   UNL     1      -8.300   8.227   5.144  1.00  0.00     0.023 A 
ATOM     73  C   UNL     1      -7.900   9.477   4.639  1.00  0.00     0.031 A 
ATOM     74  C   UNL     1      -8.774   8.176   6.466  1.00  0.00     0.131 A 
ATOM     75  C   UNL     1      -7.887  10.600   5.480  1.00  0.00     0.055 A 
ATOM     76  C   UNL     1      -8.853   9.317   7.267  1.00  0.00     0.041 A 
ATOM     77  F   UNL     1      -9.145   7.009   7.016  1.00  0.00    -0.206 F 
ATOM     78  C   UNL     1      -8.387  10.535   6.782  1.00  0.00     0.022 A 
BRANCH  75  79
ATOM     79  S   UNL     1      -7.027  12.095   4.914  1.00  0.00     0.124 S 
ATOM     80  O   UNL     1      -5.695  11.574   4.615  1.00  0.00    -0.237 OA
ATOM     81  O   UNL     1      -7.827  12.503   3.765  1.00  0.00    -0.237 OA
ATOM     82  O   UNL     1      -7.092  12.987   6.070  1.00  0.00    -0.744 OA
ENDBRANCH  75  79
ENDBRANCH  58  72
BRANCH  59  83
ATOM     83  C   UNL     1      -6.768  -0.277   0.035  1.00  0.00     0.023 A 
ATOM     84  C   UNL     1      -7.406  -0.495  -1.196  1.00  0.00     0.031 A 
ATOM     85  C   UNL     1      -5.965  -1.309   0.554  1.00  0.00     0.131 A 
ATOM     86  C   UNL     1      -7.264  -1.728  -1.849  1.00  0.00     0.055 A 
ATOM     87  C   UNL     1      -5.781  -2.513  -0.128  1.00  0.00     0.041 A 
ATOM     88  F   UNL     1      -5.341  -1.157   1.733  1.00  0.00    -0.206 F 
ATOM     89  C   UNL     1      -6.442  -2.733  -1.332  1.00  0.00     0.022 A 
BRANCH  86  90
ATOM     90  S   UNL     1      -8.238  -2.032  -3.348  1.00  0.00     0.124 S 
ATOM     91  O   UNL     1      -9.601  -1.886  -2.850  1.00  0.00    -0.237 OA
ATOM     92  O   UNL     1      -7.764  -0.977  -4.238  1.00  0.00    -0.237 OA
ATOM     93  O   UNL     1      -7.856  -3.388  -3.735  1.00  0.00    -0.744 OA
ENDBRANCH  86  90
ENDBRANCH  59  83
BRANCH  71  94
ATOM     94  C   UNL     1     -12.426   2.732   2.802  1.00  0.00     0.023 A 
ATOM     95  C   UNL     1     -12.890   1.590   3.480  1.00  0.00     0.031 A 
ATOM     96  C   UNL     1     -13.369   3.514   2.110  1.00  0.00     0.131 A 
ATOM     97  C   UNL     1     -14.245   1.231   3.400  1.00  0.00     0.055 A 
ATOM     98  C   UNL     1     -14.727   3.192   2.095  1.00  0.00     0.041 A 
ATOM     99  F   UNL     1     -12.986   4.613   1.439  1.00  0.00    -0.206 F 
ATOM    100  C   UNL     1     -15.169   2.037   2.730  1.00  0.00     0.022 A 
BRANCH  97 101
ATOM    101  S   UNL     1     -14.768  -0.361   4.093  1.00  0.00     0.124 S 
ATOM    102  O   UNL     1     -13.923  -1.302   3.364  1.00  0.00    -0.237 OA
ATOM    103  O   UNL     1     -14.465  -0.200   5.512  1.00  0.00    -0.237 OA
ATOM    104  O   UNL     1     -16.191  -0.427   3.768  1.00  0.00    -0.744 OA
ENDBRANCH  97 101
ENDBRANCH  71  94
ENDBRANCH  45  46
ENDBRANCH  38  40
ENDBRANCH  37  38
ENDBRANCH  36  37
ENDBRANCH  35  36
ENDBRANCH  34  35
ENDBRANCH  33  34
ENDBRANCH   1  33
TORSDOF 26
