REMARK SMILES COCc1cc(SCC(=O)OCCOCCOCCOCCOC(=O)c2ccc(-c3c4nc(c(-c5cc(S(=O)(=O)[O-])ccc5F)c5ccc([nH]5)c(-c5cc(S(=O)(=O)[O-])ccc5F)c5nc(c(-c6cc(S(=O)(=O)[O-])ccc6F)c6ccc3[nH]6)C=C5)C=C4)cc2)nc(-c2cccnc2)n1
REMARK SMILES IDX 16 1 15 2 14 3 13 4 12 5 11 6 9 7 10 8 8 9 7 10 6 11 4 12
REMARK SMILES IDX 5 13 97 14 90 15 89 16 3 17 2 18 1 19 91 20 92 21 96 22
REMARK SMILES IDX 93 23 95 24 94 25 17 26 18 27 19 28 20 29 21 30 22 31 23 32
REMARK SMILES IDX 24 33 25 34 26 35 27 36 88 37 28 38 87 39 29 40 30 41 31 42
REMARK SMILES IDX 81 43 32 44 86 45 80 46 82 47 33 48 85 49 79 50 78 51 34 53
REMARK SMILES IDX 66 54 46 55 65 56 47 57 50 58 64 59 83 60 48 61 49 62 63 64
REMARK SMILES IDX 84 65 51 66 35 67 36 68 44 69 37 70 43 71 45 72 42 73 38 74
REMARK SMILES IDX 39 75 40 76 41 77 67 78 68 79 76 80 69 81 75 82 77 83 74 84
REMARK SMILES IDX 70 85 71 86 72 87 73 88 52 89 53 90 61 91 54 92 60 93 62 94
REMARK SMILES IDX 59 95 55 96 56 97 57 98 58 99
REMARK H PARENT 82 52 50 63
REMARK Flexibility Score: inf
ROOT
ATOM      1  C   UNL     1      -2.255   1.635   1.119  1.00  0.00     0.188 C 
ENDROOT
BRANCH   1   2
ATOM      2  C   UNL     1      -1.907   0.471   0.172  1.00  0.00     0.188 C 
BRANCH   2   3
ATOM      3  O   UNL     1      -2.915  -0.331  -0.406  1.00  0.00    -0.376 OA
BRANCH   3   4
ATOM      4  C   UNL     1      -4.003  -0.827   0.343  1.00  0.00     0.202 C 
BRANCH   4   5
ATOM      5  C   UNL     1      -3.878  -1.310   1.802  1.00  0.00     0.261 C 
BRANCH   5   6
ATOM      6  O   UNL     1      -2.914  -0.656   2.662  1.00  0.00    -0.463 OA
BRANCH   6   7
ATOM      7  C   UNL     1      -1.751  -1.308   2.895  1.00  0.00     0.316 C 
ATOM      8  O   UNL     1      -1.514  -2.428   2.443  1.00  0.00    -0.251 OA
BRANCH   7   9
ATOM      9  C   UNL     1      -0.719  -0.621   3.787  1.00  0.00     0.199 C 
BRANCH   9  10
ATOM     10  S   UNL     1      -0.844   1.155   4.217  1.00  0.00    -0.094 SA
BRANCH  10  11
ATOM     11  C   UNL     1       0.350   2.077   3.202  1.00  0.00     0.101 A 
ATOM     12  C   UNL     1       1.589   2.370   1.214  1.00  0.00     0.071 A 
ATOM     13  C   UNL     1       1.025   1.508   2.142  1.00  0.00     0.062 A 
ATOM     14  N   UNL     1       1.599   3.708   1.392  1.00  0.00    -0.230 NA
ATOM     15  C   UNL     1       0.994   4.187   2.494  1.00  0.00     0.162 A 
ATOM     16  N   UNL     1       0.372   3.419   3.416  1.00  0.00    -0.222 NA
BRANCH  12  17
ATOM     17  C   UNL     1       2.146   1.850  -0.097  1.00  0.00     0.215 C 
BRANCH  17  18
ATOM     18  O   UNL     1       1.350   0.787  -0.628  1.00  0.00    -0.378 OA
ATOM     19  C   UNL     1       1.967  -0.489  -0.557  1.00  0.00     0.195 C 
ENDBRANCH  17  18
ENDBRANCH  12  17
BRANCH  15  20
ATOM     20  C   UNL     1       1.032   5.646   2.661  1.00  0.00     0.038 A 
ATOM     21  C   UNL     1       1.781   6.277   3.660  1.00  0.00     0.015 A 
ATOM     22  C   UNL     1       0.390   6.508   1.771  1.00  0.00     0.123 A 
ATOM     23  C   UNL     1       1.858   7.675   3.720  1.00  0.00     0.021 A 
ATOM     24  N   UNL     1       0.439   7.867   1.799  1.00  0.00    -0.264 NA
ATOM     25  C   UNL     1       1.173   8.421   2.776  1.00  0.00     0.111 A 
ENDBRANCH  15  20
ENDBRANCH  10  11
ENDBRANCH   9  10
ENDBRANCH   7   9
ENDBRANCH   6   7
ENDBRANCH   5   6
ENDBRANCH   4   5
ENDBRANCH   3   4
ENDBRANCH   2   3
ENDBRANCH   1   2
BRANCH   1  26
ATOM     26  O   UNL     1      -2.877   2.821   0.707  1.00  0.00    -0.377 OA
BRANCH  26  27
ATOM     27  C   UNL     1      -4.081   2.672   0.004  1.00  0.00     0.188 C 
BRANCH  27  28
ATOM     28  C   UNL     1      -3.832   2.815  -1.494  1.00  0.00     0.188 C 
BRANCH  28  29
ATOM     29  O   UNL     1      -2.514   2.490  -1.893  1.00  0.00    -0.376 OA
BRANCH  29  30
ATOM     30  C   UNL     1      -1.455   3.433  -1.756  1.00  0.00     0.202 C 
BRANCH  30  31
ATOM     31  C   UNL     1      -1.390   4.651  -0.810  1.00  0.00     0.261 C 
BRANCH  31  32
ATOM     32  O   UNL     1      -2.576   5.191  -0.232  1.00  0.00    -0.460 OA
BRANCH  32  33
ATOM     33  C   UNL     1      -3.302   6.056  -0.955  1.00  0.00     0.338 C 
ATOM     34  O   UNL     1      -3.051   6.467  -2.078  1.00  0.00    -0.246 OA
BRANCH  33  35
ATOM     35  C   UNL     1      -4.591   6.197  -0.248  1.00  0.00     0.060 A 
ATOM     36  C   UNL     1      -5.732   5.714  -0.898  1.00  0.00     0.016 A 
ATOM     37  C   UNL     1      -4.673   6.706   1.054  1.00  0.00     0.016 A 
ATOM     38  C   UNL     1      -6.961   5.736  -0.254  1.00  0.00     0.010 A 
ATOM     39  C   UNL     1      -5.922   6.780   1.681  1.00  0.00     0.010 A 
ATOM     40  C   UNL     1      -7.070   6.319   1.014  1.00  0.00    -0.014 A 
BRANCH  40  41
ATOM     41  C   UNL     1      -8.429   6.674   1.477  1.00  0.00     0.031 A 
ATOM     42  C   UNL     1      -8.941   8.040   1.109  1.00  0.00     0.074 A 
ATOM     43  C   UNL     1      -9.216   5.770   2.086  1.00  0.00     0.049 A 
ATOM     44  N   UNL     1     -10.111   8.575   1.325  1.00  0.00    -0.248 NA
ATOM     45  C   UNL     1      -8.004   8.915   0.382  1.00  0.00     0.031 C 
ATOM     46  C   UNL     1      -8.831   4.395   2.405  1.00  0.00     0.029 A 
ATOM     47  N   UNL     1     -10.509   5.867   2.529  1.00  0.00    -0.354 N 
ATOM     48  C   UNL     1     -10.049   9.849   0.770  1.00  0.00     0.074 A 
ATOM     49  C   UNL     1      -8.722  10.015   0.224  1.00  0.00     0.031 C 
ATOM     50  C   UNL     1      -9.870   3.777   2.995  1.00  0.00     0.029 A 
ATOM     51  C   UNL     1     -10.976   4.722   3.132  1.00  0.00     0.049 A 
ATOM     52  H   UNL     1     -11.054   6.681   2.425  1.00  0.00     0.167 HD
ATOM     53  C   UNL     1     -11.017  10.793   0.726  1.00  0.00     0.034 A 
ATOM     54  C   UNL     1     -12.156   4.486   3.744  1.00  0.00     0.034 A 
ATOM     55  C   UNL     1     -12.328  10.601   1.290  1.00  0.00     0.049 A 
ATOM     56  C   UNL     1     -13.182   5.598   3.768  1.00  0.00     0.074 A 
ATOM     57  C   UNL     1     -13.397  11.478   1.299  1.00  0.00     0.029 A 
ATOM     58  N   UNL     1     -12.741   9.459   1.966  1.00  0.00    -0.354 N 
ATOM     59  N   UNL     1     -13.120   6.795   3.227  1.00  0.00    -0.248 NA
ATOM     60  C   UNL     1     -14.439   5.327   4.477  1.00  0.00     0.031 C 
ATOM     61  C   UNL     1     -14.420  10.906   2.060  1.00  0.00     0.029 A 
ATOM     62  C   UNL     1     -14.031   9.629   2.439  1.00  0.00     0.049 A 
ATOM     63  H   UNL     1     -12.196   8.649   2.091  1.00  0.00     0.167 HD
ATOM     64  C   UNL     1     -14.345   7.400   3.498  1.00  0.00     0.074 A 
ATOM     65  C   UNL     1     -15.130   6.429   4.232  1.00  0.00     0.031 C 
ATOM     66  C   UNL     1     -14.789   8.642   3.171  1.00  0.00     0.034 A 
BRANCH  53  67
ATOM     67  C   UNL     1     -10.666  12.133   0.131  1.00  0.00     0.023 A 
ATOM     68  C   UNL     1     -10.346  12.294  -1.229  1.00  0.00     0.031 A 
ATOM     69  C   UNL     1     -10.641  13.273   0.954  1.00  0.00     0.131 A 
ATOM     70  C   UNL     1      -9.972  13.558  -1.712  1.00  0.00     0.055 A 
ATOM     71  C   UNL     1     -10.340  14.539   0.452  1.00  0.00     0.041 A 
ATOM     72  F   UNL     1     -10.903  13.172   2.267  1.00  0.00    -0.206 F 
ATOM     73  C   UNL     1      -9.994  14.686  -0.887  1.00  0.00     0.022 A 
BRANCH  70  74
ATOM     74  S   UNL     1      -9.340  13.694  -3.408  1.00  0.00     0.124 S 
ATOM     75  O   UNL     1      -8.180  12.808  -3.363  1.00  0.00    -0.237 OA
ATOM     76  O   UNL     1     -10.470  13.229  -4.204  1.00  0.00    -0.237 OA
ATOM     77  O   UNL     1      -9.025  15.115  -3.544  1.00  0.00    -0.744 OA
ENDBRANCH  70  74
ENDBRANCH  53  67
BRANCH  54  78
ATOM     78  C   UNL     1     -12.426   3.185   4.428  1.00  0.00     0.023 A 
ATOM     79  C   UNL     1     -13.529   2.389   4.076  1.00  0.00     0.031 A 
ATOM     80  C   UNL     1     -11.641   2.766   5.519  1.00  0.00     0.131 A 
ATOM     81  C   UNL     1     -13.857   1.263   4.848  1.00  0.00     0.055 A 
ATOM     82  C   UNL     1     -11.930   1.605   6.239  1.00  0.00     0.041 A 
ATOM     83  F   UNL     1     -10.580   3.489   5.912  1.00  0.00    -0.206 F 
ATOM     84  C   UNL     1     -13.057   0.856   5.917  1.00  0.00     0.022 A 
BRANCH  81  85
ATOM     85  S   UNL     1     -15.428   0.415   4.521  1.00  0.00     0.124 S 
ATOM     86  O   UNL     1     -16.385   1.508   4.645  1.00  0.00    -0.237 OA
ATOM     87  O   UNL     1     -15.216  -0.104   3.173  1.00  0.00    -0.237 OA
ATOM     88  O   UNL     1     -15.493  -0.597   5.573  1.00  0.00    -0.744 OA
ENDBRANCH  81  85
ENDBRANCH  54  78
BRANCH  66  89
ATOM     89  C   UNL     1     -16.206   8.990   3.557  1.00  0.00     0.023 A 
ATOM     90  C   UNL     1     -16.607   9.087   4.900  1.00  0.00     0.031 A 
ATOM     91  C   UNL     1     -17.171   9.225   2.560  1.00  0.00     0.131 A 
ATOM     92  C   UNL     1     -17.951   9.343   5.210  1.00  0.00     0.055 A 
ATOM     93  C   UNL     1     -18.488   9.557   2.874  1.00  0.00     0.041 A 
ATOM     94  F   UNL     1     -16.844   9.143   1.260  1.00  0.00    -0.206 F 
ATOM     95  C   UNL     1     -18.888   9.601   4.206  1.00  0.00     0.022 A 
BRANCH  92  96
ATOM     96  S   UNL     1     -18.482   9.223   6.939  1.00  0.00     0.124 S 
ATOM     97  O   UNL     1     -18.105   7.854   7.276  1.00  0.00    -0.237 OA
ATOM     98  O   UNL     1     -17.700  10.275   7.580  1.00  0.00    -0.237 OA
ATOM     99  O   UNL     1     -19.921   9.472   6.874  1.00  0.00    -0.744 OA
ENDBRANCH  92  96
ENDBRANCH  66  89
ENDBRANCH  40  41
ENDBRANCH  33  35
ENDBRANCH  32  33
ENDBRANCH  31  32
ENDBRANCH  30  31
ENDBRANCH  29  30
ENDBRANCH  28  29
ENDBRANCH  27  28
ENDBRANCH  26  27
ENDBRANCH   1  26
TORSDOF 28
