REMARK SMILES CC1=C2C(CSc3c(Cl)cccc3Cl)=CC(=O)N=C2S[C@H]1C(=O)OCCOCCOCCOCCOC(=O)c1ccc(-c2c3nc(c(-c4cc(S(=O)(=O)[O-])ccc4F)c4ccc([nH]4)c(-c4cc(S(=O)(=O)[O-])ccc4F)c4nc(c(-c5cc(S(=O)(=O)[O-])ccc5F)c5ccc2[nH]5)C=C4)C=C3)cc1
REMARK SMILES IDX 30 1 29 2 28 3 27 4 26 5 25 6 24 7 22 8 23 9 21 10 1 11 2 12
REMARK SMILES IDX 3 13 4 14 19 15 20 16 15 17 18 18 16 19 17 20 5 21 6 22 7 23
REMARK SMILES IDX 8 24 13 25 9 26 10 27 12 28 14 29 11 30 31 31 32 32 33 33
REMARK SMILES IDX 34 34 35 35 36 36 37 37 38 38 39 39 40 40 101 41 41 42
REMARK SMILES IDX 100 43 42 44 43 45 44 46 94 47 45 48 99 49 93 50 95 51 46 52
REMARK SMILES IDX 98 53 92 54 91 55 47 57 79 58 59 59 78 60 60 61 63 62 77 63
REMARK SMILES IDX 96 64 61 65 62 66 76 68 97 69 64 70 48 71 49 72 57 73 50 74
REMARK SMILES IDX 56 75 58 76 55 77 51 78 52 79 53 80 54 81 80 82 81 83 89 84
REMARK SMILES IDX 82 85 88 86 90 87 87 88 83 89 84 90 85 91 86 92 65 93 66 94
REMARK SMILES IDX 74 95 67 96 73 97 75 98 72 99 68 100 69 101 70 102 71 103
REMARK H PARENT 95 56 63 67
REMARK Flexibility Score: inf
ROOT
ATOM      1  O   UNL     1       2.515  -3.127  -3.051  1.00  0.00    -0.377 OA
ENDROOT
BRANCH   1   2
ATOM      2  C   UNL     1       2.338  -3.299  -1.655  1.00  0.00     0.188 C 
BRANCH   2   3
ATOM      3  C   UNL     1       1.758  -4.633  -1.182  1.00  0.00     0.188 C 
BRANCH   3   4
ATOM      4  O   UNL     1       1.622  -5.715  -2.081  1.00  0.00    -0.376 OA
BRANCH   4   5
ATOM      5  C   UNL     1       1.205  -5.446  -3.413  1.00  0.00     0.202 C 
BRANCH   5   6
ATOM      6  C   UNL     1      -0.105  -4.665  -3.639  1.00  0.00     0.261 C 
BRANCH   6   7
ATOM      7  O   UNL     1      -0.139  -3.266  -3.260  1.00  0.00    -0.462 OA
BRANCH   7   8
ATOM      8  C   UNL     1      -0.937  -2.888  -2.224  1.00  0.00     0.323 C 
ATOM      9  O   UNL     1      -1.414  -3.673  -1.407  1.00  0.00    -0.251 OA
BRANCH   8  10
ATOM     10  C   UNL     1      -1.217  -1.362  -2.141  1.00  0.00     0.189 C 
ATOM     11  C   UNL     1      -0.040  -0.489  -0.042  1.00  0.00     0.042 C 
ATOM     12  C   UNL     1      -0.181  -0.413  -1.532  1.00  0.00    -0.039 C 
ATOM     13  C   UNL     1       0.449   0.428  -2.382  1.00  0.00     0.012 C 
ATOM     14  C   UNL     1       1.434   1.518  -2.291  1.00  0.00    -0.022 C 
ATOM     15  C   UNL     1      -0.016   0.150  -3.772  1.00  0.00     0.109 C 
ATOM     16  S   UNL     1      -1.536  -0.689  -3.797  1.00  0.00    -0.086 SA
ATOM     17  C   UNL     1       2.030   1.846  -3.460  1.00  0.00     0.079 C 
ATOM     18  N   UNL     1       0.579   0.480  -4.857  1.00  0.00    -0.202 NA
ATOM     19  C   UNL     1       1.803   1.079  -4.718  1.00  0.00     0.271 C 
ATOM     20  O   UNL     1       2.686   1.051  -5.564  1.00  0.00    -0.267 OA
BRANCH  14  21
ATOM     21  C   UNL     1       1.808   2.253  -1.004  1.00  0.00     0.111 C 
BRANCH  21  22
ATOM     22  S   UNL     1       3.635   2.694  -0.819  1.00  0.00    -0.118 SA
BRANCH  22  23
ATOM     23  C   UNL     1       4.338   1.379   0.212  1.00  0.00     0.045 A 
ATOM     24  C   UNL     1       3.843   0.080   0.158  1.00  0.00     0.056 A 
ATOM     25  C   UNL     1       5.460   1.538   1.037  1.00  0.00     0.056 A 
ATOM     26  Cl  UNL     1       3.369  -0.500  -1.374  1.00  0.00    -0.083 Cl
ATOM     27  C   UNL     1       4.120  -0.900   1.116  1.00  0.00     0.022 A 
ATOM     28  C   UNL     1       5.887   0.500   1.895  1.00  0.00     0.022 A 
ATOM     29  Cl  UNL     1       6.455   2.950   0.977  1.00  0.00    -0.083 Cl
ATOM     30  C   UNL     1       5.163  -0.687   1.998  1.00  0.00     0.003 A 
ENDBRANCH  22  23
ENDBRANCH  21  22
ENDBRANCH  14  21
ENDBRANCH   8  10
ENDBRANCH   7   8
ENDBRANCH   6   7
ENDBRANCH   5   6
ENDBRANCH   4   5
ENDBRANCH   3   4
ENDBRANCH   2   3
ENDBRANCH   1   2
BRANCH   1  31
ATOM     31  C   UNL     1       3.848  -3.044  -3.559  1.00  0.00     0.188 C 
BRANCH  31  32
ATOM     32  C   UNL     1       4.802  -4.158  -3.104  1.00  0.00     0.188 C 
BRANCH  32  33
ATOM     33  O   UNL     1       4.860  -4.249  -1.686  1.00  0.00    -0.376 OA
BRANCH  33  34
ATOM     34  C   UNL     1       6.002  -3.776  -0.996  1.00  0.00     0.202 C 
BRANCH  34  35
ATOM     35  C   UNL     1       6.501  -2.333  -1.162  1.00  0.00     0.261 C 
BRANCH  35  36
ATOM     36  O   UNL     1       6.379  -1.755  -2.455  1.00  0.00    -0.460 OA
BRANCH  36  37
ATOM     37  C   UNL     1       7.404  -1.983  -3.294  1.00  0.00     0.338 C 
ATOM     38  O   UNL     1       8.406  -2.646  -3.061  1.00  0.00    -0.246 OA
BRANCH  37  39
ATOM     39  C   UNL     1       7.015  -1.463  -4.610  1.00  0.00     0.060 A 
ATOM     40  C   UNL     1       6.857  -2.387  -5.647  1.00  0.00     0.016 A 
ATOM     41  C   UNL     1       6.819  -0.094  -4.821  1.00  0.00     0.016 A 
ATOM     42  C   UNL     1       6.556  -1.938  -6.925  1.00  0.00     0.010 A 
ATOM     43  C   UNL     1       6.538   0.356  -6.111  1.00  0.00     0.010 A 
ATOM     44  C   UNL     1       6.452  -0.563  -7.170  1.00  0.00    -0.014 A 
BRANCH  44  45
ATOM     45  C   UNL     1       6.489  -0.097  -8.572  1.00  0.00     0.031 A 
ATOM     46  C   UNL     1       7.820   0.309  -9.139  1.00  0.00     0.074 A 
ATOM     47  C   UNL     1       5.380  -0.113  -9.328  1.00  0.00     0.049 A 
ATOM     48  N   UNL     1       8.115   0.772 -10.323  1.00  0.00    -0.248 NA
ATOM     49  C   UNL     1       8.980   0.172  -8.240  1.00  0.00     0.031 C 
ATOM     50  C   UNL     1       4.061  -0.554  -8.876  1.00  0.00     0.029 A 
ATOM     51  N   UNL     1       5.187   0.250 -10.635  1.00  0.00    -0.354 N 
ATOM     52  C   UNL     1       9.489   0.991 -10.311  1.00  0.00     0.074 A 
ATOM     53  C   UNL     1       9.964   0.639  -8.992  1.00  0.00     0.031 C 
ATOM     54  C   UNL     1       3.191  -0.432  -9.893  1.00  0.00     0.029 A 
ATOM     55  C   UNL     1       3.879   0.147 -11.045  1.00  0.00     0.049 A 
ATOM     56  H   UNL     1       5.914   0.556 -11.224  1.00  0.00     0.167 HD
ATOM     57  C   UNL     1      10.276   1.443 -11.316  1.00  0.00     0.034 A 
ATOM     58  C   UNL     1       3.305   0.519 -12.206  1.00  0.00     0.034 A 
ATOM     59  C   UNL     1       9.761   1.806 -12.612  1.00  0.00     0.049 A 
ATOM     60  C   UNL     1       4.185   1.124 -13.276  1.00  0.00     0.074 A 
ATOM     61  C   UNL     1      10.449   2.286 -13.711  1.00  0.00     0.029 A 
ATOM     62  N   UNL     1       8.419   1.745 -12.976  1.00  0.00    -0.354 N 
ATOM     63  N   UNL     1       5.482   1.340 -13.256  1.00  0.00    -0.248 NA
ATOM     64  C   UNL     1       3.528   1.532 -14.524  1.00  0.00     0.031 C 
ATOM     65  C   UNL     1       9.516   2.594 -14.707  1.00  0.00     0.029 A 
ATOM     66  C   UNL     1       8.256   2.213 -14.269  1.00  0.00     0.049 A 
ATOM     67  H   UNL     1       7.693   1.417 -12.399  1.00  0.00     0.167 HD
ATOM     68  C   UNL     1       5.799   1.875 -14.502  1.00  0.00     0.074 A 
ATOM     69  C   UNL     1       4.559   1.941 -15.249  1.00  0.00     0.031 C 
ATOM     70  C   UNL     1       7.004   2.268 -14.990  1.00  0.00     0.034 A 
BRANCH  57  71
ATOM     71  C   UNL     1      11.745   1.634 -11.020  1.00  0.00     0.023 A 
ATOM     72  C   UNL     1      12.583   0.560 -10.671  1.00  0.00     0.031 A 
ATOM     73  C   UNL     1      12.308   2.923 -11.047  1.00  0.00     0.131 A 
ATOM     74  C   UNL     1      13.914   0.802 -10.296  1.00  0.00     0.055 A 
ATOM     75  C   UNL     1      13.655   3.146 -10.755  1.00  0.00     0.041 A 
ATOM     76  F   UNL     1      11.553   3.993 -11.342  1.00  0.00    -0.206 F 
ATOM     77  C   UNL     1      14.463   2.084 -10.363  1.00  0.00     0.022 A 
BRANCH  74  78
ATOM     78  S   UNL     1      14.876  -0.558  -9.575  1.00  0.00     0.124 S 
ATOM     79  O   UNL     1      14.057  -0.920  -8.421  1.00  0.00    -0.237 OA
ATOM     80  O   UNL     1      14.914  -1.529 -10.662  1.00  0.00    -0.237 OA
ATOM     81  O   UNL     1      16.158   0.064  -9.249  1.00  0.00    -0.744 OA
ENDBRANCH  74  78
ENDBRANCH  57  71
BRANCH  58  82
ATOM     82  C   UNL     1       1.833   0.384 -12.402  1.00  0.00     0.023 A 
ATOM     83  C   UNL     1       1.303  -0.424 -13.420  1.00  0.00     0.031 A 
ATOM     84  C   UNL     1       0.929   1.103 -11.597  1.00  0.00     0.131 A 
ATOM     85  C   UNL     1      -0.085  -0.461 -13.635  1.00  0.00     0.055 A 
ATOM     86  C   UNL     1      -0.453   1.012 -11.773  1.00  0.00     0.041 A 
ATOM     87  F   UNL     1       1.379   1.905 -10.619  1.00  0.00    -0.206 F 
ATOM     88  C   UNL     1      -0.967   0.237 -12.806  1.00  0.00     0.022 A 
BRANCH  85  89
ATOM     89  S   UNL     1      -0.716  -1.353 -15.082  1.00  0.00     0.124 S 
ATOM     90  O   UNL     1      -0.008  -0.690 -16.172  1.00  0.00    -0.237 OA
ATOM     91  O   UNL     1      -0.312  -2.725 -14.795  1.00  0.00    -0.237 OA
ATOM     92  O   UNL     1      -2.156  -1.106 -15.034  1.00  0.00    -0.744 OA
ENDBRANCH  85  89
ENDBRANCH  58  82
BRANCH  70  93
ATOM     93  C   UNL     1       7.048   2.741 -16.422  1.00  0.00     0.023 A 
ATOM     94  C   UNL     1       6.427   3.932 -16.834  1.00  0.00     0.031 A 
ATOM     95  C   UNL     1       7.747   1.990 -17.385  1.00  0.00     0.131 A 
ATOM     96  C   UNL     1       6.479   4.314 -18.183  1.00  0.00     0.055 A 
ATOM     97  C   UNL     1       7.853   2.410 -18.710  1.00  0.00     0.041 A 
ATOM     98  F   UNL     1       8.356   0.842 -17.046  1.00  0.00    -0.206 F 
ATOM     99  C   UNL     1       7.207   3.573 -19.118  1.00  0.00     0.022 A 
BRANCH  96 100
ATOM    100  S   UNL     1       5.513   5.751 -18.721  1.00  0.00     0.124 S 
ATOM    101  O   UNL     1       4.156   5.356 -18.362  1.00  0.00    -0.237 OA
ATOM    102  O   UNL     1       6.093   6.833 -17.932  1.00  0.00    -0.237 OA
ATOM    103  O   UNL     1       5.778   5.824 -20.157  1.00  0.00    -0.744 OA
ENDBRANCH  96 100
ENDBRANCH  70  93
ENDBRANCH  44  45
ENDBRANCH  37  39
ENDBRANCH  36  37
ENDBRANCH  35  36
ENDBRANCH  34  35
ENDBRANCH  33  34
ENDBRANCH  32  33
ENDBRANCH  31  32
ENDBRANCH   1  31
TORSDOF 26
