REMARK SMILES CC1(C)CCC[C@H]1NC(=O)N[C@@H]1COC[C@@]1(C)C(=O)OCCOCCOCCOCCOC(=O)c1ccc(-c2c3nc(c(-c4cc(S(=O)(=O)[O-])ccc4F)c4ccc([nH]4)c(-c4cc(S(=O)(=O)[O-])ccc4F)c4nc(c(-c5cc(S(=O)(=O)[O-])ccc5F)c5ccc2[nH]5)C=C4)C=C3)cc1
REMARK SMILES IDX 27 1 26 2 25 3 24 4 23 5 22 6 21 7 20 8 18 9 19 10 16 11
REMARK SMILES IDX 12 12 13 13 14 14 15 15 17 16 11 17 8 18 9 19 10 21 7 23
REMARK SMILES IDX 1 24 2 25 3 26 4 27 5 28 6 29 28 30 29 31 30 32 31 33 32 34
REMARK SMILES IDX 33 35 34 36 35 37 36 38 97 39 37 40 96 41 38 42 39 43 40 44
REMARK SMILES IDX 90 45 41 46 95 47 89 48 91 49 42 50 94 51 88 52 87 53 43 55
REMARK SMILES IDX 75 56 55 57 74 58 56 59 59 60 73 61 92 62 57 63 58 64 72 66
REMARK SMILES IDX 93 67 60 68 44 69 45 70 53 71 46 72 52 73 54 74 51 75 47 76
REMARK SMILES IDX 48 77 49 78 50 79 76 80 77 81 85 82 78 83 84 84 86 85 83 86
REMARK SMILES IDX 79 87 80 88 81 89 82 90 61 91 62 92 70 93 63 94 69 95 71 96
REMARK SMILES IDX 68 97 64 98 65 99 66 100 67 101
REMARK H PARENT 8 20 11 22 91 54 59 65
REMARK Flexibility Score: inf
ROOT
ATOM      1  C   UNL     1       5.109  -0.599   0.070  1.00  0.00     0.188 C 
ENDROOT
BRANCH   1   2
ATOM      2  O   UNL     1       4.561   0.505  -0.642  1.00  0.00    -0.377 OA
BRANCH   2   3
ATOM      3  C   UNL     1       4.354   0.409  -2.041  1.00  0.00     0.188 C 
BRANCH   3   4
ATOM      4  C   UNL     1       4.529   1.785  -2.690  1.00  0.00     0.188 C 
BRANCH   4   5
ATOM      5  O   UNL     1       5.812   2.385  -2.501  1.00  0.00    -0.376 OA
BRANCH   5   6
ATOM      6  C   UNL     1       6.108   2.904  -1.195  1.00  0.00     0.202 C 
BRANCH   6   7
ATOM      7  C   UNL     1       5.252   4.107  -0.756  1.00  0.00     0.261 C 
BRANCH   7   8
ATOM      8  O   UNL     1       3.955   3.647  -0.337  1.00  0.00    -0.463 OA
BRANCH   8   9
ATOM      9  C   UNL     1       2.809   4.300  -0.686  1.00  0.00     0.316 C 
ATOM     10  O   UNL     1       2.764   5.392  -1.233  1.00  0.00    -0.251 OA
BRANCH   9  11
ATOM     11  C   UNL     1       1.592   3.387  -0.443  1.00  0.00     0.111 C 
ATOM     12  C   UNL     1       0.329   4.107   0.046  1.00  0.00     0.129 C 
ATOM     13  C   UNL     1      -0.720   3.946  -1.048  1.00  0.00     0.186 C 
ATOM     14  O   UNL     1      -0.235   3.001  -1.998  1.00  0.00    -0.378 OA
ATOM     15  C   UNL     1       1.178   2.855  -1.820  1.00  0.00     0.181 C 
ATOM     16  C   UNL     1       2.031   2.294   0.519  1.00  0.00     0.028 C 
BRANCH  12  17
ATOM     17  N   UNL     1      -0.185   3.780   1.396  1.00  0.00    -0.332 N 
ATOM     18  N   UNL     1      -0.945   1.529   1.736  1.00  0.00    -0.335 N 
ATOM     19  C   UNL     1      -0.691   2.780   2.119  1.00  0.00     0.315 C 
ATOM     20  H   UNL     1      -1.153   0.958   2.511  1.00  0.00     0.165 HD
ATOM     21  O   UNL     1      -0.932   3.048   3.302  1.00  0.00    -0.249 OA
ATOM     22  H   UNL     1      -0.136   4.586   1.958  1.00  0.00     0.165 HD
BRANCH  18  23
ATOM     23  C   UNL     1      -1.002   0.764   0.490  1.00  0.00     0.089 C 
ATOM     24  C   UNL     1       0.900  -0.801   1.524  1.00  0.00     0.013 C 
ATOM     25  C   UNL     1      -0.258  -0.623   0.527  1.00  0.00    -0.015 C 
ATOM     26  C   UNL     1       0.285  -0.950  -0.883  1.00  0.00     0.013 C 
ATOM     27  C   UNL     1      -1.374  -1.606   0.909  1.00  0.00     0.008 C 
ATOM     28  C   UNL     1      -2.594  -1.106   0.163  1.00  0.00     0.003 C 
ATOM     29  C   UNL     1      -2.476   0.416   0.179  1.00  0.00     0.025 C 
ENDBRANCH  18  23
ENDBRANCH  12  17
ENDBRANCH   9  11
ENDBRANCH   8   9
ENDBRANCH   7   8
ENDBRANCH   6   7
ENDBRANCH   5   6
ENDBRANCH   4   5
ENDBRANCH   3   4
ENDBRANCH   2   3
ENDBRANCH   1   2
BRANCH   1  30
ATOM     30  C   UNL     1       5.880  -1.638  -0.747  1.00  0.00     0.188 C 
BRANCH  30  31
ATOM     31  O   UNL     1       5.104  -2.458  -1.628  1.00  0.00    -0.376 OA
BRANCH  31  32
ATOM     32  C   UNL     1       3.817  -2.898  -1.198  1.00  0.00     0.202 C 
BRANCH  32  33
ATOM     33  C   UNL     1       3.808  -4.082  -0.232  1.00  0.00     0.261 C 
BRANCH  33  34
ATOM     34  O   UNL     1       4.238  -3.692   1.080  1.00  0.00    -0.460 OA
BRANCH  34  35
ATOM     35  C   UNL     1       5.513  -4.039   1.379  1.00  0.00     0.338 C 
ATOM     36  O   UNL     1       6.293  -4.648   0.670  1.00  0.00    -0.246 OA
BRANCH  35  37
ATOM     37  C   UNL     1       5.904  -3.410   2.652  1.00  0.00     0.060 A 
ATOM     38  C   UNL     1       7.145  -2.764   2.706  1.00  0.00     0.016 A 
ATOM     39  C   UNL     1       5.115  -3.545   3.797  1.00  0.00     0.016 A 
ATOM     40  C   UNL     1       7.639  -2.319   3.925  1.00  0.00     0.010 A 
ATOM     41  C   UNL     1       5.617  -3.109   5.024  1.00  0.00     0.010 A 
ATOM     42  C   UNL     1       6.905  -2.550   5.095  1.00  0.00    -0.014 A 
BRANCH  42  43
ATOM     43  C   UNL     1       7.604  -2.442   6.395  1.00  0.00     0.031 A 
ATOM     44  C   UNL     1       8.175  -3.700   6.994  1.00  0.00     0.074 A 
ATOM     45  C   UNL     1       7.790  -1.247   6.978  1.00  0.00     0.049 A 
ATOM     46  N   UNL     1       8.839  -3.865   8.107  1.00  0.00    -0.248 NA
ATOM     47  C   UNL     1       7.963  -4.940   6.230  1.00  0.00     0.031 C 
ATOM     48  C   UNL     1       7.326   0.033   6.445  1.00  0.00     0.029 A 
ATOM     49  N   UNL     1       8.428  -0.917   8.144  1.00  0.00    -0.354 N 
ATOM     50  C   UNL     1       9.126  -5.225   8.176  1.00  0.00     0.074 A 
ATOM     51  C   UNL     1       8.521  -5.845   7.018  1.00  0.00     0.031 C 
ATOM     52  C   UNL     1       7.695   1.013   7.287  1.00  0.00     0.029 A 
ATOM     53  C   UNL     1       8.390   0.426   8.431  1.00  0.00     0.049 A 
ATOM     54  H   UNL     1       8.872  -1.579   8.722  1.00  0.00     0.167 HD
ATOM     55  C   UNL     1       9.841  -5.892   9.115  1.00  0.00     0.034 A 
ATOM     56  C   UNL     1       8.851   1.095   9.506  1.00  0.00     0.034 A 
ATOM     57  C   UNL     1      10.418  -5.251  10.271  1.00  0.00     0.049 A 
ATOM     58  C   UNL     1       9.572   0.319  10.582  1.00  0.00     0.074 A 
ATOM     59  C   UNL     1      11.151  -5.817  11.298  1.00  0.00     0.029 A 
ATOM     60  N   UNL     1      10.317  -3.893  10.557  1.00  0.00    -0.354 N 
ATOM     61  N   UNL     1       9.836  -0.967  10.642  1.00  0.00    -0.248 NA
ATOM     62  C   UNL     1      10.070   1.089  11.727  1.00  0.00     0.031 C 
ATOM     63  C   UNL     1      11.430  -4.819  12.238  1.00  0.00     0.029 A 
ATOM     64  C   UNL     1      10.949  -3.610  11.758  1.00  0.00     0.049 A 
ATOM     65  H   UNL     1       9.863  -3.230   9.989  1.00  0.00     0.167 HD
ATOM     66  C   UNL     1      10.564  -1.153  11.815  1.00  0.00     0.074 A 
ATOM     67  C   UNL     1      10.710   0.157  12.418  1.00  0.00     0.031 C 
ATOM     68  C   UNL     1      11.072  -2.296  12.345  1.00  0.00     0.034 A 
BRANCH  55  69
ATOM     69  C   UNL     1       9.973  -7.388   8.951  1.00  0.00     0.023 A 
ATOM     70  C   UNL     1      10.631  -7.961   7.848  1.00  0.00     0.031 A 
ATOM     71  C   UNL     1       9.386  -8.257   9.888  1.00  0.00     0.131 A 
ATOM     72  C   UNL     1      10.620  -9.353   7.669  1.00  0.00     0.055 A 
ATOM     73  C   UNL     1       9.452  -9.645   9.748  1.00  0.00     0.041 A 
ATOM     74  F   UNL     1       8.719  -7.772  10.947  1.00  0.00    -0.206 F 
ATOM     75  C   UNL     1      10.058 -10.201   8.626  1.00  0.00     0.022 A 
BRANCH  72  76
ATOM     76  S   UNL     1      11.213 -10.033   6.095  1.00  0.00     0.124 S 
ATOM     77  O   UNL     1      10.329  -9.371   5.137  1.00  0.00    -0.237 OA
ATOM     78  O   UNL     1      12.609  -9.611   6.074  1.00  0.00    -0.237 OA
ATOM     79  O   UNL     1      10.998 -11.471   6.239  1.00  0.00    -0.744 OA
ENDBRANCH  72  76
ENDBRANCH  55  69
BRANCH  56  80
ATOM     80  C   UNL     1       8.627   2.564   9.637  1.00  0.00     0.023 A 
ATOM     81  C   UNL     1       9.703   3.464   9.689  1.00  0.00     0.031 A 
ATOM     82  C   UNL     1       7.327   3.085   9.765  1.00  0.00     0.131 A 
ATOM     83  C   UNL     1       9.463   4.829   9.913  1.00  0.00     0.055 A 
ATOM     84  C   UNL     1       7.090   4.450   9.932  1.00  0.00     0.041 A 
ATOM     85  F   UNL     1       6.261   2.269   9.723  1.00  0.00    -0.206 F 
ATOM     86  C   UNL     1       8.164   5.330  10.021  1.00  0.00     0.022 A 
BRANCH  83  87
ATOM     87  S   UNL     1      10.883   5.932  10.150  1.00  0.00     0.124 S 
ATOM     88  O   UNL     1      11.556   5.311  11.286  1.00  0.00    -0.237 OA
ATOM     89  O   UNL     1      11.565   5.827   8.864  1.00  0.00    -0.237 OA
ATOM     90  O   UNL     1      10.265   7.228  10.422  1.00  0.00    -0.744 OA
ENDBRANCH  83  87
ENDBRANCH  56  80
BRANCH  68  91
ATOM     91  C   UNL     1      11.877  -2.159  13.617  1.00  0.00     0.023 A 
ATOM     92  C   UNL     1      11.295  -1.723  14.820  1.00  0.00     0.031 A 
ATOM     93  C   UNL     1      13.254  -2.444  13.614  1.00  0.00     0.131 A 
ATOM     94  C   UNL     1      12.101  -1.511  15.948  1.00  0.00     0.055 A 
ATOM     95  C   UNL     1      14.037  -2.302  14.760  1.00  0.00     0.041 A 
ATOM     96  F   UNL     1      13.864  -2.863  12.494  1.00  0.00    -0.206 F 
ATOM     97  C   UNL     1      13.464  -1.815  15.931  1.00  0.00     0.022 A 
BRANCH  94  98
ATOM     98  S   UNL     1      11.367  -0.711  17.401  1.00  0.00     0.124 S 
ATOM     99  O   UNL     1      10.845   0.528  16.834  1.00  0.00    -0.237 OA
ATOM    100  O   UNL     1      10.369  -1.689  17.823  1.00  0.00    -0.237 OA
ATOM    101  O   UNL     1      12.499  -0.548  18.311  1.00  0.00    -0.744 OA
ENDBRANCH  94  98
ENDBRANCH  68  91
ENDBRANCH  42  43
ENDBRANCH  35  37
ENDBRANCH  34  35
ENDBRANCH  33  34
ENDBRANCH  32  33
ENDBRANCH  31  32
ENDBRANCH  30  31
ENDBRANCH   1  30
TORSDOF 25
