REMARK SMILES Cc1cccc(CC(=O)N2CCC3(CCC(=O)N([C@H](C)C(=O)OCCOCCOCCOCCOC(=O)c4ccc(-c5c6nc(c(-c7cc(S(=O)(=O)[O-])ccc7F)c7ccc([nH]7)c(-c7cc(S(=O)(=O)[O-])ccc7F)c7nc(c(-c8cc(S(=O)(=O)[O-])ccc8F)c8ccc5[nH]8)C=C7)C=C6)cc4)C3)CC2)c1
REMARK SMILES IDX 29 1 28 2 27 3 26 4 25 5 24 6 23 7 21 8 22 9 19 10 20 11
REMARK SMILES IDX 18 12 8 13 9 14 10 15 11 16 103 17 12 18 102 19 13 20 14 21
REMARK SMILES IDX 101 22 15 23 16 24 17 25 7 26 6 27 1 28 2 29 3 30 104 31
REMARK SMILES IDX 4 32 5 33 30 34 31 35 32 36 33 37 34 38 35 39 36 40 37 41
REMARK SMILES IDX 38 42 39 43 100 44 40 45 99 46 41 47 42 48 43 49 93 50 44 51
REMARK SMILES IDX 98 52 92 53 94 54 45 55 97 56 91 57 90 58 46 60 78 61 58 62
REMARK SMILES IDX 77 63 59 64 62 65 76 66 95 67 60 68 61 69 75 71 96 72 63 73
REMARK SMILES IDX 47 74 48 75 56 76 49 77 55 78 57 79 54 80 50 81 51 82 52 83
REMARK SMILES IDX 53 84 79 85 80 86 88 87 81 88 87 89 89 90 86 91 82 92 83 93
REMARK SMILES IDX 84 94 85 95 64 96 65 97 73 98 66 99 72 100 74 101 71 102
REMARK SMILES IDX 67 103 68 104 69 105 70 106
REMARK H PARENT 94 59 62 70
REMARK Flexibility Score: inf
ROOT
ATOM      1  O   UNL     1      -1.080   4.374  -5.740  1.00  0.00    -0.377 OA
ENDROOT
BRANCH   1   2
ATOM      2  C   UNL     1      -0.769   4.318  -4.363  1.00  0.00     0.188 C 
BRANCH   2   3
ATOM      3  C   UNL     1      -0.532   5.637  -3.608  1.00  0.00     0.188 C 
BRANCH   3   4
ATOM      4  O   UNL     1      -1.578   6.586  -3.477  1.00  0.00    -0.376 OA
BRANCH   4   5
ATOM      5  C   UNL     1      -1.748   7.474  -4.578  1.00  0.00     0.202 C 
BRANCH   5   6
ATOM      6  C   UNL     1      -0.673   8.535  -4.813  1.00  0.00     0.261 C 
BRANCH   6   7
ATOM      7  O   UNL     1       0.310   8.049  -5.721  1.00  0.00    -0.462 OA
BRANCH   7   8
ATOM      8  C   UNL     1       1.522   7.742  -5.223  1.00  0.00     0.328 C 
ATOM      9  O   UNL     1       1.924   7.985  -4.097  1.00  0.00    -0.250 OA
BRANCH   8  10
ATOM     10  C   UNL     1       2.256   6.839  -6.208  1.00  0.00     0.192 C 
ATOM     11  C   UNL     1       1.456   5.584  -6.501  1.00  0.00     0.044 C 
BRANCH  10  12
ATOM     12  N   UNL     1       2.691   7.595  -7.381  1.00  0.00    -0.329 N 
ATOM     13  C   UNL     1       8.330   5.153  -6.997  1.00  0.00     0.226 C 
ATOM     14  O   UNL     1       8.505   3.981  -6.640  1.00  0.00    -0.275 OA
ATOM     15  N   UNL     1       7.337   5.468  -7.908  1.00  0.00    -0.342 N 
ATOM     16  C   UNL     1       6.086   4.732  -7.830  1.00  0.00     0.120 C 
ATOM     17  C   UNL     1       7.274   6.631  -8.786  1.00  0.00     0.120 C 
ATOM     18  C   UNL     1       5.019   5.684  -7.287  1.00  0.00     0.030 C 
ATOM     19  C   UNL     1       6.304   7.645  -8.223  1.00  0.00     0.030 C 
ATOM     20  C   UNL     1       4.915   7.018  -8.101  1.00  0.00    -0.008 C 
ATOM     21  C   UNL     1       4.318   6.751  -9.522  1.00  0.00     0.019 C 
ATOM     22  C   UNL     1       4.041   8.063  -7.373  1.00  0.00     0.127 C 
ATOM     23  C   UNL     1       2.841   6.387  -9.462  1.00  0.00     0.101 C 
ATOM     24  C   UNL     1       2.185   7.486  -8.667  1.00  0.00     0.223 C 
ATOM     25  O   UNL     1       1.648   8.411  -9.263  1.00  0.00    -0.275 OA
BRANCH  13  26
ATOM     26  C   UNL     1       9.035   6.261  -6.213  1.00  0.00     0.135 C 
BRANCH  26  27
ATOM     27  C   UNL     1       9.573   7.447  -6.967  1.00  0.00    -0.038 A 
ATOM     28  C   UNL     1       8.757  11.160  -7.257  1.00  0.00     0.044 C 
ATOM     29  C   UNL     1       9.375   9.815  -7.508  1.00  0.00    -0.051 A 
ATOM     30  C   UNL     1      10.191   9.609  -8.626  1.00  0.00     0.003 A 
ATOM     31  C   UNL     1       9.097   8.734  -6.666  1.00  0.00     0.007 A 
ATOM     32  C   UNL     1      10.743   8.351  -8.880  1.00  0.00     0.001 A 
ATOM     33  C   UNL     1      10.455   7.274  -8.042  1.00  0.00     0.004 A 
ENDBRANCH  26  27
ENDBRANCH  13  26
ENDBRANCH  10  12
ENDBRANCH   8  10
ENDBRANCH   7   8
ENDBRANCH   6   7
ENDBRANCH   5   6
ENDBRANCH   4   5
ENDBRANCH   3   4
ENDBRANCH   2   3
ENDBRANCH   1   2
BRANCH   1  34
ATOM     34  C   UNL     1      -2.426   4.230  -6.179  1.00  0.00     0.188 C 
BRANCH  34  35
ATOM     35  C   UNL     1      -3.385   3.519  -5.245  1.00  0.00     0.188 C 
BRANCH  35  36
ATOM     36  O   UNL     1      -3.643   4.408  -4.154  1.00  0.00    -0.376 OA
BRANCH  36  37
ATOM     37  C   UNL     1      -3.913   3.807  -2.897  1.00  0.00     0.202 C 
BRANCH  37  38
ATOM     38  C   UNL     1      -5.115   2.865  -2.929  1.00  0.00     0.261 C 
BRANCH  38  39
ATOM     39  O   UNL     1      -6.319   3.621  -3.183  1.00  0.00    -0.460 OA
BRANCH  39  40
ATOM     40  C   UNL     1      -6.775   3.569  -4.464  1.00  0.00     0.338 C 
ATOM     41  O   UNL     1      -7.146   2.541  -5.023  1.00  0.00    -0.246 OA
BRANCH  40  42
ATOM     42  C   UNL     1      -6.613   4.888  -5.143  1.00  0.00     0.060 A 
ATOM     43  C   UNL     1      -6.739   5.001  -6.540  1.00  0.00     0.016 A 
ATOM     44  C   UNL     1      -6.028   5.924  -4.431  1.00  0.00     0.016 A 
ATOM     45  C   UNL     1      -6.117   6.062  -7.229  1.00  0.00     0.010 A 
ATOM     46  C   UNL     1      -5.320   6.884  -5.126  1.00  0.00     0.010 A 
ATOM     47  C   UNL     1      -5.320   6.967  -6.528  1.00  0.00    -0.014 A 
BRANCH  47  48
ATOM     48  C   UNL     1      -4.310   7.896  -7.098  1.00  0.00     0.031 A 
ATOM     49  C   UNL     1      -4.122   9.260  -6.475  1.00  0.00     0.074 A 
ATOM     50  C   UNL     1      -3.323   7.376  -7.870  1.00  0.00     0.049 A 
ATOM     51  N   UNL     1      -3.139  10.067  -6.684  1.00  0.00    -0.248 NA
ATOM     52  C   UNL     1      -5.063   9.830  -5.510  1.00  0.00     0.031 C 
ATOM     53  C   UNL     1      -1.928   7.816  -7.890  1.00  0.00     0.029 A 
ATOM     54  N   UNL     1      -3.312   6.283  -8.734  1.00  0.00    -0.354 N 
ATOM     55  C   UNL     1      -3.138  11.070  -5.726  1.00  0.00     0.074 A 
ATOM     56  C   UNL     1      -4.397  10.898  -5.053  1.00  0.00     0.031 C 
ATOM     57  C   UNL     1      -1.215   7.048  -8.717  1.00  0.00     0.029 A 
ATOM     58  C   UNL     1      -2.143   6.316  -9.512  1.00  0.00     0.049 A 
ATOM     59  H   UNL     1      -4.014   5.595  -8.790  1.00  0.00     0.167 HD
ATOM     60  C   UNL     1      -2.018  11.848  -5.566  1.00  0.00     0.034 A 
ATOM     61  C   UNL     1      -2.182   6.495 -10.865  1.00  0.00     0.034 A 
ATOM     62  C   UNL     1      -1.048  11.592  -6.644  1.00  0.00     0.049 A 
ATOM     63  C   UNL     1      -1.727   7.910 -11.256  1.00  0.00     0.074 A 
ATOM     64  C   UNL     1       0.291  11.245  -6.693  1.00  0.00     0.029 A 
ATOM     65  N   UNL     1      -1.505  11.540  -7.960  1.00  0.00    -0.354 N 
ATOM     66  N   UNL     1      -1.788   8.940 -10.434  1.00  0.00    -0.248 NA
ATOM     67  C   UNL     1      -1.010   8.250 -12.486  1.00  0.00     0.031 C 
ATOM     68  C   UNL     1       0.601  10.912  -8.039  1.00  0.00     0.029 A 
ATOM     69  C   UNL     1      -0.538  11.075  -8.815  1.00  0.00     0.049 A 
ATOM     70  H   UNL     1      -2.411  11.803  -8.242  1.00  0.00     0.167 HD
ATOM     71  C   UNL     1      -1.050   9.988 -10.931  1.00  0.00     0.074 A 
ATOM     72  C   UNL     1      -0.628   9.520 -12.243  1.00  0.00     0.031 C 
ATOM     73  C   UNL     1      -0.741  11.139 -10.251  1.00  0.00     0.034 A 
BRANCH  60  74
ATOM     74  C   UNL     1      -1.648  12.755  -4.377  1.00  0.00     0.023 A 
ATOM     75  C   UNL     1      -0.392  13.425  -4.374  1.00  0.00     0.031 A 
ATOM     76  C   UNL     1      -2.398  12.947  -3.199  1.00  0.00     0.131 A 
ATOM     77  C   UNL     1       0.073  14.170  -3.266  1.00  0.00     0.055 A 
ATOM     78  C   UNL     1      -1.959  13.733  -2.116  1.00  0.00     0.041 A 
ATOM     79  F   UNL     1      -3.585  12.370  -3.001  1.00  0.00    -0.206 F 
ATOM     80  C   UNL     1      -0.716  14.341  -2.138  1.00  0.00     0.022 A 
BRANCH  77  81
ATOM     81  S   UNL     1       1.743  14.895  -3.298  1.00  0.00     0.124 S 
ATOM     82  O   UNL     1       2.594  13.710  -3.264  1.00  0.00    -0.237 OA
ATOM     83  O   UNL     1       1.738  15.653  -4.543  1.00  0.00    -0.237 OA
ATOM     84  O   UNL     1       1.782  15.712  -2.084  1.00  0.00    -0.744 OA
ENDBRANCH  77  81
ENDBRANCH  60  74
BRANCH  61  85
ATOM     85  C   UNL     1      -3.068   5.439 -11.467  1.00  0.00     0.023 A 
ATOM     86  C   UNL     1      -2.560   4.128 -11.229  1.00  0.00     0.031 A 
ATOM     87  C   UNL     1      -4.460   5.610 -11.366  1.00  0.00     0.131 A 
ATOM     88  C   UNL     1      -3.351   3.184 -10.544  1.00  0.00     0.055 A 
ATOM     89  C   UNL     1      -5.262   4.631 -10.749  1.00  0.00     0.041 A 
ATOM     90  F   UNL     1      -5.017   6.804 -11.616  1.00  0.00    -0.206 F 
ATOM     91  C   UNL     1      -4.692   3.450 -10.264  1.00  0.00     0.022 A 
BRANCH  88  92
ATOM     92  S   UNL     1      -2.520   1.789  -9.697  1.00  0.00     0.124 S 
ATOM     93  O   UNL     1      -2.406   0.806 -10.768  1.00  0.00    -0.237 OA
ATOM     94  O   UNL     1      -1.267   2.384  -9.245  1.00  0.00    -0.237 OA
ATOM     95  O   UNL     1      -3.451   1.449  -8.621  1.00  0.00    -0.744 OA
ENDBRANCH  88  92
ENDBRANCH  61  85
BRANCH  73  96
ATOM     96  C   UNL     1      -0.557  12.504 -10.894  1.00  0.00     0.023 A 
ATOM     97  C   UNL     1      -0.777  12.720 -12.255  1.00  0.00     0.031 A 
ATOM     98  C   UNL     1      -0.335  13.679 -10.119  1.00  0.00     0.131 A 
ATOM     99  C   UNL     1      -0.722  14.010 -12.804  1.00  0.00     0.055 A 
ATOM    100  C   UNL     1      -0.360  14.968 -10.654  1.00  0.00     0.041 A 
ATOM    101  F   UNL     1      -0.125  13.647  -8.795  1.00  0.00    -0.206 F 
ATOM    102  C   UNL     1      -0.547  15.141 -12.012  1.00  0.00     0.022 A 
BRANCH  99 103
ATOM    103  S   UNL     1      -0.846  14.153 -14.598  1.00  0.00     0.124 S 
ATOM    104  O   UNL     1       0.352  13.442 -15.037  1.00  0.00    -0.237 OA
ATOM    105  O   UNL     1      -2.115  13.488 -14.881  1.00  0.00    -0.237 OA
ATOM    106  O   UNL     1      -0.835  15.595 -14.832  1.00  0.00    -0.744 OA
ENDBRANCH  99 103
ENDBRANCH  73  96
ENDBRANCH  47  48
ENDBRANCH  40  42
ENDBRANCH  39  40
ENDBRANCH  38  39
ENDBRANCH  37  38
ENDBRANCH  36  37
ENDBRANCH  35  36
ENDBRANCH  34  35
ENDBRANCH   1  34
TORSDOF 26
