REMARK SMILES CC(C)[C@H](NC(=O)OCc1ccccc1)C(=O)NCC(=O)OCCOCCOCCOCCOC(=O)c1ccc(-c2c3nc(c(-c4cc(S(=O)(=O)[O-])ccc4F)c4ccc([nH]4)c(-c4cc(S(=O)(=O)[O-])ccc4F)c4nc(c(-c5cc(S(=O)(=O)[O-])ccc5F)c5ccc2[nH]5)C=C4)C=C3)cc1
REMARK SMILES IDX 26 1 25 2 24 3 23 4 22 5 20 6 21 7 19 8 18 9 16 10 17 11
REMARK SMILES IDX 4 13 2 14 1 15 3 16 5 17 6 18 7 20 8 21 9 22 10 23 11 24
REMARK SMILES IDX 15 25 12 26 14 27 13 28 27 29 28 30 29 31 30 32 31 33 32 34
REMARK SMILES IDX 33 35 34 36 35 37 36 38 37 39 38 40 99 41 39 42 98 43 40 44
REMARK SMILES IDX 41 45 42 46 92 47 43 48 97 49 91 50 93 51 44 52 96 53 90 54
REMARK SMILES IDX 89 55 45 57 77 58 57 59 76 60 58 61 61 62 75 63 94 64 59 65
REMARK SMILES IDX 60 66 74 68 95 69 62 70 46 71 47 72 55 73 48 74 54 75 56 76
REMARK SMILES IDX 53 77 49 78 50 79 51 80 52 81 78 82 79 83 87 84 80 85 86 86
REMARK SMILES IDX 88 87 85 88 81 89 82 90 83 91 84 92 63 93 64 94 72 95 65 96
REMARK SMILES IDX 71 97 73 98 70 99 66 100 67 101 68 102 69 103
REMARK H PARENT 18 12 5 19 93 56 61 67
REMARK Flexibility Score: inf
ROOT
ATOM      1  C   UNL     1       1.145   6.201   3.154  1.00  0.00     0.188 C 
ENDROOT
BRANCH   1   2
ATOM      2  O   UNL     1       2.490   6.617   3.031  1.00  0.00    -0.376 OA
BRANCH   2   3
ATOM      3  C   UNL     1       3.452   5.969   2.206  1.00  0.00     0.202 C 
BRANCH   3   4
ATOM      4  C   UNL     1       3.446   4.477   1.839  1.00  0.00     0.261 C 
BRANCH   4   5
ATOM      5  O   UNL     1       2.170   3.953   1.477  1.00  0.00    -0.462 OA
BRANCH   5   6
ATOM      6  C   UNL     1       1.605   3.146   2.405  1.00  0.00     0.325 C 
ATOM      7  O   UNL     1       2.142   2.767   3.441  1.00  0.00    -0.250 OA
BRANCH   6   8
ATOM      8  C   UNL     1       0.127   2.907   2.142  1.00  0.00     0.238 C 
BRANCH   8   9
ATOM      9  N   UNL     1      -0.486   3.288   0.858  1.00  0.00    -0.343 N 
ATOM     10  C   UNL     1      -1.298   2.512   0.059  1.00  0.00     0.243 C 
ATOM     11  O   UNL     1      -2.160   3.036  -0.642  1.00  0.00    -0.273 OA
ATOM     12  H   UNL     1      -0.296   4.199   0.535  1.00  0.00     0.164 HD
BRANCH  10  13
ATOM     13  C   UNL     1      -1.110   0.986   0.139  1.00  0.00     0.177 C 
BRANCH  13  14
ATOM     14  C   UNL     1      -1.870   0.304   1.317  1.00  0.00     0.015 C 
ATOM     15  C   UNL     1      -2.743   1.214   2.200  1.00  0.00     0.010 C 
ATOM     16  C   UNL     1      -2.779  -0.803   0.770  1.00  0.00     0.010 C 
ENDBRANCH  13  14
BRANCH  13  17
ATOM     17  N   UNL     1       0.357   0.902   0.207  1.00  0.00    -0.309 N 
ATOM     18  C   UNL     1       1.171  -0.101   0.562  1.00  0.00     0.408 C 
ATOM     19  H   UNL     1       0.823   1.729  -0.053  1.00  0.00     0.167 HD
ATOM     20  O   UNL     1       2.316   0.147   0.931  1.00  0.00    -0.225 OA
BRANCH  18  21
ATOM     21  O   UNL     1       0.618  -1.317   0.423  1.00  0.00    -0.445 OA
BRANCH  21  22
ATOM     22  C   UNL     1       1.524  -2.389   0.684  1.00  0.00     0.270 C 
BRANCH  22  23
ATOM     23  C   UNL     1       2.352  -2.788  -0.520  1.00  0.00    -0.011 A 
ATOM     24  C   UNL     1       2.607  -4.146  -0.748  1.00  0.00     0.007 A 
ATOM     25  C   UNL     1       2.966  -1.849  -1.367  1.00  0.00     0.007 A 
ATOM     26  C   UNL     1       3.444  -4.550  -1.790  1.00  0.00     0.000 A 
ATOM     27  C   UNL     1       3.805  -2.251  -2.406  1.00  0.00     0.000 A 
ATOM     28  C   UNL     1       4.046  -3.603  -2.615  1.00  0.00     0.000 A 
ENDBRANCH  22  23
ENDBRANCH  21  22
ENDBRANCH  18  21
ENDBRANCH  13  17
ENDBRANCH  10  13
ENDBRANCH   8   9
ENDBRANCH   6   8
ENDBRANCH   5   6
ENDBRANCH   4   5
ENDBRANCH   3   4
ENDBRANCH   2   3
ENDBRANCH   1   2
BRANCH   1  29
ATOM     29  C   UNL     1       0.167   6.272   1.972  1.00  0.00     0.188 C 
BRANCH  29  30
ATOM     30  O   UNL     1       0.713   6.011   0.697  1.00  0.00    -0.377 OA
BRANCH  30  31
ATOM     31  C   UNL     1       1.307   7.098  -0.019  1.00  0.00     0.188 C 
BRANCH  31  32
ATOM     32  C   UNL     1       1.556   8.460   0.673  1.00  0.00     0.188 C 
BRANCH  32  33
ATOM     33  O   UNL     1       0.544   8.877   1.573  1.00  0.00    -0.376 OA
BRANCH  33  34
ATOM     34  C   UNL     1      -0.509   9.703   1.100  1.00  0.00     0.202 C 
BRANCH  34  35
ATOM     35  C   UNL     1      -1.349   9.222  -0.095  1.00  0.00     0.261 C 
BRANCH  35  36
ATOM     36  O   UNL     1      -0.644   8.973  -1.322  1.00  0.00    -0.460 OA
BRANCH  36  37
ATOM     37  C   UNL     1       0.104   9.972  -1.839  1.00  0.00     0.338 C 
ATOM     38  O   UNL     1       0.205  11.105  -1.409  1.00  0.00    -0.246 OA
BRANCH  37  39
ATOM     39  C   UNL     1       0.951   9.389  -2.902  1.00  0.00     0.060 A 
ATOM     40  C   UNL     1       2.345   9.452  -2.774  1.00  0.00     0.016 A 
ATOM     41  C   UNL     1       0.372   8.788  -4.021  1.00  0.00     0.016 A 
ATOM     42  C   UNL     1       3.165   8.947  -3.784  1.00  0.00     0.010 A 
ATOM     43  C   UNL     1       1.194   8.306  -5.044  1.00  0.00     0.010 A 
ATOM     44  C   UNL     1       2.593   8.415  -4.947  1.00  0.00    -0.014 A 
BRANCH  44  45
ATOM     45  C   UNL     1       3.441   8.174  -6.142  1.00  0.00     0.031 A 
ATOM     46  C   UNL     1       3.457   9.224  -7.221  1.00  0.00     0.074 A 
ATOM     47  C   UNL     1       4.202   7.071  -6.259  1.00  0.00     0.049 A 
ATOM     48  N   UNL     1       4.042   9.210  -8.390  1.00  0.00    -0.248 NA
ATOM     49  C   UNL     1       2.706  10.458  -6.938  1.00  0.00     0.031 C 
ATOM     50  C   UNL     1       4.327   6.019  -5.252  1.00  0.00     0.029 A 
ATOM     51  N   UNL     1       5.013   6.652  -7.285  1.00  0.00    -0.354 N 
ATOM     52  C   UNL     1       3.734  10.430  -8.981  1.00  0.00     0.074 A 
ATOM     53  C   UNL     1       2.870  11.138  -8.061  1.00  0.00     0.031 C 
ATOM     54  C   UNL     1       5.157   5.068  -5.718  1.00  0.00     0.029 A 
ATOM     55  C   UNL     1       5.583   5.418  -7.072  1.00  0.00     0.049 A 
ATOM     56  H   UNL     1       5.171   7.185  -8.098  1.00  0.00     0.167 HD
ATOM     57  C   UNL     1       4.146  10.923 -10.175  1.00  0.00     0.034 A 
ATOM     58  C   UNL     1       6.332   4.650  -7.891  1.00  0.00     0.034 A 
ATOM     59  C   UNL     1       4.990  10.198 -11.092  1.00  0.00     0.049 A 
ATOM     60  C   UNL     1       6.664   5.163  -9.277  1.00  0.00     0.074 A 
ATOM     61  C   UNL     1       5.449  10.593 -12.336  1.00  0.00     0.029 A 
ATOM     62  N   UNL     1       5.496   8.925 -10.868  1.00  0.00    -0.354 N 
ATOM     63  N   UNL     1       6.355   6.313  -9.832  1.00  0.00    -0.248 NA
ATOM     64  C   UNL     1       7.452   4.275 -10.144  1.00  0.00     0.031 C 
ATOM     65  C   UNL     1       6.166   9.532 -12.896  1.00  0.00     0.029 A 
ATOM     66  C   UNL     1       6.236   8.508 -11.964  1.00  0.00     0.049 A 
ATOM     67  H   UNL     1       5.351   8.395 -10.052  1.00  0.00     0.167 HD
ATOM     68  C   UNL     1       6.952   6.300 -11.093  1.00  0.00     0.074 A 
ATOM     69  C   UNL     1       7.647   5.037 -11.209  1.00  0.00     0.031 C 
ATOM     70  C   UNL     1       6.931   7.247 -12.066  1.00  0.00     0.034 A 
BRANCH  57  71
ATOM     71  C   UNL     1       3.648  12.292 -10.569  1.00  0.00     0.023 A 
ATOM     72  C   UNL     1       3.990  13.439  -9.831  1.00  0.00     0.031 A 
ATOM     73  C   UNL     1       2.805  12.453 -11.683  1.00  0.00     0.131 A 
ATOM     74  C   UNL     1       3.438  14.682 -10.175  1.00  0.00     0.055 A 
ATOM     75  C   UNL     1       2.328  13.706 -12.070  1.00  0.00     0.041 A 
ATOM     76  F   UNL     1       2.423  11.391 -12.409  1.00  0.00    -0.206 F 
ATOM     77  C   UNL     1       2.633  14.829 -11.306  1.00  0.00     0.022 A 
BRANCH  74  78
ATOM     78  S   UNL     1       3.671  16.075  -9.037  1.00  0.00     0.124 S 
ATOM     79  O   UNL     1       3.075  15.556  -7.809  1.00  0.00    -0.237 OA
ATOM     80  O   UNL     1       5.121  16.235  -9.026  1.00  0.00    -0.237 OA
ATOM     81  O   UNL     1       2.928  17.163  -9.671  1.00  0.00    -0.744 OA
ENDBRANCH  74  78
ENDBRANCH  57  71
BRANCH  58  82
ATOM     82  C   UNL     1       6.786   3.291  -7.467  1.00  0.00     0.023 A 
ATOM     83  C   UNL     1       8.151   2.963  -7.431  1.00  0.00     0.031 A 
ATOM     84  C   UNL     1       5.860   2.267  -7.194  1.00  0.00     0.131 A 
ATOM     85  C   UNL     1       8.549   1.636  -7.202  1.00  0.00     0.055 A 
ATOM     86  C   UNL     1       6.263   0.964  -6.895  1.00  0.00     0.041 A 
ATOM     87  F   UNL     1       4.541   2.517  -7.225  1.00  0.00    -0.206 F 
ATOM     88  C   UNL     1       7.615   0.638  -6.918  1.00  0.00     0.022 A 
BRANCH  85  89
ATOM     89  S   UNL     1      10.297   1.206  -7.426  1.00  0.00     0.124 S 
ATOM     90  O   UNL     1      10.533   1.641  -8.798  1.00  0.00    -0.237 OA
ATOM     91  O   UNL     1      10.939   1.998  -6.382  1.00  0.00    -0.237 OA
ATOM     92  O   UNL     1      10.321  -0.239  -7.214  1.00  0.00    -0.744 OA
ENDBRANCH  85  89
ENDBRANCH  58  82
BRANCH  70  93
ATOM     93  C   UNL     1       7.742   6.981 -13.313  1.00  0.00     0.023 A 
ATOM     94  C   UNL     1       7.428   5.936 -14.200  1.00  0.00     0.031 A 
ATOM     95  C   UNL     1       8.851   7.793 -13.618  1.00  0.00     0.131 A 
ATOM     96  C   UNL     1       8.246   5.695 -15.314  1.00  0.00     0.055 A 
ATOM     97  C   UNL     1       9.619   7.591 -14.765  1.00  0.00     0.041 A 
ATOM     98  F   UNL     1       9.201   8.804 -12.807  1.00  0.00    -0.206 F 
ATOM     99  C   UNL     1       9.327   6.528 -15.614  1.00  0.00     0.022 A 
BRANCH  96 100
ATOM    100  S   UNL     1       7.939   4.214 -16.316  1.00  0.00     0.124 S 
ATOM    101  O   UNL     1       8.067   3.147 -15.329  1.00  0.00    -0.237 OA
ATOM    102  O   UNL     1       6.593   4.454 -16.825  1.00  0.00    -0.237 OA
ATOM    103  O   UNL     1       8.998   4.256 -17.324  1.00  0.00    -0.744 OA
ENDBRANCH  96 100
ENDBRANCH  70  93
ENDBRANCH  44  45
ENDBRANCH  37  39
ENDBRANCH  36  37
ENDBRANCH  35  36
ENDBRANCH  34  35
ENDBRANCH  33  34
ENDBRANCH  32  33
ENDBRANCH  31  32
ENDBRANCH  30  31
ENDBRANCH  29  30
ENDBRANCH   1  29
TORSDOF 30
