REMARK SMILES COc1ccc(C)cc1[C@@H](C)[C@@](O)(C(=O)OCCOCCOCCOCCOC(=O)c1ccc(-c2c3nc(c(-c4cc(S(=O)(=O)[O-])ccc4F)c4ccc([nH]4)c(-c4cc(S(=O)(=O)[O-])ccc4F)c4nc(c(-c5cc(S(=O)(=O)[O-])ccc5F)c5ccc2[nH]5)C=C4)C=C3)cc1)C(C)C
REMARK SMILES IDX 22 1 21 2 20 3 19 4 18 5 17 6 16 7 14 8 15 9 12 10 10 11
REMARK SMILES IDX 11 12 9 13 3 14 4 15 5 16 8 17 6 18 7 19 2 20 1 21 13 22
REMARK SMILES IDX 94 24 95 25 96 26 23 27 24 28 25 29 26 30 27 31 28 32 29 33
REMARK SMILES IDX 30 34 31 35 32 36 93 37 33 38 92 39 34 40 35 41 36 42 86 43
REMARK SMILES IDX 37 44 91 45 85 46 87 47 38 48 90 49 84 50 83 51 39 53 71 54
REMARK SMILES IDX 51 55 70 56 52 57 55 58 69 59 88 60 53 61 54 62 68 64 89 65
REMARK SMILES IDX 56 66 40 67 41 68 49 69 42 70 48 71 50 72 47 73 43 74 44 75
REMARK SMILES IDX 45 76 46 77 72 78 73 79 81 80 74 81 80 82 82 83 79 84 75 85
REMARK SMILES IDX 76 86 77 87 78 88 57 89 58 90 66 91 59 92 65 93 67 94 64 95
REMARK SMILES IDX 60 96 61 97 62 98 63 99
REMARK H PARENT 13 23 87 52 55 63
REMARK Flexibility Score: inf
ROOT
ATOM      1  O   UNL     1      -4.176  -1.412  -3.148  1.00  0.00    -0.377 OA
ENDROOT
BRANCH   1   2
ATOM      2  C   UNL     1      -5.119  -2.227  -3.853  1.00  0.00     0.188 C 
BRANCH   2   3
ATOM      3  C   UNL     1      -4.825  -3.752  -3.719  1.00  0.00     0.188 C 
BRANCH   3   4
ATOM      4  O   UNL     1      -5.331  -4.288  -2.514  1.00  0.00    -0.376 OA
BRANCH   4   5
ATOM      5  C   UNL     1      -4.604  -5.338  -1.868  1.00  0.00     0.202 C 
BRANCH   5   6
ATOM      6  C   UNL     1      -3.351  -5.112  -1.032  1.00  0.00     0.261 C 
BRANCH   6   7
ATOM      7  O   UNL     1      -2.421  -4.303  -1.668  1.00  0.00    -0.461 OA
BRANCH   7   8
ATOM      8  C   UNL     1      -1.879  -5.049  -2.641  1.00  0.00     0.339 C 
ATOM      9  O   UNL     1      -2.215  -6.196  -2.925  1.00  0.00    -0.249 OA
BRANCH   8  10
ATOM     10  C   UNL     1      -0.749  -4.318  -3.293  1.00  0.00     0.170 C 
BRANCH  10  11
ATOM     11  C   UNL     1      -0.564  -2.823  -2.780  1.00  0.00     0.063 C 
ATOM     12  C   UNL     1      -1.522  -1.736  -3.228  1.00  0.00     0.016 C 
BRANCH  11  13
ATOM     13  C   UNL     1       0.821  -2.315  -3.080  1.00  0.00     0.001 A 
ATOM     14  C   UNL     1       1.728  -1.905  -2.108  1.00  0.00     0.122 A 
ATOM     15  C   UNL     1       3.053  -1.682  -2.471  1.00  0.00     0.047 A 
ATOM     16  C   UNL     1       3.457  -1.836  -3.805  1.00  0.00     0.007 A 
ATOM     17  C   UNL     1       1.205  -2.295  -4.417  1.00  0.00     0.011 A 
ATOM     18  C   UNL     1       2.522  -2.130  -4.793  1.00  0.00    -0.051 A 
ATOM     19  C   UNL     1       2.838  -2.413  -6.225  1.00  0.00     0.044 C 
BRANCH  14  20
ATOM     20  O   UNL     1       1.335  -1.787  -0.801  1.00  0.00    -0.496 OA
ATOM     21  C   UNL     1       1.319  -0.408  -0.406  1.00  0.00     0.278 C 
ENDBRANCH  14  20
ENDBRANCH  11  13
ENDBRANCH  10  11
BRANCH  10  22
ATOM     22  O   UNL     1       0.340  -5.085  -2.663  1.00  0.00    -0.377 OA
ATOM     23  H   UNL     1       0.433  -4.814  -1.737  1.00  0.00     0.212 HD
ENDBRANCH  10  22
BRANCH  10  24
ATOM     24  C   UNL     1      -0.902  -4.757  -4.801  1.00  0.00     0.027 C 
ATOM     25  C   UNL     1      -1.712  -3.880  -5.758  1.00  0.00     0.011 C 
ATOM     26  C   UNL     1       0.385  -5.349  -5.365  1.00  0.00     0.011 C 
ENDBRANCH  10  24
ENDBRANCH   8  10
ENDBRANCH   7   8
ENDBRANCH   6   7
ENDBRANCH   5   6
ENDBRANCH   4   5
ENDBRANCH   3   4
ENDBRANCH   2   3
ENDBRANCH   1   2
BRANCH   1  27
ATOM     27  C   UNL     1      -4.643  -0.442  -2.195  1.00  0.00     0.188 C 
BRANCH  27  28
ATOM     28  C   UNL     1      -4.892   0.910  -2.791  1.00  0.00     0.188 C 
BRANCH  28  29
ATOM     29  O   UNL     1      -5.719   0.665  -3.924  1.00  0.00    -0.376 OA
BRANCH  29  30
ATOM     30  C   UNL     1      -5.808   1.771  -4.795  1.00  0.00     0.202 C 
BRANCH  30  31
ATOM     31  C   UNL     1      -6.736   2.830  -4.209  1.00  0.00     0.261 C 
BRANCH  31  32
ATOM     32  O   UNL     1      -7.964   2.171  -3.817  1.00  0.00    -0.460 OA
BRANCH  32  33
ATOM     33  C   UNL     1      -8.213   2.182  -2.483  1.00  0.00     0.338 C 
ATOM     34  O   UNL     1      -8.165   3.189  -1.775  1.00  0.00    -0.246 OA
BRANCH  33  35
ATOM     35  C   UNL     1      -8.396   0.799  -1.943  1.00  0.00     0.060 A 
ATOM     36  C   UNL     1      -8.313   0.581  -0.563  1.00  0.00     0.016 A 
ATOM     37  C   UNL     1      -8.438  -0.312  -2.779  1.00  0.00     0.016 A 
ATOM     38  C   UNL     1      -8.141  -0.721  -0.046  1.00  0.00     0.010 A 
ATOM     39  C   UNL     1      -8.220  -1.600  -2.253  1.00  0.00     0.010 A 
ATOM     40  C   UNL     1      -7.998  -1.841  -0.886  1.00  0.00    -0.014 A 
BRANCH  40  41
ATOM     41  C   UNL     1      -7.422  -3.138  -0.335  1.00  0.00     0.031 A 
ATOM     42  C   UNL     1      -7.665  -4.566  -0.967  1.00  0.00     0.074 A 
ATOM     43  C   UNL     1      -6.215  -3.011   0.295  1.00  0.00     0.049 A 
ATOM     44  N   UNL     1      -7.231  -5.745  -0.550  1.00  0.00    -0.248 NA
ATOM     45  C   UNL     1      -8.488  -4.733  -2.172  1.00  0.00     0.031 C 
ATOM     46  C   UNL     1      -4.995  -2.730  -0.452  1.00  0.00     0.029 A 
ATOM     47  N   UNL     1      -5.817  -2.441   1.518  1.00  0.00    -0.354 N 
ATOM     48  C   UNL     1      -7.410  -6.696  -1.598  1.00  0.00     0.074 A 
ATOM     49  C   UNL     1      -8.258  -5.997  -2.537  1.00  0.00     0.031 C 
ATOM     50  C   UNL     1      -3.940  -2.496   0.315  1.00  0.00     0.029 A 
ATOM     51  C   UNL     1      -4.439  -2.661   1.636  1.00  0.00     0.049 A 
ATOM     52  H   UNL     1      -6.396  -1.977   2.166  1.00  0.00     0.167 HD
ATOM     53  C   UNL     1      -6.719  -7.895  -1.776  1.00  0.00     0.034 A 
ATOM     54  C   UNL     1      -3.513  -2.534   2.589  1.00  0.00     0.034 A 
ATOM     55  C   UNL     1      -5.503  -8.062  -0.914  1.00  0.00     0.049 A 
ATOM     56  C   UNL     1      -3.151  -3.974   2.895  1.00  0.00     0.074 A 
ATOM     57  C   UNL     1      -4.191  -8.414  -1.233  1.00  0.00     0.029 A 
ATOM     58  N   UNL     1      -5.436  -7.641   0.424  1.00  0.00    -0.354 N 
ATOM     59  N   UNL     1      -3.373  -4.987   2.065  1.00  0.00    -0.248 NA
ATOM     60  C   UNL     1      -2.634  -4.434   4.174  1.00  0.00     0.031 C 
ATOM     61  C   UNL     1      -3.357  -8.210  -0.105  1.00  0.00     0.029 A 
ATOM     62  C   UNL     1      -4.121  -7.639   0.903  1.00  0.00     0.049 A 
ATOM     63  H   UNL     1      -6.219  -7.378   0.960  1.00  0.00     0.167 HD
ATOM     64  C   UNL     1      -3.281  -6.186   2.744  1.00  0.00     0.074 A 
ATOM     65  C   UNL     1      -2.693  -5.770   4.019  1.00  0.00     0.031 C 
ATOM     66  C   UNL     1      -3.796  -7.401   2.314  1.00  0.00     0.034 A 
BRANCH  53  67
ATOM     67  C   UNL     1      -6.929  -8.906  -3.003  1.00  0.00     0.023 A 
ATOM     68  C   UNL     1      -5.997  -9.952  -3.282  1.00  0.00     0.031 A 
ATOM     69  C   UNL     1      -8.038  -8.939  -3.882  1.00  0.00     0.131 A 
ATOM     70  C   UNL     1      -6.093 -10.818  -4.408  1.00  0.00     0.055 A 
ATOM     71  C   UNL     1      -8.128  -9.779  -5.020  1.00  0.00     0.041 A 
ATOM     72  F   UNL     1      -9.153  -8.239  -3.641  1.00  0.00    -0.206 F 
ATOM     73  C   UNL     1      -7.147 -10.714  -5.300  1.00  0.00     0.022 A 
BRANCH  70  74
ATOM     74  S   UNL     1      -4.858 -12.140  -4.666  1.00  0.00     0.124 S 
ATOM     75  O   UNL     1      -3.680 -11.386  -5.079  1.00  0.00    -0.237 OA
ATOM     76  O   UNL     1      -4.796 -12.778  -3.357  1.00  0.00    -0.237 OA
ATOM     77  O   UNL     1      -5.455 -12.966  -5.717  1.00  0.00    -0.744 OA
ENDBRANCH  70  74
ENDBRANCH  53  67
BRANCH  54  78
ATOM     78  C   UNL     1      -3.283  -1.097   2.946  1.00  0.00     0.023 A 
ATOM     79  C   UNL     1      -2.506  -0.280   2.060  1.00  0.00     0.031 A 
ATOM     80  C   UNL     1      -4.405  -0.473   3.530  1.00  0.00     0.131 A 
ATOM     81  C   UNL     1      -2.982   0.992   1.641  1.00  0.00     0.055 A 
ATOM     82  C   UNL     1      -4.895   0.759   3.069  1.00  0.00     0.041 A 
ATOM     83  F   UNL     1      -5.201  -1.178   4.349  1.00  0.00    -0.206 F 
ATOM     84  C   UNL     1      -4.209   1.475   2.096  1.00  0.00     0.022 A 
BRANCH  81  85
ATOM     85  S   UNL     1      -2.158   1.951   0.313  1.00  0.00     0.124 S 
ATOM     86  O   UNL     1      -1.271   2.824   1.075  1.00  0.00    -0.237 OA
ATOM     87  O   UNL     1      -1.506   0.923  -0.486  1.00  0.00    -0.237 OA
ATOM     88  O   UNL     1      -3.270   2.621  -0.361  1.00  0.00    -0.744 OA
ENDBRANCH  81  85
ENDBRANCH  54  78
BRANCH  66  89
ATOM     89  C   UNL     1      -4.052  -8.598   3.227  1.00  0.00     0.023 A 
ATOM     90  C   UNL     1      -4.110  -8.471   4.613  1.00  0.00     0.031 A 
ATOM     91  C   UNL     1      -4.394  -9.886   2.728  1.00  0.00     0.131 A 
ATOM     92  C   UNL     1      -4.381  -9.568   5.441  1.00  0.00     0.055 A 
ATOM     93  C   UNL     1      -4.787 -10.947   3.549  1.00  0.00     0.041 A 
ATOM     94  F   UNL     1      -4.388 -10.181   1.421  1.00  0.00    -0.206 F 
ATOM     95  C   UNL     1      -4.764 -10.799   4.923  1.00  0.00     0.022 A 
BRANCH  92  96
ATOM     96  S   UNL     1      -4.113  -9.339   7.211  1.00  0.00     0.124 S 
ATOM     97  O   UNL     1      -2.689  -9.014   7.254  1.00  0.00    -0.237 OA
ATOM     98  O   UNL     1      -5.019  -8.238   7.524  1.00  0.00    -0.237 OA
ATOM     99  O   UNL     1      -4.476 -10.632   7.785  1.00  0.00    -0.744 OA
ENDBRANCH  92  96
ENDBRANCH  66  89
ENDBRANCH  40  41
ENDBRANCH  33  35
ENDBRANCH  32  33
ENDBRANCH  31  32
ENDBRANCH  30  31
ENDBRANCH  29  30
ENDBRANCH  28  29
ENDBRANCH  27  28
ENDBRANCH   1  27
TORSDOF 28
