REMARK SMILES Cc1cc(C)c(NS(=O)(=O)c2cccc3cc(C)cnc23)c(C(=O)OCCOCCOCCOCCOC(=O)c2ccc(-c3c4nc(c(-c5cc(S(=O)(=O)[O-])ccc5F)c5ccc([nH]5)c(-c5cc(S(=O)(=O)[O-])ccc5F)c5nc(c(-c6cc(S(=O)(=O)[O-])ccc6F)c6ccc3[nH]6)C=C5)C=C4)cc2)c1
REMARK SMILES IDX 31 1 30 2 29 3 28 4 27 5 26 6 25 7 23 8 24 9 22 10 1 11 2 12
REMARK SMILES IDX 3 13 103 14 4 15 5 16 6 17 7 18 8 20 9 21 10 22 11 23 12 24
REMARK SMILES IDX 21 25 13 26 15 27 20 28 14 29 16 30 19 31 17 32 18 33 32 34
REMARK SMILES IDX 33 35 34 36 35 37 36 38 37 39 38 40 39 41 40 42 41 43 102 44
REMARK SMILES IDX 42 45 101 46 43 47 44 48 45 49 95 50 46 51 100 52 94 53
REMARK SMILES IDX 96 54 47 55 99 56 93 57 92 58 48 60 80 61 60 62 79 63 61 64
REMARK SMILES IDX 64 65 78 66 97 67 62 68 63 69 77 71 98 72 65 73 49 74 50 75
REMARK SMILES IDX 58 76 51 77 57 78 59 79 56 80 52 81 53 82 54 83 55 84 81 85
REMARK SMILES IDX 82 86 90 87 83 88 89 89 91 90 88 91 84 92 85 93 86 94 87 95
REMARK SMILES IDX 66 96 67 97 75 98 68 99 74 100 76 101 73 102 69 103 70 104
REMARK SMILES IDX 71 105 72 106
REMARK H PARENT 7 19 96 59 64 70
REMARK Flexibility Score: inf
ROOT
ATOM      1  O   UNL     1       1.165  -4.004   2.222  1.00  0.00    -0.377 OA
ENDROOT
BRANCH   1   2
ATOM      2  C   UNL     1      -0.147  -3.494   2.049  1.00  0.00     0.188 C 
BRANCH   2   3
ATOM      3  C   UNL     1      -1.169  -4.417   1.353  1.00  0.00     0.188 C 
BRANCH   3   4
ATOM      4  O   UNL     1      -0.700  -5.736   1.125  1.00  0.00    -0.376 OA
BRANCH   4   5
ATOM      5  C   UNL     1      -0.378  -6.111  -0.201  1.00  0.00     0.202 C 
BRANCH   5   6
ATOM      6  C   UNL     1       0.798  -5.392  -0.870  1.00  0.00     0.261 C 
BRANCH   6   7
ATOM      7  O   UNL     1       0.794  -3.960  -0.796  1.00  0.00    -0.460 OA
BRANCH   7   8
ATOM      8  C   UNL     1      -0.198  -3.288  -1.417  1.00  0.00     0.340 C 
ATOM      9  O   UNL     1      -1.135  -3.778  -2.021  1.00  0.00    -0.246 OA
BRANCH   8  10
ATOM     10  C   UNL     1      -0.021  -1.829  -1.201  1.00  0.00     0.084 A 
ATOM     11  C   UNL     1       2.827   0.618  -0.740  1.00  0.00     0.044 C 
ATOM     12  C   UNL     1       1.481   0.060  -1.091  1.00  0.00    -0.050 A 
ATOM     13  C   UNL     1       0.407   0.873  -1.463  1.00  0.00     0.009 A 
ATOM     14  C   UNL     1       1.274  -1.313  -1.051  1.00  0.00     0.021 A 
ATOM     15  C   UNL     1      -0.897   0.349  -1.610  1.00  0.00    -0.026 A 
ATOM     16  C   UNL     1      -1.932   1.177  -2.311  1.00  0.00     0.046 C 
ATOM     17  C   UNL     1      -1.145  -0.975  -1.240  1.00  0.00     0.066 A 
BRANCH  17  18
ATOM     18  N   UNL     1      -2.216  -1.342  -0.333  1.00  0.00    -0.278 N 
ATOM     19  H   UNL     1      -2.020  -2.144   0.204  1.00  0.00     0.180 HD
BRANCH  18  20
ATOM     20  S   UNL     1      -3.706  -0.680  -0.017  1.00  0.00     0.264 S 
ATOM     21  O   UNL     1      -4.416  -0.656  -1.283  1.00  0.00    -0.201 OA
ATOM     22  O   UNL     1      -4.252  -1.455   1.082  1.00  0.00    -0.201 OA
BRANCH  20  23
ATOM     23  C   UNL     1      -3.648   0.994   0.561  1.00  0.00     0.114 A 
ATOM     24  C   UNL     1      -4.769   1.774   0.195  1.00  0.00     0.024 A 
ATOM     25  C   UNL     1      -2.483   1.569   1.058  1.00  0.00     0.091 A 
ATOM     26  C   UNL     1      -4.694   3.157   0.193  1.00  0.00     0.002 A 
ATOM     27  C   UNL     1      -2.390   2.977   0.933  1.00  0.00     0.002 A 
ATOM     28  N   UNL     1      -1.452   0.855   1.558  1.00  0.00    -0.255 NA
ATOM     29  C   UNL     1      -3.486   3.756   0.517  1.00  0.00     0.010 A 
ATOM     30  C   UNL     1      -1.145   3.584   1.134  1.00  0.00     0.015 A 
ATOM     31  C   UNL     1      -0.272   1.481   1.780  1.00  0.00     0.115 A 
ATOM     32  C   UNL     1      -0.044   2.818   1.504  1.00  0.00    -0.032 A 
ATOM     33  C   UNL     1       1.329   3.409   1.519  1.00  0.00     0.046 C 
ENDBRANCH  20  23
ENDBRANCH  18  20
ENDBRANCH  17  18
ENDBRANCH   8  10
ENDBRANCH   7   8
ENDBRANCH   6   7
ENDBRANCH   5   6
ENDBRANCH   4   5
ENDBRANCH   3   4
ENDBRANCH   2   3
ENDBRANCH   1   2
BRANCH   1  34
ATOM     34  C   UNL     1       1.351  -5.247   2.901  1.00  0.00     0.188 C 
BRANCH  34  35
ATOM     35  C   UNL     1       0.212  -5.946   3.687  1.00  0.00     0.188 C 
BRANCH  35  36
ATOM     36  O   UNL     1      -0.875  -5.104   4.037  1.00  0.00    -0.376 OA
BRANCH  36  37
ATOM     37  C   UNL     1      -1.032  -4.754   5.399  1.00  0.00     0.202 C 
BRANCH  37  38
ATOM     38  C   UNL     1       0.060  -3.850   5.979  1.00  0.00     0.261 C 
BRANCH  38  39
ATOM     39  O   UNL     1       1.401  -4.353   5.888  1.00  0.00    -0.460 OA
BRANCH  39  40
ATOM     40  C   UNL     1       1.669  -5.515   6.531  1.00  0.00     0.338 C 
ATOM     41  O   UNL     1       0.904  -6.171   7.207  1.00  0.00    -0.246 OA
BRANCH  40  42
ATOM     42  C   UNL     1       3.012  -5.954   6.093  1.00  0.00     0.060 A 
ATOM     43  C   UNL     1       3.156  -7.191   5.450  1.00  0.00     0.016 A 
ATOM     44  C   UNL     1       4.117  -5.124   6.294  1.00  0.00     0.016 A 
ATOM     45  C   UNL     1       4.418  -7.615   5.032  1.00  0.00     0.010 A 
ATOM     46  C   UNL     1       5.381  -5.561   5.898  1.00  0.00     0.010 A 
ATOM     47  C   UNL     1       5.542  -6.821   5.295  1.00  0.00    -0.014 A 
BRANCH  47  48
ATOM     48  C   UNL     1       6.900  -7.397   5.154  1.00  0.00     0.031 A 
ATOM     49  C   UNL     1       7.557  -7.953   6.388  1.00  0.00     0.074 A 
ATOM     50  C   UNL     1       7.532  -7.435   3.969  1.00  0.00     0.049 A 
ATOM     51  N   UNL     1       8.760  -8.438   6.546  1.00  0.00    -0.248 NA
ATOM     52  C   UNL     1       6.741  -7.950   7.612  1.00  0.00     0.031 C 
ATOM     53  C   UNL     1       6.976  -6.972   2.700  1.00  0.00     0.029 A 
ATOM     54  N   UNL     1       8.790  -7.878   3.645  1.00  0.00    -0.354 N 
ATOM     55  C   UNL     1       8.847  -8.796   7.887  1.00  0.00     0.074 A 
ATOM     56  C   UNL     1       7.592  -8.427   8.504  1.00  0.00     0.031 C 
ATOM     57  C   UNL     1       7.897  -7.143   1.734  1.00  0.00     0.029 A 
ATOM     58  C   UNL     1       9.120  -7.686   2.325  1.00  0.00     0.049 A 
ATOM     59  H   UNL     1       9.399  -8.295   4.298  1.00  0.00     0.167 HD
ATOM     60  C   UNL     1       9.877  -9.389   8.540  1.00  0.00     0.034 A 
ATOM     61  C   UNL     1      10.286  -7.896   1.678  1.00  0.00     0.034 A 
ATOM     62  C   UNL     1      11.130  -9.726   7.912  1.00  0.00     0.049 A 
ATOM     63  C   UNL     1      11.459  -8.460   2.447  1.00  0.00     0.074 A 
ATOM     64  C   UNL     1      12.242 -10.329   8.475  1.00  0.00     0.029 A 
ATOM     65  N   UNL     1      11.447  -9.473   6.583  1.00  0.00    -0.354 N 
ATOM     66  N   UNL     1      11.533  -8.799   3.715  1.00  0.00    -0.248 NA
ATOM     67  C   UNL     1      12.703  -8.675   1.696  1.00  0.00     0.031 C 
ATOM     68  C   UNL     1      13.254 -10.365   7.510  1.00  0.00     0.029 A 
ATOM     69  C   UNL     1      12.748  -9.872   6.318  1.00  0.00     0.049 A 
ATOM     70  H   UNL     1      10.836  -9.069   5.925  1.00  0.00     0.167 HD
ATOM     71  C   UNL     1      12.820  -9.299   3.902  1.00  0.00     0.074 A 
ATOM     72  C   UNL     1      13.482  -9.226   2.615  1.00  0.00     0.031 C 
ATOM     73  C   UNL     1      13.401  -9.782   5.031  1.00  0.00     0.034 A 
BRANCH  60  74
ATOM     74  C   UNL     1       9.698  -9.644  10.018  1.00  0.00     0.023 A 
ATOM     75  C   UNL     1       8.692 -10.498  10.506  1.00  0.00     0.031 A 
ATOM     76  C   UNL     1      10.508  -8.982  10.957  1.00  0.00     0.131 A 
ATOM     77  C   UNL     1       8.467 -10.599  11.887  1.00  0.00     0.055 A 
ATOM     78  C   UNL     1      10.338  -9.158  12.332  1.00  0.00     0.041 A 
ATOM     79  F   UNL     1      11.466  -8.132  10.555  1.00  0.00    -0.206 F 
ATOM     80  C   UNL     1       9.301  -9.956  12.804  1.00  0.00     0.022 A 
BRANCH  77  81
ATOM     81  S   UNL     1       6.967 -11.443  12.460  1.00  0.00     0.124 S 
ATOM     82  O   UNL     1       5.922 -10.680  11.782  1.00  0.00    -0.237 OA
ATOM     83  O   UNL     1       7.172 -12.807  11.987  1.00  0.00    -0.237 OA
ATOM     84  O   UNL     1       7.010 -11.271  13.911  1.00  0.00    -0.744 OA
ENDBRANCH  77  81
ENDBRANCH  60  74
BRANCH  61  85
ATOM     85  C   UNL     1      10.425  -7.530   0.238  1.00  0.00     0.023 A 
ATOM     86  C   UNL     1      10.691  -8.501  -0.740  1.00  0.00     0.031 A 
ATOM     87  C   UNL     1      10.343  -6.187  -0.173  1.00  0.00     0.131 A 
ATOM     88  C   UNL     1      10.905  -8.112  -2.073  1.00  0.00     0.055 A 
ATOM     89  C   UNL     1      10.502  -5.811  -1.508  1.00  0.00     0.041 A 
ATOM     90  F   UNL     1      10.098  -5.216   0.721  1.00  0.00    -0.206 F 
ATOM     91  C   UNL     1      10.796  -6.776  -2.466  1.00  0.00     0.022 A 
BRANCH  88  92
ATOM     92  S   UNL     1      11.410  -9.371  -3.277  1.00  0.00     0.124 S 
ATOM     93  O   UNL     1      12.649  -9.864  -2.689  1.00  0.00    -0.237 OA
ATOM     94  O   UNL     1      10.275 -10.289  -3.250  1.00  0.00    -0.237 OA
ATOM     95  O   UNL     1      11.565  -8.613  -4.517  1.00  0.00    -0.744 OA
ENDBRANCH  88  92
ENDBRANCH  61  85
BRANCH  73  96
ATOM     96  C   UNL     1      14.809 -10.319   4.912  1.00  0.00     0.023 A 
ATOM     97  C   UNL     1      15.900  -9.488   4.603  1.00  0.00     0.031 A 
ATOM     98  C   UNL     1      15.060 -11.689   5.112  1.00  0.00     0.131 A 
ATOM     99  C   UNL     1      17.181 -10.043   4.449  1.00  0.00     0.055 A 
ATOM    100  C   UNL     1      16.346 -12.224   5.024  1.00  0.00     0.041 A 
ATOM    101  F   UNL     1      14.057 -12.532   5.406  1.00  0.00    -0.206 F 
ATOM    102  C   UNL     1      17.413 -11.402   4.677  1.00  0.00     0.022 A 
BRANCH  99 103
ATOM    103  S   UNL     1      18.524  -8.983   3.847  1.00  0.00     0.124 S 
ATOM    104  O   UNL     1      17.991  -8.512   2.573  1.00  0.00    -0.237 OA
ATOM    105  O   UNL     1      18.630  -7.982   4.904  1.00  0.00    -0.237 OA
ATOM    106  O   UNL     1      19.662  -9.896   3.744  1.00  0.00    -0.744 OA
ENDBRANCH  99 103
ENDBRANCH  73  96
ENDBRANCH  47  48
ENDBRANCH  40  42
ENDBRANCH  39  40
ENDBRANCH  38  39
ENDBRANCH  37  38
ENDBRANCH  36  37
ENDBRANCH  35  36
ENDBRANCH  34  35
ENDBRANCH   1  34
TORSDOF 26
