REMARK SMILES CC(C)c1cc(C2CC[NH+](Cc3c[nH]nc3C(=O)OCCOCCOCCOCCOC(=O)c3ccc(-c4c5nc(c(-c6cc(S(=O)(=O)[O-])ccc6F)c6ccc([nH]6)c(-c6cc(S(=O)(=O)[O-])ccc6F)c6nc(c(-c7cc(S(=O)(=O)[O-])ccc7F)c7ccc4[nH]7)C=C6)C=C5)cc3)CC2)n[nH]1
REMARK SMILES IDX 24 1 23 2 22 3 21 4 20 5 19 6 17 7 18 8 16 9 12 10 13 11
REMARK SMILES IDX 14 12 15 13 11 15 10 16 7 17 8 18 98 19 9 20 97 21 6 23 4 24
REMARK SMILES IDX 5 25 100 26 99 27 2 29 1 30 3 31 25 32 26 33 27 34 28 35
REMARK SMILES IDX 29 36 30 37 31 38 32 39 33 40 34 41 35 42 96 43 36 44 95 45
REMARK SMILES IDX 37 46 38 47 39 48 89 49 40 50 94 51 88 52 90 53 41 54 93 55
REMARK SMILES IDX 87 56 86 57 42 59 74 60 54 61 73 62 55 63 58 64 72 65 91 66
REMARK SMILES IDX 56 67 57 68 71 70 92 71 59 72 43 73 44 74 52 75 45 76 51 77
REMARK SMILES IDX 53 78 50 79 46 80 47 81 48 82 49 83 75 84 76 85 84 86 77 87
REMARK SMILES IDX 83 88 85 89 82 90 78 91 79 92 80 93 81 94 60 95 61 96 69 97
REMARK SMILES IDX 62 98 68 99 70 100 67 101 63 102 64 103 65 104 66 105
REMARK H PARENT 14 14 10 22 100 28 90 58 58 69
REMARK Flexibility Score: inf
ROOT
ATOM      1  C   UNL     1      -0.401  -4.136   3.958  1.00  0.00     0.188 C 
ENDROOT
BRANCH   1   2
ATOM      2  C   UNL     1       0.805  -4.897   4.522  1.00  0.00     0.188 C 
BRANCH   2   3
ATOM      3  O   UNL     1       0.445  -6.054   5.277  1.00  0.00    -0.376 OA
BRANCH   3   4
ATOM      4  C   UNL     1       0.535  -5.924   6.693  1.00  0.00     0.202 C 
BRANCH   4   5
ATOM      5  C   UNL     1      -0.592  -5.122   7.370  1.00  0.00     0.261 C 
BRANCH   5   6
ATOM      6  O   UNL     1      -0.699  -3.746   6.967  1.00  0.00    -0.458 OA
BRANCH   6   7
ATOM      7  C   UNL     1       0.353  -2.939   7.253  1.00  0.00     0.359 C 
ATOM      8  O   UNL     1       1.312  -3.292   7.934  1.00  0.00    -0.244 OA
BRANCH   7   9
ATOM      9  C   UNL     1       0.279  -1.642   6.553  1.00  0.00     0.178 A 
ATOM     10  C   UNL     1      -0.863  -0.806   6.233  1.00  0.00     0.059 A 
ATOM     11  C   UNL     1      -0.273   0.319   5.681  1.00  0.00     0.115 A 
ATOM     12  N   UNL     1       1.055   0.070   5.562  1.00  0.00    -0.284 N 
ATOM     13  N   UNL     1       1.425  -1.092   6.093  1.00  0.00    -0.168 NA
ATOM     14  H   UNL     1       1.685   0.688   5.126  1.00  0.00     0.189 HD
BRANCH  10  15
ATOM     15  C   UNL     1      -2.319  -1.025   6.593  1.00  0.00     0.303 C 
BRANCH  15  16
ATOM     16  N   UNL     1      -3.312  -0.783   5.525  1.00  0.00    -0.331 N 
ATOM     17  C   UNL     1      -4.269  -0.132   2.805  1.00  0.00     0.051 C 
ATOM     18  C   UNL     1      -4.497   0.814   3.988  1.00  0.00     0.071 C 
ATOM     19  C   UNL     1      -4.314  -1.567   3.337  1.00  0.00     0.071 C 
ATOM     20  C   UNL     1      -3.464   0.599   5.093  1.00  0.00     0.263 C 
ATOM     21  C   UNL     1      -3.349  -1.825   4.502  1.00  0.00     0.263 C 
ATOM     22  H   UNL     1      -4.215  -0.905   5.982  1.00  0.00     0.348 HD
BRANCH  17  23
ATOM     23  C   UNL     1      -3.028   0.201   2.003  1.00  0.00     0.066 A 
ATOM     24  C   UNL     1      -0.933   0.488   1.285  1.00  0.00     0.038 A 
ATOM     25  C   UNL     1      -1.672  -0.065   2.302  1.00  0.00     0.049 A 
ATOM     26  N   UNL     1      -1.857   1.015   0.427  1.00  0.00    -0.282 N 
ATOM     27  N   UNL     1      -3.127   0.873   0.846  1.00  0.00    -0.180 NA
ATOM     28  H   UNL     1      -1.616   1.457  -0.419  1.00  0.00     0.190 HD
BRANCH  24  29
ATOM     29  C   UNL     1       0.550   0.557   1.114  1.00  0.00     0.031 C 
ATOM     30  C   UNL     1       1.004   0.073  -0.259  1.00  0.00     0.014 C 
ATOM     31  C   UNL     1       1.069   1.963   1.413  1.00  0.00     0.014 C 
ENDBRANCH  24  29
ENDBRANCH  17  23
ENDBRANCH  15  16
ENDBRANCH  10  15
ENDBRANCH   7   9
ENDBRANCH   6   7
ENDBRANCH   5   6
ENDBRANCH   4   5
ENDBRANCH   3   4
ENDBRANCH   2   3
ENDBRANCH   1   2
BRANCH   1  32
ATOM     32  O   UNL     1      -1.639  -4.553   4.502  1.00  0.00    -0.377 OA
BRANCH  32  33
ATOM     33  C   UNL     1      -2.268  -5.718   3.976  1.00  0.00     0.188 C 
BRANCH  33  34
ATOM     34  C   UNL     1      -1.498  -6.727   3.103  1.00  0.00     0.188 C 
BRANCH  34  35
ATOM     35  O   UNL     1      -0.763  -6.131   2.034  1.00  0.00    -0.376 OA
BRANCH  35  36
ATOM     36  C   UNL     1      -1.335  -6.259   0.736  1.00  0.00     0.202 C 
BRANCH  36  37
ATOM     37  C   UNL     1      -2.484  -5.278   0.467  1.00  0.00     0.261 C 
BRANCH  37  38
ATOM     38  O   UNL     1      -3.682  -5.522   1.220  1.00  0.00    -0.460 OA
BRANCH  38  39
ATOM     39  C   UNL     1      -4.267  -6.732   1.072  1.00  0.00     0.338 C 
ATOM     40  O   UNL     1      -3.924  -7.624   0.318  1.00  0.00    -0.246 OA
BRANCH  39  41
ATOM     41  C   UNL     1      -5.306  -6.870   2.111  1.00  0.00     0.060 A 
ATOM     42  C   UNL     1      -5.258  -7.974   2.970  1.00  0.00     0.016 A 
ATOM     43  C   UNL     1      -6.336  -5.933   2.213  1.00  0.00     0.016 A 
ATOM     44  C   UNL     1      -6.274  -8.169   3.907  1.00  0.00     0.010 A 
ATOM     45  C   UNL     1      -7.360  -6.138   3.141  1.00  0.00     0.010 A 
ATOM     46  C   UNL     1      -7.352  -7.275   3.967  1.00  0.00    -0.014 A 
BRANCH  46  47
ATOM     47  C   UNL     1      -8.566  -7.626   4.745  1.00  0.00     0.031 A 
ATOM     48  C   UNL     1      -9.702  -8.302   4.024  1.00  0.00     0.074 A 
ATOM     49  C   UNL     1      -8.662  -7.345   6.057  1.00  0.00     0.049 A 
ATOM     50  N   UNL     1     -10.880  -8.650   4.471  1.00  0.00    -0.248 NA
ATOM     51  C   UNL     1      -9.477  -8.622   2.605  1.00  0.00     0.031 C 
ATOM     52  C   UNL     1      -7.618  -6.718   6.866  1.00  0.00     0.029 A 
ATOM     53  N   UNL     1      -9.698  -7.538   6.936  1.00  0.00    -0.354 N 
ATOM     54  C   UNL     1     -11.539  -9.226   3.390  1.00  0.00     0.074 A 
ATOM     55  C   UNL     1     -10.639  -9.155   2.259  1.00  0.00     0.031 C 
ATOM     56  C   UNL     1      -8.076  -6.560   8.120  1.00  0.00     0.029 A 
ATOM     57  C   UNL     1      -9.454  -7.043   8.196  1.00  0.00     0.049 A 
ATOM     58  H   UNL     1     -10.538  -7.989   6.688  1.00  0.00     0.167 HD
ATOM     59  C   UNL     1     -12.780  -9.767   3.345  1.00  0.00     0.034 A 
ATOM     60  C   UNL     1     -10.262  -6.966   9.274  1.00  0.00     0.034 A 
ATOM     61  C   UNL     1     -13.674  -9.821   4.473  1.00  0.00     0.049 A 
ATOM     62  C   UNL     1     -11.668  -7.517   9.179  1.00  0.00     0.074 A 
ATOM     63  C   UNL     1     -14.944 -10.367   4.541  1.00  0.00     0.029 A 
ATOM     64  N   UNL     1     -13.399  -9.296   5.729  1.00  0.00    -0.354 N 
ATOM     65  N   UNL     1     -12.266  -8.088   8.158  1.00  0.00    -0.248 NA
ATOM     66  C   UNL     1     -12.503  -7.420  10.384  1.00  0.00     0.031 C 
ATOM     67  C   UNL     1     -15.461 -10.116   5.816  1.00  0.00     0.029 A 
ATOM     68  C   UNL     1     -14.487  -9.477   6.567  1.00  0.00     0.049 A 
ATOM     69  H   UNL     1     -12.555  -8.859   5.985  1.00  0.00     0.167 HD
ATOM     70  C   UNL     1     -13.533  -8.450   8.614  1.00  0.00     0.074 A 
ATOM     71  C   UNL     1     -13.608  -8.043  10.001  1.00  0.00     0.031 C 
ATOM     72  C   UNL     1     -14.544  -9.066   7.949  1.00  0.00     0.034 A 
BRANCH  59  73
ATOM     73  C   UNL     1     -13.258 -10.295   2.017  1.00  0.00     0.023 A 
ATOM     74  C   UNL     1     -12.680 -11.427   1.419  1.00  0.00     0.031 A 
ATOM     75  C   UNL     1     -14.303  -9.646   1.336  1.00  0.00     0.131 A 
ATOM     76  C   UNL     1     -13.117 -11.847   0.153  1.00  0.00     0.055 A 
ATOM     77  C   UNL     1     -14.777 -10.108   0.107  1.00  0.00     0.041 A 
ATOM     78  F   UNL     1     -14.875  -8.546   1.851  1.00  0.00    -0.206 F 
ATOM     79  C   UNL     1     -14.177 -11.209  -0.496  1.00  0.00     0.022 A 
BRANCH  76  80
ATOM     80  S   UNL     1     -12.212 -13.178  -0.682  1.00  0.00     0.124 S 
ATOM     81  O   UNL     1     -10.883 -12.588  -0.825  1.00  0.00    -0.237 OA
ATOM     82  O   UNL     1     -12.323 -14.281   0.266  1.00  0.00    -0.237 OA
ATOM     83  O   UNL     1     -12.944 -13.357  -1.935  1.00  0.00    -0.744 OA
ENDBRANCH  76  80
ENDBRANCH  59  73
BRANCH  60  84
ATOM     84  C   UNL     1      -9.802  -6.302  10.529  1.00  0.00     0.023 A 
ATOM     85  C   UNL     1      -9.709  -7.012  11.736  1.00  0.00     0.031 A 
ATOM     86  C   UNL     1      -9.536  -4.921  10.555  1.00  0.00     0.131 A 
ATOM     87  C   UNL     1      -9.421  -6.329  12.929  1.00  0.00     0.055 A 
ATOM     88  C   UNL     1      -9.194  -4.257  11.734  1.00  0.00     0.041 A 
ATOM     89  F   UNL     1      -9.613  -4.193   9.429  1.00  0.00    -0.206 F 
ATOM     90  C   UNL     1      -9.152  -4.959  12.934  1.00  0.00     0.022 A 
BRANCH  87  91
ATOM     91  S   UNL     1      -9.516  -7.240  14.496  1.00  0.00     0.124 S 
ATOM     92  O   UNL     1     -10.873  -7.773  14.448  1.00  0.00    -0.237 OA
ATOM     93  O   UNL     1      -8.439  -8.212  14.345  1.00  0.00    -0.237 OA
ATOM     94  O   UNL     1      -9.286  -6.207  15.504  1.00  0.00    -0.744 OA
ENDBRANCH  87  91
ENDBRANCH  60  84
BRANCH  72  95
ATOM     95  C   UNL     1     -15.790  -9.389   8.736  1.00  0.00     0.023 A 
ATOM     96  C   UNL     1     -16.651  -8.384   9.210  1.00  0.00     0.031 A 
ATOM     97  C   UNL     1     -16.118 -10.728   9.016  1.00  0.00     0.131 A 
ATOM     98  C   UNL     1     -17.770  -8.730   9.982  1.00  0.00     0.055 A 
ATOM     99  C   UNL     1     -17.262 -11.069   9.737  1.00  0.00     0.041 A 
ATOM    100  F   UNL     1     -15.331 -11.728   8.586  1.00  0.00    -0.206 F 
ATOM    101  C   UNL     1     -18.089 -10.067  10.236  1.00  0.00     0.022 A 
BRANCH  98 102
ATOM    102  S   UNL     1     -18.764  -7.405  10.722  1.00  0.00     0.124 S 
ATOM    103  O   UNL     1     -17.776  -6.699  11.531  1.00  0.00    -0.237 OA
ATOM    104  O   UNL     1     -19.254  -6.690   9.548  1.00  0.00    -0.237 OA
ATOM    105  O   UNL     1     -19.787  -8.124  11.479  1.00  0.00    -0.744 OA
ENDBRANCH  98 102
ENDBRANCH  72  95
ENDBRANCH  46  47
ENDBRANCH  39  41
ENDBRANCH  38  39
ENDBRANCH  37  38
ENDBRANCH  36  37
ENDBRANCH  35  36
ENDBRANCH  34  35
ENDBRANCH  33  34
ENDBRANCH  32  33
ENDBRANCH   1  32
TORSDOF 27
