REMARK SMILES C[C@@]1(CN2C(=O)c3ccc(C(=O)OCCOCCOCCOCCOC(=O)c4ccc(-c5c6nc(c(-c7cc(S(=O)(=O)[O-])ccc7F)c7ccc([nH]7)c(-c7cc(S(=O)(=O)[O-])ccc7F)c7nc(c(-c8cc(S(=O)(=O)[O-])ccc8F)c8ccc5[nH]8)C=C7)C=C6)cc4)cc3C2=O)CCCO1
REMARK SMILES IDX 20 1 19 2 18 3 17 4 16 5 15 6 14 7 13 8 11 9 12 10 10 11
REMARK SMILES IDX 4 12 5 13 93 14 6 15 7 16 92 17 94 18 8 19 91 20 9 21 3 22
REMARK SMILES IDX 2 23 1 24 95 25 98 26 96 27 97 28 21 29 22 30 23 31 24 32
REMARK SMILES IDX 25 33 26 34 27 35 28 36 29 37 90 38 30 39 89 40 31 41 32 42
REMARK SMILES IDX 33 43 83 44 34 45 88 46 82 47 84 48 35 49 87 50 81 51 80 52
REMARK SMILES IDX 36 54 68 55 48 56 67 57 49 58 52 59 66 60 85 61 50 62 51 63
REMARK SMILES IDX 65 65 86 66 53 67 37 68 38 69 46 70 39 71 45 72 47 73 44 74
REMARK SMILES IDX 40 75 41 76 42 77 43 78 69 79 70 80 78 81 71 82 77 83 79 84
REMARK SMILES IDX 76 85 72 86 73 87 74 88 75 89 54 90 55 91 63 92 56 93 62 94
REMARK SMILES IDX 64 95 61 96 57 97 58 98 59 99 60 100
REMARK H PARENT 84 53 52 64
REMARK Flexibility Score: inf
ROOT
ATOM      1  C   UNL     1      -4.553  -3.605  -8.357  1.00  0.00     0.188 C 
ENDROOT
BRANCH   1   2
ATOM      2  O   UNL     1      -3.709  -3.143  -7.300  1.00  0.00    -0.377 OA
BRANCH   2   3
ATOM      3  C   UNL     1      -4.002  -1.921  -6.644  1.00  0.00     0.188 C 
BRANCH   3   4
ATOM      4  C   UNL     1      -4.115  -0.648  -7.506  1.00  0.00     0.188 C 
BRANCH   4   5
ATOM      5  O   UNL     1      -4.257  -0.909  -8.889  1.00  0.00    -0.376 OA
BRANCH   5   6
ATOM      6  C   UNL     1      -3.164  -0.722  -9.767  1.00  0.00     0.202 C 
BRANCH   6   7
ATOM      7  C   UNL     1      -1.791  -1.353  -9.480  1.00  0.00     0.261 C 
BRANCH   7   8
ATOM      8  O   UNL     1      -1.386  -1.408  -8.109  1.00  0.00    -0.460 OA
BRANCH   8   9
ATOM      9  C   UNL     1      -0.907  -0.277  -7.553  1.00  0.00     0.338 C 
ATOM     10  O   UNL     1      -0.778   0.809  -8.088  1.00  0.00    -0.246 OA
BRANCH   9  11
ATOM     11  C   UNL     1      -0.777  -0.515  -6.092  1.00  0.00     0.060 A 
ATOM     12  N   UNL     1      -1.059   0.397  -1.610  1.00  0.00    -0.271 N 
ATOM     13  C   UNL     1      -0.693  -0.882  -1.920  1.00  0.00     0.261 C 
ATOM     14  C   UNL     1      -1.420   1.105  -2.724  1.00  0.00     0.261 C 
ATOM     15  O   UNL     1      -0.403  -1.800  -1.170  1.00  0.00    -0.269 OA
ATOM     16  C   UNL     1      -0.682  -0.971  -3.377  1.00  0.00     0.053 A 
ATOM     17  C   UNL     1      -1.118   0.247  -3.870  1.00  0.00     0.054 A 
ATOM     18  O   UNL     1      -1.925   2.207  -2.812  1.00  0.00    -0.269 OA
ATOM     19  C   UNL     1      -0.286  -2.001  -4.208  1.00  0.00     0.015 A 
ATOM     20  C   UNL     1      -1.183   0.510  -5.223  1.00  0.00     0.030 A 
ATOM     21  C   UNL     1      -0.337  -1.764  -5.587  1.00  0.00     0.016 A 
BRANCH  12  22
ATOM     22  C   UNL     1      -1.021   0.955  -0.267  1.00  0.00     0.164 C 
BRANCH  22  23
ATOM     23  C   UNL     1       0.395   1.468   0.135  1.00  0.00     0.084 C 
ATOM     24  C   UNL     1       1.455   0.365   0.102  1.00  0.00     0.044 C 
ATOM     25  C   UNL     1       0.370   2.141   1.510  1.00  0.00     0.039 C 
ATOM     26  O   UNL     1       0.802   2.502  -0.786  1.00  0.00    -0.373 OA
ATOM     27  C   UNL     1       0.009   3.569   1.185  1.00  0.00     0.031 C 
ATOM     28  C   UNL     1       0.674   3.783  -0.157  1.00  0.00     0.161 C 
ENDBRANCH  22  23
ENDBRANCH  12  22
ENDBRANCH   9  11
ENDBRANCH   8   9
ENDBRANCH   7   8
ENDBRANCH   6   7
ENDBRANCH   5   6
ENDBRANCH   4   5
ENDBRANCH   3   4
ENDBRANCH   2   3
ENDBRANCH   1   2
BRANCH   1  29
ATOM     29  C   UNL     1      -5.968  -3.026  -8.604  1.00  0.00     0.188 C 
BRANCH  29  30
ATOM     30  O   UNL     1      -6.498  -2.267  -7.530  1.00  0.00    -0.376 OA
BRANCH  30  31
ATOM     31  C   UNL     1      -7.534  -2.853  -6.763  1.00  0.00     0.202 C 
BRANCH  31  32
ATOM     32  C   UNL     1      -7.179  -4.124  -5.980  1.00  0.00     0.261 C 
BRANCH  32  33
ATOM     33  O   UNL     1      -6.627  -5.207  -6.745  1.00  0.00    -0.460 OA
BRANCH  33  34
ATOM     34  C   UNL     1      -7.426  -5.797  -7.664  1.00  0.00     0.338 C 
ATOM     35  O   UNL     1      -8.581  -5.513  -7.918  1.00  0.00    -0.246 OA
BRANCH  34  36
ATOM     36  C   UNL     1      -6.578  -6.728  -8.441  1.00  0.00     0.060 A 
ATOM     37  C   UNL     1      -6.352  -6.485  -9.803  1.00  0.00     0.016 A 
ATOM     38  C   UNL     1      -5.962  -7.809  -7.806  1.00  0.00     0.016 A 
ATOM     39  C   UNL     1      -5.500  -7.321 -10.531  1.00  0.00     0.010 A 
ATOM     40  C   UNL     1      -5.132  -8.658  -8.543  1.00  0.00     0.010 A 
ATOM     41  C   UNL     1      -4.902  -8.426  -9.910  1.00  0.00    -0.014 A 
BRANCH  41  42
ATOM     42  C   UNL     1      -4.133  -9.416 -10.704  1.00  0.00     0.031 A 
ATOM     43  C   UNL     1      -4.811 -10.691 -11.123  1.00  0.00     0.074 A 
ATOM     44  C   UNL     1      -2.846  -9.196 -11.032  1.00  0.00     0.049 A 
ATOM     45  N   UNL     1      -4.311 -11.745 -11.712  1.00  0.00    -0.248 NA
ATOM     46  C   UNL     1      -6.249 -10.785 -10.829  1.00  0.00     0.031 C 
ATOM     47  C   UNL     1      -2.096  -7.977 -10.732  1.00  0.00     0.029 A 
ATOM     48  N   UNL     1      -1.937 -10.000 -11.676  1.00  0.00    -0.354 N 
ATOM     49  C   UNL     1      -5.370 -12.635 -11.856  1.00  0.00     0.074 A 
ATOM     50  C   UNL     1      -6.531 -12.005 -11.262  1.00  0.00     0.031 C 
ATOM     51  C   UNL     1      -0.836  -8.122 -11.177  1.00  0.00     0.029 A 
ATOM     52  C   UNL     1      -0.673  -9.460 -11.742  1.00  0.00     0.049 A 
ATOM     53  H   UNL     1      -2.168 -10.879 -12.053  1.00  0.00     0.167 HD
ATOM     54  C   UNL     1      -5.372 -13.862 -12.432  1.00  0.00     0.034 A 
ATOM     55  C   UNL     1       0.487 -10.000 -12.171  1.00  0.00     0.034 A 
ATOM     56  C   UNL     1      -4.199 -14.483 -13.000  1.00  0.00     0.049 A 
ATOM     57  C   UNL     1       0.487 -11.418 -12.696  1.00  0.00     0.074 A 
ATOM     58  C   UNL     1      -4.094 -15.714 -13.624  1.00  0.00     0.029 A 
ATOM     59  N   UNL     1      -2.924 -13.932 -12.994  1.00  0.00    -0.354 N 
ATOM     60  N   UNL     1      -0.522 -12.248 -12.840  1.00  0.00    -0.248 NA
ATOM     61  C   UNL     1       1.782 -11.973 -13.114  1.00  0.00     0.031 C 
ATOM     62  C   UNL     1      -2.745 -15.945 -13.913  1.00  0.00     0.029 A 
ATOM     63  C   UNL     1      -2.019 -14.821 -13.556  1.00  0.00     0.049 A 
ATOM     64  H   UNL     1      -2.696 -13.042 -12.642  1.00  0.00     0.167 HD
ATOM     65  C   UNL     1       0.016 -13.411 -13.388  1.00  0.00     0.074 A 
ATOM     66  C   UNL     1       1.431 -13.167 -13.569  1.00  0.00     0.031 C 
ATOM     67  C   UNL     1      -0.604 -14.575 -13.713  1.00  0.00     0.034 A 
BRANCH  54  68
ATOM     68  C   UNL     1      -6.669 -14.634 -12.421  1.00  0.00     0.023 A 
ATOM     69  C   UNL     1      -7.811 -14.178 -13.101  1.00  0.00     0.031 A 
ATOM     70  C   UNL     1      -6.769 -15.838 -11.700  1.00  0.00     0.131 A 
ATOM     71  C   UNL     1      -9.019 -14.883 -12.990  1.00  0.00     0.055 A 
ATOM     72  C   UNL     1      -7.952 -16.578 -11.662  1.00  0.00     0.041 A 
ATOM     73  F   UNL     1      -5.720 -16.311 -11.009  1.00  0.00    -0.206 F 
ATOM     74  C   UNL     1      -9.091 -16.094 -12.298  1.00  0.00     0.022 A 
BRANCH  71  75
ATOM     75  S   UNL     1     -10.531 -14.117 -13.638  1.00  0.00     0.124 S 
ATOM     76  O   UNL     1     -10.560 -12.854 -12.904  1.00  0.00    -0.237 OA
ATOM     77  O   UNL     1     -10.248 -14.020 -15.065  1.00  0.00    -0.237 OA
ATOM     78  O   UNL     1     -11.580 -15.066 -13.272  1.00  0.00    -0.744 OA
ENDBRANCH  71  75
ENDBRANCH  54  68
BRANCH  55  79
ATOM     79  C   UNL     1       1.765  -9.234 -12.069  1.00  0.00     0.023 A 
ATOM     80  C   UNL     1       2.517  -8.920 -13.213  1.00  0.00     0.031 A 
ATOM     81  C   UNL     1       2.290  -8.865 -10.817  1.00  0.00     0.131 A 
ATOM     82  C   UNL     1       3.770  -8.300 -13.079  1.00  0.00     0.055 A 
ATOM     83  C   UNL     1       3.507  -8.193 -10.694  1.00  0.00     0.041 A 
ATOM     84  F   UNL     1       1.621  -9.150  -9.688  1.00  0.00    -0.206 F 
ATOM     85  C   UNL     1       4.262  -7.919 -11.829  1.00  0.00     0.022 A 
BRANCH  82  86
ATOM     86  S   UNL     1       4.796  -8.088 -14.560  1.00  0.00     0.124 S 
ATOM     87  O   UNL     1       4.938  -9.465 -15.020  1.00  0.00    -0.237 OA
ATOM     88  O   UNL     1       3.963  -7.219 -15.384  1.00  0.00    -0.237 OA
ATOM     89  O   UNL     1       6.016  -7.473 -14.043  1.00  0.00    -0.744 OA
ENDBRANCH  82  86
ENDBRANCH  55  79
BRANCH  67  90
ATOM     90  C   UNL     1       0.246 -15.663 -14.328  1.00  0.00     0.023 A 
ATOM     91  C   UNL     1       1.268 -16.301 -13.604  1.00  0.00     0.031 A 
ATOM     92  C   UNL     1       0.030 -16.069 -15.658  1.00  0.00     0.131 A 
ATOM     93  C   UNL     1       2.071 -17.269 -14.228  1.00  0.00     0.055 A 
ATOM     94  C   UNL     1       0.786 -17.080 -16.252  1.00  0.00     0.041 A 
ATOM     95  F   UNL     1      -0.928 -15.492 -16.401  1.00  0.00    -0.206 F 
ATOM     96  C   UNL     1       1.822 -17.677 -15.541  1.00  0.00     0.022 A 
BRANCH  93  97
ATOM     97  S   UNL     1       3.507 -17.919 -13.332  1.00  0.00     0.124 S 
ATOM     98  O   UNL     1       4.278 -16.707 -13.075  1.00  0.00    -0.237 OA
ATOM     99  O   UNL     1       2.893 -18.543 -12.165  1.00  0.00    -0.237 OA
ATOM    100  O   UNL     1       4.113 -18.849 -14.284  1.00  0.00    -0.744 OA
ENDBRANCH  93  97
ENDBRANCH  67  90
ENDBRANCH  41  42
ENDBRANCH  34  36
ENDBRANCH  33  34
ENDBRANCH  32  33
ENDBRANCH  31  32
ENDBRANCH  30  31
ENDBRANCH  29  30
ENDBRANCH   1  29
TORSDOF 25
