REMARK SMILES Cn1cc(S(=O)(=O)N2CCC(C(=O)OCCOCCOCCOCCOC(=O)c3ccc(-c4c5nc(c(-c6cc(S(=O)(=O)[O-])ccc6F)c6ccc([nH]6)c(-c6cc(S(=O)(=O)[O-])ccc6F)c6nc(c(-c7cc(S(=O)(=O)[O-])ccc7F)c7ccc4[nH]7)C=C6)C=C5)cc3)CC2)cc1C(=O)N1CCCCC1
REMARK SMILES IDX 20 1 19 2 18 3 17 4 16 5 15 6 14 7 12 8 13 9 11 10 8 11 9 12
REMARK SMILES IDX 93 13 10 14 92 15 5 16 6 17 7 18 4 19 1 20 2 21 3 22 95 23
REMARK SMILES IDX 94 24 96 25 97 26 98 27 99 28 103 29 100 30 102 31 101 32
REMARK SMILES IDX 21 33 22 34 23 35 24 36 25 37 26 38 27 39 28 40 29 41 30 42
REMARK SMILES IDX 91 43 31 44 90 45 32 46 33 47 34 48 84 49 35 50 89 51 83 52
REMARK SMILES IDX 85 53 36 54 88 55 82 56 81 57 37 59 69 60 49 61 68 62 50 63
REMARK SMILES IDX 53 64 67 65 86 66 51 67 52 68 66 70 87 71 54 72 38 73 39 74
REMARK SMILES IDX 47 75 40 76 46 77 48 78 45 79 41 80 42 81 43 82 44 83 70 84
REMARK SMILES IDX 71 85 79 86 72 87 78 88 80 89 77 90 73 91 74 92 75 93 76 94
REMARK SMILES IDX 55 95 56 96 64 97 57 98 63 99 65 100 62 101 58 102 59 103
REMARK SMILES IDX 60 104 61 105
REMARK H PARENT 85 58 53 69
REMARK Flexibility Score: inf
ROOT
ATOM      1  O   UNL     1      -8.160  -2.398  -2.319  1.00  0.00    -0.377 OA
ENDROOT
BRANCH   1   2
ATOM      2  C   UNL     1      -7.144  -3.380  -2.259  1.00  0.00     0.188 C 
BRANCH   2   3
ATOM      3  C   UNL     1      -7.456  -4.552  -1.317  1.00  0.00     0.188 C 
BRANCH   3   4
ATOM      4  O   UNL     1      -8.797  -4.835  -0.943  1.00  0.00    -0.376 OA
BRANCH   4   5
ATOM      5  C   UNL     1      -9.630  -3.804  -0.413  1.00  0.00     0.202 C 
BRANCH   5   6
ATOM      6  C   UNL     1      -9.122  -2.925   0.737  1.00  0.00     0.261 C 
BRANCH   6   7
ATOM      7  O   UNL     1      -8.023  -2.059   0.392  1.00  0.00    -0.463 OA
BRANCH   7   8
ATOM      8  C   UNL     1      -6.872  -2.282   1.060  1.00  0.00     0.309 C 
ATOM      9  O   UNL     1      -6.710  -3.169   1.896  1.00  0.00    -0.252 OA
BRANCH   8  10
ATOM     10  C   UNL     1      -5.738  -1.345   0.712  1.00  0.00     0.102 C 
ATOM     11  N   UNL     1      -3.972   0.917   0.512  1.00  0.00    -0.198 NA
ATOM     12  C   UNL     1      -4.468   0.243  -0.716  1.00  0.00     0.103 C 
ATOM     13  C   UNL     1      -4.074   0.166   1.783  1.00  0.00     0.103 C 
ATOM     14  C   UNL     1      -5.841  -0.398  -0.480  1.00  0.00     0.032 C 
ATOM     15  C   UNL     1      -5.431  -0.492   1.939  1.00  0.00     0.032 C 
BRANCH  11  16
ATOM     16  S   UNL     1      -2.545   1.831   0.341  1.00  0.00     0.244 S 
ATOM     17  O   UNL     1      -2.314   2.553   1.575  1.00  0.00    -0.207 OA
ATOM     18  O   UNL     1      -2.566   2.502  -0.941  1.00  0.00    -0.207 OA
BRANCH  16  19
ATOM     19  C   UNL     1      -1.142   0.811   0.228  1.00  0.00     0.101 A 
ATOM     20  C   UNL     1       2.369   0.411  -0.469  1.00  0.00     0.150 C 
ATOM     21  N   UNL     1       0.989   0.219  -0.079  1.00  0.00    -0.345 N 
ATOM     22  C   UNL     1       0.150   1.284   0.140  1.00  0.00     0.107 A 
ATOM     23  C   UNL     1       0.275  -0.967  -0.037  1.00  0.00     0.108 A 
ATOM     24  C   UNL     1      -1.060  -0.598   0.146  1.00  0.00     0.055 A 
BRANCH  23  25
ATOM     25  C   UNL     1       0.733  -2.316  -0.354  1.00  0.00     0.270 C 
ATOM     26  O   UNL     1       0.004  -3.087  -0.979  1.00  0.00    -0.267 OA
ATOM     27  N   UNL     1       2.027  -2.705  -0.010  1.00  0.00    -0.337 N 
ATOM     28  C   UNL     1       2.729  -3.621  -0.903  1.00  0.00     0.120 C 
ATOM     29  C   UNL     1       2.729  -2.303   1.207  1.00  0.00     0.120 C 
ATOM     30  C   UNL     1       3.292  -4.833  -0.174  1.00  0.00     0.022 C 
ATOM     31  C   UNL     1       3.295  -3.514   1.954  1.00  0.00     0.022 C 
ATOM     32  C   UNL     1       4.125  -4.401   1.028  1.00  0.00     0.004 C 
ENDBRANCH  23  25
ENDBRANCH  16  19
ENDBRANCH  11  16
ENDBRANCH   8  10
ENDBRANCH   7   8
ENDBRANCH   6   7
ENDBRANCH   5   6
ENDBRANCH   4   5
ENDBRANCH   3   4
ENDBRANCH   2   3
ENDBRANCH   1   2
BRANCH   1  33
ATOM     33  C   UNL     1      -8.989  -2.390  -3.481  1.00  0.00     0.188 C 
BRANCH  33  34
ATOM     34  C   UNL     1      -9.388  -3.749  -4.086  1.00  0.00     0.188 C 
BRANCH  34  35
ATOM     35  O   UNL     1      -8.275  -4.469  -4.618  1.00  0.00    -0.376 OA
BRANCH  35  36
ATOM     36  C   UNL     1      -8.035  -4.332  -6.017  1.00  0.00     0.202 C 
BRANCH  36  37
ATOM     37  C   UNL     1      -7.521  -2.955  -6.468  1.00  0.00     0.261 C 
BRANCH  37  38
ATOM     38  O   UNL     1      -8.477  -1.879  -6.404  1.00  0.00    -0.460 OA
BRANCH  38  39
ATOM     39  C   UNL     1      -9.657  -2.044  -7.037  1.00  0.00     0.338 C 
ATOM     40  O   UNL     1      -9.974  -2.970  -7.763  1.00  0.00    -0.246 OA
BRANCH  39  41
ATOM     41  C   UNL     1     -10.589  -1.010  -6.546  1.00  0.00     0.060 A 
ATOM     42  C   UNL     1     -11.815  -1.417  -6.005  1.00  0.00     0.016 A 
ATOM     43  C   UNL     1     -10.274   0.348  -6.649  1.00  0.00     0.016 A 
ATOM     44  C   UNL     1     -12.754  -0.462  -5.614  1.00  0.00     0.010 A 
ATOM     45  C   UNL     1     -11.224   1.303  -6.274  1.00  0.00     0.010 A 
ATOM     46  C   UNL     1     -12.483   0.901  -5.794  1.00  0.00    -0.014 A 
BRANCH  46  47
ATOM     47  C   UNL     1     -13.588   1.887  -5.697  1.00  0.00     0.031 A 
ATOM     48  C   UNL     1     -14.311   2.265  -6.963  1.00  0.00     0.074 A 
ATOM     49  C   UNL     1     -13.956   2.420  -4.518  1.00  0.00     0.049 A 
ATOM     50  N   UNL     1     -15.275   3.128  -7.146  1.00  0.00    -0.248 NA
ATOM     51  C   UNL     1     -13.881   1.572  -8.188  1.00  0.00     0.031 C 
ATOM     52  C   UNL     1     -13.363   2.098  -3.222  1.00  0.00     0.029 A 
ATOM     53  N   UNL     1     -14.918   3.354  -4.225  1.00  0.00    -0.354 N 
ATOM     54  C   UNL     1     -15.570   3.082  -8.505  1.00  0.00     0.074 A 
ATOM     55  C   UNL     1     -14.656   2.132  -9.103  1.00  0.00     0.031 C 
ATOM     56  C   UNL     1     -13.966   2.835  -2.272  1.00  0.00     0.029 A 
ATOM     57  C   UNL     1     -14.963   3.705  -2.896  1.00  0.00     0.049 A 
ATOM     58  H   UNL     1     -15.521   3.738  -4.903  1.00  0.00     0.167 HD
ATOM     59  C   UNL     1     -16.519   3.764  -9.191  1.00  0.00     0.034 A 
ATOM     60  C   UNL     1     -15.705   4.639  -2.265  1.00  0.00     0.034 A 
ATOM     61  C   UNL     1     -17.408   4.725  -8.587  1.00  0.00     0.049 A 
ATOM     62  C   UNL     1     -16.692   5.456  -3.067  1.00  0.00     0.074 A 
ATOM     63  C   UNL     1     -18.407   5.471  -9.187  1.00  0.00     0.029 A 
ATOM     64  N   UNL     1     -17.394   5.085  -7.246  1.00  0.00    -0.354 N 
ATOM     65  N   UNL     1     -16.970   5.395  -4.350  1.00  0.00    -0.248 NA
ATOM     66  C   UNL     1     -17.472   6.463  -2.334  1.00  0.00     0.031 C 
ATOM     67  C   UNL     1     -18.951   6.329  -8.225  1.00  0.00     0.029 A 
ATOM     68  C   UNL     1     -18.345   6.065  -7.007  1.00  0.00     0.049 A 
ATOM     69  H   UNL     1     -16.797   4.700  -6.565  1.00  0.00     0.167 HD
ATOM     70  C   UNL     1     -17.980   6.330  -4.566  1.00  0.00     0.074 A 
ATOM     71  C   UNL     1     -18.269   6.933  -3.282  1.00  0.00     0.031 C 
ATOM     72  C   UNL     1     -18.618   6.658  -5.719  1.00  0.00     0.034 A 
BRANCH  59  73
ATOM     73  C   UNL     1     -16.597   3.530 -10.678  1.00  0.00     0.023 A 
ATOM     74  C   UNL     1     -16.968   2.283 -11.213  1.00  0.00     0.031 A 
ATOM     75  C   UNL     1     -16.264   4.559 -11.576  1.00  0.00     0.131 A 
ATOM     76  C   UNL     1     -16.935   2.080 -12.601  1.00  0.00     0.055 A 
ATOM     77  C   UNL     1     -16.305   4.372 -12.958  1.00  0.00     0.041 A 
ATOM     78  F   UNL     1     -15.878   5.762 -11.122  1.00  0.00    -0.206 F 
ATOM     79  C   UNL     1     -16.630   3.123 -13.478  1.00  0.00     0.022 A 
BRANCH  76  80
ATOM     80  S   UNL     1     -17.170   0.398 -13.238  1.00  0.00     0.124 S 
ATOM     81  O   UNL     1     -16.069  -0.317 -12.596  1.00  0.00    -0.237 OA
ATOM     82  O   UNL     1     -18.509   0.065 -12.767  1.00  0.00    -0.237 OA
ATOM     83  O   UNL     1     -17.040   0.558 -14.685  1.00  0.00    -0.744 OA
ENDBRANCH  76  80
ENDBRANCH  59  73
BRANCH  60  84
ATOM     84  C   UNL     1     -15.523   4.899  -0.807  1.00  0.00     0.023 A 
ATOM     85  C   UNL     1     -16.570   4.696   0.106  1.00  0.00     0.031 A 
ATOM     86  C   UNL     1     -14.316   5.432  -0.317  1.00  0.00     0.131 A 
ATOM     87  C   UNL     1     -16.410   5.073   1.450  1.00  0.00     0.055 A 
ATOM     88  C   UNL     1     -14.144   5.754   1.031  1.00  0.00     0.041 A 
ATOM     89  F   UNL     1     -13.284   5.651  -1.147  1.00  0.00    -0.206 F 
ATOM     90  C   UNL     1     -15.201   5.590   1.920  1.00  0.00     0.022 A 
BRANCH  87  91
ATOM     91  S   UNL     1     -17.844   4.971   2.557  1.00  0.00     0.124 S 
ATOM     92  O   UNL     1     -18.812   5.818   1.870  1.00  0.00    -0.237 OA
ATOM     93  O   UNL     1     -18.127   3.539   2.554  1.00  0.00    -0.237 OA
ATOM     94  O   UNL     1     -17.337   5.501   3.821  1.00  0.00    -0.744 OA
ENDBRANCH  87  91
ENDBRANCH  60  84
BRANCH  72  95
ATOM     95  C   UNL     1     -19.729   7.676  -5.629  1.00  0.00     0.023 A 
ATOM     96  C   UNL     1     -19.480   9.024  -5.319  1.00  0.00     0.031 A 
ATOM     97  C   UNL     1     -21.061   7.285  -5.858  1.00  0.00     0.131 A 
ATOM     98  C   UNL     1     -20.551   9.922  -5.196  1.00  0.00     0.055 A 
ATOM     99  C   UNL     1     -22.117   8.195  -5.792  1.00  0.00     0.041 A 
ATOM    100  F   UNL     1     -21.357   6.010  -6.159  1.00  0.00    -0.206 F 
ATOM    101  C   UNL     1     -21.866   9.520  -5.447  1.00  0.00     0.022 A 
BRANCH  98 102
ATOM    102  S   UNL     1     -20.215  11.610  -4.623  1.00  0.00     0.124 S 
ATOM    103  O   UNL     1     -19.591  11.372  -3.325  1.00  0.00    -0.237 OA
ATOM    104  O   UNL     1     -19.336  12.125  -5.668  1.00  0.00    -0.237 OA
ATOM    105  O   UNL     1     -21.539  12.226  -4.570  1.00  0.00    -0.744 OA
ENDBRANCH  98 102
ENDBRANCH  72  95
ENDBRANCH  46  47
ENDBRANCH  39  41
ENDBRANCH  38  39
ENDBRANCH  37  38
ENDBRANCH  36  37
ENDBRANCH  35  36
ENDBRANCH  34  35
ENDBRANCH  33  34
ENDBRANCH   1  33
TORSDOF 26
