REMARK SMILES NC(=O)c1c(-c2ccc(Cl)cc2)csc1NC(=O)[C@H]1[C@@H](C(=O)OCCOCCOCCOCCOC(=O)c2ccc(-c3c4nc(c(-c5cc(S(=O)(=O)[O-])ccc5F)c5ccc([nH]5)c(-c5cc(S(=O)(=O)[O-])ccc5F)c5nc(c(-c6cc(S(=O)(=O)[O-])ccc6F)c6ccc3[nH]6)C=C5)C=C4)cc2)[C@@H]2CC[C@H]1O2
REMARK SMILES IDX 29 1 28 2 27 3 26 4 25 5 24 6 23 7 21 8 22 9 20 10 19 11
REMARK SMILES IDX 104 12 101 13 103 14 105 15 102 16 17 17 16 18 18 20 15 21
REMARK SMILES IDX 4 22 5 23 13 24 14 25 2 26 1 27 3 30 6 31 7 32 12 33 8 34
REMARK SMILES IDX 11 35 9 36 10 37 30 38 31 39 32 40 33 41 34 42 35 43 36 44
REMARK SMILES IDX 37 45 38 46 39 47 100 48 40 49 99 50 41 51 42 52 43 53 93 54
REMARK SMILES IDX 44 55 98 56 92 57 94 58 45 59 97 60 91 61 90 62 46 64 78 65
REMARK SMILES IDX 58 66 77 67 59 68 62 69 76 70 95 71 60 72 61 73 75 75 96 76
REMARK SMILES IDX 63 77 47 78 48 79 56 80 49 81 55 82 57 83 54 84 50 85 51 86
REMARK SMILES IDX 52 87 53 88 79 89 80 90 88 91 81 92 87 93 89 94 86 95 82 96
REMARK SMILES IDX 83 97 84 98 85 99 64 100 65 101 73 102 66 103 72 104 74 105
REMARK SMILES IDX 71 106 67 107 68 108 69 109 70 110
REMARK H PARENT 16 19 1 28 1 29 94 63 62 74
REMARK Flexibility Score: inf
ROOT
ATOM      1  O   UNL     1      -0.099  -2.442  10.505  1.00  0.00    -0.377 OA
ENDROOT
BRANCH   1   2
ATOM      2  C   UNL     1      -1.429  -2.304  10.066  1.00  0.00     0.188 C 
BRANCH   2   3
ATOM      3  C   UNL     1      -2.241  -3.605   9.977  1.00  0.00     0.188 C 
BRANCH   3   4
ATOM      4  O   UNL     1      -1.885  -4.773  10.694  1.00  0.00    -0.376 OA
BRANCH   4   5
ATOM      5  C   UNL     1      -0.595  -5.371  10.660  1.00  0.00     0.202 C 
BRANCH   5   6
ATOM      6  C   UNL     1       0.320  -5.426   9.430  1.00  0.00     0.261 C 
BRANCH   6   7
ATOM      7  O   UNL     1       0.480  -4.197   8.725  1.00  0.00    -0.463 OA
BRANCH   7   8
ATOM      8  C   UNL     1      -0.272  -4.098   7.617  1.00  0.00     0.312 C 
ATOM      9  O   UNL     1      -1.079  -4.940   7.223  1.00  0.00    -0.252 OA
BRANCH   8  10
ATOM     10  C   UNL     1      -0.123  -2.807   6.871  1.00  0.00     0.143 C 
ATOM     11  C   UNL     1       0.486  -3.023   5.493  1.00  0.00     0.124 C 
ATOM     12  C   UNL     1       1.457  -1.841   5.388  1.00  0.00     0.132 C 
ATOM     13  C   UNL     1       0.690  -1.621   7.399  1.00  0.00     0.133 C 
ATOM     14  C   UNL     1       0.692  -0.521   5.279  1.00  0.00     0.035 C 
ATOM     15  O   UNL     1       1.961  -1.757   6.734  1.00  0.00    -0.373 OA
ATOM     16  C   UNL     1       0.170  -0.342   6.709  1.00  0.00     0.036 C 
BRANCH  11  17
ATOM     17  C   UNL     1       1.232  -4.335   5.251  1.00  0.00     0.231 C 
ATOM     18  N   UNL     1       1.551  -4.705   3.970  1.00  0.00    -0.317 N 
ATOM     19  H   UNL     1       1.784  -5.647   3.803  1.00  0.00     0.170 HD
ATOM     20  O   UNL     1       1.637  -5.061   6.159  1.00  0.00    -0.274 OA
BRANCH  18  21
ATOM     21  C   UNL     1       1.564  -3.835   2.907  1.00  0.00     0.108 A 
ATOM     22  C   UNL     1       2.671  -3.446   2.187  1.00  0.00     0.082 A 
ATOM     23  C   UNL     1       2.292  -2.436   1.233  1.00  0.00     0.007 A 
ATOM     24  C   UNL     1       0.943  -2.139   1.274  1.00  0.00     0.076 A 
ATOM     25  S   UNL     1       0.108  -3.196   2.315  1.00  0.00    -0.125 S 
BRANCH  22  26
ATOM     26  C   UNL     1       3.990  -4.009   2.466  1.00  0.00     0.252 C 
ATOM     27  N   UNL     1       5.057  -3.177   2.310  1.00  0.00    -0.365 N 
ATOM     28  H   UNL     1       5.968  -3.507   2.485  1.00  0.00     0.159 HD
ATOM     29  H   UNL     1       4.917  -2.246   2.023  1.00  0.00     0.159 HD
ATOM     30  O   UNL     1       4.142  -5.157   2.869  1.00  0.00    -0.269 OA
ENDBRANCH  22  26
BRANCH  23  31
ATOM     31  C   UNL     1       3.114  -1.900   0.174  1.00  0.00    -0.017 A 
ATOM     32  C   UNL     1       3.458  -0.548   0.112  1.00  0.00     0.010 A 
ATOM     33  C   UNL     1       3.575  -2.800  -0.795  1.00  0.00     0.010 A 
ATOM     34  C   UNL     1       4.276  -0.103  -0.928  1.00  0.00     0.021 A 
ATOM     35  C   UNL     1       4.388  -2.353  -1.828  1.00  0.00     0.021 A 
ATOM     36  C   UNL     1       4.735  -1.007  -1.891  1.00  0.00     0.041 A 
ATOM     37  Cl  UNL     1       5.741  -0.456  -3.171  1.00  0.00    -0.084 Cl
ENDBRANCH  23  31
ENDBRANCH  18  21
ENDBRANCH  11  17
ENDBRANCH   8  10
ENDBRANCH   7   8
ENDBRANCH   6   7
ENDBRANCH   5   6
ENDBRANCH   4   5
ENDBRANCH   3   4
ENDBRANCH   2   3
ENDBRANCH   1   2
BRANCH   1  38
ATOM     38  C   UNL     1       0.183  -2.428  11.896  1.00  0.00     0.188 C 
BRANCH  38  39
ATOM     39  C   UNL     1      -0.956  -2.668  12.905  1.00  0.00     0.188 C 
BRANCH  39  40
ATOM     40  O   UNL     1      -2.155  -1.967  12.612  1.00  0.00    -0.376 OA
BRANCH  40  41
ATOM     41  C   UNL     1      -2.367  -0.705  13.227  1.00  0.00     0.202 C 
BRANCH  41  42
ATOM     42  C   UNL     1      -1.377   0.427  12.909  1.00  0.00     0.261 C 
BRANCH  42  43
ATOM     43  O   UNL     1      -0.005   0.223  13.285  1.00  0.00    -0.460 OA
BRANCH  43  44
ATOM     44  C   UNL     1       0.278  -0.109  14.563  1.00  0.00     0.338 C 
ATOM     45  O   UNL     1      -0.511  -0.185  15.489  1.00  0.00    -0.246 OA
BRANCH  44  46
ATOM     46  C   UNL     1       1.686  -0.565  14.605  1.00  0.00     0.060 A 
ATOM     47  C   UNL     1       1.970  -1.885  14.981  1.00  0.00     0.016 A 
ATOM     48  C   UNL     1       2.721   0.304  14.256  1.00  0.00     0.016 A 
ATOM     49  C   UNL     1       3.293  -2.335  15.025  1.00  0.00     0.010 A 
ATOM     50  C   UNL     1       4.046  -0.139  14.329  1.00  0.00     0.010 A 
ATOM     51  C   UNL     1       4.342  -1.453  14.735  1.00  0.00    -0.014 A 
BRANCH  51  52
ATOM     52  C   UNL     1       5.749  -1.835  15.021  1.00  0.00     0.031 A 
ATOM     53  C   UNL     1       6.363  -1.367  16.314  1.00  0.00     0.074 A 
ATOM     54  C   UNL     1       6.472  -2.565  14.151  1.00  0.00     0.049 A 
ATOM     55  N   UNL     1       7.600  -1.455  16.726  1.00  0.00    -0.248 NA
ATOM     56  C   UNL     1       5.457  -0.707  17.268  1.00  0.00     0.031 C 
ATOM     57  C   UNL     1       5.970  -3.129  12.899  1.00  0.00     0.029 A 
ATOM     58  N   UNL     1       7.794  -2.939  14.181  1.00  0.00    -0.354 N 
ATOM     59  C   UNL     1       7.628  -0.841  17.973  1.00  0.00     0.074 A 
ATOM     60  C   UNL     1       6.285  -0.379  18.248  1.00  0.00     0.031 C 
ATOM     61  C   UNL     1       6.980  -3.753  12.267  1.00  0.00     0.029 A 
ATOM     62  C   UNL     1       8.211  -3.588  13.039  1.00  0.00     0.049 A 
ATOM     63  H   UNL     1       8.388  -2.761  14.945  1.00  0.00     0.167 HD
ATOM     64  C   UNL     1       8.683  -0.673  18.807  1.00  0.00     0.034 A 
ATOM     65  C   UNL     1       9.449  -3.957  12.645  1.00  0.00     0.034 A 
ATOM     66  C   UNL     1      10.016  -1.141  18.519  1.00  0.00     0.049 A 
ATOM     67  C   UNL     1      10.625  -3.671  13.557  1.00  0.00     0.074 A 
ATOM     68  C   UNL     1      11.144  -1.056  19.316  1.00  0.00     0.029 A 
ATOM     69  N   UNL     1      10.407  -1.759  17.340  1.00  0.00    -0.354 N 
ATOM     70  N   UNL     1      10.634  -3.111  14.746  1.00  0.00    -0.248 NA
ATOM     71  C   UNL     1      11.956  -4.066  13.075  1.00  0.00     0.031 C 
ATOM     72  C   UNL     1      12.233  -1.537  18.584  1.00  0.00     0.029 A 
ATOM     73  C   UNL     1      11.769  -2.014  17.369  1.00  0.00     0.049 A 
ATOM     74  H   UNL     1       9.806  -1.984  16.593  1.00  0.00     0.167 HD
ATOM     75  C   UNL     1      11.965  -3.126  15.164  1.00  0.00     0.074 A 
ATOM     76  C   UNL     1      12.723  -3.767  14.111  1.00  0.00     0.031 C 
ATOM     77  C   UNL     1      12.514  -2.654  16.312  1.00  0.00     0.034 A 
BRANCH  64  78
ATOM     78  C   UNL     1       8.464   0.107  20.078  1.00  0.00     0.023 A 
ATOM     79  C   UNL     1       7.667  -0.376  21.128  1.00  0.00     0.031 A 
ATOM     80  C   UNL     1       9.102   1.350  20.249  1.00  0.00     0.131 A 
ATOM     81  C   UNL     1       7.504   0.394  22.291  1.00  0.00     0.055 A 
ATOM     82  C   UNL     1       8.991   2.078  21.433  1.00  0.00     0.041 A 
ATOM     83  F   UNL     1       9.853   1.872  19.266  1.00  0.00    -0.206 F 
ATOM     84  C   UNL     1       8.183   1.604  22.461  1.00  0.00     0.022 A 
BRANCH  81  85
ATOM     85  S   UNL     1       6.317  -0.159  23.545  1.00  0.00     0.124 S 
ATOM     86  O   UNL     1       5.069  -0.172  22.786  1.00  0.00    -0.237 OA
ATOM     87  O   UNL     1       6.845  -1.464  23.928  1.00  0.00    -0.237 OA
ATOM     88  O   UNL     1       6.400   0.874  24.576  1.00  0.00    -0.744 OA
ENDBRANCH  81  85
ENDBRANCH  64  78
BRANCH  65  89
ATOM     89  C   UNL     1       9.683  -4.564  11.297  1.00  0.00     0.023 A 
ATOM     90  C   UNL     1      10.298  -5.820  11.161  1.00  0.00     0.031 A 
ATOM     91  C   UNL     1       9.408  -3.841  10.121  1.00  0.00     0.131 A 
ATOM     92  C   UNL     1      10.690  -6.275   9.891  1.00  0.00     0.055 A 
ATOM     93  C   UNL     1       9.728  -4.335   8.855  1.00  0.00     0.041 A 
ATOM     94  F   UNL     1       8.838  -2.627  10.186  1.00  0.00    -0.206 F 
ATOM     95  C   UNL     1      10.394  -5.550   8.736  1.00  0.00     0.022 A 
BRANCH  92  96
ATOM     96  S   UNL     1      11.740  -7.753   9.787  1.00  0.00     0.124 S 
ATOM     97  O   UNL     1      12.852  -7.386  10.656  1.00  0.00    -0.237 OA
ATOM     98  O   UNL     1      10.850  -8.793  10.290  1.00  0.00    -0.237 OA
ATOM     99  O   UNL     1      12.062  -7.842   8.365  1.00  0.00    -0.744 OA
ENDBRANCH  92  96
ENDBRANCH  65  89
BRANCH  77 100
ATOM    100  C   UNL     1      13.997  -2.867  16.513  1.00  0.00     0.023 A 
ATOM    101  C   UNL     1      14.956  -2.250  15.691  1.00  0.00     0.031 A 
ATOM    102  C   UNL     1      14.456  -3.706  17.545  1.00  0.00     0.131 A 
ATOM    103  C   UNL     1      16.320  -2.526  15.878  1.00  0.00     0.055 A 
ATOM    104  C   UNL     1      15.816  -3.922  17.770  1.00  0.00     0.041 A 
ATOM    105  F   UNL     1      13.587  -4.326  18.361  1.00  0.00    -0.206 F 
ATOM    106  C   UNL     1      16.756  -3.342  16.925  1.00  0.00     0.022 A 
BRANCH 103 107
ATOM    107  S   UNL     1      17.513  -1.884  14.671  1.00  0.00     0.124 S 
ATOM    108  O   UNL     1      17.026  -2.465  13.425  1.00  0.00    -0.237 OA
ATOM    109  O   UNL     1      17.350  -0.441  14.808  1.00  0.00    -0.237 OA
ATOM    110  O   UNL     1      18.793  -2.409  15.143  1.00  0.00    -0.744 OA
ENDBRANCH 103 107
ENDBRANCH  77 100
ENDBRANCH  51  52
ENDBRANCH  44  46
ENDBRANCH  43  44
ENDBRANCH  42  43
ENDBRANCH  41  42
ENDBRANCH  40  41
ENDBRANCH  39  40
ENDBRANCH  38  39
ENDBRANCH   1  38
TORSDOF 27
