REMARK SMILES CC[C@H](C)c1ccccc1Oc1cccc(F)c1C(=O)OCCOCCOCCOCCOC(=O)c1ccc(-c2c3nc(c(-c4cc(S(=O)(=O)[O-])ccc4F)c4ccc([nH]4)c(-c4cc(S(=O)(=O)[O-])ccc4F)c4nc(c(-c5cc(S(=O)(=O)[O-])ccc5F)c5ccc2[nH]5)C=C4)C=C3)cc1
REMARK SMILES IDX 26 1 25 2 24 3 23 4 22 5 21 6 19 7 20 8 18 9 12 10 13 11
REMARK SMILES IDX 14 12 16 13 15 14 17 15 11 16 10 17 5 18 6 19 7 20 9 21 8 22
REMARK SMILES IDX 3 23 4 24 2 25 1 26 27 27 28 28 29 29 30 30 31 31 32 32
REMARK SMILES IDX 33 33 34 34 35 35 36 36 37 37 98 38 38 39 97 40 39 41 40 42
REMARK SMILES IDX 41 43 91 44 42 45 96 46 90 47 92 48 43 49 95 50 89 51 88 52
REMARK SMILES IDX 44 54 76 55 56 56 75 57 57 58 60 59 74 60 93 61 58 62 59 63
REMARK SMILES IDX 73 65 94 66 61 67 45 68 46 69 54 70 47 71 53 72 55 73 52 74
REMARK SMILES IDX 48 75 49 76 50 77 51 78 77 79 78 80 86 81 79 82 85 83 87 84
REMARK SMILES IDX 84 85 80 86 81 87 82 88 83 89 62 90 63 91 71 92 64 93 70 94
REMARK SMILES IDX 72 95 69 96 65 97 66 98 67 99 68 100
REMARK H PARENT 92 53 60 64
REMARK Flexibility Score: inf
ROOT
ATOM      1  C   UNL     1       1.114   1.402   3.844  1.00  0.00     0.188 C 
ENDROOT
BRANCH   1   2
ATOM      2  C   UNL     1       2.608   1.294   3.475  1.00  0.00     0.188 C 
BRANCH   2   3
ATOM      3  O   UNL     1       3.389   2.459   3.613  1.00  0.00    -0.376 OA
BRANCH   3   4
ATOM      4  C   UNL     1       3.479   3.503   2.665  1.00  0.00     0.202 C 
BRANCH   4   5
ATOM      5  C   UNL     1       2.494   3.848   1.530  1.00  0.00     0.261 C 
BRANCH   5   6
ATOM      6  O   UNL     1       1.276   3.115   1.407  1.00  0.00    -0.459 OA
BRANCH   6   7
ATOM      7  C   UNL     1       1.452   1.932   0.789  1.00  0.00     0.345 C 
ATOM      8  O   UNL     1       2.552   1.469   0.508  1.00  0.00    -0.246 OA
BRANCH   7   9
ATOM      9  C   UNL     1       0.199   1.165   0.580  1.00  0.00     0.138 A 
ATOM     10  C   UNL     1      -1.000   1.616   0.021  1.00  0.00     0.144 A 
ATOM     11  C   UNL     1      -2.080   0.709  -0.100  1.00  0.00     0.048 A 
ATOM     12  C   UNL     1      -1.939  -0.649   0.165  1.00  0.00     0.007 A 
ATOM     13  C   UNL     1       0.324  -0.220   0.821  1.00  0.00     0.141 A 
ATOM     14  C   UNL     1      -0.715  -1.121   0.597  1.00  0.00     0.040 A 
ATOM     15  F   UNL     1       1.473  -0.744   1.275  1.00  0.00    -0.206 F 
BRANCH  10  16
ATOM     16  O   UNL     1      -1.341   2.783  -0.609  1.00  0.00    -0.456 OA
BRANCH  16  17
ATOM     17  C   UNL     1      -0.474   3.789  -0.924  1.00  0.00     0.130 A 
ATOM     18  C   UNL     1       0.412   3.812  -2.026  1.00  0.00    -0.002 A 
ATOM     19  C   UNL     1       1.003   5.071  -2.305  1.00  0.00     0.008 A 
ATOM     20  C   UNL     1       0.738   6.226  -1.554  1.00  0.00     0.001 A 
ATOM     21  C   UNL     1      -0.755   4.966  -0.186  1.00  0.00     0.047 A 
ATOM     22  C   UNL     1      -0.144   6.175  -0.488  1.00  0.00     0.004 A 
BRANCH  18  23
ATOM     23  C   UNL     1       0.875   2.655  -2.939  1.00  0.00     0.019 C 
ATOM     24  C   UNL     1       1.280   1.388  -2.224  1.00  0.00     0.013 C 
BRANCH  23  25
ATOM     25  C   UNL     1       0.033   2.323  -4.187  1.00  0.00     0.005 C 
ATOM     26  C   UNL     1       0.303   0.913  -4.744  1.00  0.00     0.004 C 
ENDBRANCH  23  25
ENDBRANCH  18  23
ENDBRANCH  16  17
ENDBRANCH  10  16
ENDBRANCH   7   9
ENDBRANCH   6   7
ENDBRANCH   5   6
ENDBRANCH   4   5
ENDBRANCH   3   4
ENDBRANCH   2   3
ENDBRANCH   1   2
BRANCH   1  27
ATOM     27  O   UNL     1       0.537   2.685   3.950  1.00  0.00    -0.377 OA
BRANCH  27  28
ATOM     28  C   UNL     1       1.046   3.605   4.907  1.00  0.00     0.188 C 
BRANCH  28  29
ATOM     29  C   UNL     1       2.084   3.185   5.977  1.00  0.00     0.188 C 
BRANCH  29  30
ATOM     30  O   UNL     1       2.253   1.792   6.166  1.00  0.00    -0.376 OA
BRANCH  30  31
ATOM     31  C   UNL     1       1.591   1.128   7.224  1.00  0.00     0.202 C 
BRANCH  31  32
ATOM     32  C   UNL     1       0.061   1.220   7.333  1.00  0.00     0.261 C 
BRANCH  32  33
ATOM     33  O   UNL     1      -0.507   2.531   7.257  1.00  0.00    -0.460 OA
BRANCH  33  34
ATOM     34  C   UNL     1      -0.162   3.398   8.232  1.00  0.00     0.338 C 
ATOM     35  O   UNL     1       0.561   3.167   9.191  1.00  0.00    -0.246 OA
BRANCH  34  36
ATOM     36  C   UNL     1      -0.624   4.738   7.821  1.00  0.00     0.060 A 
ATOM     37  C   UNL     1       0.321   5.761   7.659  1.00  0.00     0.016 A 
ATOM     38  C   UNL     1      -1.976   4.972   7.560  1.00  0.00     0.016 A 
ATOM     39  C   UNL     1      -0.087   7.032   7.268  1.00  0.00     0.010 A 
ATOM     40  C   UNL     1      -2.391   6.258   7.212  1.00  0.00     0.010 A 
ATOM     41  C   UNL     1      -1.451   7.300   7.106  1.00  0.00    -0.014 A 
BRANCH  41  42
ATOM     42  C   UNL     1      -1.905   8.708   7.113  1.00  0.00     0.031 A 
ATOM     43  C   UNL     1      -2.319   9.294   8.436  1.00  0.00     0.074 A 
ATOM     44  C   UNL     1      -1.905   9.459   5.999  1.00  0.00     0.049 A 
ATOM     45  N   UNL     1      -2.806  10.474   8.710  1.00  0.00    -0.248 NA
ATOM     46  C   UNL     1      -2.163   8.417   9.608  1.00  0.00     0.031 C 
ATOM     47  C   UNL     1      -1.454   9.017   4.682  1.00  0.00     0.029 A 
ATOM     48  N   UNL     1      -2.306  10.756   5.804  1.00  0.00    -0.354 N 
ATOM     49  C   UNL     1      -3.022  10.480  10.084  1.00  0.00     0.074 A 
ATOM     50  C   UNL     1      -2.650   9.173  10.578  1.00  0.00     0.031 C 
ATOM     51  C   UNL     1      -1.618  10.026   3.808  1.00  0.00     0.029 A 
ATOM     52  C   UNL     1      -2.225  11.165   4.495  1.00  0.00     0.049 A 
ATOM     53  H   UNL     1      -2.620  11.338   6.533  1.00  0.00     0.167 HD
ATOM     54  C   UNL     1      -3.483  11.489  10.862  1.00  0.00     0.034 A 
ATOM     55  C   UNL     1      -2.630  12.316   3.918  1.00  0.00     0.034 A 
ATOM     56  C   UNL     1      -3.867  12.778  10.344  1.00  0.00     0.049 A 
ATOM     57  C   UNL     1      -3.249  13.388   4.786  1.00  0.00     0.074 A 
ATOM     58  C   UNL     1      -4.347  13.875  11.034  1.00  0.00     0.029 A 
ATOM     59  N   UNL     1      -3.832  13.137   9.001  1.00  0.00    -0.354 N 
ATOM     60  N   UNL     1      -3.457  13.387   6.084  1.00  0.00    -0.248 NA
ATOM     61  C   UNL     1      -3.681  14.619   4.112  1.00  0.00     0.031 C 
ATOM     62  C   UNL     1      -4.685  14.863  10.104  1.00  0.00     0.029 A 
ATOM     63  C   UNL     1      -4.321  14.424   8.840  1.00  0.00     0.049 A 
ATOM     64  H   UNL     1      -3.507  12.561   8.272  1.00  0.00     0.167 HD
ATOM     65  C   UNL     1      -4.011  14.630   6.383  1.00  0.00     0.074 A 
ATOM     66  C   UNL     1      -4.093  15.356   5.132  1.00  0.00     0.031 C 
ATOM     67  C   UNL     1      -4.407  15.132   7.583  1.00  0.00     0.034 A 
BRANCH  54  68
ATOM     68  C   UNL     1      -3.659  11.201  12.334  1.00  0.00     0.023 A 
ATOM     69  C   UNL     1      -2.574  10.863  13.162  1.00  0.00     0.031 A 
ATOM     70  C   UNL     1      -4.943  11.216  12.907  1.00  0.00     0.131 A 
ATOM     71  C   UNL     1      -2.802  10.477  14.491  1.00  0.00     0.055 A 
ATOM     72  C   UNL     1      -5.152  10.919  14.255  1.00  0.00     0.041 A 
ATOM     73  F   UNL     1      -6.022  11.500  12.161  1.00  0.00    -0.206 F 
ATOM     74  C   UNL     1      -4.080  10.530  15.052  1.00  0.00     0.022 A 
BRANCH  71  75
ATOM     75  S   UNL     1      -1.431   9.743  15.427  1.00  0.00     0.124 S 
ATOM     76  O   UNL     1      -1.066   8.613  14.577  1.00  0.00    -0.237 OA
ATOM     77  O   UNL     1      -0.469  10.837  15.485  1.00  0.00    -0.237 OA
ATOM     78  O   UNL     1      -2.044   9.380  16.703  1.00  0.00    -0.744 OA
ENDBRANCH  71  75
ENDBRANCH  54  68
BRANCH  55  79
ATOM     79  C   UNL     1      -2.512  12.502   2.443  1.00  0.00     0.023 A 
ATOM     80  C   UNL     1      -1.715  13.521   1.898  1.00  0.00     0.031 A 
ATOM     81  C   UNL     1      -3.240  11.691   1.554  1.00  0.00     0.131 A 
ATOM     82  C   UNL     1      -1.698  13.729   0.509  1.00  0.00     0.055 A 
ATOM     83  C   UNL     1      -3.175  11.865   0.171  1.00  0.00     0.041 A 
ATOM     84  F   UNL     1      -4.024  10.706   2.021  1.00  0.00    -0.206 F 
ATOM     85  C   UNL     1      -2.410  12.898  -0.358  1.00  0.00     0.022 A 
BRANCH  82  86
ATOM     86  S   UNL     1      -0.800  15.164  -0.144  1.00  0.00     0.124 S 
ATOM     87  O   UNL     1      -1.469  16.267   0.536  1.00  0.00    -0.237 OA
ATOM     88  O   UNL     1       0.568  14.882   0.280  1.00  0.00    -0.237 OA
ATOM     89  O   UNL     1      -1.032  15.083  -1.584  1.00  0.00    -0.744 OA
ENDBRANCH  82  86
ENDBRANCH  55  79
BRANCH  67  90
ATOM     90  C   UNL     1      -4.914  16.555   7.607  1.00  0.00     0.023 A 
ATOM     91  C   UNL     1      -6.098  16.938   6.953  1.00  0.00     0.031 A 
ATOM     92  C   UNL     1      -4.196  17.546   8.303  1.00  0.00     0.131 A 
ATOM     93  C   UNL     1      -6.497  18.283   6.960  1.00  0.00     0.055 A 
ATOM     94  C   UNL     1      -4.636  18.868   8.367  1.00  0.00     0.041 A 
ATOM     95  F   UNL     1      -3.056  17.241   8.943  1.00  0.00    -0.206 F 
ATOM     96  C   UNL     1      -5.786  19.247   7.681  1.00  0.00     0.022 A 
BRANCH  93  97
ATOM     97  S   UNL     1      -7.903  18.781   5.928  1.00  0.00     0.124 S 
ATOM     98  O   UNL     1      -7.468  18.358   4.601  1.00  0.00    -0.237 OA
ATOM     99  O   UNL     1      -9.004  18.021   6.510  1.00  0.00    -0.237 OA
ATOM    100  O   UNL     1      -7.977  20.228   6.124  1.00  0.00    -0.744 OA
ENDBRANCH  93  97
ENDBRANCH  67  90
ENDBRANCH  41  42
ENDBRANCH  34  36
ENDBRANCH  33  34
ENDBRANCH  32  33
ENDBRANCH  31  32
ENDBRANCH  30  31
ENDBRANCH  29  30
ENDBRANCH  28  29
ENDBRANCH  27  28
ENDBRANCH   1  27
TORSDOF 27
