REMARK SMILES CC1(C)C(NC(=O)[C@@H]2CCC[C@@H](C(=O)OCCOCCOCCOCCOC(=O)c3ccc(-c4c5nc(c(-c6cc(S(=O)(=O)[O-])ccc6F)c6ccc([nH]6)c(-c6cc(S(=O)(=O)[O-])ccc6F)c6nc(c(-c7cc(S(=O)(=O)[O-])ccc7F)c7ccc4[nH]7)C=C6)C=C5)cc3)C2)C1(C)C
REMARK SMILES IDX 22 1 21 2 20 3 19 4 18 5 17 6 16 7 15 8 13 9 14 10 12 11
REMARK SMILES IDX 8 12 9 13 93 14 10 15 11 16 6 17 5 18 7 20 4 21 1 22 2 23
REMARK SMILES IDX 3 24 94 25 95 26 96 27 23 28 24 29 25 30 26 31 27 32 28 33
REMARK SMILES IDX 29 34 30 35 31 36 92 37 32 38 91 39 33 40 34 41 35 42 85 43
REMARK SMILES IDX 36 44 90 45 84 46 86 47 37 48 89 49 83 50 82 51 38 53 70 54
REMARK SMILES IDX 50 55 69 56 51 57 54 58 68 59 87 60 52 61 53 62 67 64 88 65
REMARK SMILES IDX 55 66 39 67 40 68 48 69 41 70 47 71 49 72 46 73 42 74 43 75
REMARK SMILES IDX 44 76 45 77 71 78 72 79 80 80 73 81 79 82 81 83 78 84 74 85
REMARK SMILES IDX 75 86 76 87 77 88 56 89 57 90 65 91 58 92 64 93 66 94 63 95
REMARK SMILES IDX 59 96 60 97 61 98 62 99
REMARK H PARENT 5 19 86 52 54 63
REMARK Flexibility Score: inf
ROOT
ATOM      1  C   UNL     1      -3.365   3.478  -7.753  1.00  0.00     0.188 C 
ENDROOT
BRANCH   1   2
ATOM      2  O   UNL     1      -2.816   3.102  -6.494  1.00  0.00    -0.377 OA
BRANCH   2   3
ATOM      3  C   UNL     1      -1.621   2.348  -6.455  1.00  0.00     0.188 C 
BRANCH   3   4
ATOM      4  C   UNL     1      -1.617   0.989  -7.188  1.00  0.00     0.188 C 
BRANCH   4   5
ATOM      5  O   UNL     1      -2.730   0.784  -8.044  1.00  0.00    -0.376 OA
BRANCH   5   6
ATOM      6  C   UNL     1      -3.804  -0.030  -7.604  1.00  0.00     0.202 C 
BRANCH   6   7
ATOM      7  C   UNL     1      -4.581   0.384  -6.342  1.00  0.00     0.261 C 
BRANCH   7   8
ATOM      8  O   UNL     1      -3.780   0.729  -5.205  1.00  0.00    -0.463 OA
BRANCH   8   9
ATOM      9  C   UNL     1      -3.002  -0.261  -4.720  1.00  0.00     0.309 C 
ATOM     10  O   UNL     1      -3.005  -1.408  -5.146  1.00  0.00    -0.252 OA
BRANCH   9  11
ATOM     11  C   UNL     1      -2.091   0.261  -3.613  1.00  0.00     0.100 C 
ATOM     12  C   UNL     1      -2.262  -1.926  -2.359  1.00  0.00     0.079 C 
ATOM     13  C   UNL     1      -1.006  -2.431  -3.114  1.00  0.00     0.013 C 
ATOM     14  C   UNL     1      -2.483  -0.405  -2.314  1.00  0.00     0.028 C 
ATOM     15  C   UNL     1      -0.275  -1.456  -4.050  1.00  0.00     0.002 C 
ATOM     16  C   UNL     1      -0.599   0.015  -3.846  1.00  0.00     0.015 C 
BRANCH  12  17
ATOM     17  C   UNL     1      -2.442  -2.439  -0.933  1.00  0.00     0.223 C 
ATOM     18  N   UNL     1      -1.493  -2.165   0.015  1.00  0.00    -0.352 N 
ATOM     19  H   UNL     1      -1.764  -2.276   0.955  1.00  0.00     0.163 HD
ATOM     20  O   UNL     1      -3.478  -3.011  -0.591  1.00  0.00    -0.275 OA
BRANCH  18  21
ATOM     21  C   UNL     1      -0.156  -1.736  -0.216  1.00  0.00     0.094 C 
ATOM     22  C   UNL     1       1.748  -0.135   0.315  1.00  0.00     0.014 C 
ATOM     23  C   UNL     1       0.845  -1.258   0.800  1.00  0.00    -0.007 C 
ATOM     24  C   UNL     1       0.438  -1.069   2.238  1.00  0.00     0.014 C 
ATOM     25  C   UNL     1       0.978  -2.667   0.181  1.00  0.00    -0.007 C 
ATOM     26  C   UNL     1       2.024  -2.959  -0.871  1.00  0.00     0.014 C 
ATOM     27  C   UNL     1       0.630  -3.911   0.977  1.00  0.00     0.014 C 
ENDBRANCH  18  21
ENDBRANCH  12  17
ENDBRANCH   9  11
ENDBRANCH   8   9
ENDBRANCH   7   8
ENDBRANCH   6   7
ENDBRANCH   5   6
ENDBRANCH   4   5
ENDBRANCH   3   4
ENDBRANCH   2   3
ENDBRANCH   1   2
BRANCH   1  28
ATOM     28  C   UNL     1      -2.583   3.311  -9.080  1.00  0.00     0.188 C 
BRANCH  28  29
ATOM     29  O   UNL     1      -1.181   3.146  -8.938  1.00  0.00    -0.376 OA
BRANCH  29  30
ATOM     30  C   UNL     1      -0.347   4.244  -9.255  1.00  0.00     0.202 C 
BRANCH  30  31
ATOM     31  C   UNL     1      -0.475   5.488  -8.365  1.00  0.00     0.261 C 
BRANCH  31  32
ATOM     32  O   UNL     1      -1.791   6.044  -8.237  1.00  0.00    -0.460 OA
BRANCH  32  33
ATOM     33  C   UNL     1      -2.383   6.495  -9.366  1.00  0.00     0.338 C 
ATOM     34  O   UNL     1      -1.902   6.506 -10.487  1.00  0.00    -0.246 OA
BRANCH  33  35
ATOM     35  C   UNL     1      -3.799   6.777  -9.046  1.00  0.00     0.060 A 
ATOM     36  C   UNL     1      -4.807   6.083  -9.731  1.00  0.00     0.016 A 
ATOM     37  C   UNL     1      -4.125   7.698  -8.049  1.00  0.00     0.016 A 
ATOM     38  C   UNL     1      -6.148   6.337  -9.444  1.00  0.00     0.010 A 
ATOM     39  C   UNL     1      -5.469   7.974  -7.784  1.00  0.00     0.010 A 
ATOM     40  C   UNL     1      -6.484   7.322  -8.507  1.00  0.00    -0.014 A 
BRANCH  40  41
ATOM     41  C   UNL     1      -7.873   7.842  -8.464  1.00  0.00     0.031 A 
ATOM     42  C   UNL     1      -8.174   9.097  -9.241  1.00  0.00     0.074 A 
ATOM     43  C   UNL     1      -8.847   7.208  -7.788  1.00  0.00     0.049 A 
ATOM     44  N   UNL     1      -9.284   9.781  -9.321  1.00  0.00    -0.248 NA
ATOM     45  C   UNL     1      -7.063   9.654 -10.029  1.00  0.00     0.031 C 
ATOM     46  C   UNL     1      -8.687   5.956  -7.050  1.00  0.00     0.029 A 
ATOM     47  N   UNL     1     -10.168   7.538  -7.611  1.00  0.00    -0.354 N 
ATOM     48  C   UNL     1      -9.004  10.854 -10.161  1.00  0.00     0.074 A 
ATOM     49  C   UNL     1      -7.610  10.749 -10.533  1.00  0.00     0.031 C 
ATOM     50  C   UNL     1      -9.865   5.630  -6.489  1.00  0.00     0.029 A 
ATOM     51  C   UNL     1     -10.849   6.669  -6.791  1.00  0.00     0.049 A 
ATOM     52  H   UNL     1     -10.587   8.323  -8.031  1.00  0.00     0.167 HD
ATOM     53  C   UNL     1      -9.837  11.833 -10.590  1.00  0.00     0.034 A 
ATOM     54  C   UNL     1     -12.112   6.726  -6.317  1.00  0.00     0.034 A 
ATOM     55  C   UNL     1     -11.221  11.929 -10.199  1.00  0.00     0.049 A 
ATOM     56  C   UNL     1     -12.996   7.882  -6.731  1.00  0.00     0.074 A 
ATOM     57  C   UNL     1     -12.158  12.874 -10.578  1.00  0.00     0.029 A 
ATOM     58  N   UNL     1     -11.864  11.059  -9.327  1.00  0.00    -0.354 N 
ATOM     59  N   UNL     1     -12.723   8.891  -7.529  1.00  0.00    -0.248 NA
ATOM     60  C   UNL     1     -14.360   7.902  -6.188  1.00  0.00     0.031 C 
ATOM     61  C   UNL     1     -13.339  12.626  -9.871  1.00  0.00     0.029 A 
ATOM     62  C   UNL     1     -13.174  11.468  -9.128  1.00  0.00     0.049 A 
ATOM     63  H   UNL     1     -11.451  10.268  -8.912  1.00  0.00     0.167 HD
ATOM     64  C   UNL     1     -13.897   9.639  -7.613  1.00  0.00     0.074 A 
ATOM     65  C   UNL     1     -14.879   8.958  -6.796  1.00  0.00     0.031 C 
ATOM     66  C   UNL     1     -14.144  10.781  -8.306  1.00  0.00     0.034 A 
BRANCH  53  67
ATOM     67  C   UNL     1      -9.252  12.905 -11.477  1.00  0.00     0.023 A 
ATOM     68  C   UNL     1      -8.737  12.617 -12.753  1.00  0.00     0.031 A 
ATOM     69  C   UNL     1      -9.186  14.235 -11.026  1.00  0.00     0.131 A 
ATOM     70  C   UNL     1      -8.122  13.631 -13.504  1.00  0.00     0.055 A 
ATOM     71  C   UNL     1      -8.649  15.255 -11.813  1.00  0.00     0.041 A 
ATOM     72  F   UNL     1      -9.634  14.566  -9.804  1.00  0.00    -0.206 F 
ATOM     73  C   UNL     1      -8.100  14.953 -13.055  1.00  0.00     0.022 A 
BRANCH  70  74
ATOM     74  S   UNL     1      -7.222  13.171 -15.011  1.00  0.00     0.124 S 
ATOM     75  O   UNL     1      -6.238  12.225 -14.490  1.00  0.00    -0.237 OA
ATOM     76  O   UNL     1      -8.274  12.603 -15.846  1.00  0.00    -0.237 OA
ATOM     77  O   UNL     1      -6.668  14.439 -15.480  1.00  0.00    -0.744 OA
ENDBRANCH  70  74
ENDBRANCH  53  67
BRANCH  54  78
ATOM     78  C   UNL     1     -12.615   5.694  -5.362  1.00  0.00     0.023 A 
ATOM     79  C   UNL     1     -13.720   4.886  -5.677  1.00  0.00     0.031 A 
ATOM     80  C   UNL     1     -12.044   5.555  -4.084  1.00  0.00     0.131 A 
ATOM     81  C   UNL     1     -14.253   4.019  -4.709  1.00  0.00     0.055 A 
ATOM     82  C   UNL     1     -12.537   4.644  -3.148  1.00  0.00     0.041 A 
ATOM     83  F   UNL     1     -10.992   6.307  -3.724  1.00  0.00    -0.206 F 
ATOM     84  C   UNL     1     -13.659   3.881  -3.453  1.00  0.00     0.022 A 
BRANCH  81  85
ATOM     85  S   UNL     1     -15.805   3.155  -5.078  1.00  0.00     0.124 S 
ATOM     86  O   UNL     1     -16.704   4.268  -5.360  1.00  0.00    -0.237 OA
ATOM     87  O   UNL     1     -15.428   2.329  -6.220  1.00  0.00    -0.237 OA
ATOM     88  O   UNL     1     -16.087   2.421  -3.846  1.00  0.00    -0.744 OA
ENDBRANCH  81  85
ENDBRANCH  54  78
BRANCH  66  89
ATOM     89  C   UNL     1     -15.552  11.330  -8.259  1.00  0.00     0.023 A 
ATOM     90  C   UNL     1     -16.130  11.804  -7.069  1.00  0.00     0.031 A 
ATOM     91  C   UNL     1     -16.331  11.370  -9.431  1.00  0.00     0.131 A 
ATOM     92  C   UNL     1     -17.466  12.235  -7.063  1.00  0.00     0.055 A 
ATOM     93  C   UNL     1     -17.634  11.869  -9.434  1.00  0.00     0.041 A 
ATOM     94  F   UNL     1     -15.834  10.929 -10.598  1.00  0.00    -0.206 F 
ATOM     95  C   UNL     1     -18.215  12.289  -8.242  1.00  0.00     0.022 A 
BRANCH  92  96
ATOM     96  S   UNL     1     -18.252  12.615  -5.473  1.00  0.00     0.124 S 
ATOM     97  O   UNL     1     -18.073  11.365  -4.740  1.00  0.00    -0.237 OA
ATOM     98  O   UNL     1     -17.466  13.749  -5.000  1.00  0.00    -0.237 OA
ATOM     99  O   UNL     1     -19.632  12.927  -5.838  1.00  0.00    -0.744 OA
ENDBRANCH  92  96
ENDBRANCH  66  89
ENDBRANCH  40  41
ENDBRANCH  33  35
ENDBRANCH  32  33
ENDBRANCH  31  32
ENDBRANCH  30  31
ENDBRANCH  29  30
ENDBRANCH  28  29
ENDBRANCH   1  28
TORSDOF 25
