REMARK SMILES C[C@@H](NC(=O)[C@@H]([NH3+])CC(=O)OCCOCCOCCOCCOC(=O)c1ccc(-c2c3nc(c(-c4cc(S(=O)(=O)[O-])ccc4F)c4ccc([nH]4)c(-c4cc(S(=O)(=O)[O-])ccc4F)c4nc(c(-c5cc(S(=O)(=O)[O-])ccc5F)c5ccc2[nH]5)C=C4)C=C3)cc1)C(=O)NC1C(C)(C)SC1(C)C
REMARK SMILES IDX 16 1 15 2 14 3 13 4 12 5 11 6 9 7 10 8 8 9 6 10 4 11 3 12
REMARK SMILES IDX 5 14 2 15 1 16 89 17 90 18 91 19 92 21 93 22 97 23 94 24
REMARK SMILES IDX 95 25 96 26 98 27 99 28 7 29 17 33 18 34 19 35 20 36 21 37
REMARK SMILES IDX 22 38 23 39 24 40 25 41 26 42 27 43 88 44 28 45 87 46 29 47
REMARK SMILES IDX 30 48 31 49 81 50 32 51 86 52 80 53 82 54 33 55 85 56 79 57
REMARK SMILES IDX 78 58 34 60 66 61 46 62 65 63 47 64 50 65 64 66 83 67 48 68
REMARK SMILES IDX 49 69 63 71 84 72 51 73 35 74 36 75 44 76 37 77 43 78 45 79
REMARK SMILES IDX 42 80 38 81 39 82 40 83 41 84 67 85 68 86 76 87 69 88 75 89
REMARK SMILES IDX 77 90 74 91 70 92 71 93 72 94 73 95 52 96 53 97 61 98 54 99
REMARK SMILES IDX 60 100 62 101 59 102 55 103 56 104 57 105 58 106
REMARK H PARENT 3 13 91 20 7 30 7 31 7 32 82 59 50 70
REMARK Flexibility Score: inf
ROOT
ATOM      1  C   UNL     1      -2.569   5.716   1.955  1.00  0.00     0.188 C 
ENDROOT
BRANCH   1   2
ATOM      2  C   UNL     1      -2.827   5.500   3.463  1.00  0.00     0.188 C 
BRANCH   2   3
ATOM      3  O   UNL     1      -1.940   6.251   4.268  1.00  0.00    -0.376 OA
BRANCH   3   4
ATOM      4  C   UNL     1      -1.363   5.695   5.437  1.00  0.00     0.202 C 
BRANCH   4   5
ATOM      5  C   UNL     1      -0.312   4.587   5.280  1.00  0.00     0.261 C 
BRANCH   5   6
ATOM      6  O   UNL     1      -0.647   3.568   4.346  1.00  0.00    -0.463 OA
BRANCH   6   7
ATOM      7  C   UNL     1      -1.511   2.584   4.658  1.00  0.00     0.312 C 
ATOM      8  O   UNL     1      -2.025   2.414   5.754  1.00  0.00    -0.252 OA
BRANCH   7   9
ATOM      9  C   UNL     1      -1.821   1.752   3.428  1.00  0.00     0.198 C 
BRANCH   9  10
ATOM     10  C   UNL     1      -1.395   2.473   2.147  1.00  0.00     0.282 C 
BRANCH  10  11
ATOM     11  C   UNL     1       0.107   2.365   1.800  1.00  0.00     0.279 C 
ATOM     12  N   UNL     1       0.666   1.284   1.203  1.00  0.00    -0.339 N 
ATOM     13  H   UNL     1       1.561   1.421   0.815  1.00  0.00     0.164 HD
ATOM     14  O   UNL     1       0.880   3.296   2.047  1.00  0.00    -0.268 OA
BRANCH  12  15
ATOM     15  C   UNL     1       0.114  -0.041   1.067  1.00  0.00     0.168 C 
ATOM     16  C   UNL     1       1.169  -1.093   0.738  1.00  0.00     0.041 C 
BRANCH  15  17
ATOM     17  C   UNL     1      -1.071  -0.145   0.111  1.00  0.00     0.242 C 
ATOM     18  O   UNL     1      -1.926  -1.018   0.339  1.00  0.00    -0.273 OA
ATOM     19  N   UNL     1      -1.271   0.570  -1.027  1.00  0.00    -0.349 N 
ATOM     20  H   UNL     1      -2.229   0.553  -1.253  1.00  0.00     0.163 HD
BRANCH  19  21
ATOM     21  C   UNL     1      -0.551   1.364  -2.045  1.00  0.00     0.113 C 
ATOM     22  C   UNL     1      -0.436   2.937  -2.128  1.00  0.00     0.032 C 
ATOM     23  C   UNL     1       0.910   1.075  -2.532  1.00  0.00     0.032 C 
ATOM     24  C   UNL     1      -1.690   3.649  -2.662  1.00  0.00     0.025 C 
ATOM     25  C   UNL     1       0.248   3.834  -1.104  1.00  0.00     0.025 C 
ATOM     26  S   UNL     1       0.753   2.623  -3.589  1.00  0.00    -0.145 SA
ATOM     27  C   UNL     1       2.202   1.199  -1.732  1.00  0.00     0.025 C 
ATOM     28  C   UNL     1       0.906  -0.201  -3.379  1.00  0.00     0.025 C 
ENDBRANCH  19  21
ENDBRANCH  15  17
ENDBRANCH  12  15
ENDBRANCH  10  11
BRANCH  10  29
ATOM     29  N   UNL     1      -2.292   2.171   1.015  1.00  0.00    -0.347 N 
ATOM     30  H   UNL     1      -2.213   1.184   0.772  1.00  0.00     0.345 HD
ATOM     31  H   UNL     1      -2.030   2.742   0.212  1.00  0.00     0.345 HD
ATOM     32  H   UNL     1      -3.255   2.380   1.280  1.00  0.00     0.345 HD
ENDBRANCH  10  29
ENDBRANCH   9  10
ENDBRANCH   7   9
ENDBRANCH   6   7
ENDBRANCH   5   6
ENDBRANCH   4   5
ENDBRANCH   3   4
ENDBRANCH   2   3
ENDBRANCH   1   2
BRANCH   1  33
ATOM     33  O   UNL     1      -1.240   5.999   1.530  1.00  0.00    -0.377 OA
BRANCH  33  34
ATOM     34  C   UNL     1      -0.529   7.063   2.174  1.00  0.00     0.188 C 
BRANCH  34  35
ATOM     35  C   UNL     1      -1.295   8.340   2.609  1.00  0.00     0.188 C 
BRANCH  35  36
ATOM     36  O   UNL     1      -2.671   8.380   2.258  1.00  0.00    -0.376 OA
BRANCH  36  37
ATOM     37  C   UNL     1      -3.015   9.091   1.074  1.00  0.00     0.202 C 
BRANCH  37  38
ATOM     38  C   UNL     1      -2.367   8.639  -0.248  1.00  0.00     0.261 C 
BRANCH  38  39
ATOM     39  O   UNL     1      -0.933   8.699  -0.298  1.00  0.00    -0.460 OA
BRANCH  39  40
ATOM     40  C   UNL     1      -0.370   9.916  -0.105  1.00  0.00     0.338 C 
ATOM     41  O   UNL     1      -0.945  10.969   0.056  1.00  0.00    -0.246 OA
BRANCH  40  42
ATOM     42  C   UNL     1       1.084   9.715   0.069  1.00  0.00     0.060 A 
ATOM     43  C   UNL     1       1.667  10.029   1.303  1.00  0.00     0.016 A 
ATOM     44  C   UNL     1       1.863   9.249  -0.990  1.00  0.00     0.016 A 
ATOM     45  C   UNL     1       3.045   9.912   1.472  1.00  0.00     0.010 A 
ATOM     46  C   UNL     1       3.249   9.162  -0.829  1.00  0.00     0.010 A 
ATOM     47  C   UNL     1       3.848   9.528   0.391  1.00  0.00    -0.014 A 
BRANCH  47  48
ATOM     48  C   UNL     1       5.314   9.737   0.469  1.00  0.00     0.031 A 
ATOM     49  C   UNL     1       5.881  10.991  -0.140  1.00  0.00     0.074 A 
ATOM     50  C   UNL     1       6.116   8.866   1.107  1.00  0.00     0.049 A 
ATOM     51  N   UNL     1       7.126  11.368  -0.263  1.00  0.00    -0.248 NA
ATOM     52  C   UNL     1       4.904  11.949  -0.684  1.00  0.00     0.031 C 
ATOM     53  C   UNL     1       5.672   7.654   1.793  1.00  0.00     0.029 A 
ATOM     54  N   UNL     1       7.479   8.868   1.273  1.00  0.00    -0.354 N 
ATOM     55  C   UNL     1       7.084  12.608  -0.892  1.00  0.00     0.074 A 
ATOM     56  C   UNL     1       5.693  12.895  -1.168  1.00  0.00     0.031 C 
ATOM     57  C   UNL     1       6.747   7.018   2.290  1.00  0.00     0.029 A 
ATOM     58  C   UNL     1       7.957   7.751   1.918  1.00  0.00     0.049 A 
ATOM     59  H   UNL     1       8.059   9.599   0.960  1.00  0.00     0.167 HD
ATOM     60  C   UNL     1       8.111  13.438  -1.196  1.00  0.00     0.034 A 
ATOM     61  C   UNL     1       9.226   7.352   2.145  1.00  0.00     0.034 A 
ATOM     62  C   UNL     1       9.494  13.128  -0.935  1.00  0.00     0.049 A 
ATOM     63  C   UNL     1      10.364   8.237   1.682  1.00  0.00     0.074 A 
ATOM     64  C   UNL     1      10.616  13.882  -1.228  1.00  0.00     0.029 A 
ATOM     65  N   UNL     1       9.945  11.964  -0.326  1.00  0.00    -0.354 N 
ATOM     66  N   UNL     1      10.315   9.401   1.073  1.00  0.00    -0.248 NA
ATOM     67  C   UNL     1      11.729   7.760   1.947  1.00  0.00     0.031 C 
ATOM     68  C   UNL     1      11.747  13.144  -0.863  1.00  0.00     0.029 A 
ATOM     69  C   UNL     1      11.329  11.969  -0.259  1.00  0.00     0.049 A 
ATOM     70  H   UNL     1       9.366  11.241   0.009  1.00  0.00     0.167 HD
ATOM     71  C   UNL     1      11.640   9.808   0.920  1.00  0.00     0.074 A 
ATOM     72  C   UNL     1      12.461   8.776   1.516  1.00  0.00     0.031 C 
ATOM     73  C   UNL     1      12.135  10.933   0.343  1.00  0.00     0.034 A 
BRANCH  60  74
ATOM     74  C   UNL     1       7.771  14.738  -1.884  1.00  0.00     0.023 A 
ATOM     75  C   UNL     1       7.002  15.728  -1.248  1.00  0.00     0.031 A 
ATOM     76  C   UNL     1       8.207  14.985  -3.197  1.00  0.00     0.131 A 
ATOM     77  C   UNL     1       6.640  16.889  -1.946  1.00  0.00     0.055 A 
ATOM     78  C   UNL     1       7.912  16.178  -3.858  1.00  0.00     0.041 A 
ATOM     79  F   UNL     1       8.921  14.065  -3.865  1.00  0.00    -0.206 F 
ATOM     80  C   UNL     1       7.114  17.134  -3.237  1.00  0.00     0.022 A 
BRANCH  77  81
ATOM     81  S   UNL     1       5.432  18.013  -1.193  1.00  0.00     0.124 S 
ATOM     82  O   UNL     1       4.277  17.134  -1.026  1.00  0.00    -0.237 OA
ATOM     83  O   UNL     1       6.105  18.424   0.034  1.00  0.00    -0.237 OA
ATOM     84  O   UNL     1       5.268  19.062  -2.197  1.00  0.00    -0.744 OA
ENDBRANCH  77  81
ENDBRANCH  60  74
BRANCH  61  85
ATOM     85  C   UNL     1       9.511   6.029   2.779  1.00  0.00     0.023 A 
ATOM     86  C   UNL     1      10.249   5.931   3.969  1.00  0.00     0.031 A 
ATOM     87  C   UNL     1       9.130   4.831   2.144  1.00  0.00     0.131 A 
ATOM     88  C   UNL     1      10.644   4.671   4.447  1.00  0.00     0.055 A 
ATOM     89  C   UNL     1       9.463   3.579   2.664  1.00  0.00     0.041 A 
ATOM     90  F   UNL     1       8.432   4.860   0.998  1.00  0.00    -0.206 F 
ATOM     91  C   UNL     1      10.242   3.495   3.812  1.00  0.00     0.022 A 
BRANCH  88  92
ATOM     92  S   UNL     1      11.811   4.597   5.836  1.00  0.00     0.124 S 
ATOM     93  O   UNL     1      12.922   5.395   5.330  1.00  0.00    -0.237 OA
ATOM     94  O   UNL     1      11.032   5.191   6.917  1.00  0.00    -0.237 OA
ATOM     95  O   UNL     1      12.081   3.168   5.976  1.00  0.00    -0.744 OA
ENDBRANCH  88  92
ENDBRANCH  61  85
BRANCH  73  96
ATOM     96  C   UNL     1      13.633  11.135   0.387  1.00  0.00     0.023 A 
ATOM     97  C   UNL     1      14.521  10.284  -0.292  1.00  0.00     0.031 A 
ATOM     98  C   UNL     1      14.177  12.201   1.128  1.00  0.00     0.131 A 
ATOM     99  C   UNL     1      15.906  10.475  -0.168  1.00  0.00     0.055 A 
ATOM    100  C   UNL     1      15.552  12.428   1.189  1.00  0.00     0.041 A 
ATOM    101  F   UNL     1      13.378  13.045   1.800  1.00  0.00    -0.206 F 
ATOM    102  C   UNL     1      16.426  11.554   0.551  1.00  0.00     0.022 A 
BRANCH  99 103
ATOM    103  S   UNL     1      17.024   9.234  -0.875  1.00  0.00     0.124 S 
ATOM    104  O   UNL     1      16.592   8.016  -0.199  1.00  0.00    -0.237 OA
ATOM    105  O   UNL     1      16.719   9.314  -2.300  1.00  0.00    -0.237 OA
ATOM    106  O   UNL     1      18.352   9.715  -0.499  1.00  0.00    -0.744 OA
ENDBRANCH  99 103
ENDBRANCH  73  96
ENDBRANCH  47  48
ENDBRANCH  40  42
ENDBRANCH  39  40
ENDBRANCH  38  39
ENDBRANCH  37  38
ENDBRANCH  36  37
ENDBRANCH  35  36
ENDBRANCH  34  35
ENDBRANCH  33  34
ENDBRANCH   1  33
TORSDOF 29
