REMARK SMILES CC(C)CCc1cc2c(cc1Cl)C=C(C(=O)OCCOCCOCCOCCOC(=O)c1ccc(-c3c4nc(c(-c5cc(S(=O)(=O)[O-])ccc5F)c5ccc([nH]5)c(-c5cc(S(=O)(=O)[O-])ccc5F)c5nc(c(-c6cc(S(=O)(=O)[O-])ccc6F)c6ccc3[nH]6)C=C5)C=C4)cc1)[C@H](C(F)(F)F)O2
REMARK SMILES IDX 23 1 22 2 21 3 20 4 19 5 18 6 17 7 15 8 16 9 14 10 6 11 7 12
REMARK SMILES IDX 11 13 8 14 10 15 12 16 9 17 100 18 13 19 95 20 5 21 4 22
REMARK SMILES IDX 2 23 1 24 3 25 96 26 97 27 98 28 99 29 24 30 25 31 26 32
REMARK SMILES IDX 27 33 28 34 29 35 30 36 31 37 32 38 33 39 94 40 34 41 93 42
REMARK SMILES IDX 35 43 36 44 37 45 87 46 38 47 92 48 86 49 88 50 39 51 91 52
REMARK SMILES IDX 85 53 84 54 40 56 72 57 52 58 71 59 53 60 56 61 70 62 89 63
REMARK SMILES IDX 54 64 55 65 69 67 90 68 57 69 41 70 42 71 50 72 43 73 49 74
REMARK SMILES IDX 51 75 48 76 44 77 45 78 46 79 47 80 73 81 74 82 82 83 75 84
REMARK SMILES IDX 81 85 83 86 80 87 76 88 77 89 78 90 79 91 58 92 59 93 67 94
REMARK SMILES IDX 60 95 66 96 68 97 65 98 61 99 62 100 63 101 64 102
REMARK H PARENT 88 55 56 66
REMARK Flexibility Score: inf
ROOT
ATOM      1  O   UNL     1       4.002   2.095  -8.182  1.00  0.00    -0.377 OA
ENDROOT
BRANCH   1   2
ATOM      2  C   UNL     1       2.767   1.410  -8.265  1.00  0.00     0.188 C 
BRANCH   2   3
ATOM      3  C   UNL     1       2.539   0.528  -9.497  1.00  0.00     0.188 C 
BRANCH   3   4
ATOM      4  O   UNL     1       2.591   1.268 -10.714  1.00  0.00    -0.376 OA
BRANCH   4   5
ATOM      5  C   UNL     1       1.367   1.492 -11.400  1.00  0.00     0.202 C 
BRANCH   5   6
ATOM      6  C   UNL     1       0.601   2.740 -10.938  1.00  0.00     0.261 C 
BRANCH   6   7
ATOM      7  O   UNL     1       0.308   2.766  -9.530  1.00  0.00    -0.460 OA
BRANCH   7   8
ATOM      8  C   UNL     1      -0.639   1.921  -9.090  1.00  0.00     0.338 C 
ATOM      9  O   UNL     1      -1.331   1.198  -9.788  1.00  0.00    -0.246 OA
BRANCH   8  10
ATOM     10  C   UNL     1      -0.594   1.838  -7.614  1.00  0.00     0.087 C 
ATOM     11  C   UNL     1      -1.238   0.003  -2.949  1.00  0.00    -0.026 A 
ATOM     12  C   UNL     1      -1.229   1.296  -3.527  1.00  0.00     0.052 A 
ATOM     13  C   UNL     1      -0.999  -1.086  -3.804  1.00  0.00     0.045 A 
ATOM     14  C   UNL     1      -0.993   1.493  -4.891  1.00  0.00     0.128 A 
ATOM     15  C   UNL     1      -0.703  -0.881  -5.158  1.00  0.00     0.032 A 
ATOM     16  Cl  UNL     1      -1.141  -2.740  -3.326  1.00  0.00    -0.084 Cl
ATOM     17  C   UNL     1      -0.718   0.402  -5.705  1.00  0.00     0.019 A 
ATOM     18  O   UNL     1      -1.155   2.763  -5.374  1.00  0.00    -0.475 OA
ATOM     19  C   UNL     1      -0.594   0.585  -7.138  1.00  0.00     0.027 C 
ATOM     20  C   UNL     1      -0.667   3.059  -6.726  1.00  0.00     0.316 C 
BRANCH  11  21
ATOM     21  C   UNL     1      -1.642  -0.085  -1.488  1.00  0.00     0.037 C 
BRANCH  21  22
ATOM     22  C   UNL     1      -1.015  -1.139  -0.561  1.00  0.00     0.008 C 
BRANCH  22  23
ATOM     23  C   UNL     1       0.523  -1.188  -0.553  1.00  0.00    -0.017 C 
ATOM     24  C   UNL     1       1.120   0.016   0.174  1.00  0.00     0.007 C 
ATOM     25  C   UNL     1       0.996  -2.487   0.104  1.00  0.00     0.007 C 
ENDBRANCH  22  23
ENDBRANCH  21  22
ENDBRANCH  11  21
BRANCH  20  26
ATOM     26  C   UNL     1       0.625   3.889  -6.572  1.00  0.00     0.430 C 
ATOM     27  F   UNL     1       1.620   3.167  -6.006  1.00  0.00    -0.167 F 
ATOM     28  F   UNL     1       1.080   4.376  -7.745  1.00  0.00    -0.167 F 
ATOM     29  F   UNL     1       0.409   4.963  -5.771  1.00  0.00    -0.167 F 
ENDBRANCH  20  26
ENDBRANCH   8  10
ENDBRANCH   7   8
ENDBRANCH   6   7
ENDBRANCH   5   6
ENDBRANCH   4   5
ENDBRANCH   3   4
ENDBRANCH   2   3
ENDBRANCH   1   2
BRANCH   1  30
ATOM     30  C   UNL     1       4.329   2.920  -9.290  1.00  0.00     0.188 C 
BRANCH  30  31
ATOM     31  C   UNL     1       5.315   2.266 -10.280  1.00  0.00     0.188 C 
BRANCH  31  32
ATOM     32  O   UNL     1       6.182   1.199  -9.896  1.00  0.00    -0.376 OA
BRANCH  32  33
ATOM     33  C   UNL     1       6.447   0.933  -8.531  1.00  0.00     0.202 C 
BRANCH  33  34
ATOM     34  C   UNL     1       7.247   1.964  -7.721  1.00  0.00     0.261 C 
BRANCH  34  35
ATOM     35  O   UNL     1       6.943   3.339  -7.984  1.00  0.00    -0.460 OA
BRANCH  35  36
ATOM     36  C   UNL     1       7.708   3.932  -8.933  1.00  0.00     0.338 C 
ATOM     37  O   UNL     1       8.638   3.430  -9.543  1.00  0.00    -0.246 OA
BRANCH  36  38
ATOM     38  C   UNL     1       7.134   5.260  -9.253  1.00  0.00     0.060 A 
ATOM     39  C   UNL     1       6.804   6.173  -8.248  1.00  0.00     0.016 A 
ATOM     40  C   UNL     1       6.927   5.587 -10.599  1.00  0.00     0.016 A 
ATOM     41  C   UNL     1       6.304   7.433  -8.598  1.00  0.00     0.010 A 
ATOM     42  C   UNL     1       6.404   6.833 -10.947  1.00  0.00     0.010 A 
ATOM     43  C   UNL     1       6.122   7.778  -9.950  1.00  0.00    -0.014 A 
BRANCH  43  44
ATOM     44  C   UNL     1       5.880   9.190 -10.338  1.00  0.00     0.031 A 
ATOM     45  C   UNL     1       4.527   9.696 -10.732  1.00  0.00     0.074 A 
ATOM     46  C   UNL     1       6.951  10.004 -10.386  1.00  0.00     0.049 A 
ATOM     47  N   UNL     1       4.174  10.916 -11.046  1.00  0.00    -0.248 NA
ATOM     48  C   UNL     1       3.433   8.717 -10.790  1.00  0.00     0.031 C 
ATOM     49  C   UNL     1       8.320   9.588 -10.073  1.00  0.00     0.029 A 
ATOM     50  N   UNL     1       7.072  11.328 -10.720  1.00  0.00    -0.354 N 
ATOM     51  C   UNL     1       2.813  10.864 -11.318  1.00  0.00     0.074 A 
ATOM     52  C   UNL     1       2.415   9.477 -11.178  1.00  0.00     0.031 C 
ATOM     53  C   UNL     1       9.140  10.636 -10.220  1.00  0.00     0.029 A 
ATOM     54  C   UNL     1       8.365  11.793 -10.662  1.00  0.00     0.049 A 
ATOM     55  H   UNL     1       6.307  11.892 -10.976  1.00  0.00     0.167 HD
ATOM     56  C   UNL     1       1.982  11.887 -11.635  1.00  0.00     0.034 A 
ATOM     57  C   UNL     1       8.876  13.011 -10.931  1.00  0.00     0.034 A 
ATOM     58  C   UNL     1       2.416  13.256 -11.787  1.00  0.00     0.049 A 
ATOM     59  C   UNL     1       7.935  14.125 -11.303  1.00  0.00     0.074 A 
ATOM     60  C   UNL     1       1.638  14.373 -12.041  1.00  0.00     0.029 A 
ATOM     61  N   UNL     1       3.731  13.697 -11.719  1.00  0.00    -0.354 N 
ATOM     62  N   UNL     1       6.628  14.089 -11.425  1.00  0.00    -0.248 NA
ATOM     63  C   UNL     1       8.523  15.447 -11.556  1.00  0.00     0.031 C 
ATOM     64  C   UNL     1       2.485  15.470 -12.204  1.00  0.00     0.029 A 
ATOM     65  C   UNL     1       3.787  15.061 -11.967  1.00  0.00     0.049 A 
ATOM     66  H   UNL     1       4.508  13.126 -11.524  1.00  0.00     0.167 HD
ATOM     67  C   UNL     1       6.236  15.386 -11.741  1.00  0.00     0.074 A 
ATOM     68  C   UNL     1       7.443  16.187 -11.770  1.00  0.00     0.031 C 
ATOM     69  C   UNL     1       4.990  15.863 -11.985  1.00  0.00     0.034 A 
BRANCH  56  70
ATOM     70  C   UNL     1       0.507  11.607 -11.809  1.00  0.00     0.023 A 
ATOM     71  C   UNL     1      -0.130  11.885 -13.034  1.00  0.00     0.031 A 
ATOM     72  C   UNL     1      -0.295  11.239 -10.714  1.00  0.00     0.131 A 
ATOM     73  C   UNL     1      -1.528  11.832 -13.121  1.00  0.00     0.055 A 
ATOM     74  C   UNL     1      -1.684  11.149 -10.817  1.00  0.00     0.041 A 
ATOM     75  F   UNL     1       0.261  10.973  -9.520  1.00  0.00    -0.206 F 
ATOM     76  C   UNL     1      -2.307  11.461 -12.021  1.00  0.00     0.022 A 
BRANCH  73  77
ATOM     77  S   UNL     1      -2.396  12.316 -14.639  1.00  0.00     0.124 S 
ATOM     78  O   UNL     1      -3.123  11.092 -14.970  1.00  0.00    -0.237 OA
ATOM     79  O   UNL     1      -3.224  13.427 -14.177  1.00  0.00    -0.237 OA
ATOM     80  O   UNL     1      -1.323  12.669 -15.561  1.00  0.00    -0.744 OA
ENDBRANCH  73  77
ENDBRANCH  56  70
BRANCH  57  81
ATOM     81  C   UNL     1      10.343  13.226 -10.764  1.00  0.00     0.023 A 
ATOM     82  C   UNL     1      11.272  12.506 -11.538  1.00  0.00     0.031 A 
ATOM     83  C   UNL     1      10.833  14.045  -9.734  1.00  0.00     0.131 A 
ATOM     84  C   UNL     1      12.635  12.562 -11.220  1.00  0.00     0.055 A 
ATOM     85  C   UNL     1      12.199  14.154  -9.467  1.00  0.00     0.041 A 
ATOM     86  F   UNL     1       9.985  14.736  -8.957  1.00  0.00    -0.206 F 
ATOM     87  C   UNL     1      13.106  13.394 -10.200  1.00  0.00     0.022 A 
BRANCH  84  88
ATOM     88  S   UNL     1      13.822  11.445 -12.018  1.00  0.00     0.124 S 
ATOM     89  O   UNL     1      14.746  12.383 -12.647  1.00  0.00    -0.237 OA
ATOM     90  O   UNL     1      14.353  10.708 -10.874  1.00  0.00    -0.237 OA
ATOM     91  O   UNL     1      12.998  10.662 -12.932  1.00  0.00    -0.744 OA
ENDBRANCH  84  88
ENDBRANCH  57  81
BRANCH  69  92
ATOM     92  C   UNL     1       4.824  17.329 -12.313  1.00  0.00     0.023 A 
ATOM     93  C   UNL     1       4.044  18.153 -11.478  1.00  0.00     0.031 A 
ATOM     94  C   UNL     1       5.289  17.865 -13.526  1.00  0.00     0.131 A 
ATOM     95  C   UNL     1       3.705  19.447 -11.892  1.00  0.00     0.055 A 
ATOM     96  C   UNL     1       4.995  19.175 -13.909  1.00  0.00     0.041 A 
ATOM     97  F   UNL     1       6.029  17.119 -14.362  1.00  0.00    -0.206 F 
ATOM     98  C   UNL     1       4.184  19.966 -13.099  1.00  0.00     0.022 A 
BRANCH  95  99
ATOM     99  S   UNL     1       2.554  20.468 -10.931  1.00  0.00     0.124 S 
ATOM    100  O   UNL     1       3.363  21.650 -10.644  1.00  0.00    -0.237 OA
ATOM    101  O   UNL     1       1.463  20.675 -11.880  1.00  0.00    -0.237 OA
ATOM    102  O   UNL     1       2.231  19.641  -9.773  1.00  0.00    -0.744 OA
ENDBRANCH  95  99
ENDBRANCH  69  92
ENDBRANCH  43  44
ENDBRANCH  36  38
ENDBRANCH  35  36
ENDBRANCH  34  35
ENDBRANCH  33  34
ENDBRANCH  32  33
ENDBRANCH  31  32
ENDBRANCH  30  31
ENDBRANCH   1  30
TORSDOF 27
