REMARK SMILES O=C(OCCOCCOCCOCCOC(=O)[C@H]1CC2(CC[NH+](S(=O)(=O)N3CCOCC3)CC2)C[NH2+]1)c1ccc(-c2c3nc(c(-c4cc(S(=O)(=O)[O-])ccc4F)c4ccc([nH]4)c(-c4cc(S(=O)(=O)[O-])ccc4F)c4nc(c(-c5cc(S(=O)(=O)[O-])ccc5F)c5ccc2[nH]5)C=C4)C=C3)cc1
REMARK SMILES IDX 8 1 7 2 6 3 5 4 4 5 3 6 2 7 1 8 37 9 38 10 99 11 39 12 98 13
REMARK SMILES IDX 40 14 41 15 42 16 92 17 43 18 97 19 91 20 93 21 44 22 96 23
REMARK SMILES IDX 90 24 89 25 45 27 77 28 57 29 76 30 58 31 61 32 75 33 94 34
REMARK SMILES IDX 59 35 60 36 74 38 95 39 62 40 46 41 47 42 55 43 48 44 54 45
REMARK SMILES IDX 56 46 53 47 49 48 50 49 51 50 52 51 78 52 79 53 87 54 80 55
REMARK SMILES IDX 86 56 88 57 85 58 81 59 82 60 83 61 84 62 63 63 64 64 72 65
REMARK SMILES IDX 65 66 71 67 73 68 70 69 66 70 67 71 68 72 69 73 9 74 10 75
REMARK SMILES IDX 11 76 12 77 13 78 14 79 15 80 16 81 17 82 18 83 19 84 36 85
REMARK SMILES IDX 20 86 35 87 21 90 34 91 22 92 33 93 23 94 24 96 25 97 26 98
REMARK SMILES IDX 27 99 28 100 32 101 29 102 31 103 30 104
REMARK H PARENT 93 26 61 37 36 88 36 89 23 95
REMARK Flexibility Score: inf
ROOT
ATOM      1  C   UNL     1       6.380   6.649   0.748  1.00  0.00     0.188 C 
ENDROOT
BRANCH   1   2
ATOM      2  C   UNL     1       7.546   6.095  -0.088  1.00  0.00     0.188 C 
BRANCH   2   3
ATOM      3  O   UNL     1       7.454   4.689  -0.297  1.00  0.00    -0.376 OA
BRANCH   3   4
ATOM      4  C   UNL     1       8.572   3.817  -0.079  1.00  0.00     0.202 C 
BRANCH   4   5
ATOM      5  C   UNL     1       9.880   4.173  -0.760  1.00  0.00     0.261 C 
BRANCH   5   6
ATOM      6  O   UNL     1       9.905   5.426  -1.462  1.00  0.00    -0.460 OA
BRANCH   6   7
ATOM      7  C   UNL     1       9.364   5.801  -2.643  1.00  0.00     0.338 C 
ATOM      8  O   UNL     1       9.577   6.946  -3.041  1.00  0.00    -0.246 OA
BRANCH   7   9
ATOM      9  C   UNL     1       8.512   4.920  -3.488  1.00  0.00     0.060 A 
ATOM     10  C   UNL     1       7.695   3.917  -2.995  1.00  0.00     0.016 A 
ATOM     11  C   UNL     1       8.428   5.180  -4.859  1.00  0.00     0.016 A 
ATOM     12  C   UNL     1       6.931   3.098  -3.775  1.00  0.00     0.010 A 
ATOM     13  C   UNL     1       7.581   4.418  -5.676  1.00  0.00     0.010 A 
ATOM     14  C   UNL     1       6.853   3.358  -5.122  1.00  0.00    -0.014 A 
BRANCH  14  15
ATOM     15  C   UNL     1       6.152   2.326  -5.880  1.00  0.00     0.031 A 
ATOM     16  C   UNL     1       7.013   1.342  -6.598  1.00  0.00     0.074 A 
ATOM     17  C   UNL     1       4.836   2.132  -5.668  1.00  0.00     0.049 A 
ATOM     18  N   UNL     1       6.668   0.368  -7.385  1.00  0.00    -0.248 NA
ATOM     19  C   UNL     1       8.468   1.459  -6.375  1.00  0.00     0.031 C 
ATOM     20  C   UNL     1       4.000   2.909  -4.737  1.00  0.00     0.029 A 
ATOM     21  N   UNL     1       3.982   1.194  -6.167  1.00  0.00    -0.354 N 
ATOM     22  C   UNL     1       7.861  -0.211  -7.793  1.00  0.00     0.074 A 
ATOM     23  C   UNL     1       8.941   0.512  -7.166  1.00  0.00     0.031 C 
ATOM     24  C   UNL     1       2.754   2.410  -4.745  1.00  0.00     0.029 A 
ATOM     25  C   UNL     1       2.682   1.357  -5.745  1.00  0.00     0.049 A 
ATOM     26  H   UNL     1       4.267   0.471  -6.771  1.00  0.00     0.167 HD
ATOM     27  C   UNL     1       8.014  -1.250  -8.641  1.00  0.00     0.034 A 
ATOM     28  C   UNL     1       1.565   0.755  -6.191  1.00  0.00     0.034 A 
ATOM     29  C   UNL     1       6.886  -1.910  -9.237  1.00  0.00     0.049 A 
ATOM     30  C   UNL     1       1.753  -0.274  -7.280  1.00  0.00     0.074 A 
ATOM     31  C   UNL     1       6.865  -2.886 -10.210  1.00  0.00     0.029 A 
ATOM     32  N   UNL     1       5.560  -1.640  -8.904  1.00  0.00    -0.354 N 
ATOM     33  N   UNL     1       2.875  -0.732  -7.795  1.00  0.00    -0.248 NA
ATOM     34  C   UNL     1       0.540  -0.856  -7.856  1.00  0.00     0.031 C 
ATOM     35  C   UNL     1       5.526  -3.153 -10.517  1.00  0.00     0.029 A 
ATOM     36  C   UNL     1       4.711  -2.411  -9.671  1.00  0.00     0.049 A 
ATOM     37  H   UNL     1       5.271  -0.993  -8.220  1.00  0.00     0.167 HD
ATOM     38  C   UNL     1       2.501  -1.679  -8.741  1.00  0.00     0.074 A 
ATOM     39  C   UNL     1       1.051  -1.742  -8.697  1.00  0.00     0.031 C 
ATOM     40  C   UNL     1       3.269  -2.426  -9.577  1.00  0.00     0.034 A 
BRANCH  27  41
ATOM     41  C   UNL     1       9.421  -1.595  -9.041  1.00  0.00     0.023 A 
ATOM     42  C   UNL     1      10.361  -2.091  -8.120  1.00  0.00     0.031 A 
ATOM     43  C   UNL     1       9.861  -1.308 -10.345  1.00  0.00     0.131 A 
ATOM     44  C   UNL     1      11.707  -2.217  -8.498  1.00  0.00     0.055 A 
ATOM     45  C   UNL     1      11.183  -1.514 -10.738  1.00  0.00     0.041 A 
ATOM     46  F   UNL     1       9.019  -0.781 -11.249  1.00  0.00    -0.206 F 
ATOM     47  C   UNL     1      12.118  -1.959  -9.809  1.00  0.00     0.022 A 
BRANCH  44  48
ATOM     48  S   UNL     1      12.940  -2.571  -7.216  1.00  0.00     0.124 S 
ATOM     49  O   UNL     1      12.818  -1.395  -6.357  1.00  0.00    -0.237 OA
ATOM     50  O   UNL     1      12.458  -3.826  -6.649  1.00  0.00    -0.237 OA
ATOM     51  O   UNL     1      14.194  -2.664  -7.961  1.00  0.00    -0.744 OA
ENDBRANCH  44  48
ENDBRANCH  27  41
BRANCH  28  52
ATOM     52  C   UNL     1       0.207   1.174  -5.727  1.00  0.00     0.023 A 
ATOM     53  C   UNL     1      -0.707   0.241  -5.213  1.00  0.00     0.031 A 
ATOM     54  C   UNL     1      -0.240   2.501  -5.887  1.00  0.00     0.131 A 
ATOM     55  C   UNL     1      -2.032   0.627  -4.948  1.00  0.00     0.055 A 
ATOM     56  C   UNL     1      -1.537   2.896  -5.554  1.00  0.00     0.041 A 
ATOM     57  F   UNL     1       0.578   3.442  -6.385  1.00  0.00    -0.206 F 
ATOM     58  C   UNL     1      -2.450   1.951  -5.102  1.00  0.00     0.022 A 
BRANCH  55  59
ATOM     59  S   UNL     1      -3.242  -0.660  -4.536  1.00  0.00     0.124 S 
ATOM     60  O   UNL     1      -3.099  -1.571  -5.666  1.00  0.00    -0.237 OA
ATOM     61  O   UNL     1      -2.743  -1.144  -3.254  1.00  0.00    -0.237 OA
ATOM     62  O   UNL     1      -4.507   0.069  -4.478  1.00  0.00    -0.744 OA
ENDBRANCH  55  59
ENDBRANCH  28  52
BRANCH  40  63
ATOM     63  C   UNL     1       2.537  -3.400 -10.459  1.00  0.00     0.023 A 
ATOM     64  C   UNL     1       1.667  -2.964 -11.470  1.00  0.00     0.031 A 
ATOM     65  C   UNL     1       2.714  -4.782 -10.276  1.00  0.00     0.131 A 
ATOM     66  C   UNL     1       0.948  -3.905 -12.215  1.00  0.00     0.055 A 
ATOM     67  C   UNL     1       2.059  -5.713 -11.078  1.00  0.00     0.041 A 
ATOM     68  F   UNL     1       3.536  -5.247  -9.321  1.00  0.00    -0.206 F 
ATOM     69  C   UNL     1       1.156  -5.276 -12.043  1.00  0.00     0.022 A 
BRANCH  66  70
ATOM     70  S   UNL     1      -0.351  -3.309 -13.328  1.00  0.00     0.124 S 
ATOM     71  O   UNL     1      -1.214  -2.569 -12.413  1.00  0.00    -0.237 OA
ATOM     72  O   UNL     1       0.402  -2.505 -14.285  1.00  0.00    -0.237 OA
ATOM     73  O   UNL     1      -0.927  -4.539 -13.868  1.00  0.00    -0.744 OA
ENDBRANCH  66  70
ENDBRANCH  40  63
ENDBRANCH  14  15
ENDBRANCH   7   9
ENDBRANCH   6   7
ENDBRANCH   5   6
ENDBRANCH   4   5
ENDBRANCH   3   4
ENDBRANCH   2   3
ENDBRANCH   1   2
BRANCH   1  74
ATOM     74  O   UNL     1       6.187   6.018   2.021  1.00  0.00    -0.377 OA
BRANCH  74  75
ATOM     75  C   UNL     1       6.257   4.600   1.971  1.00  0.00     0.188 C 
BRANCH  75  76
ATOM     76  C   UNL     1       5.160   3.809   1.250  1.00  0.00     0.188 C 
BRANCH  76  77
ATOM     77  O   UNL     1       4.564   4.543   0.196  1.00  0.00    -0.376 OA
BRANCH  77  78
ATOM     78  C   UNL     1       3.213   4.942   0.399  1.00  0.00     0.202 C 
BRANCH  78  79
ATOM     79  C   UNL     1       2.855   5.798   1.637  1.00  0.00     0.261 C 
BRANCH  79  80
ATOM     80  O   UNL     1       3.493   5.445   2.885  1.00  0.00    -0.459 OA
BRANCH  80  81
ATOM     81  C   UNL     1       2.849   4.663   3.793  1.00  0.00     0.364 C 
ATOM     82  O   UNL     1       1.735   4.185   3.614  1.00  0.00    -0.245 OA
BRANCH  81  83
ATOM     83  C   UNL     1       3.685   4.408   5.084  1.00  0.00     0.294 C 
ATOM     84  C   UNL     1       5.156   4.214   4.816  1.00  0.00     0.090 C 
ATOM     85  N   UNL     1       3.769   5.575   5.983  1.00  0.00    -0.334 N 
ATOM     86  C   UNL     1       5.963   4.520   6.078  1.00  0.00     0.036 C 
ATOM     87  C   UNL     1       4.905   5.305   6.889  1.00  0.00     0.268 C 
ATOM     88  H   UNL     1       2.906   5.675   6.517  1.00  0.00     0.347 HD
ATOM     89  H   UNL     1       3.903   6.441   5.462  1.00  0.00     0.347 HD
ATOM     90  C   UNL     1       7.200   5.399   5.719  1.00  0.00     0.076 C 
ATOM     91  C   UNL     1       6.409   3.221   6.800  1.00  0.00     0.076 C 
ATOM     92  C   UNL     1       8.378   4.590   5.185  1.00  0.00     0.280 C 
ATOM     93  C   UNL     1       7.675   2.555   6.236  1.00  0.00     0.280 C 
ATOM     94  N   UNL     1       8.797   3.531   6.122  1.00  0.00    -0.215 N 
ATOM     95  H   UNL     1       9.625   3.122   5.691  1.00  0.00     0.367 HD
BRANCH  94  96
ATOM     96  S   UNL     1       9.568   3.910   7.586  1.00  0.00     0.371 S 
ATOM     97  O   UNL     1       8.807   4.915   8.277  1.00  0.00    -0.157 OA
ATOM     98  O   UNL     1       9.858   2.642   8.233  1.00  0.00    -0.157 OA
BRANCH  96  99
ATOM     99  N   UNL     1      11.030   4.554   7.147  1.00  0.00    -0.151 NA
ATOM    100  C   UNL     1      12.047   3.750   6.454  1.00  0.00     0.136 C 
ATOM    101  C   UNL     1      11.286   6.002   7.037  1.00  0.00     0.136 C 
ATOM    102  C   UNL     1      12.060   4.162   4.984  1.00  0.00     0.177 C 
ATOM    103  C   UNL     1      11.491   6.424   5.578  1.00  0.00     0.177 C 
ATOM    104  O   UNL     1      12.370   5.560   4.840  1.00  0.00    -0.379 OA
ENDBRANCH  96  99
ENDBRANCH  94  96
ENDBRANCH  81  83
ENDBRANCH  80  81
ENDBRANCH  79  80
ENDBRANCH  78  79
ENDBRANCH  77  78
ENDBRANCH  76  77
ENDBRANCH  75  76
ENDBRANCH  74  75
ENDBRANCH   1  74
TORSDOF 25
