REMARK SMILES CC(C)C[C@H](NC(=O)[C@H](Cc1ccccc1)NC(=O)CNC(=O)C[NH3+])C(=O)OCCOCCOCCOCCOC(=O)c1ccc(-c2c3nc(c(-c4cc(S(=O)(=O)[O-])ccc4F)c4ccc([nH]4)c(-c4cc(S(=O)(=O)[O-])ccc4F)c4nc(c(-c5cc(S(=O)(=O)[O-])ccc5F)c5ccc2[nH]5)C=C4)C=C3)cc1
REMARK SMILES IDX 32 1 31 2 30 3 29 4 28 5 26 6 27 7 5 8 4 9 2 10 1 11 3 12
REMARK SMILES IDX 6 13 7 14 8 16 9 17 17 18 18 19 19 21 20 22 21 23 22 24
REMARK SMILES IDX 23 26 24 27 25 28 10 32 11 33 12 34 16 35 13 36 15 37 14 38
REMARK SMILES IDX 33 39 34 40 35 41 36 42 37 43 38 44 39 45 40 46 41 47 42 48
REMARK SMILES IDX 43 49 44 50 105 51 45 52 104 53 46 54 47 55 48 56 98 57
REMARK SMILES IDX 49 58 103 59 97 60 99 61 50 62 102 63 96 64 95 65 51 67
REMARK SMILES IDX 83 68 63 69 82 70 64 71 67 72 81 73 100 74 65 75 66 76 80 78
REMARK SMILES IDX 101 79 68 80 52 81 53 82 61 83 54 84 60 85 62 86 59 87 55 88
REMARK SMILES IDX 56 89 57 90 58 91 84 92 85 93 93 94 86 95 92 96 94 97 91 98
REMARK SMILES IDX 87 99 88 100 89 101 90 102 69 103 70 104 78 105 71 106
REMARK SMILES IDX 77 107 79 108 76 109 72 110 73 111 74 112 75 113
REMARK H PARENT 6 15 17 20 21 25 25 29 25 30 25 31 99 66 67 77
REMARK Flexibility Score: inf
ROOT
ATOM      1  C   UNL     1      -7.715  -5.787   1.379  1.00  0.00     0.188 C 
ENDROOT
BRANCH   1   2
ATOM      2  O   UNL     1      -6.923  -6.665   0.596  1.00  0.00    -0.376 OA
BRANCH   2   3
ATOM      3  C   UNL     1      -5.505  -6.645   0.657  1.00  0.00     0.202 C 
BRANCH   3   4
ATOM      4  C   UNL     1      -4.721  -5.355   0.890  1.00  0.00     0.261 C 
BRANCH   4   5
ATOM      5  O   UNL     1      -5.104  -4.580   2.038  1.00  0.00    -0.462 OA
BRANCH   5   6
ATOM      6  C   UNL     1      -5.646  -3.357   1.817  1.00  0.00     0.328 C 
ATOM      7  O   UNL     1      -5.935  -2.906   0.712  1.00  0.00    -0.250 OA
BRANCH   6   8
ATOM      8  C   UNL     1      -5.647  -2.480   3.079  1.00  0.00     0.192 C 
BRANCH   8   9
ATOM      9  C   UNL     1      -4.256  -1.811   3.216  1.00  0.00     0.040 C 
BRANCH   9  10
ATOM     10  C   UNL     1      -3.007  -2.713   3.047  1.00  0.00    -0.015 C 
ATOM     11  C   UNL     1      -2.541  -2.843   1.584  1.00  0.00     0.007 C 
ATOM     12  C   UNL     1      -1.830  -2.135   3.837  1.00  0.00     0.007 C 
ENDBRANCH   9  10
ENDBRANCH   8   9
BRANCH   8  13
ATOM     13  N   UNL     1      -6.161  -3.042   4.337  1.00  0.00    -0.341 N 
ATOM     14  C   UNL     1      -7.277  -2.716   5.085  1.00  0.00     0.243 C 
ATOM     15  H   UNL     1      -5.618  -3.773   4.711  1.00  0.00     0.164 HD
ATOM     16  O   UNL     1      -7.553  -3.471   6.025  1.00  0.00    -0.273 OA
BRANCH  14  17
ATOM     17  C   UNL     1      -8.258  -1.537   4.726  1.00  0.00     0.175 C 
BRANCH  17  18
ATOM     18  N   UNL     1      -9.377  -2.030   3.910  1.00  0.00    -0.342 N 
ATOM     19  C   UNL     1      -9.779  -1.633   2.665  1.00  0.00     0.240 C 
ATOM     20  H   UNL     1      -9.912  -2.749   4.318  1.00  0.00     0.164 HD
ATOM     21  O   UNL     1     -10.931  -1.906   2.317  1.00  0.00    -0.273 OA
BRANCH  19  22
ATOM     22  C   UNL     1      -8.845  -0.836   1.721  1.00  0.00     0.216 C 
BRANCH  22  23
ATOM     23  N   UNL     1      -8.840   0.619   1.853  1.00  0.00    -0.342 N 
ATOM     24  C   UNL     1      -7.872   1.505   2.236  1.00  0.00     0.275 C 
ATOM     25  H   UNL     1      -9.698   1.042   1.622  1.00  0.00     0.164 HD
ATOM     26  O   UNL     1      -8.189   2.693   2.355  1.00  0.00    -0.268 OA
BRANCH  24  27
ATOM     27  C   UNL     1      -6.443   1.059   2.551  1.00  0.00     0.360 C 
BRANCH  27  28
ATOM     28  N   UNL     1      -6.255   0.888   4.001  1.00  0.00    -0.350 N 
ATOM     29  H   UNL     1      -6.424   1.777   4.472  1.00  0.00     0.344 HD
ATOM     30  H   UNL     1      -5.300   0.581   4.186  1.00  0.00     0.344 HD
ATOM     31  H   UNL     1      -6.911   0.189   4.348  1.00  0.00     0.344 HD
ENDBRANCH  27  28
ENDBRANCH  24  27
ENDBRANCH  22  23
ENDBRANCH  19  22
ENDBRANCH  17  18
BRANCH  17  32
ATOM     32  C   UNL     1      -8.800  -0.878   6.057  1.00  0.00     0.070 C 
BRANCH  32  33
ATOM     33  C   UNL     1      -9.800   0.281   6.037  1.00  0.00    -0.045 A 
ATOM     34  C   UNL     1     -10.132   0.981   4.881  1.00  0.00     0.004 A 
ATOM     35  C   UNL     1     -10.412   0.719   7.223  1.00  0.00     0.004 A 
ATOM     36  C   UNL     1     -11.031   2.052   4.865  1.00  0.00     0.000 A 
ATOM     37  C   UNL     1     -11.319   1.795   7.226  1.00  0.00     0.000 A 
ATOM     38  C   UNL     1     -11.631   2.461   6.044  1.00  0.00     0.000 A 
ENDBRANCH  32  33
ENDBRANCH  17  32
ENDBRANCH  14  17
ENDBRANCH   8  13
ENDBRANCH   6   8
ENDBRANCH   5   6
ENDBRANCH   4   5
ENDBRANCH   3   4
ENDBRANCH   2   3
ENDBRANCH   1   2
BRANCH   1  39
ATOM     39  C   UNL     1      -7.581  -5.736   2.913  1.00  0.00     0.188 C 
BRANCH  39  40
ATOM     40  O   UNL     1      -6.366  -6.223   3.450  1.00  0.00    -0.377 OA
BRANCH  40  41
ATOM     41  C   UNL     1      -6.244  -7.618   3.707  1.00  0.00     0.188 C 
BRANCH  41  42
ATOM     42  C   UNL     1      -7.183  -8.614   2.994  1.00  0.00     0.188 C 
BRANCH  42  43
ATOM     43  O   UNL     1      -8.537  -8.198   2.931  1.00  0.00    -0.376 OA
BRANCH  43  44
ATOM     44  C   UNL     1      -9.434  -8.629   3.943  1.00  0.00     0.202 C 
BRANCH  44  45
ATOM     45  C   UNL     1      -9.119  -8.274   5.406  1.00  0.00     0.261 C 
BRANCH  45  46
ATOM     46  O   UNL     1      -7.875  -8.754   5.944  1.00  0.00    -0.460 OA
BRANCH  46  47
ATOM     47  C   UNL     1      -7.602 -10.070   5.862  1.00  0.00     0.338 C 
ATOM     48  O   UNL     1      -8.338 -10.946   5.427  1.00  0.00    -0.246 OA
BRANCH  47  49
ATOM     49  C   UNL     1      -6.173 -10.256   6.190  1.00  0.00     0.060 A 
ATOM     50  C   UNL     1      -5.319 -10.827   5.237  1.00  0.00     0.016 A 
ATOM     51  C   UNL     1      -5.682  -9.875   7.441  1.00  0.00     0.016 A 
ATOM     52  C   UNL     1      -3.980 -11.065   5.550  1.00  0.00     0.010 A 
ATOM     53  C   UNL     1      -4.347 -10.138   7.762  1.00  0.00     0.010 A 
ATOM     54  C   UNL     1      -3.503 -10.773   6.833  1.00  0.00    -0.014 A 
BRANCH  54  55
ATOM     55  C   UNL     1      -2.211 -11.349   7.284  1.00  0.00     0.031 A 
ATOM     56  C   UNL     1      -2.252 -12.626   8.081  1.00  0.00     0.074 A 
ATOM     57  C   UNL     1      -1.034 -10.774   6.981  1.00  0.00     0.049 A 
ATOM     58  N   UNL     1      -1.279 -13.280   8.658  1.00  0.00    -0.248 NA
ATOM     59  C   UNL     1      -3.577 -13.242   8.252  1.00  0.00     0.031 C 
ATOM     60  C   UNL     1      -0.865  -9.573   6.165  1.00  0.00     0.029 A 
ATOM     61  N   UNL     1       0.246 -11.122   7.338  1.00  0.00    -0.354 N 
ATOM     62  C   UNL     1      -1.875 -14.376   9.273  1.00  0.00     0.074 A 
ATOM     63  C   UNL     1      -3.296 -14.279   9.024  1.00  0.00     0.031 C 
ATOM     64  C   UNL     1       0.445  -9.274   6.099  1.00  0.00     0.029 A 
ATOM     65  C   UNL     1       1.201 -10.233   6.904  1.00  0.00     0.049 A 
ATOM     66  H   UNL     1       0.459 -11.931   7.856  1.00  0.00     0.167 HD
ATOM     67  C   UNL     1      -1.288 -15.374   9.979  1.00  0.00     0.034 A 
ATOM     68  C   UNL     1       2.525 -10.181   7.159  1.00  0.00     0.034 A 
ATOM     69  C   UNL     1       0.131 -15.448  10.226  1.00  0.00     0.049 A 
ATOM     70  C   UNL     1       3.147 -11.252   8.028  1.00  0.00     0.074 A 
ATOM     71  C   UNL     1       0.834 -16.420  10.914  1.00  0.00     0.029 A 
ATOM     72  N   UNL     1       1.062 -14.504   9.810  1.00  0.00    -0.354 N 
ATOM     73  N   UNL     1       2.575 -12.285   8.605  1.00  0.00    -0.248 NA
ATOM     74  C   UNL     1       4.591 -11.152   8.274  1.00  0.00     0.031 C 
ATOM     75  C   UNL     1       2.172 -16.021  10.989  1.00  0.00     0.029 A 
ATOM     76  C   UNL     1       2.325 -14.851  10.262  1.00  0.00     0.049 A 
ATOM     77  H   UNL     1       0.854 -13.706   9.272  1.00  0.00     0.167 HD
ATOM     78  C   UNL     1       3.600 -12.975   9.252  1.00  0.00     0.074 A 
ATOM     79  C   UNL     1       4.822 -12.248   8.982  1.00  0.00     0.031 C 
ATOM     80  C   UNL     1       3.537 -14.111   9.994  1.00  0.00     0.034 A 
BRANCH  67  81
ATOM     81  C   UNL     1      -2.190 -16.422  10.585  1.00  0.00     0.023 A 
ATOM     82  C   UNL     1      -2.973 -17.281   9.794  1.00  0.00     0.031 A 
ATOM     83  C   UNL     1      -2.285 -16.546  11.983  1.00  0.00     0.131 A 
ATOM     84  C   UNL     1      -3.864 -18.176  10.406  1.00  0.00     0.055 A 
ATOM     85  C   UNL     1      -3.111 -17.497  12.585  1.00  0.00     0.041 A 
ATOM     86  F   UNL     1      -1.584 -15.734  12.790  1.00  0.00    -0.206 F 
ATOM     87  C   UNL     1      -3.917 -18.310  11.795  1.00  0.00     0.022 A 
BRANCH  84  88
ATOM     88  S   UNL     1      -5.057 -19.061   9.364  1.00  0.00     0.124 S 
ATOM     89  O   UNL     1      -5.763 -17.955   8.721  1.00  0.00    -0.237 OA
ATOM     90  O   UNL     1      -4.192 -19.855   8.499  1.00  0.00    -0.237 OA
ATOM     91  O   UNL     1      -5.851 -19.824  10.324  1.00  0.00    -0.744 OA
ENDBRANCH  84  88
ENDBRANCH  67  81
BRANCH  68  92
ATOM     92  C   UNL     1       3.353  -9.053   6.638  1.00  0.00     0.023 A 
ATOM     93  C   UNL     1       4.418  -9.276   5.750  1.00  0.00     0.031 A 
ATOM     94  C   UNL     1       3.124  -7.733   7.070  1.00  0.00     0.131 A 
ATOM     95  C   UNL     1       5.241  -8.207   5.360  1.00  0.00     0.055 A 
ATOM     96  C   UNL     1       3.909  -6.665   6.634  1.00  0.00     0.041 A 
ATOM     97  F   UNL     1       2.125  -7.462   7.924  1.00  0.00    -0.206 F 
ATOM     98  C   UNL     1       4.984  -6.901   5.783  1.00  0.00     0.022 A 
BRANCH  95  99
ATOM     99  S   UNL     1       6.713  -8.561   4.361  1.00  0.00     0.124 S 
ATOM    100  O   UNL     1       7.439  -9.488   5.222  1.00  0.00    -0.237 OA
ATOM    101  O   UNL     1       6.128  -9.130   3.152  1.00  0.00    -0.237 OA
ATOM    102  O   UNL     1       7.333  -7.248   4.193  1.00  0.00    -0.744 OA
ENDBRANCH  95  99
ENDBRANCH  68  92
BRANCH  80 103
ATOM    103  C   UNL     1       4.839 -14.669  10.523  1.00  0.00     0.023 A 
ATOM    104  C   UNL     1       5.616 -13.981  11.471  1.00  0.00     0.031 A 
ATOM    105  C   UNL     1       5.309 -15.915  10.066  1.00  0.00     0.131 A 
ATOM    106  C   UNL     1       6.846 -14.513  11.887  1.00  0.00     0.055 A 
ATOM    107  C   UNL     1       6.498 -16.473  10.537  1.00  0.00     0.041 A 
ATOM    108  F   UNL     1       4.613 -16.616   9.157  1.00  0.00    -0.206 F 
ATOM    109  C   UNL     1       7.282 -15.764  11.443  1.00  0.00     0.022 A 
BRANCH 106 110
ATOM    110  S   UNL     1       7.924 -13.500  12.937  1.00  0.00     0.124 S 
ATOM    111  O   UNL     1       8.102 -12.303  12.121  1.00  0.00    -0.237 OA
ATOM    112  O   UNL     1       7.120 -13.336  14.144  1.00  0.00    -0.237 OA
ATOM    113  O   UNL     1       9.120 -14.325  13.097  1.00  0.00    -0.744 OA
ENDBRANCH 106 110
ENDBRANCH  80 103
ENDBRANCH  54  55
ENDBRANCH  47  49
ENDBRANCH  46  47
ENDBRANCH  45  46
ENDBRANCH  44  45
ENDBRANCH  43  44
ENDBRANCH  42  43
ENDBRANCH  41  42
ENDBRANCH  40  41
ENDBRANCH  39  40
ENDBRANCH   1  39
TORSDOF 34
