REMARK SMILES Cc1ccc(Cl)c(Nc2ccccc2C(=O)N[C@@H](C)C(=O)OCCOCCOCCOCCOC(=O)c2ccc(-c3c4nc(c(-c5cc(S(=O)(=O)[O-])ccc5F)c5ccc([nH]5)c(-c5cc(S(=O)(=O)[O-])ccc5F)c5nc(c(-c6cc(S(=O)(=O)[O-])ccc6F)c6ccc3[nH]6)C=C5)C=C4)cc2)c1Cl
REMARK SMILES IDX 27 1 26 2 25 3 24 4 23 5 22 6 20 7 21 8 18 9 19 10 17 11
REMARK SMILES IDX 15 12 16 13 14 15 9 16 10 17 11 18 13 19 12 20 8 21 7 23
REMARK SMILES IDX 1 24 2 25 3 26 100 27 4 28 101 29 5 30 6 31 28 32 29 33
REMARK SMILES IDX 30 34 31 35 32 36 33 37 34 38 35 39 36 40 37 41 38 42 99 43
REMARK SMILES IDX 39 44 98 45 40 46 41 47 42 48 92 49 43 50 97 51 91 52 93 53
REMARK SMILES IDX 44 54 96 55 90 56 89 57 45 59 77 60 57 61 76 62 58 63 61 64
REMARK SMILES IDX 75 65 94 66 59 67 60 68 74 70 95 71 62 72 46 73 47 74 55 75
REMARK SMILES IDX 48 76 54 77 56 78 53 79 49 80 50 81 51 82 52 83 78 84 79 85
REMARK SMILES IDX 87 86 80 87 86 88 88 89 85 90 81 91 82 92 83 93 84 94 63 95
REMARK SMILES IDX 64 96 72 97 65 98 71 99 73 100 70 101 66 102 67 103 68 104
REMARK SMILES IDX 69 105
REMARK H PARENT 17 14 8 22 93 58 61 69
REMARK Flexibility Score: inf
ROOT
ATOM      1  C   UNL     1       3.027   1.085  -1.318  1.00  0.00     0.188 C 
ENDROOT
BRANCH   1   2
ATOM      2  C   UNL     1       2.055   2.012  -2.154  1.00  0.00     0.188 C 
BRANCH   2   3
ATOM      3  O   UNL     1       0.675   2.240  -1.764  1.00  0.00    -0.376 OA
BRANCH   3   4
ATOM      4  C   UNL     1       0.231   3.358  -0.968  1.00  0.00     0.202 C 
BRANCH   4   5
ATOM      5  C   UNL     1      -0.931   3.126   0.184  1.00  0.00     0.261 C 
BRANCH   5   6
ATOM      6  O   UNL     1      -0.810   2.004   1.177  1.00  0.00    -0.462 OA
BRANCH   6   7
ATOM      7  C   UNL     1      -1.905   1.190   1.444  1.00  0.00     0.328 C 
ATOM      8  O   UNL     1      -3.054   1.547   1.180  1.00  0.00    -0.250 OA
BRANCH   7   9
ATOM      9  C   UNL     1      -1.588  -0.366   1.850  1.00  0.00     0.189 C 
ATOM     10  C   UNL     1      -2.747  -1.014   2.610  1.00  0.00     0.043 C 
BRANCH   9  11
ATOM     11  N   UNL     1      -0.334  -0.834   2.471  1.00  0.00    -0.339 N 
ATOM     12  C   UNL     1       0.489  -1.950   2.367  1.00  0.00     0.254 C 
ATOM     13  O   UNL     1       1.339  -1.958   3.277  1.00  0.00    -0.269 OA
ATOM     14  H   UNL     1       0.010  -0.188   3.129  1.00  0.00     0.164 HD
BRANCH  12  15
ATOM     15  C   UNL     1       0.596  -3.111   1.341  1.00  0.00     0.063 A 
ATOM     16  C   UNL     1      -0.251  -3.661   0.340  1.00  0.00     0.051 A 
ATOM     17  C   UNL     1       0.201  -4.774  -0.449  1.00  0.00     0.027 A 
ATOM     18  C   UNL     1       1.468  -5.330  -0.327  1.00  0.00     0.002 A 
ATOM     19  C   UNL     1       1.872  -3.763   1.452  1.00  0.00     0.016 A 
ATOM     20  C   UNL     1       2.306  -4.828   0.642  1.00  0.00     0.001 A 
BRANCH  16  21
ATOM     21  N   UNL     1      -1.496  -3.161  -0.120  1.00  0.00    -0.352 N 
ATOM     22  H   UNL     1      -2.307  -3.420   0.375  1.00  0.00     0.167 HD
BRANCH  21  23
ATOM     23  C   UNL     1      -1.652  -2.298  -1.265  1.00  0.00     0.077 A 
ATOM     24  C   UNL     1       0.379   0.136  -0.448  1.00  0.00     0.046 C 
ATOM     25  C   UNL     1      -0.655  -0.256  -1.441  1.00  0.00    -0.030 A 
ATOM     26  C   UNL     1      -1.850   0.404  -1.703  1.00  0.00     0.006 A 
ATOM     27  C   UNL     1      -0.575  -1.590  -1.734  1.00  0.00     0.069 A 
ATOM     28  C   UNL     1      -2.991  -0.368  -1.876  1.00  0.00     0.023 A 
ATOM     29  Cl  UNL     1       0.947  -2.267  -2.197  1.00  0.00    -0.082 Cl
ATOM     30  C   UNL     1      -2.904  -1.718  -1.529  1.00  0.00     0.066 A 
ATOM     31  Cl  UNL     1      -4.347  -2.622  -1.288  1.00  0.00    -0.082 Cl
ENDBRANCH  21  23
ENDBRANCH  16  21
ENDBRANCH  12  15
ENDBRANCH   9  11
ENDBRANCH   7   9
ENDBRANCH   6   7
ENDBRANCH   5   6
ENDBRANCH   4   5
ENDBRANCH   3   4
ENDBRANCH   2   3
ENDBRANCH   1   2
BRANCH   1  32
ATOM     32  O   UNL     1       3.033   1.230   0.102  1.00  0.00    -0.377 OA
BRANCH  32  33
ATOM     33  C   UNL     1       3.151   2.559   0.579  1.00  0.00     0.188 C 
BRANCH  33  34
ATOM     34  C   UNL     1       4.124   3.412  -0.230  1.00  0.00     0.188 C 
BRANCH  34  35
ATOM     35  O   UNL     1       5.167   2.716  -0.882  1.00  0.00    -0.376 OA
BRANCH  35  36
ATOM     36  C   UNL     1       6.148   1.983  -0.159  1.00  0.00     0.202 C 
BRANCH  36  37
ATOM     37  C   UNL     1       6.019   1.601   1.329  1.00  0.00     0.261 C 
BRANCH  37  38
ATOM     38  O   UNL     1       5.572   2.602   2.259  1.00  0.00    -0.460 OA
BRANCH  38  39
ATOM     39  C   UNL     1       6.088   3.849   2.158  1.00  0.00     0.338 C 
ATOM     40  O   UNL     1       6.999   4.203   1.452  1.00  0.00    -0.246 OA
BRANCH  39  41
ATOM     41  C   UNL     1       5.153   4.767   2.860  1.00  0.00     0.060 A 
ATOM     42  C   UNL     1       4.642   5.862   2.146  1.00  0.00     0.016 A 
ATOM     43  C   UNL     1       4.805   4.573   4.198  1.00  0.00     0.016 A 
ATOM     44  C   UNL     1       3.824   6.791   2.771  1.00  0.00     0.010 A 
ATOM     45  C   UNL     1       4.043   5.548   4.850  1.00  0.00     0.010 A 
ATOM     46  C   UNL     1       3.606   6.687   4.146  1.00  0.00    -0.014 A 
BRANCH  46  47
ATOM     47  C   UNL     1       3.271   7.941   4.858  1.00  0.00     0.031 A 
ATOM     48  C   UNL     1       4.425   8.766   5.370  1.00  0.00     0.074 A 
ATOM     49  C   UNL     1       2.011   8.404   4.919  1.00  0.00     0.049 A 
ATOM     50  N   UNL     1       4.419   9.911   5.997  1.00  0.00    -0.248 NA
ATOM     51  C   UNL     1       5.772   8.222   5.127  1.00  0.00     0.031 C 
ATOM     52  C   UNL     1       0.838   7.737   4.358  1.00  0.00     0.029 A 
ATOM     53  N   UNL     1       1.516   9.557   5.469  1.00  0.00    -0.354 N 
ATOM     54  C   UNL     1       5.756  10.219   6.230  1.00  0.00     0.074 A 
ATOM     55  C   UNL     1       6.543   9.124   5.709  1.00  0.00     0.031 C 
ATOM     56  C   UNL     1      -0.248   8.493   4.603  1.00  0.00     0.029 A 
ATOM     57  C   UNL     1       0.150   9.673   5.370  1.00  0.00     0.049 A 
ATOM     58  H   UNL     1       2.085  10.239   5.895  1.00  0.00     0.167 HD
ATOM     59  C   UNL     1       6.281  11.319   6.820  1.00  0.00     0.034 A 
ATOM     60  C   UNL     1      -0.678  10.613   5.869  1.00  0.00     0.034 A 
ATOM     61  C   UNL     1       5.476  12.391   7.347  1.00  0.00     0.049 A 
ATOM     62  C   UNL     1      -0.079  11.776   6.627  1.00  0.00     0.074 A 
ATOM     63  C   UNL     1       5.888  13.544   7.990  1.00  0.00     0.029 A 
ATOM     64  N   UNL     1       4.087  12.436   7.301  1.00  0.00    -0.354 N 
ATOM     65  N   UNL     1       1.185  12.044   6.873  1.00  0.00    -0.248 NA
ATOM     66  C   UNL     1      -1.018  12.771   7.160  1.00  0.00     0.031 C 
ATOM     67  C   UNL     1       4.750  14.241   8.407  1.00  0.00     0.029 A 
ATOM     68  C   UNL     1       3.627  13.580   7.933  1.00  0.00     0.049 A 
ATOM     69  H   UNL     1       3.514  11.755   6.881  1.00  0.00     0.167 HD
ATOM     70  C   UNL     1       1.191  13.261   7.554  1.00  0.00     0.074 A 
ATOM     71  C   UNL     1      -0.193  13.676   7.663  1.00  0.00     0.031 C 
ATOM     72  C   UNL     1       2.241  13.975   8.037  1.00  0.00     0.034 A 
BRANCH  59  73
ATOM     73  C   UNL     1       7.781  11.366   6.991  1.00  0.00     0.023 A 
ATOM     74  C   UNL     1       8.660  11.381   5.894  1.00  0.00     0.031 A 
ATOM     75  C   UNL     1       8.342  11.346   8.281  1.00  0.00     0.131 A 
ATOM     76  C   UNL     1      10.046  11.302   6.105  1.00  0.00     0.055 A 
ATOM     77  C   UNL     1       9.722  11.357   8.486  1.00  0.00     0.041 A 
ATOM     78  F   UNL     1       7.555  11.297   9.367  1.00  0.00    -0.206 F 
ATOM     79  C   UNL     1      10.584  11.320   7.394  1.00  0.00     0.022 A 
BRANCH  76  80
ATOM     80  S   UNL     1      11.129  11.017   4.677  1.00  0.00     0.124 S 
ATOM     81  O   UNL     1      10.597   9.763   4.150  1.00  0.00    -0.237 OA
ATOM     82  O   UNL     1      10.896  12.204   3.862  1.00  0.00    -0.237 OA
ATOM     83  O   UNL     1      12.461  10.919   5.271  1.00  0.00    -0.744 OA
ENDBRANCH  76  80
ENDBRANCH  59  73
BRANCH  60  84
ATOM     84  C   UNL     1      -2.157  10.479   5.718  1.00  0.00     0.023 A 
ATOM     85  C   UNL     1      -2.916  11.449   5.044  1.00  0.00     0.031 A 
ATOM     86  C   UNL     1      -2.844   9.402   6.309  1.00  0.00     0.131 A 
ATOM     87  C   UNL     1      -4.317  11.351   5.021  1.00  0.00     0.055 A 
ATOM     88  C   UNL     1      -4.232   9.276   6.230  1.00  0.00     0.041 A 
ATOM     89  F   UNL     1      -2.171   8.449   6.973  1.00  0.00    -0.206 F 
ATOM     90  C   UNL     1      -4.979  10.263   5.596  1.00  0.00     0.022 A 
BRANCH  87  91
ATOM     91  S   UNL     1      -5.273  12.722   4.316  1.00  0.00     0.124 S 
ATOM     92  O   UNL     1      -4.826  13.845   5.130  1.00  0.00    -0.237 OA
ATOM     93  O   UNL     1      -4.827  12.717   2.926  1.00  0.00    -0.237 OA
ATOM     94  O   UNL     1      -6.660  12.311   4.524  1.00  0.00    -0.744 OA
ENDBRANCH  87  91
ENDBRANCH  60  84
BRANCH  72  95
ATOM     95  C   UNL     1       1.932  15.314   8.667  1.00  0.00     0.023 A 
ATOM     96  C   UNL     1       1.158  15.430   9.834  1.00  0.00     0.031 A 
ATOM     97  C   UNL     1       2.406  16.498   8.071  1.00  0.00     0.131 A 
ATOM     98  C   UNL     1       0.813  16.700  10.321  1.00  0.00     0.055 A 
ATOM     99  C   UNL     1       2.128  17.755   8.607  1.00  0.00     0.041 A 
ATOM    100  F   UNL     1       3.149  16.451   6.954  1.00  0.00    -0.206 F 
ATOM    101  C   UNL     1       1.311  17.862   9.728  1.00  0.00     0.022 A 
BRANCH  98 102
ATOM    102  S   UNL     1      -0.408  16.815  11.657  1.00  0.00     0.124 S 
ATOM    103  O   UNL     1      -1.540  16.084  11.095  1.00  0.00    -0.237 OA
ATOM    104  O   UNL     1       0.282  16.166  12.767  1.00  0.00    -0.237 OA
ATOM    105  O   UNL     1      -0.613  18.254  11.810  1.00  0.00    -0.744 OA
ENDBRANCH  98 102
ENDBRANCH  72  95
ENDBRANCH  46  47
ENDBRANCH  39  41
ENDBRANCH  38  39
ENDBRANCH  37  38
ENDBRANCH  36  37
ENDBRANCH  35  36
ENDBRANCH  34  35
ENDBRANCH  33  34
ENDBRANCH  32  33
ENDBRANCH   1  32
TORSDOF 27
