REMARK SMILES O=C(OCCOCCOCCOCCOC(=O)[C@@H]1CCn2c(C(=O)c3ccccc3)ccc21)c1ccc(-c2c3nc(c(-c4cc(S(=O)(=O)[O-])ccc4F)c4ccc([nH]4)c(-c4cc(S(=O)(=O)[O-])ccc4F)c4nc(c(-c5cc(S(=O)(=O)[O-])ccc5F)c5ccc2[nH]5)C=C4)C=C3)cc1
REMARK SMILES IDX 8 1 7 2 6 3 5 4 4 5 3 6 2 7 1 8 34 9 35 10 96 11 36 12 95 13
REMARK SMILES IDX 37 14 38 15 39 16 89 17 40 18 94 19 88 20 90 21 41 22 93 23
REMARK SMILES IDX 87 24 86 25 42 27 74 28 54 29 73 30 55 31 58 32 72 33 91 34
REMARK SMILES IDX 56 35 57 36 71 38 92 39 59 40 43 41 44 42 52 43 45 44 51 45
REMARK SMILES IDX 53 46 50 47 46 48 47 49 48 50 49 51 75 52 76 53 84 54 77 55
REMARK SMILES IDX 83 56 85 57 82 58 78 59 79 60 80 61 81 62 60 63 61 64 69 65
REMARK SMILES IDX 62 66 68 67 70 68 67 69 63 70 64 71 65 72 66 73 9 74 10 75
REMARK SMILES IDX 11 76 12 77 13 78 14 79 15 80 16 81 17 82 18 83 19 84 33 85
REMARK SMILES IDX 20 86 21 87 32 88 22 89 31 90 23 91 24 92 25 93 26 94 30 95
REMARK SMILES IDX 27 96 29 97 28 98
REMARK H PARENT 90 26 58 37
REMARK Flexibility Score: inf
ROOT
ATOM      1  C   UNL     1       2.004   2.790  -0.568  1.00  0.00     0.188 C 
ENDROOT
BRANCH   1   2
ATOM      2  C   UNL     1       2.365   1.357  -0.965  1.00  0.00     0.188 C 
BRANCH   2   3
ATOM      3  O   UNL     1       3.647   0.996  -0.454  1.00  0.00    -0.376 OA
BRANCH   3   4
ATOM      4  C   UNL     1       4.492   0.246  -1.329  1.00  0.00     0.202 C 
BRANCH   4   5
ATOM      5  C   UNL     1       4.161  -1.243  -1.399  1.00  0.00     0.261 C 
BRANCH   5   6
ATOM      6  O   UNL     1       2.777  -1.512  -1.125  1.00  0.00    -0.460 OA
BRANCH   6   7
ATOM      7  C   UNL     1       2.213  -1.755   0.086  1.00  0.00     0.338 C 
ATOM      8  O   UNL     1       1.006  -1.994   0.131  1.00  0.00    -0.246 OA
BRANCH   7   9
ATOM      9  C   UNL     1       2.978  -1.778   1.369  1.00  0.00     0.060 A 
ATOM     10  C   UNL     1       4.089  -0.986   1.653  1.00  0.00     0.016 A 
ATOM     11  C   UNL     1       2.493  -2.609   2.391  1.00  0.00     0.016 A 
ATOM     12  C   UNL     1       4.766  -1.075   2.853  1.00  0.00     0.010 A 
ATOM     13  C   UNL     1       3.143  -2.678   3.629  1.00  0.00     0.010 A 
ATOM     14  C   UNL     1       4.308  -1.932   3.843  1.00  0.00    -0.014 A 
BRANCH  14  15
ATOM     15  C   UNL     1       5.213  -2.162   4.981  1.00  0.00     0.031 A 
ATOM     16  C   UNL     1       5.985  -3.447   4.994  1.00  0.00     0.074 A 
ATOM     17  C   UNL     1       5.488  -1.156   5.832  1.00  0.00     0.049 A 
ATOM     18  N   UNL     1       6.808  -3.913   5.889  1.00  0.00    -0.248 NA
ATOM     19  C   UNL     1       5.815  -4.320   3.818  1.00  0.00     0.031 C 
ATOM     20  C   UNL     1       4.910   0.191   5.757  1.00  0.00     0.029 A 
ATOM     21  N   UNL     1       6.352  -1.086   6.889  1.00  0.00    -0.354 N 
ATOM     22  C   UNL     1       7.235  -5.142   5.399  1.00  0.00     0.074 A 
ATOM     23  C   UNL     1       6.564  -5.361   4.139  1.00  0.00     0.031 C 
ATOM     24  C   UNL     1       5.456   0.956   6.716  1.00  0.00     0.029 A 
ATOM     25  C   UNL     1       6.344   0.134   7.527  1.00  0.00     0.049 A 
ATOM     26  H   UNL     1       6.925  -1.837   7.168  1.00  0.00     0.167 HD
ATOM     27  C   UNL     1       8.114  -6.004   5.963  1.00  0.00     0.034 A 
ATOM     28  C   UNL     1       6.950   0.510   8.670  1.00  0.00     0.034 A 
ATOM     29  C   UNL     1       8.741  -5.739   7.231  1.00  0.00     0.049 A 
ATOM     30  C   UNL     1       7.804  -0.526   9.362  1.00  0.00     0.074 A 
ATOM     31  C   UNL     1       9.537  -6.564   8.000  1.00  0.00     0.029 A 
ATOM     32  N   UNL     1       8.633  -4.532   7.916  1.00  0.00    -0.354 N 
ATOM     33  N   UNL     1       8.099  -1.748   8.969  1.00  0.00    -0.248 NA
ATOM     34  C   UNL     1       8.397  -0.146  10.646  1.00  0.00     0.031 C 
ATOM     35  C   UNL     1       9.864  -5.875   9.174  1.00  0.00     0.029 A 
ATOM     36  C   UNL     1       9.337  -4.593   9.105  1.00  0.00     0.049 A 
ATOM     37  H   UNL     1       8.129  -3.747   7.600  1.00  0.00     0.167 HD
ATOM     38  C   UNL     1       8.928  -2.275   9.952  1.00  0.00     0.074 A 
ATOM     39  C   UNL     1       9.110  -1.224  10.937  1.00  0.00     0.031 C 
ATOM     40  C   UNL     1       9.484  -3.511  10.051  1.00  0.00     0.034 A 
BRANCH  27  41
ATOM     41  C   UNL     1       8.328  -7.316   5.251  1.00  0.00     0.023 A 
ATOM     42  C   UNL     1       8.912  -7.379   3.972  1.00  0.00     0.031 A 
ATOM     43  C   UNL     1       7.831  -8.507   5.806  1.00  0.00     0.131 A 
ATOM     44  C   UNL     1       8.903  -8.588   3.258  1.00  0.00     0.055 A 
ATOM     45  C   UNL     1       7.901  -9.724   5.125  1.00  0.00     0.041 A 
ATOM     46  F   UNL     1       7.229  -8.502   7.006  1.00  0.00    -0.206 F 
ATOM     47  C   UNL     1       8.423  -9.766   3.835  1.00  0.00     0.022 A 
BRANCH  44  48
ATOM     48  S   UNL     1       9.370  -8.566   1.504  1.00  0.00     0.124 S 
ATOM     49  O   UNL     1       8.356  -7.678   0.940  1.00  0.00    -0.237 OA
ATOM     50  O   UNL     1      10.729  -8.038   1.543  1.00  0.00    -0.237 OA
ATOM     51  O   UNL     1       9.257  -9.966   1.100  1.00  0.00    -0.744 OA
ENDBRANCH  44  48
ENDBRANCH  27  41
BRANCH  28  52
ATOM     52  C   UNL     1       6.697   1.853   9.277  1.00  0.00     0.023 A 
ATOM     53  C   UNL     1       7.746   2.732   9.588  1.00  0.00     0.031 A 
ATOM     54  C   UNL     1       5.392   2.248   9.635  1.00  0.00     0.131 A 
ATOM     55  C   UNL     1       7.481   3.926  10.282  1.00  0.00     0.055 A 
ATOM     56  C   UNL     1       5.126   3.466  10.262  1.00  0.00     0.041 A 
ATOM     57  F   UNL     1       4.343   1.448   9.380  1.00  0.00    -0.206 F 
ATOM     58  C   UNL     1       6.178   4.306  10.607  1.00  0.00     0.022 A 
BRANCH  55  59
ATOM     59  S   UNL     1       8.882   4.920  10.871  1.00  0.00     0.124 S 
ATOM     60  O   UNL     1       9.650   3.934  11.623  1.00  0.00    -0.237 OA
ATOM     61  O   UNL     1       9.474   5.377   9.618  1.00  0.00    -0.237 OA
ATOM     62  O   UNL     1       8.245   5.961  11.675  1.00  0.00    -0.744 OA
ENDBRANCH  55  59
ENDBRANCH  28  52
BRANCH  40  63
ATOM     63  C   UNL     1      10.370  -3.750  11.244  1.00  0.00     0.023 A 
ATOM     64  C   UNL     1       9.852  -3.780  12.548  1.00  0.00     0.031 A 
ATOM     65  C   UNL     1      11.752  -3.934  11.068  1.00  0.00     0.131 A 
ATOM     66  C   UNL     1      10.722  -3.923  13.636  1.00  0.00     0.055 A 
ATOM     67  C   UNL     1      12.604  -4.147  12.151  1.00  0.00     0.041 A 
ATOM     68  F   UNL     1      12.295  -3.913   9.840  1.00  0.00    -0.206 F 
ATOM     69  C   UNL     1      12.091  -4.126  13.445  1.00  0.00     0.022 A 
BRANCH  66  70
ATOM     70  S   UNL     1      10.051  -3.730  15.309  1.00  0.00     0.124 S 
ATOM     71  O   UNL     1       9.485  -2.386  15.254  1.00  0.00    -0.237 OA
ATOM     72  O   UNL     1       9.089  -4.824  15.387  1.00  0.00    -0.237 OA
ATOM     73  O   UNL     1      11.226  -3.875  16.166  1.00  0.00    -0.744 OA
ENDBRANCH  66  70
ENDBRANCH  40  63
ENDBRANCH  14  15
ENDBRANCH   7   9
ENDBRANCH   6   7
ENDBRANCH   5   6
ENDBRANCH   4   5
ENDBRANCH   3   4
ENDBRANCH   2   3
ENDBRANCH   1   2
BRANCH   1  74
ATOM     74  O   UNL     1       2.868   3.796  -1.104  1.00  0.00    -0.377 OA
BRANCH  74  75
ATOM     75  C   UNL     1       4.263   3.573  -0.923  1.00  0.00     0.188 C 
BRANCH  75  76
ATOM     76  C   UNL     1       4.842   3.550   0.509  1.00  0.00     0.188 C 
BRANCH  76  77
ATOM     77  O   UNL     1       3.876   3.244   1.503  1.00  0.00    -0.376 OA
BRANCH  77  78
ATOM     78  C   UNL     1       3.679   4.233   2.507  1.00  0.00     0.202 C 
BRANCH  78  79
ATOM     79  C   UNL     1       3.046   5.570   2.070  1.00  0.00     0.261 C 
BRANCH  79  80
ATOM     80  O   UNL     1       3.365   5.970   0.729  1.00  0.00    -0.463 OA
BRANCH  80  81
ATOM     81  C   UNL     1       4.400   6.837   0.539  1.00  0.00     0.315 C 
ATOM     82  O   UNL     1       5.026   7.381   1.424  1.00  0.00    -0.251 OA
BRANCH  81  83
ATOM     83  C   UNL     1       4.739   6.890  -0.949  1.00  0.00     0.148 C 
ATOM     84  C   UNL     1       6.220   6.469  -1.183  1.00  0.00     0.043 C 
ATOM     85  C   UNL     1       4.698   8.262  -1.490  1.00  0.00     0.033 A 
ATOM     86  C   UNL     1       6.880   7.573  -2.006  1.00  0.00     0.124 C 
ATOM     87  N   UNL     1       5.886   8.624  -2.050  1.00  0.00    -0.341 N 
ATOM     88  C   UNL     1       3.804   9.281  -1.652  1.00  0.00     0.025 A 
ATOM     89  C   UNL     1       5.853   9.908  -2.496  1.00  0.00     0.090 A 
ATOM     90  C   UNL     1       4.539  10.328  -2.269  1.00  0.00     0.032 A 
BRANCH  89  91
ATOM     91  C   UNL     1       6.933  10.712  -3.038  1.00  0.00     0.209 C 
ATOM     92  O   UNL     1       6.851  11.929  -3.200  1.00  0.00    -0.287 OA
BRANCH  91  93
ATOM     93  C   UNL     1       8.219  10.084  -3.405  1.00  0.00     0.024 A 
ATOM     94  C   UNL     1       9.370  10.451  -2.703  1.00  0.00     0.012 A 
ATOM     95  C   UNL     1       8.288   9.156  -4.450  1.00  0.00     0.012 A 
ATOM     96  C   UNL     1      10.593   9.866  -3.030  1.00  0.00     0.001 A 
ATOM     97  C   UNL     1       9.513   8.567  -4.766  1.00  0.00     0.001 A 
ATOM     98  C   UNL     1      10.662   8.922  -4.057  1.00  0.00     0.000 A 
ENDBRANCH  91  93
ENDBRANCH  89  91
ENDBRANCH  81  83
ENDBRANCH  80  81
ENDBRANCH  79  80
ENDBRANCH  78  79
ENDBRANCH  77  78
ENDBRANCH  76  77
ENDBRANCH  75  76
ENDBRANCH  74  75
ENDBRANCH   1  74
TORSDOF 25
