REMARK SMILES Cc1ccc(S(=O)(=O)n2cc(C(=O)C(=O)NCC(=O)OCCOCCOCCOCCOC(=O)c3ccc(-c4c5nc(c(-c6cc(S(=O)(=O)[O-])ccc6F)c6ccc([nH]6)c(-c6cc(S(=O)(=O)[O-])ccc6F)c6nc(c(-c7cc(S(=O)(=O)[O-])ccc7F)c7ccc4[nH]7)C=C6)C=C5)cc3)c3ccccc32)cc1
REMARK SMILES IDX 25 1 24 2 23 3 22 4 21 5 20 6 18 7 19 8 17 9 16 10 14 11
REMARK SMILES IDX 15 12 12 14 13 15 11 16 9 17 10 18 103 19 98 20 102 21 99 22
REMARK SMILES IDX 101 23 100 24 6 25 7 26 8 27 5 28 1 29 2 30 3 31 105 32 4 33
REMARK SMILES IDX 104 34 26 35 27 36 28 37 29 38 30 39 31 40 32 41 33 42 34 43
REMARK SMILES IDX 35 44 36 45 97 46 37 47 96 48 38 49 39 50 40 51 90 52 41 53
REMARK SMILES IDX 95 54 89 55 91 56 42 57 94 58 88 59 87 60 43 62 75 63 55 64
REMARK SMILES IDX 74 65 56 66 59 67 73 68 92 69 57 70 58 71 72 73 93 74 60 75
REMARK SMILES IDX 44 76 45 77 53 78 46 79 52 80 54 81 51 82 47 83 48 84 49 85
REMARK SMILES IDX 50 86 76 87 77 88 85 89 78 90 84 91 86 92 83 93 79 94 80 95
REMARK SMILES IDX 81 96 82 97 61 98 62 99 70 100 63 101 69 102 71 103 68 104
REMARK SMILES IDX 64 105 65 106 66 107 67 108
REMARK H PARENT 16 13 91 61 59 72
REMARK Flexibility Score: inf
ROOT
ATOM      1  C   UNL     1      -8.570   4.833   5.544  1.00  0.00     0.188 C 
ENDROOT
BRANCH   1   2
ATOM      2  C   UNL     1      -8.627   6.318   5.930  1.00  0.00     0.188 C 
BRANCH   2   3
ATOM      3  O   UNL     1      -9.849   7.024   5.763  1.00  0.00    -0.376 OA
BRANCH   3   4
ATOM      4  C   UNL     1     -10.165   7.404   4.422  1.00  0.00     0.202 C 
BRANCH   4   5
ATOM      5  C   UNL     1      -9.164   8.317   3.721  1.00  0.00     0.261 C 
BRANCH   5   6
ATOM      6  O   UNL     1      -8.047   7.538   3.271  1.00  0.00    -0.462 OA
BRANCH   6   7
ATOM      7  C   UNL     1      -6.821   8.065   3.478  1.00  0.00     0.325 C 
ATOM      8  O   UNL     1      -6.590   9.196   3.885  1.00  0.00    -0.250 OA
BRANCH   7   9
ATOM      9  C   UNL     1      -5.721   7.056   3.171  1.00  0.00     0.239 C 
BRANCH   9  10
ATOM     10  N   UNL     1      -6.096   5.656   3.365  1.00  0.00    -0.338 N 
ATOM     11  C   UNL     1      -6.000   4.540   2.576  1.00  0.00     0.292 C 
ATOM     12  O   UNL     1      -6.159   3.437   3.088  1.00  0.00    -0.265 OA
ATOM     13  H   UNL     1      -6.502   5.479   4.244  1.00  0.00     0.164 HD
BRANCH  11  14
ATOM     14  C   UNL     1      -5.615   4.674   1.103  1.00  0.00     0.252 C 
ATOM     15  O   UNL     1      -5.801   5.767   0.570  1.00  0.00    -0.283 OA
BRANCH  14  16
ATOM     16  C   UNL     1      -4.971   3.583   0.357  1.00  0.00     0.054 A 
ATOM     17  N   UNL     1      -4.131   1.615  -0.288  1.00  0.00    -0.240 N 
ATOM     18  C   UNL     1      -4.801   2.258   0.725  1.00  0.00     0.117 A 
ATOM     19  C   UNL     1      -3.830   2.485  -1.317  1.00  0.00     0.065 A 
ATOM     20  C   UNL     1      -4.357   3.724  -0.935  1.00  0.00     0.012 A 
ATOM     21  C   UNL     1      -3.126   2.327  -2.525  1.00  0.00     0.028 A 
ATOM     22  C   UNL     1      -4.189   4.827  -1.800  1.00  0.00     0.011 A 
ATOM     23  C   UNL     1      -2.948   3.449  -3.342  1.00  0.00     0.002 A 
ATOM     24  C   UNL     1      -3.478   4.683  -2.989  1.00  0.00     0.001 A 
BRANCH  17  25
ATOM     25  S   UNL     1      -3.562   0.011  -0.179  1.00  0.00     0.268 S 
ATOM     26  O   UNL     1      -3.842  -0.594  -1.479  1.00  0.00    -0.201 OA
ATOM     27  O   UNL     1      -4.056  -0.539   1.057  1.00  0.00    -0.201 OA
BRANCH  25  28
ATOM     28  C   UNL     1      -1.788   0.068  -0.030  1.00  0.00     0.088 A 
ATOM     29  C   UNL     1       2.512  -0.032   0.028  1.00  0.00     0.044 C 
ATOM     30  C   UNL     1       1.013   0.005   0.035  1.00  0.00    -0.051 A 
ATOM     31  C   UNL     1       0.283  -1.187  -0.042  1.00  0.00     0.005 A 
ATOM     32  C   UNL     1       0.325   1.223   0.116  1.00  0.00     0.005 A 
ATOM     33  C   UNL     1      -1.112  -1.158  -0.081  1.00  0.00     0.022 A 
ATOM     34  C   UNL     1      -1.073   1.258   0.098  1.00  0.00     0.022 A 
ENDBRANCH  25  28
ENDBRANCH  17  25
ENDBRANCH  14  16
ENDBRANCH  11  14
ENDBRANCH   9  10
ENDBRANCH   7   9
ENDBRANCH   6   7
ENDBRANCH   5   6
ENDBRANCH   4   5
ENDBRANCH   3   4
ENDBRANCH   2   3
ENDBRANCH   1   2
BRANCH   1  35
ATOM     35  O   UNL     1      -8.896   4.547   4.202  1.00  0.00    -0.377 OA
BRANCH  35  36
ATOM     36  C   UNL     1     -10.030   3.712   3.933  1.00  0.00     0.188 C 
BRANCH  36  37
ATOM     37  C   UNL     1     -10.806   3.078   5.085  1.00  0.00     0.188 C 
BRANCH  37  38
ATOM     38  O   UNL     1     -11.327   4.130   5.906  1.00  0.00    -0.376 OA
BRANCH  38  39
ATOM     39  C   UNL     1     -11.459   3.840   7.291  1.00  0.00     0.202 C 
BRANCH  39  40
ATOM     40  C   UNL     1     -12.434   2.700   7.578  1.00  0.00     0.261 C 
BRANCH  40  41
ATOM     41  O   UNL     1     -13.780   3.122   7.273  1.00  0.00    -0.460 OA
BRANCH  41  42
ATOM     42  C   UNL     1     -14.288   2.623   6.111  1.00  0.00     0.338 C 
ATOM     43  O   UNL     1     -14.559   1.448   5.931  1.00  0.00    -0.246 OA
BRANCH  42  44
ATOM     44  C   UNL     1     -14.362   3.686   5.064  1.00  0.00     0.060 A 
ATOM     45  C   UNL     1     -14.567   3.352   3.714  1.00  0.00     0.016 A 
ATOM     46  C   UNL     1     -13.943   4.966   5.387  1.00  0.00     0.016 A 
ATOM     47  C   UNL     1     -14.159   4.233   2.692  1.00  0.00     0.010 A 
ATOM     48  C   UNL     1     -13.421   5.757   4.384  1.00  0.00     0.010 A 
ATOM     49  C   UNL     1     -13.483   5.404   3.025  1.00  0.00    -0.014 A 
BRANCH  49  50
ATOM     50  C   UNL     1     -12.682   6.272   2.124  1.00  0.00     0.031 A 
ATOM     51  C   UNL     1     -12.808   7.765   2.295  1.00  0.00     0.074 A 
ATOM     52  C   UNL     1     -11.608   5.751   1.470  1.00  0.00     0.049 A 
ATOM     53  N   UNL     1     -12.002   8.647   1.818  1.00  0.00    -0.248 NA
ATOM     54  C   UNL     1     -13.869   8.396   3.085  1.00  0.00     0.031 C 
ATOM     55  C   UNL     1     -10.330   6.421   1.197  1.00  0.00     0.029 A 
ATOM     56  N   UNL     1     -11.379   4.479   0.961  1.00  0.00    -0.354 N 
ATOM     57  C   UNL     1     -12.259   9.882   2.391  1.00  0.00     0.074 A 
ATOM     58  C   UNL     1     -13.450   9.666   3.168  1.00  0.00     0.031 C 
ATOM     59  C   UNL     1      -9.492   5.623   0.524  1.00  0.00     0.029 A 
ATOM     60  C   UNL     1     -10.285   4.520   0.067  1.00  0.00     0.049 A 
ATOM     61  H   UNL     1     -11.897   3.673   1.188  1.00  0.00     0.167 HD
ATOM     62  C   UNL     1     -11.369  10.902   2.181  1.00  0.00     0.034 A 
ATOM     63  C   UNL     1     -10.483   4.272  -1.263  1.00  0.00     0.034 A 
ATOM     64  C   UNL     1     -10.417  10.533   1.120  1.00  0.00     0.049 A 
ATOM     65  C   UNL     1     -10.428   5.572  -2.079  1.00  0.00     0.074 A 
ATOM     66  C   UNL     1      -9.039  10.440   1.011  1.00  0.00     0.029 A 
ATOM     67  N   UNL     1     -10.929  10.005  -0.061  1.00  0.00    -0.354 N 
ATOM     68  N   UNL     1     -10.580   6.772  -1.558  1.00  0.00    -0.248 NA
ATOM     69  C   UNL     1     -10.044   5.648  -3.487  1.00  0.00     0.031 C 
ATOM     70  C   UNL     1      -8.744   9.745  -0.199  1.00  0.00     0.029 A 
ATOM     71  C   UNL     1      -9.937   9.499  -0.861  1.00  0.00     0.049 A 
ATOM     72  H   UNL     1     -11.885   9.997  -0.294  1.00  0.00     0.167 HD
ATOM     73  C   UNL     1     -10.275   7.739  -2.482  1.00  0.00     0.074 A 
ATOM     74  C   UNL     1      -9.963   6.978  -3.680  1.00  0.00     0.031 C 
ATOM     75  C   UNL     1     -10.258   9.084  -2.214  1.00  0.00     0.034 A 
BRANCH  62  76
ATOM     76  C   UNL     1     -11.219  12.213   2.961  1.00  0.00     0.023 A 
ATOM     77  C   UNL     1     -10.137  13.074   2.640  1.00  0.00     0.031 A 
ATOM     78  C   UNL     1     -11.995  12.647   4.054  1.00  0.00     0.131 A 
ATOM     79  C   UNL     1      -9.834  14.229   3.392  1.00  0.00     0.055 A 
ATOM     80  C   UNL     1     -11.722  13.825   4.778  1.00  0.00     0.041 A 
ATOM     81  F   UNL     1     -13.047  11.960   4.505  1.00  0.00    -0.206 F 
ATOM     82  C   UNL     1     -10.631  14.617   4.459  1.00  0.00     0.022 A 
BRANCH  79  83
ATOM     83  S   UNL     1      -8.357  15.203   2.973  1.00  0.00     0.124 S 
ATOM     84  O   UNL     1      -7.276  14.288   3.322  1.00  0.00    -0.237 OA
ATOM     85  O   UNL     1      -8.546  15.470   1.552  1.00  0.00    -0.237 OA
ATOM     86  O   UNL     1      -8.469  16.378   3.837  1.00  0.00    -0.744 OA
ENDBRANCH  79  83
ENDBRANCH  62  76
BRANCH  63  87
ATOM     87  C   UNL     1     -11.285   3.002  -1.395  1.00  0.00     0.023 A 
ATOM     88  C   UNL     1     -10.622   1.880  -0.816  1.00  0.00     0.031 A 
ATOM     89  C   UNL     1     -12.682   3.059  -1.262  1.00  0.00     0.131 A 
ATOM     90  C   UNL     1     -11.282   1.101   0.153  1.00  0.00     0.055 A 
ATOM     91  C   UNL     1     -13.352   2.216  -0.356  1.00  0.00     0.041 A 
ATOM     92  F   UNL     1     -13.376   4.073  -1.801  1.00  0.00    -0.206 F 
ATOM     93  C   UNL     1     -12.639   1.294   0.415  1.00  0.00     0.022 A 
BRANCH  90  94
ATOM     94  S   UNL     1     -10.275   0.120   1.324  1.00  0.00     0.124 S 
ATOM     95  O   UNL     1     -10.064  -1.115   0.580  1.00  0.00    -0.237 OA
ATOM     96  O   UNL     1      -9.100   0.963   1.514  1.00  0.00    -0.237 OA
ATOM     97  O   UNL     1     -11.136   0.016   2.501  1.00  0.00    -0.744 OA
ENDBRANCH  90  94
ENDBRANCH  63  87
BRANCH  75  98
ATOM     98  C   UNL     1     -10.521  10.189  -3.224  1.00  0.00     0.023 A 
ATOM     99  C   UNL     1     -10.833   9.920  -4.556  1.00  0.00     0.031 A 
ATOM    100  C   UNL     1     -10.614  11.560  -2.849  1.00  0.00     0.131 A 
ATOM    101  C   UNL     1     -11.133  10.949  -5.461  1.00  0.00     0.055 A 
ATOM    102  C   UNL     1     -11.000  12.575  -3.730  1.00  0.00     0.041 A 
ATOM    103  F   UNL     1     -10.374  11.987  -1.602  1.00  0.00    -0.206 F 
ATOM    104  C   UNL     1     -11.248  12.274  -5.056  1.00  0.00     0.022 A 
BRANCH 101 105
ATOM    105  S   UNL     1     -11.300  10.488  -7.197  1.00  0.00     0.124 S 
ATOM    106  O   UNL     1      -9.973   9.952  -7.490  1.00  0.00    -0.237 OA
ATOM    107  O   UNL     1     -12.381   9.508  -7.157  1.00  0.00    -0.237 OA
ATOM    108  O   UNL     1     -11.624  11.748  -7.860  1.00  0.00    -0.744 OA
ENDBRANCH 101 105
ENDBRANCH  75  98
ENDBRANCH  49  50
ENDBRANCH  42  44
ENDBRANCH  41  42
ENDBRANCH  40  41
ENDBRANCH  39  40
ENDBRANCH  38  39
ENDBRANCH  37  38
ENDBRANCH  36  37
ENDBRANCH  35  36
ENDBRANCH   1  35
TORSDOF 28
