REMARK SMILES Cc1cccc(O[C@H](C)C(=O)NNC(=O)[C@H]2[C@@H]3CC[C@@H](C3)[C@@H]2C(=O)OCCOCCOCCOCCOC(=O)c2ccc(-c3c4nc(c(-c5cc(S(=O)(=O)[O-])ccc5F)c5ccc([nH]5)c(-c5cc(S(=O)(=O)[O-])ccc5F)c5nc(c(-c6cc(S(=O)(=O)[O-])ccc6F)c6ccc3[nH]6)C=C5)C=C4)cc2)c1
REMARK SMILES IDX 30 1 29 2 28 3 27 4 26 5 25 6 23 7 24 8 22 9 16 10 17 11
REMARK SMILES IDX 18 12 21 13 20 14 19 15 14 16 13 17 15 19 12 20 10 21 11 22
REMARK SMILES IDX 8 24 9 25 7 26 6 27 1 28 2 29 3 30 103 31 4 32 5 33 31 34
REMARK SMILES IDX 32 35 33 36 34 37 35 38 36 39 37 40 38 41 39 42 40 43 41 44
REMARK SMILES IDX 102 45 42 46 101 47 43 48 44 49 45 50 95 51 46 52 100 53
REMARK SMILES IDX 94 54 96 55 47 56 99 57 93 58 92 59 48 61 80 62 60 63 79 64
REMARK SMILES IDX 61 65 64 66 78 67 97 68 62 69 63 70 77 72 98 73 65 74 49 75
REMARK SMILES IDX 50 76 58 77 51 78 57 79 59 80 56 81 52 82 53 83 54 84 55 85
REMARK SMILES IDX 81 86 82 87 90 88 83 89 89 90 91 91 88 92 84 93 85 94 86 95
REMARK SMILES IDX 87 96 66 97 67 98 75 99 68 100 74 101 76 102 73 103 69 104
REMARK SMILES IDX 70 105 71 106 72 107
REMARK H PARENT 13 18 12 23 96 60 64 71
REMARK Flexibility Score: inf
ROOT
ATOM      1  C   UNL     1       4.429   2.219   0.711  1.00  0.00     0.188 C 
ENDROOT
BRANCH   1   2
ATOM      2  C   UNL     1       6.123   2.350   0.835  1.00  0.00     0.188 C 
BRANCH   2   3
ATOM      3  O   UNL     1       7.482   2.659  -0.267  1.00  0.00    -0.376 OA
BRANCH   3   4
ATOM      4  C   UNL     1       7.730   3.614  -1.752  1.00  0.00     0.202 C 
BRANCH   4   5
ATOM      5  C   UNL     1       6.650   3.811  -3.315  1.00  0.00     0.261 C 
BRANCH   5   6
ATOM      6  O   UNL     1       5.172   2.903  -3.751  1.00  0.00    -0.463 OA
BRANCH   6   7
ATOM      7  C   UNL     1       4.613   1.598  -3.934  1.00  0.00     0.310 C 
ATOM      8  O   UNL     1       5.200   0.516  -4.019  1.00  0.00    -0.252 OA
BRANCH   7   9
ATOM      9  C   UNL     1       3.075   1.341  -3.782  1.00  0.00     0.115 C 
ATOM     10  C   UNL     1       2.748   0.164  -2.769  1.00  0.00     0.098 C 
ATOM     11  C   UNL     1       1.821  -0.762  -3.596  1.00  0.00     0.003 C 
ATOM     12  C   UNL     1       2.669  -1.483  -4.666  1.00  0.00     0.005 C 
ATOM     13  C   UNL     1       1.052   0.224  -4.467  1.00  0.00     0.009 C 
ATOM     14  C   UNL     1       2.323   0.866  -5.052  1.00  0.00     0.004 C 
ATOM     15  C   UNL     1       2.942  -0.375  -5.692  1.00  0.00     0.005 C 
BRANCH  10  16
ATOM     16  C   UNL     1       2.213   0.394  -1.335  1.00  0.00     0.242 C 
ATOM     17  N   UNL     1       1.287   1.323  -0.947  1.00  0.00    -0.267 N 
ATOM     18  H   UNL     1       1.138   1.404   0.023  1.00  0.00     0.191 HD
ATOM     19  O   UNL     1       2.618  -0.358  -0.431  1.00  0.00    -0.273 OA
BRANCH  17  20
ATOM     20  N   UNL     1       0.543   2.153  -1.740  1.00  0.00    -0.264 N 
ATOM     21  C   UNL     1      -0.445   3.018  -1.391  1.00  0.00     0.279 C 
ATOM     22  O   UNL     1      -0.933   3.651  -2.343  1.00  0.00    -0.269 OA
ATOM     23  H   UNL     1       0.753   2.119  -2.701  1.00  0.00     0.191 HD
BRANCH  21  24
ATOM     24  C   UNL     1      -1.062   3.191   0.030  1.00  0.00     0.260 C 
ATOM     25  C   UNL     1      -2.519   2.696   0.017  1.00  0.00     0.064 C 
BRANCH  24  26
ATOM     26  O   UNL     1      -0.432   3.073   1.290  1.00  0.00    -0.481 OA
BRANCH  26  27
ATOM     27  C   UNL     1      -0.185   1.918   1.956  1.00  0.00     0.120 A 
ATOM     28  C   UNL     1       1.716   1.199   5.196  1.00  0.00     0.044 C 
ATOM     29  C   UNL     1       0.946   1.006   3.925  1.00  0.00    -0.047 A 
ATOM     30  C   UNL     1       0.759  -0.279   3.415  1.00  0.00     0.003 A 
ATOM     31  C   UNL     1       0.461   2.094   3.189  1.00  0.00     0.049 A 
ATOM     32  C   UNL     1       0.058  -0.466   2.224  1.00  0.00     0.004 A 
ATOM     33  C   UNL     1      -0.428   0.629   1.504  1.00  0.00     0.046 A 
ENDBRANCH  26  27
ENDBRANCH  24  26
ENDBRANCH  21  24
ENDBRANCH  17  20
ENDBRANCH  10  16
ENDBRANCH   7   9
ENDBRANCH   6   7
ENDBRANCH   5   6
ENDBRANCH   4   5
ENDBRANCH   3   4
ENDBRANCH   2   3
ENDBRANCH   1   2
BRANCH   1  34
ATOM     34  O   UNL     1       3.331   3.128   0.471  1.00  0.00    -0.377 OA
BRANCH  34  35
ATOM     35  C   UNL     1       3.080   4.443   0.970  1.00  0.00     0.188 C 
BRANCH  35  36
ATOM     36  C   UNL     1       3.207   4.631   2.450  1.00  0.00     0.188 C 
BRANCH  36  37
ATOM     37  O   UNL     1       4.410   3.981   2.818  1.00  0.00    -0.376 OA
BRANCH  37  38
ATOM     38  C   UNL     1       4.430   3.511   4.143  1.00  0.00     0.202 C 
BRANCH  38  39
ATOM     39  C   UNL     1       4.665   4.663   5.110  1.00  0.00     0.261 C 
BRANCH  39  40
ATOM     40  O   UNL     1       5.926   5.295   4.793  1.00  0.00    -0.460 OA
BRANCH  40  41
ATOM     41  C   UNL     1       5.820   6.441   4.040  1.00  0.00     0.338 C 
ATOM     42  O   UNL     1       5.259   7.447   4.403  1.00  0.00    -0.246 OA
BRANCH  41  43
ATOM     43  C   UNL     1       6.352   6.187   2.664  1.00  0.00     0.060 A 
ATOM     44  C   UNL     1       5.836   6.809   1.538  1.00  0.00     0.016 A 
ATOM     45  C   UNL     1       7.234   5.170   2.431  1.00  0.00     0.016 A 
ATOM     46  C   UNL     1       5.862   6.141   0.271  1.00  0.00     0.010 A 
ATOM     47  C   UNL     1       7.285   4.601   1.143  1.00  0.00     0.010 A 
ATOM     48  C   UNL     1       6.308   4.816   0.093  1.00  0.00    -0.014 A 
BRANCH  48  49
ATOM     49  C   UNL     1       5.548   3.617  -1.098  1.00  0.00     0.031 A 
ATOM     50  C   UNL     1       6.211   1.862  -1.722  1.00  0.00     0.074 A 
ATOM     51  C   UNL     1       4.493   4.291  -1.670  1.00  0.00     0.049 A 
ATOM     52  N   UNL     1       6.899   1.740  -2.900  1.00  0.00    -0.248 NA
ATOM     53  C   UNL     1       6.810   0.543  -1.071  1.00  0.00     0.031 C 
ATOM     54  C   UNL     1       3.298   3.796  -2.277  1.00  0.00     0.029 A 
ATOM     55  N   UNL     1       4.413   5.629  -2.072  1.00  0.00    -0.354 N 
ATOM     56  C   UNL     1       7.678   0.647  -3.175  1.00  0.00     0.074 A 
ATOM     57  C   UNL     1       7.729   0.015  -1.911  1.00  0.00     0.031 C 
ATOM     58  C   UNL     1       2.936   4.538  -3.337  1.00  0.00     0.029 A 
ATOM     59  C   UNL     1       3.838   5.652  -3.347  1.00  0.00     0.049 A 
ATOM     60  H   UNL     1       4.707   6.411  -1.552  1.00  0.00     0.167 HD
ATOM     61  C   UNL     1       8.167   0.315  -4.421  1.00  0.00     0.034 A 
ATOM     62  C   UNL     1       3.779   6.631  -4.263  1.00  0.00     0.034 A 
ATOM     63  C   UNL     1       7.499   0.983  -5.553  1.00  0.00     0.049 A 
ATOM     64  C   UNL     1       4.460   6.146  -5.528  1.00  0.00     0.074 A 
ATOM     65  C   UNL     1       6.479   0.516  -6.371  1.00  0.00     0.029 A 
ATOM     66  N   UNL     1       7.661   2.316  -5.914  1.00  0.00    -0.354 N 
ATOM     67  N   UNL     1       5.146   5.030  -5.671  1.00  0.00    -0.248 NA
ATOM     68  C   UNL     1       4.338   6.887  -6.777  1.00  0.00     0.031 C 
ATOM     69  C   UNL     1       5.861   1.613  -7.009  1.00  0.00     0.029 A 
ATOM     70  C   UNL     1       6.611   2.741  -6.734  1.00  0.00     0.049 A 
ATOM     71  H   UNL     1       8.414   2.884  -5.630  1.00  0.00     0.167 HD
ATOM     72  C   UNL     1       5.665   4.969  -6.958  1.00  0.00     0.074 A 
ATOM     73  C   UNL     1       5.043   6.112  -7.615  1.00  0.00     0.031 C 
ATOM     74  C   UNL     1       6.566   4.031  -7.420  1.00  0.00     0.034 A 
BRANCH  61  75
ATOM     75  C   UNL     1       8.929  -0.997  -4.614  1.00  0.00     0.023 A 
ATOM     76  C   UNL     1       8.566  -1.896  -5.640  1.00  0.00     0.031 A 
ATOM     77  C   UNL     1       9.974  -1.427  -3.777  1.00  0.00     0.131 A 
ATOM     78  C   UNL     1       9.087  -3.200  -5.705  1.00  0.00     0.055 A 
ATOM     79  C   UNL     1      10.495  -2.733  -3.834  1.00  0.00     0.041 A 
ATOM     80  F   UNL     1      10.512  -0.599  -2.867  1.00  0.00    -0.206 F 
ATOM     81  C   UNL     1      10.025  -3.640  -4.779  1.00  0.00     0.022 A 
BRANCH  78  82
ATOM     82  S   UNL     1       8.473  -4.322  -6.997  1.00  0.00     0.124 S 
ATOM     83  O   UNL     1       7.048  -4.402  -6.692  1.00  0.00    -0.237 OA
ATOM     84  O   UNL     1       8.830  -3.616  -8.222  1.00  0.00    -0.237 OA
ATOM     85  O   UNL     1       9.221  -5.557  -6.759  1.00  0.00    -0.744 OA
ENDBRANCH  78  82
ENDBRANCH  61  75
BRANCH  62  86
ATOM     86  C   UNL     1       3.707   7.950  -3.567  1.00  0.00     0.023 A 
ATOM     87  C   UNL     1       2.495   8.106  -2.831  1.00  0.00     0.031 A 
ATOM     88  C   UNL     1       4.856   8.577  -3.070  1.00  0.00     0.131 A 
ATOM     89  C   UNL     1       2.526   8.610  -1.521  1.00  0.00     0.055 A 
ATOM     90  C   UNL     1       4.854   9.172  -1.796  1.00  0.00     0.041 A 
ATOM     91  F   UNL     1       6.032   8.440  -3.700  1.00  0.00    -0.206 F 
ATOM     92  C   UNL     1       3.707   9.135  -0.995  1.00  0.00     0.022 A 
BRANCH  89  93
ATOM     93  S   UNL     1       1.159   8.182  -0.377  1.00  0.00     0.124 S 
ATOM     94  O   UNL     1       0.269   9.326  -0.523  1.00  0.00    -0.237 OA
ATOM     95  O   UNL     1       0.674   6.913  -0.911  1.00  0.00    -0.237 OA
ATOM     96  O   UNL     1       1.840   8.058   0.911  1.00  0.00    -0.744 OA
ENDBRANCH  89  93
ENDBRANCH  62  86
BRANCH  74  97
ATOM     97  C   UNL     1       7.365   4.094  -8.733  1.00  0.00     0.023 A 
ATOM     98  C   UNL     1       7.311   5.158  -9.637  1.00  0.00     0.031 A 
ATOM     99  C   UNL     1       8.267   3.054  -9.106  1.00  0.00     0.131 A 
ATOM    100  C   UNL     1       8.013   5.131 -10.858  1.00  0.00     0.055 A 
ATOM    101  C   UNL     1       9.004   3.049 -10.293  1.00  0.00     0.041 A 
ATOM    102  F   UNL     1       8.515   1.997  -8.323  1.00  0.00    -0.206 F 
ATOM    103  C   UNL     1       8.869   4.087 -11.191  1.00  0.00     0.022 A 
BRANCH 100 104
ATOM    104  S   UNL     1       7.747   6.494 -12.017  1.00  0.00     0.124 S 
ATOM    105  O   UNL     1       6.343   6.314 -12.375  1.00  0.00    -0.237 OA
ATOM    106  O   UNL     1       8.044   7.663 -11.194  1.00  0.00    -0.237 OA
ATOM    107  O   UNL     1       8.705   6.230 -13.088  1.00  0.00    -0.744 OA
ENDBRANCH 100 104
ENDBRANCH  74  97
ENDBRANCH  48  49
ENDBRANCH  41  43
ENDBRANCH  40  41
ENDBRANCH  39  40
ENDBRANCH  38  39
ENDBRANCH  37  38
ENDBRANCH  36  37
ENDBRANCH  35  36
ENDBRANCH  34  35
ENDBRANCH   1  34
TORSDOF 28
