REMARK SMILES C[C@@H](CC(=O)OCCOCCOCCOCCOC(=O)c1ccc(-c2c3nc(c(-c4cc(S(=O)(=O)[O-])ccc4F)c4ccc([nH]4)c(-c4cc(S(=O)(=O)[O-])ccc4F)c4nc(c(-c5cc(S(=O)(=O)[O-])ccc5F)c5ccc2[nH]5)C=C4)C=C3)cc1)NC(=O)c1ccc(O)cc1
REMARK SMILES IDX 11 1 10 2 9 3 8 4 7 5 6 6 4 7 5 8 3 9 2 10 1 11 84 12 85 13
REMARK SMILES IDX 86 15 87 16 88 17 93 18 89 19 92 20 90 21 91 22 12 24 13 25
REMARK SMILES IDX 14 26 15 27 16 28 17 29 18 30 19 31 20 32 21 33 22 34 83 35
REMARK SMILES IDX 23 36 82 37 24 38 25 39 26 40 76 41 27 42 81 43 75 44 77 45
REMARK SMILES IDX 28 46 80 47 74 48 73 49 29 51 61 52 41 53 60 54 42 55 45 56
REMARK SMILES IDX 59 57 78 58 43 59 44 60 58 62 79 63 46 64 30 65 31 66 39 67
REMARK SMILES IDX 32 68 38 69 40 70 37 71 33 72 34 73 35 74 36 75 62 76 63 77
REMARK SMILES IDX 71 78 64 79 70 80 72 81 69 82 65 83 66 84 67 85 68 86 47 87
REMARK SMILES IDX 48 88 56 89 49 90 55 91 57 92 54 93 50 94 51 95 52 96 53 97
REMARK H PARENT 84 14 91 23 77 50 45 61
REMARK Flexibility Score: inf
ROOT
ATOM      1  C   UNL     1      -1.657  -2.595  -0.162  1.00  0.00     0.188 C 
ENDROOT
BRANCH   1   2
ATOM      2  C   UNL     1      -1.533  -4.117  -0.102  1.00  0.00     0.188 C 
BRANCH   2   3
ATOM      3  O   UNL     1      -1.325  -4.765   1.137  1.00  0.00    -0.376 OA
BRANCH   3   4
ATOM      4  C   UNL     1      -0.274  -4.344   2.000  1.00  0.00     0.202 C 
BRANCH   4   5
ATOM      5  C   UNL     1       1.106  -3.956   1.438  1.00  0.00     0.261 C 
BRANCH   5   6
ATOM      6  O   UNL     1       1.134  -2.734   0.656  1.00  0.00    -0.463 OA
BRANCH   6   7
ATOM      7  C   UNL     1       1.652  -2.816  -0.585  1.00  0.00     0.307 C 
ATOM      8  O   UNL     1       2.132  -3.848  -1.055  1.00  0.00    -0.252 OA
BRANCH   7   9
ATOM      9  C   UNL     1       1.576  -1.569  -1.457  1.00  0.00     0.147 C 
BRANCH   9  10
ATOM     10  C   UNL     1       1.070  -0.170  -1.049  1.00  0.00     0.090 C 
ATOM     11  C   UNL     1       1.540   0.313   0.315  1.00  0.00     0.031 C 
BRANCH  10  12
ATOM     12  N   UNL     1      -0.381   0.000  -1.181  1.00  0.00    -0.349 N 
ATOM     13  C   UNL     1      -1.164   0.479  -2.204  1.00  0.00     0.251 C 
ATOM     14  H   UNL     1      -0.890  -0.282  -0.387  1.00  0.00     0.164 HD
ATOM     15  O   UNL     1      -2.389   0.448  -2.120  1.00  0.00    -0.269 OA
BRANCH  13  16
ATOM     16  C   UNL     1      -0.562   1.115  -3.393  1.00  0.00     0.040 A 
ATOM     17  C   UNL     1      -0.975   2.415  -3.713  1.00  0.00     0.017 A 
ATOM     18  C   UNL     1       0.360   0.455  -4.210  1.00  0.00     0.017 A 
ATOM     19  C   UNL     1      -0.392   3.087  -4.787  1.00  0.00     0.047 A 
ATOM     20  C   UNL     1       0.954   1.134  -5.276  1.00  0.00     0.047 A 
ATOM     21  C   UNL     1       0.591   2.453  -5.538  1.00  0.00     0.115 A 
BRANCH  21  22
ATOM     22  O   UNL     1       1.190   3.166  -6.534  1.00  0.00    -0.508 OA
ATOM     23  H   UNL     1       0.932   4.052  -6.695  1.00  0.00     0.293 HD
ENDBRANCH  21  22
ENDBRANCH  13  16
ENDBRANCH  10  12
ENDBRANCH   9  10
ENDBRANCH   7   9
ENDBRANCH   6   7
ENDBRANCH   5   6
ENDBRANCH   4   5
ENDBRANCH   3   4
ENDBRANCH   2   3
ENDBRANCH   1   2
BRANCH   1  24
ATOM     24  O   UNL     1      -1.258  -1.861   0.983  1.00  0.00    -0.377 OA
BRANCH  24  25
ATOM     25  C   UNL     1      -2.202  -1.598   2.018  1.00  0.00     0.188 C 
BRANCH  25  26
ATOM     26  C   UNL     1      -3.537  -2.350   2.018  1.00  0.00     0.188 C 
BRANCH  26  27
ATOM     27  O   UNL     1      -4.189  -2.319   0.760  1.00  0.00    -0.376 OA
BRANCH  27  28
ATOM     28  C   UNL     1      -5.105  -1.275   0.469  1.00  0.00     0.202 C 
BRANCH  28  29
ATOM     29  C   UNL     1      -4.671   0.200   0.560  1.00  0.00     0.261 C 
BRANCH  29  30
ATOM     30  O   UNL     1      -4.140   0.675   1.807  1.00  0.00    -0.460 OA
BRANCH  30  31
ATOM     31  C   UNL     1      -4.878   0.517   2.920  1.00  0.00     0.338 C 
ATOM     32  O   UNL     1      -6.000   0.039   2.990  1.00  0.00    -0.246 OA
BRANCH  31  33
ATOM     33  C   UNL     1      -4.023   0.834   4.083  1.00  0.00     0.060 A 
ATOM     34  C   UNL     1      -3.860  -0.137   5.078  1.00  0.00     0.016 A 
ATOM     35  C   UNL     1      -3.421   2.089   4.217  1.00  0.00     0.016 A 
ATOM     36  C   UNL     1      -3.164   0.171   6.246  1.00  0.00     0.010 A 
ATOM     37  C   UNL     1      -2.732   2.400   5.395  1.00  0.00     0.010 A 
ATOM     38  C   UNL     1      -2.651   1.460   6.439  1.00  0.00    -0.014 A 
BRANCH  38  39
ATOM     39  C   UNL     1      -2.255   1.877   7.809  1.00  0.00     0.031 A 
ATOM     40  C   UNL     1      -3.241   2.678   8.623  1.00  0.00     0.074 A 
ATOM     41  C   UNL     1      -1.086   1.491   8.352  1.00  0.00     0.049 A 
ATOM     42  N   UNL     1      -3.138   3.139   9.842  1.00  0.00    -0.248 NA
ATOM     43  C   UNL     1      -4.516   3.004   7.964  1.00  0.00     0.031 C 
ATOM     44  C   UNL     1      -0.075   0.673   7.684  1.00  0.00     0.029 A 
ATOM     45  N   UNL     1      -0.557   1.731   9.596  1.00  0.00    -0.354 N 
ATOM     46  C   UNL     1      -4.331   3.809  10.097  1.00  0.00     0.074 A 
ATOM     47  C   UNL     1      -5.119   3.736   8.886  1.00  0.00     0.031 C 
ATOM     48  C   UNL     1       0.953   0.477   8.528  1.00  0.00     0.029 A 
ATOM     49  C   UNL     1       0.691   1.183   9.781  1.00  0.00     0.049 A 
ATOM     50  H   UNL     1      -1.027   2.247  10.291  1.00  0.00     0.167 HD
ATOM     51  C   UNL     1      -4.740   4.415  11.239  1.00  0.00     0.034 A 
ATOM     52  C   UNL     1       1.531   1.260  10.835  1.00  0.00     0.034 A 
ATOM     53  C   UNL     1      -3.937   4.488  12.436  1.00  0.00     0.049 A 
ATOM     54  C   UNL     1       1.090   2.017  12.068  1.00  0.00     0.074 A 
ATOM     55  C   UNL     1      -4.252   5.072  13.650  1.00  0.00     0.029 A 
ATOM     56  N   UNL     1      -2.654   3.971  12.567  1.00  0.00    -0.354 N 
ATOM     57  N   UNL     1      -0.044   2.639  12.298  1.00  0.00    -0.248 NA
ATOM     58  C   UNL     1       2.039   2.065  13.187  1.00  0.00     0.031 C 
ATOM     59  C   UNL     1      -3.132   4.984  14.483  1.00  0.00     0.029 A 
ATOM     60  C   UNL     1      -2.152   4.256  13.828  1.00  0.00     0.049 A 
ATOM     61  H   UNL     1      -2.172   3.476  11.866  1.00  0.00     0.167 HD
ATOM     62  C   UNL     1       0.044   3.119  13.604  1.00  0.00     0.074 A 
ATOM     63  C   UNL     1       1.332   2.696  14.112  1.00  0.00     0.031 C 
ATOM     64  C   UNL     1      -0.859   3.839  14.321  1.00  0.00     0.034 A 
BRANCH  51  65
ATOM     65  C   UNL     1      -6.090   5.094  11.221  1.00  0.00     0.023 A 
ATOM     66  C   UNL     1      -7.282   4.377  11.013  1.00  0.00     0.031 A 
ATOM     67  C   UNL     1      -6.184   6.488  11.380  1.00  0.00     0.131 A 
ATOM     68  C   UNL     1      -8.501   5.062  10.896  1.00  0.00     0.055 A 
ATOM     69  C   UNL     1      -7.411   7.154  11.350  1.00  0.00     0.041 A 
ATOM     70  F   UNL     1      -5.080   7.232  11.553  1.00  0.00    -0.206 F 
ATOM     71  C   UNL     1      -8.578   6.442  11.091  1.00  0.00     0.022 A 
BRANCH  68  72
ATOM     72  S   UNL     1      -9.961   4.145  10.330  1.00  0.00     0.124 S 
ATOM     73  O   UNL     1      -9.504   3.630   9.041  1.00  0.00    -0.237 OA
ATOM     74  O   UNL     1     -10.142   3.156  11.386  1.00  0.00    -0.237 OA
ATOM     75  O   UNL     1     -11.000   5.170  10.250  1.00  0.00    -0.744 OA
ENDBRANCH  68  72
ENDBRANCH  51  65
BRANCH  52  76
ATOM     76  C   UNL     1       2.887   0.637  10.773  1.00  0.00     0.023 A 
ATOM     77  C   UNL     1       3.269  -0.377  11.666  1.00  0.00     0.031 A 
ATOM     78  C   UNL     1       3.849   1.101   9.856  1.00  0.00     0.131 A 
ATOM     79  C   UNL     1       4.589  -0.856  11.660  1.00  0.00     0.055 A 
ATOM     80  C   UNL     1       5.142   0.578   9.813  1.00  0.00     0.041 A 
ATOM     81  F   UNL     1       3.542   2.073   8.982  1.00  0.00    -0.206 F 
ATOM     82  C   UNL     1       5.523  -0.397  10.729  1.00  0.00     0.022 A 
BRANCH  79  83
ATOM     83  S   UNL     1       5.099  -2.018  12.957  1.00  0.00     0.124 S 
ATOM     84  O   UNL     1       4.816  -1.255  14.166  1.00  0.00    -0.237 OA
ATOM     85  O   UNL     1       4.228  -3.159  12.699  1.00  0.00    -0.237 OA
ATOM     86  O   UNL     1       6.515  -2.242  12.674  1.00  0.00    -0.744 OA
ENDBRANCH  79  83
ENDBRANCH  52  76
BRANCH  64  87
ATOM     87  C   UNL     1      -0.500   4.164  15.755  1.00  0.00     0.023 A 
ATOM     88  C   UNL     1       0.604   4.970  16.082  1.00  0.00     0.031 A 
ATOM     89  C   UNL     1      -1.259   3.630  16.812  1.00  0.00     0.131 A 
ATOM     90  C   UNL     1       0.966   5.152  17.426  1.00  0.00     0.055 A 
ATOM     91  C   UNL     1      -0.943   3.881  18.148  1.00  0.00     0.041 A 
ATOM     92  F   UNL     1      -2.324   2.850  16.565  1.00  0.00    -0.206 F 
ATOM     93  C   UNL     1       0.188   4.629  18.461  1.00  0.00     0.022 A 
BRANCH  90  94
ATOM     94  S   UNL     1       2.545   5.963  17.799  1.00  0.00     0.124 S 
ATOM     95  O   UNL     1       3.491   5.139  17.053  1.00  0.00    -0.237 OA
ATOM     96  O   UNL     1       2.332   7.312  17.285  1.00  0.00    -0.237 OA
ATOM     97  O   UNL     1       2.647   5.862  19.253  1.00  0.00    -0.744 OA
ENDBRANCH  90  94
ENDBRANCH  64  87
ENDBRANCH  38  39
ENDBRANCH  31  33
ENDBRANCH  30  31
ENDBRANCH  29  30
ENDBRANCH  28  29
ENDBRANCH  27  28
ENDBRANCH  26  27
ENDBRANCH  25  26
ENDBRANCH  24  25
ENDBRANCH   1  24
TORSDOF 27
