REMARK SMILES C[C@H]1C[C@]([NH2+]C2CCCCCC2)(C(=O)OCCOCCOCCOCCOC(=O)c2ccc(-c3c4nc(c(-c5cc(S(=O)(=O)[O-])ccc5F)c5ccc([nH]5)c(-c5cc(S(=O)(=O)[O-])ccc5F)c5nc(c(-c6cc(S(=O)(=O)[O-])ccc6F)c6ccc3[nH]6)C=C5)C=C4)cc2)CS1
REMARK SMILES IDX 20 1 19 2 18 3 17 4 16 5 15 6 13 7 14 8 4 9 1 10 2 11 3 12
REMARK SMILES IDX 94 13 93 14 5 15 6 18 7 19 8 20 9 21 12 23 11 24 10 25 21 27
REMARK SMILES IDX 22 28 23 29 24 30 25 31 26 32 27 33 28 34 29 35 30 36 31 37
REMARK SMILES IDX 92 38 32 39 91 40 33 41 34 42 35 43 85 44 36 45 90 46 84 47
REMARK SMILES IDX 86 48 37 49 89 50 83 51 82 52 38 54 70 55 50 56 69 57 51 58
REMARK SMILES IDX 54 59 68 60 87 61 52 62 53 63 67 65 88 66 55 67 39 68 40 69
REMARK SMILES IDX 48 70 41 71 47 72 49 73 46 74 42 75 43 76 44 77 45 78 71 79
REMARK SMILES IDX 72 80 80 81 73 82 79 83 81 84 78 85 74 86 75 87 76 88 77 89
REMARK SMILES IDX 56 90 57 91 65 92 58 93 64 94 66 95 63 96 59 97 60 98 61 99
REMARK SMILES IDX 62 100
REMARK H PARENT 5 16 5 17 86 53 54 64
REMARK Flexibility Score: 90.00
ROOT
ATOM      1  C   UNL     1      -2.454   4.734  -2.569  1.00  0.00     0.188 C 
ENDROOT
BRANCH   1   2
ATOM      2  C   UNL     1      -3.062   4.437  -1.190  1.00  0.00     0.188 C 
BRANCH   2   3
ATOM      3  O   UNL     1      -3.115   5.584  -0.357  1.00  0.00    -0.376 OA
BRANCH   3   4
ATOM      4  C   UNL     1      -2.062   5.763   0.576  1.00  0.00     0.202 C 
BRANCH   4   5
ATOM      5  C   UNL     1      -0.580   5.696   0.142  1.00  0.00     0.261 C 
BRANCH   5   6
ATOM      6  O   UNL     1      -0.199   4.694  -0.825  1.00  0.00    -0.459 OA
BRANCH   6   7
ATOM      7  C   UNL     1       0.008   3.426  -0.394  1.00  0.00     0.369 C 
ATOM      8  O   UNL     1      -0.085   3.100   0.786  1.00  0.00    -0.245 OA
BRANCH   7   9
ATOM      9  C   UNL     1       0.293   2.397  -1.570  1.00  0.00     0.204 C 
ATOM     10  C   UNL     1       1.833  -0.690  -2.266  1.00  0.00     0.019 C 
ATOM     11  C   UNL     1       1.278   0.095  -1.087  1.00  0.00     0.050 C 
ATOM     12  C   UNL     1       1.538   1.599  -1.134  1.00  0.00     0.096 C 
ATOM     13  S   UNL     1      -0.504  -0.158  -0.955  1.00  0.00    -0.151 SA
ATOM     14  C   UNL     1      -0.964   1.491  -1.538  1.00  0.00     0.150 C 
BRANCH   9  15
ATOM     15  N   UNL     1       0.469   3.109  -2.885  1.00  0.00    -0.329 N 
ATOM     16  H   UNL     1       1.077   3.907  -2.700  1.00  0.00     0.347 HD
ATOM     17  H   UNL     1      -0.495   3.281  -3.170  1.00  0.00     0.347 HD
BRANCH  15  18
ATOM     18  C   UNL     1       1.029   2.427  -4.071  1.00  0.00     0.183 C 
BRANCH  18  19
ATOM     19  C   UNL     1       0.162   1.299  -4.652  1.00  0.00     0.065 C 
BRANCH  19  20
ATOM     20  C   UNL     1      -0.964   1.743  -5.585  1.00  0.00     0.006 C 
BRANCH  20  21
ATOM     21  C   UNL     1      -0.528   1.643  -7.044  1.00  0.00     0.000 CG0
ATOM     22  G   UNL     1       0.532   2.653  -7.480  1.00  0.00     0.000 G0
ENDBRANCH  20  21
ENDBRANCH  19  20
ENDBRANCH  18  19
BRANCH  18  23
ATOM     23  C   UNL     1       1.353   3.479  -5.171  1.00  0.00     0.065 C 
BRANCH  23  24
ATOM     24  C   UNL     1       1.724   2.872  -6.538  1.00  0.00     0.006 C 
BRANCH  24  25
ATOM     25  C   UNL     1       0.532   2.653  -7.480  1.00  0.00     0.000 CG0
ATOM     26  G   UNL     1      -0.528   1.643  -7.044  1.00  0.00     0.000 G0
ENDBRANCH  24  25
ENDBRANCH  23  24
ENDBRANCH  18  23
ENDBRANCH  15  18
ENDBRANCH   9  15
ENDBRANCH   7   9
ENDBRANCH   6   7
ENDBRANCH   5   6
ENDBRANCH   4   5
ENDBRANCH   3   4
ENDBRANCH   2   3
ENDBRANCH   1   2
BRANCH   1  27
ATOM     27  O   UNL     1      -1.846   6.007  -2.679  1.00  0.00    -0.377 OA
BRANCH  27  28
ATOM     28  C   UNL     1      -2.693   7.154  -2.707  1.00  0.00     0.188 C 
BRANCH  28  29
ATOM     29  C   UNL     1      -4.230   7.045  -2.526  1.00  0.00     0.188 C 
BRANCH  29  30
ATOM     30  O   UNL     1      -4.819   5.839  -2.992  1.00  0.00    -0.376 OA
BRANCH  30  31
ATOM     31  C   UNL     1      -5.443   5.833  -4.265  1.00  0.00     0.202 C 
BRANCH  31  32
ATOM     32  C   UNL     1      -4.550   6.069  -5.492  1.00  0.00     0.261 C 
BRANCH  32  33
ATOM     33  O   UNL     1      -3.819   7.303  -5.518  1.00  0.00    -0.460 OA
BRANCH  33  34
ATOM     34  C   UNL     1      -4.527   8.450  -5.430  1.00  0.00     0.338 C 
ATOM     35  O   UNL     1      -5.741   8.559  -5.390  1.00  0.00    -0.246 OA
BRANCH  34  36
ATOM     36  C   UNL     1      -3.569   9.544  -5.167  1.00  0.00     0.060 A 
ATOM     37  C   UNL     1      -3.719  10.316  -4.006  1.00  0.00     0.016 A 
ATOM     38  C   UNL     1      -2.511   9.784  -6.047  1.00  0.00     0.016 A 
ATOM     39  C   UNL     1      -2.835  11.361  -3.746  1.00  0.00     0.010 A 
ATOM     40  C   UNL     1      -1.645  10.851  -5.801  1.00  0.00     0.010 A 
ATOM     41  C   UNL     1      -1.831  11.669  -4.672  1.00  0.00    -0.014 A 
BRANCH  41  42
ATOM     42  C   UNL     1      -1.169  12.994  -4.608  1.00  0.00     0.031 A 
ATOM     43  C   UNL     1      -1.742  14.096  -5.459  1.00  0.00     0.074 A 
ATOM     44  C   UNL     1      -0.121  13.229  -3.800  1.00  0.00     0.049 A 
ATOM     45  N   UNL     1      -1.320  15.319  -5.636  1.00  0.00    -0.248 NA
ATOM     46  C   UNL     1      -2.959  13.761  -6.218  1.00  0.00     0.031 C 
ATOM     47  C   UNL     1       0.475  12.260  -2.883  1.00  0.00     0.029 A 
ATOM     48  N   UNL     1       0.629  14.365  -3.625  1.00  0.00    -0.354 N 
ATOM     49  C   UNL     1      -2.217  15.900  -6.527  1.00  0.00     0.074 A 
ATOM     50  C   UNL     1      -3.177  14.880  -6.888  1.00  0.00     0.031 C 
ATOM     51  C   UNL     1       1.508  12.843  -2.247  1.00  0.00     0.029 A 
ATOM     52  C   UNL     1       1.672  14.209  -2.743  1.00  0.00     0.049 A 
ATOM     53  H   UNL     1       0.438  15.212  -4.088  1.00  0.00     0.167 HD
ATOM     54  C   UNL     1      -2.245  17.172  -6.993  1.00  0.00     0.034 A 
ATOM     55  C   UNL     1       2.657  15.065  -2.401  1.00  0.00     0.034 A 
ATOM     56  C   UNL     1      -1.268  18.171  -6.637  1.00  0.00     0.049 A 
ATOM     57  C   UNL     1       2.674  16.446  -3.021  1.00  0.00     0.074 A 
ATOM     58  C   UNL     1      -1.189  19.486  -7.056  1.00  0.00     0.029 A 
ATOM     59  N   UNL     1      -0.192  17.959  -5.784  1.00  0.00    -0.354 N 
ATOM     60  N   UNL     1       1.828  16.983  -3.872  1.00  0.00    -0.248 NA
ATOM     61  C   UNL     1       3.774  17.337  -2.628  1.00  0.00     0.031 C 
ATOM     62  C   UNL     1      -0.025  20.046  -6.521  1.00  0.00     0.029 A 
ATOM     63  C   UNL     1       0.573  19.111  -5.691  1.00  0.00     0.049 A 
ATOM     64  H   UNL     1      -0.001  17.115  -5.315  1.00  0.00     0.167 HD
ATOM     65  C   UNL     1       2.273  18.289  -4.078  1.00  0.00     0.074 A 
ATOM     66  C   UNL     1       3.454  18.457  -3.257  1.00  0.00     0.031 C 
ATOM     67  C   UNL     1       1.750  19.264  -4.866  1.00  0.00     0.034 A 
BRANCH  54  68
ATOM     68  C   UNL     1      -3.332  17.524  -7.979  1.00  0.00     0.023 A 
ATOM     69  C   UNL     1      -4.693  17.478  -7.628  1.00  0.00     0.031 A 
ATOM     70  C   UNL     1      -3.005  17.869  -9.302  1.00  0.00     0.131 A 
ATOM     71  C   UNL     1      -5.675  17.699  -8.605  1.00  0.00     0.055 A 
ATOM     72  C   UNL     1      -3.985  18.173 -10.247  1.00  0.00     0.041 A 
ATOM     73  F   UNL     1      -1.724  17.899  -9.704  1.00  0.00    -0.206 F 
ATOM     74  C   UNL     1      -5.330  18.075  -9.906  1.00  0.00     0.022 A 
BRANCH  71  75
ATOM     75  S   UNL     1      -7.404  17.338  -8.193  1.00  0.00     0.124 S 
ATOM     76  O   UNL     1      -7.331  15.926  -7.826  1.00  0.00    -0.237 OA
ATOM     77  O   UNL     1      -7.670  18.269  -7.103  1.00  0.00    -0.237 OA
ATOM     78  O   UNL     1      -8.118  17.614  -9.438  1.00  0.00    -0.744 OA
ENDBRANCH  71  75
ENDBRANCH  54  68
BRANCH  55  79
ATOM     79  C   UNL     1       3.739  14.648  -1.459  1.00  0.00     0.023 A 
ATOM     80  C   UNL     1       3.943  15.321  -0.244  1.00  0.00     0.031 A 
ATOM     81  C   UNL     1       4.635  13.619  -1.798  1.00  0.00     0.131 A 
ATOM     82  C   UNL     1       5.048  14.997   0.560  1.00  0.00     0.055 A 
ATOM     83  C   UNL     1       5.696  13.258  -0.966  1.00  0.00     0.041 A 
ATOM     84  F   UNL     1       4.494  12.946  -2.951  1.00  0.00    -0.206 F 
ATOM     85  C   UNL     1       5.917  13.960   0.215  1.00  0.00     0.022 A 
BRANCH  82  86
ATOM     86  S   UNL     1       5.398  16.026   2.012  1.00  0.00     0.124 S 
ATOM     87  O   UNL     1       5.542  17.347   1.411  1.00  0.00    -0.237 OA
ATOM     88  O   UNL     1       4.205  15.817   2.825  1.00  0.00    -0.237 OA
ATOM     89  O   UNL     1       6.627  15.447   2.551  1.00  0.00    -0.744 OA
ENDBRANCH  82  86
ENDBRANCH  55  79
BRANCH  67  90
ATOM     90  C   UNL     1       2.412  20.622  -4.824  1.00  0.00     0.023 A 
ATOM     91  C   UNL     1       3.722  20.829  -5.288  1.00  0.00     0.031 A 
ATOM     92  C   UNL     1       1.712  21.728  -4.308  1.00  0.00     0.131 A 
ATOM     93  C   UNL     1       4.311  22.098  -5.173  1.00  0.00     0.055 A 
ATOM     94  C   UNL     1       2.278  23.002  -4.260  1.00  0.00     0.041 A 
ATOM     95  F   UNL     1       0.458  21.590  -3.848  1.00  0.00    -0.206 F 
ATOM     96  C   UNL     1       3.591  23.190  -4.680  1.00  0.00     0.022 A 
BRANCH  93  97
ATOM     97  S   UNL     1       6.070  22.283  -5.579  1.00  0.00     0.124 S 
ATOM     98  O   UNL     1       6.692  21.315  -4.681  1.00  0.00    -0.237 OA
ATOM     99  O   UNL     1       6.099  21.946  -6.999  1.00  0.00    -0.237 OA
ATOM    100  O   UNL     1       6.348  23.684  -5.269  1.00  0.00    -0.744 OA
ENDBRANCH  93  97
ENDBRANCH  67  90
ENDBRANCH  41  42
ENDBRANCH  34  36
ENDBRANCH  33  34
ENDBRANCH  32  33
ENDBRANCH  31  32
ENDBRANCH  30  31
ENDBRANCH  29  30
ENDBRANCH  28  29
ENDBRANCH  27  28
ENDBRANCH   1  27
TORSDOF 25
