REMARK SMILES COc1ccc(-n2ccnc2C[N@@H+]2Cc3[nH]cnc3C[C@@H]2C(=O)OCCOCCOCCOCCOC(=O)c2ccc(-c3c4nc(c(-c5cc(S(=O)(=O)[O-])ccc5F)c5ccc([nH]5)c(-c5cc(S(=O)(=O)[O-])ccc5F)c5nc(c(-c6cc(S(=O)(=O)[O-])ccc6F)c6ccc3[nH]6)C=C5)C=C4)cc2)cc1
REMARK SMILES IDX 29 1 28 2 27 3 26 4 25 5 24 6 22 7 23 8 21 9 13 10 14 11
REMARK SMILES IDX 15 13 20 14 16 15 19 16 17 17 18 19 12 20 11 21 7 22 8 23
REMARK SMILES IDX 9 24 10 25 6 26 3 27 4 28 103 29 5 30 102 31 2 32 1 33 30 34
REMARK SMILES IDX 31 35 32 36 33 37 34 38 35 39 36 40 37 41 38 42 39 43 40 44
REMARK SMILES IDX 101 45 41 46 100 47 42 48 43 49 44 50 94 51 45 52 99 53
REMARK SMILES IDX 93 54 95 55 46 56 98 57 92 58 91 59 47 61 79 62 59 63 78 64
REMARK SMILES IDX 60 65 63 66 77 67 96 68 61 69 62 70 76 72 97 73 64 74 48 75
REMARK SMILES IDX 49 76 57 77 50 78 56 79 58 80 55 81 51 82 52 83 53 84 54 85
REMARK SMILES IDX 80 86 81 87 89 88 82 89 88 90 90 91 87 92 83 93 84 94 85 95
REMARK SMILES IDX 86 96 65 97 66 98 74 99 67 100 73 101 75 102 72 103 68 104
REMARK SMILES IDX 69 105 70 106 71 107
REMARK H PARENT 13 12 16 18 95 60 63 71
REMARK Flexibility Score: inf
ROOT
ATOM      1  C   UNL     1       0.574   9.329  -4.034  1.00  0.00     0.188 C 
ENDROOT
BRANCH   1   2
ATOM      2  C   UNL     1      -0.318   8.491  -4.973  1.00  0.00     0.188 C 
BRANCH   2   3
ATOM      3  O   UNL     1      -1.610   9.027  -5.199  1.00  0.00    -0.376 OA
BRANCH   3   4
ATOM      4  C   UNL     1      -2.712   8.246  -4.783  1.00  0.00     0.202 C 
BRANCH   4   5
ATOM      5  C   UNL     1      -2.788   8.038  -3.272  1.00  0.00     0.261 C 
BRANCH   5   6
ATOM      6  O   UNL     1      -1.679   7.324  -2.710  1.00  0.00    -0.459 OA
BRANCH   6   7
ATOM      7  C   UNL     1      -1.429   6.032  -3.080  1.00  0.00     0.365 C 
ATOM      8  O   UNL     1      -2.127   5.348  -3.812  1.00  0.00    -0.245 OA
BRANCH   7   9
ATOM      9  C   UNL     1      -0.102   5.631  -2.458  1.00  0.00     0.301 C 
ATOM     10  N   UNL     1       1.130   5.903  -3.292  1.00  0.00    -0.312 N 
ATOM     11  C   UNL     1       2.357   5.859  -2.464  1.00  0.00     0.320 C 
ATOM     12  H   UNL     1       1.140   6.872  -3.610  1.00  0.00     0.349 HD
ATOM     13  C   UNL     1       2.108   5.128  -1.166  1.00  0.00     0.093 A 
ATOM     14  C   UNL     1      -0.072   4.207  -1.880  1.00  0.00     0.136 C 
ATOM     15  N   UNL     1       2.514   5.511   0.089  1.00  0.00    -0.344 N 
ATOM     16  C   UNL     1       1.052   4.266  -0.915  1.00  0.00     0.074 A 
ATOM     17  C   UNL     1       1.777   4.788   0.996  1.00  0.00     0.197 A 
ATOM     18  H   UNL     1       3.205   6.180   0.299  1.00  0.00     0.167 HD
ATOM     19  N   UNL     1       0.915   3.987   0.411  1.00  0.00    -0.241 NA
BRANCH  10  20
ATOM     20  C   UNL     1       1.100   5.255  -4.621  1.00  0.00     0.340 C 
BRANCH  20  21
ATOM     21  C   UNL     1       2.298   4.613  -5.260  1.00  0.00     0.168 A 
ATOM     22  N   UNL     1       2.558   3.248  -5.301  1.00  0.00    -0.299 N 
ATOM     23  C   UNL     1       3.611   3.065  -6.169  1.00  0.00     0.113 A 
ATOM     24  C   UNL     1       3.953   4.314  -6.613  1.00  0.00     0.132 A 
ATOM     25  N   UNL     1       3.167   5.264  -6.022  1.00  0.00    -0.236 NA
BRANCH  22  26
ATOM     26  C   UNL     1       2.004   2.222  -4.511  1.00  0.00     0.047 A 
ATOM     27  C   UNL     1       0.971   0.456  -2.632  1.00  0.00     0.119 A 
ATOM     28  C   UNL     1       0.124   1.038  -3.579  1.00  0.00     0.048 A 
ATOM     29  C   UNL     1       2.349   0.657  -2.711  1.00  0.00     0.048 A 
ATOM     30  C   UNL     1       0.637   1.938  -4.522  1.00  0.00     0.030 A 
ATOM     31  C   UNL     1       2.871   1.535  -3.656  1.00  0.00     0.030 A 
BRANCH  27  32
ATOM     32  O   UNL     1       0.399  -0.330  -1.669  1.00  0.00    -0.497 OA
ATOM     33  C   UNL     1       0.809   0.041  -0.348  1.00  0.00     0.278 C 
ENDBRANCH  27  32
ENDBRANCH  22  26
ENDBRANCH  20  21
ENDBRANCH  10  20
ENDBRANCH   7   9
ENDBRANCH   6   7
ENDBRANCH   5   6
ENDBRANCH   4   5
ENDBRANCH   3   4
ENDBRANCH   2   3
ENDBRANCH   1   2
BRANCH   1  34
ATOM     34  O   UNL     1       0.256  10.685  -3.731  1.00  0.00    -0.377 OA
BRANCH  34  35
ATOM     35  C   UNL     1      -0.593  11.417  -4.606  1.00  0.00     0.188 C 
BRANCH  35  36
ATOM     36  C   UNL     1      -0.338  11.372  -6.138  1.00  0.00     0.188 C 
BRANCH  36  37
ATOM     37  O   UNL     1       0.543  10.348  -6.572  1.00  0.00    -0.376 OA
BRANCH  37  38
ATOM     38  C   UNL     1       1.829  10.586  -7.114  1.00  0.00     0.202 C 
BRANCH  38  39
ATOM     39  C   UNL     1       2.899  11.215  -6.226  1.00  0.00     0.261 C 
BRANCH  39  40
ATOM     40  O   UNL     1       2.377  12.173  -5.336  1.00  0.00    -0.460 OA
BRANCH  40  41
ATOM     41  C   UNL     1       1.889  13.270  -5.938  1.00  0.00     0.338 C 
ATOM     42  O   UNL     1       1.842  13.490  -7.143  1.00  0.00    -0.246 OA
BRANCH  41  43
ATOM     43  C   UNL     1       1.422  14.190  -4.896  1.00  0.00     0.060 A 
ATOM     44  C   UNL     1       0.989  15.421  -5.382  1.00  0.00     0.016 A 
ATOM     45  C   UNL     1       1.966  14.014  -3.617  1.00  0.00     0.016 A 
ATOM     46  C   UNL     1       1.546  16.524  -4.799  1.00  0.00     0.010 A 
ATOM     47  C   UNL     1       2.555  15.107  -3.059  1.00  0.00     0.010 A 
ATOM     48  C   UNL     1       2.442  16.310  -3.751  1.00  0.00    -0.014 A 
BRANCH  48  49
ATOM     49  C   UNL     1       3.335  17.379  -3.406  1.00  0.00     0.031 A 
ATOM     50  C   UNL     1       2.718  18.325  -2.471  1.00  0.00     0.074 A 
ATOM     51  C   UNL     1       4.603  17.398  -3.850  1.00  0.00     0.049 A 
ATOM     52  N   UNL     1       2.274  19.502  -2.746  1.00  0.00    -0.248 NA
ATOM     53  C   UNL     1       2.301  17.809  -1.158  1.00  0.00     0.031 C 
ATOM     54  C   UNL     1       5.349  16.363  -4.570  1.00  0.00     0.029 A 
ATOM     55  N   UNL     1       5.540  18.346  -3.633  1.00  0.00    -0.354 N 
ATOM     56  C   UNL     1       1.727  19.964  -1.561  1.00  0.00     0.074 A 
ATOM     57  C   UNL     1       1.523  18.804  -0.739  1.00  0.00     0.031 C 
ATOM     58  C   UNL     1       6.672  16.643  -4.495  1.00  0.00     0.029 A 
ATOM     59  C   UNL     1       6.846  17.921  -3.820  1.00  0.00     0.049 A 
ATOM     60  H   UNL     1       5.314  19.266  -3.363  1.00  0.00     0.167 HD
ATOM     61  C   UNL     1       1.742  21.285  -1.250  1.00  0.00     0.034 A 
ATOM     62  C   UNL     1       7.952  18.535  -3.319  1.00  0.00     0.034 A 
ATOM     63  C   UNL     1       2.066  22.082  -2.413  1.00  0.00     0.049 A 
ATOM     64  C   UNL     1       7.550  19.946  -3.028  1.00  0.00     0.074 A 
ATOM     65  C   UNL     1       1.463  22.263  -3.643  1.00  0.00     0.029 A 
ATOM     66  N   UNL     1       3.374  22.494  -2.569  1.00  0.00    -0.354 N 
ATOM     67  N   UNL     1       7.197  20.790  -3.966  1.00  0.00    -0.248 NA
ATOM     68  C   UNL     1       7.010  20.254  -1.706  1.00  0.00     0.031 C 
ATOM     69  C   UNL     1       2.539  22.305  -4.577  1.00  0.00     0.029 A 
ATOM     70  C   UNL     1       3.742  22.237  -3.870  1.00  0.00     0.049 A 
ATOM     71  H   UNL     1       3.942  22.900  -1.874  1.00  0.00     0.167 HD
ATOM     72  C   UNL     1       6.082  21.455  -3.469  1.00  0.00     0.074 A 
ATOM     73  C   UNL     1       6.069  21.149  -2.038  1.00  0.00     0.031 C 
ATOM     74  C   UNL     1       5.098  21.924  -4.298  1.00  0.00     0.034 A 
BRANCH  61  75
ATOM     75  C   UNL     1       1.804  21.827   0.154  1.00  0.00     0.023 A 
ATOM     76  C   UNL     1       1.737  23.222   0.299  1.00  0.00     0.031 A 
ATOM     77  C   UNL     1       2.169  21.103   1.314  1.00  0.00     0.131 A 
ATOM     78  C   UNL     1       2.100  23.837   1.507  1.00  0.00     0.055 A 
ATOM     79  C   UNL     1       2.456  21.714   2.534  1.00  0.00     0.041 A 
ATOM     80  F   UNL     1       2.370  19.780   1.320  1.00  0.00    -0.206 F 
ATOM     81  C   UNL     1       2.454  23.093   2.629  1.00  0.00     0.022 A 
BRANCH  78  82
ATOM     82  S   UNL     1       2.274  25.636   1.530  1.00  0.00     0.124 S 
ATOM     83  O   UNL     1       3.145  25.867   0.382  1.00  0.00    -0.237 OA
ATOM     84  O   UNL     1       0.889  26.071   1.387  1.00  0.00    -0.237 OA
ATOM     85  O   UNL     1       2.881  25.898   2.833  1.00  0.00    -0.744 OA
ENDBRANCH  78  82
ENDBRANCH  61  75
BRANCH  62  86
ATOM     86  C   UNL     1       9.133  17.835  -2.728  1.00  0.00     0.023 A 
ATOM     87  C   UNL     1      10.388  18.451  -2.534  1.00  0.00     0.031 A 
ATOM     88  C   UNL     1       8.975  16.549  -2.154  1.00  0.00     0.131 A 
ATOM     89  C   UNL     1      11.414  17.776  -1.822  1.00  0.00     0.055 A 
ATOM     90  C   UNL     1       9.993  15.883  -1.468  1.00  0.00     0.041 A 
ATOM     91  F   UNL     1       7.791  15.917  -2.167  1.00  0.00    -0.206 F 
ATOM     92  C   UNL     1      11.219  16.497  -1.294  1.00  0.00     0.022 A 
BRANCH  89  93
ATOM     93  S   UNL     1      13.011  18.591  -1.490  1.00  0.00     0.124 S 
ATOM     94  O   UNL     1      13.608  18.658  -2.818  1.00  0.00    -0.237 OA
ATOM     95  O   UNL     1      12.599  19.859  -0.898  1.00  0.00    -0.237 OA
ATOM     96  O   UNL     1      13.678  17.675  -0.563  1.00  0.00    -0.744 OA
ENDBRANCH  89  93
ENDBRANCH  62  86
BRANCH  74  97
ATOM     97  C   UNL     1       5.341  21.908  -5.799  1.00  0.00     0.023 A 
ATOM     98  C   UNL     1       5.623  20.746  -6.556  1.00  0.00     0.031 A 
ATOM     99  C   UNL     1       5.104  23.099  -6.507  1.00  0.00     0.131 A 
ATOM    100  C   UNL     1       5.660  20.811  -7.965  1.00  0.00     0.055 A 
ATOM    101  C   UNL     1       5.116  23.153  -7.901  1.00  0.00     0.041 A 
ATOM    102  F   UNL     1       4.802  24.232  -5.850  1.00  0.00    -0.206 F 
ATOM    103  C   UNL     1       5.397  22.008  -8.636  1.00  0.00     0.022 A 
BRANCH 100 104
ATOM    104  S   UNL     1       6.057  19.331  -8.954  1.00  0.00     0.124 S 
ATOM    105  O   UNL     1       7.252  18.802  -8.307  1.00  0.00    -0.237 OA
ATOM    106  O   UNL     1       4.845  18.528  -8.819  1.00  0.00    -0.237 OA
ATOM    107  O   UNL     1       6.282  19.871 -10.297  1.00  0.00    -0.744 OA
ENDBRANCH 100 104
ENDBRANCH  74  97
ENDBRANCH  48  49
ENDBRANCH  41  43
ENDBRANCH  40  41
ENDBRANCH  39  40
ENDBRANCH  38  39
ENDBRANCH  37  38
ENDBRANCH  36  37
ENDBRANCH  35  36
ENDBRANCH  34  35
ENDBRANCH   1  34
TORSDOF 27
