REMARK SMILES Cc1nsc(NC(=O)[C@@H]2C=C[C@@H]([NH3+])C2)c1C(=O)OCCOCCOCCOCCOC(=O)c1ccc(-c2c3nc(c(-c4cc(S(=O)(=O)[O-])ccc4F)c4ccc([nH]4)c(-c4cc(S(=O)(=O)[O-])ccc4F)c4nc(c(-c5cc(S(=O)(=O)[O-])ccc5F)c5ccc2[nH]5)C=C4)C=C3)cc1
REMARK SMILES IDX 24 1 23 2 22 3 21 4 20 5 19 6 18 7 16 8 17 9 15 10 1 11 2 12
REMARK SMILES IDX 3 13 4 14 5 15 6 16 7 17 8 19 9 20 10 21 14 22 11 23 12 24
REMARK SMILES IDX 13 25 25 29 26 30 27 31 28 32 29 33 30 34 31 35 32 36 33 37
REMARK SMILES IDX 34 38 95 39 35 40 94 41 36 42 37 43 38 44 88 45 39 46 93 47
REMARK SMILES IDX 87 48 89 49 40 50 92 51 86 52 85 53 41 55 73 56 53 57 72 58
REMARK SMILES IDX 54 59 57 60 71 61 90 62 55 63 56 64 70 66 91 67 58 68 42 69
REMARK SMILES IDX 43 70 51 71 44 72 50 73 52 74 49 75 45 76 46 77 47 78 48 79
REMARK SMILES IDX 74 80 75 81 83 82 76 83 82 84 84 85 81 86 77 87 78 88 79 89
REMARK SMILES IDX 80 90 59 91 60 92 68 93 61 94 67 95 69 96 66 97 62 98 63 99
REMARK SMILES IDX 64 100 65 101
REMARK H PARENT 6 18 13 26 13 27 13 28 89 54 57 65
REMARK Flexibility Score: inf
ROOT
ATOM      1  O   UNL     1      -4.171  -0.225   0.507  1.00  0.00    -0.377 OA
ENDROOT
BRANCH   1   2
ATOM      2  C   UNL     1      -3.897  -1.495  -0.055  1.00  0.00     0.188 C 
BRANCH   2   3
ATOM      3  C   UNL     1      -2.773  -2.275   0.664  1.00  0.00     0.188 C 
BRANCH   3   4
ATOM      4  O   UNL     1      -2.138  -1.814   1.853  1.00  0.00    -0.376 OA
BRANCH   4   5
ATOM      5  C   UNL     1      -1.969  -0.436   2.136  1.00  0.00     0.202 C 
BRANCH   5   6
ATOM      6  C   UNL     1      -1.220   0.480   1.159  1.00  0.00     0.261 C 
BRANCH   6   7
ATOM      7  O   UNL     1      -1.462   0.246  -0.232  1.00  0.00    -0.460 OA
BRANCH   7   8
ATOM      8  C   UNL     1      -0.607  -0.608  -0.851  1.00  0.00     0.343 C 
ATOM      9  O   UNL     1       0.391  -1.090  -0.326  1.00  0.00    -0.246 OA
BRANCH   8  10
ATOM     10  C   UNL     1      -1.082  -1.043  -2.160  1.00  0.00     0.117 A 
ATOM     11  C   UNL     1      -2.542   1.026  -2.942  1.00  0.00     0.069 C 
ATOM     12  C   UNL     1      -1.907  -0.315  -3.104  1.00  0.00     0.068 A 
ATOM     13  N   UNL     1      -2.139  -0.943  -4.258  1.00  0.00    -0.195 NA
ATOM     14  S   UNL     1      -1.523  -2.461  -4.178  1.00  0.00    -0.017 S 
ATOM     15  C   UNL     1      -0.934  -2.363  -2.598  1.00  0.00     0.131 A 
BRANCH  15  16
ATOM     16  N   UNL     1      -0.497  -3.442  -1.842  1.00  0.00    -0.315 N 
ATOM     17  C   UNL     1      -0.518  -4.798  -2.009  1.00  0.00     0.232 C 
ATOM     18  H   UNL     1      -0.076  -3.169  -0.995  1.00  0.00     0.170 HD
ATOM     19  O   UNL     1      -0.328  -5.475  -0.990  1.00  0.00    -0.274 OA
BRANCH  17  20
ATOM     20  C   UNL     1      -0.640  -5.476  -3.370  1.00  0.00     0.107 C 
ATOM     21  C   UNL     1      -1.198  -6.870  -3.330  1.00  0.00    -0.012 C 
ATOM     22  C   UNL     1       0.774  -5.686  -3.930  1.00  0.00     0.087 C 
ATOM     23  C   UNL     1      -0.264  -7.794  -3.581  1.00  0.00     0.033 C 
ATOM     24  C   UNL     1       1.085  -7.179  -3.740  1.00  0.00     0.205 C 
BRANCH  24  25
ATOM     25  N   UNL     1       1.808  -7.709  -4.881  1.00  0.00    -0.352 N 
ATOM     26  H   UNL     1       1.265  -7.554  -5.730  1.00  0.00     0.345 HD
ATOM     27  H   UNL     1       1.961  -8.709  -4.752  1.00  0.00     0.345 HD
ATOM     28  H   UNL     1       2.708  -7.236  -4.963  1.00  0.00     0.345 HD
ENDBRANCH  24  25
ENDBRANCH  17  20
ENDBRANCH  15  16
ENDBRANCH   8  10
ENDBRANCH   7   8
ENDBRANCH   6   7
ENDBRANCH   5   6
ENDBRANCH   4   5
ENDBRANCH   3   4
ENDBRANCH   2   3
ENDBRANCH   1   2
BRANCH   1  29
ATOM     29  C   UNL     1      -5.269  -0.200   1.421  1.00  0.00     0.188 C 
BRANCH  29  30
ATOM     30  C   UNL     1      -5.350  -1.315   2.501  1.00  0.00     0.188 C 
BRANCH  30  31
ATOM     31  O   UNL     1      -5.029  -2.618   2.027  1.00  0.00    -0.376 OA
BRANCH  31  32
ATOM     32  C   UNL     1      -6.005  -3.639   1.894  1.00  0.00     0.202 C 
BRANCH  32  33
ATOM     33  C   UNL     1      -6.991  -3.506   0.736  1.00  0.00     0.261 C 
BRANCH  33  34
ATOM     34  O   UNL     1      -7.450  -2.183   0.555  1.00  0.00    -0.460 OA
BRANCH  34  35
ATOM     35  C   UNL     1      -8.202  -1.712   1.565  1.00  0.00     0.338 C 
ATOM     36  O   UNL     1      -8.402  -2.246   2.647  1.00  0.00    -0.246 OA
BRANCH  35  37
ATOM     37  C   UNL     1      -8.830  -0.470   1.115  1.00  0.00     0.060 A 
ATOM     38  C   UNL     1      -9.786   0.034   1.987  1.00  0.00     0.016 A 
ATOM     39  C   UNL     1      -8.806  -0.169  -0.259  1.00  0.00     0.016 A 
ATOM     40  C   UNL     1     -10.940   0.492   1.418  1.00  0.00     0.010 A 
ATOM     41  C   UNL     1      -9.961   0.286  -0.825  1.00  0.00     0.010 A 
ATOM     42  C   UNL     1     -11.045   0.478   0.020  1.00  0.00    -0.014 A 
BRANCH  42  43
ATOM     43  C   UNL     1     -12.338   0.767  -0.538  1.00  0.00     0.031 A 
ATOM     44  C   UNL     1     -12.649   2.194  -0.385  1.00  0.00     0.074 A 
ATOM     45  C   UNL     1     -13.103  -0.166  -1.129  1.00  0.00     0.049 A 
ATOM     46  N   UNL     1     -13.393   2.733   0.519  1.00  0.00    -0.248 NA
ATOM     47  C   UNL     1     -11.797   3.146  -1.117  1.00  0.00     0.031 C 
ATOM     48  C   UNL     1     -12.733  -1.526  -1.533  1.00  0.00     0.029 A 
ATOM     49  N   UNL     1     -14.379  -0.050  -1.576  1.00  0.00    -0.354 N 
ATOM     50  C   UNL     1     -13.326   4.093   0.260  1.00  0.00     0.074 A 
ATOM     51  C   UNL     1     -12.139   4.289  -0.523  1.00  0.00     0.031 C 
ATOM     52  C   UNL     1     -13.682  -2.014  -2.368  1.00  0.00     0.029 A 
ATOM     53  C   UNL     1     -14.783  -1.066  -2.433  1.00  0.00     0.049 A 
ATOM     54  H   UNL     1     -14.969   0.694  -1.315  1.00  0.00     0.167 HD
ATOM     55  C   UNL     1     -14.437   4.862   0.392  1.00  0.00     0.034 A 
ATOM     56  C   UNL     1     -15.909  -1.070  -3.195  1.00  0.00     0.034 A 
ATOM     57  C   UNL     1     -15.421   4.193   1.219  1.00  0.00     0.049 A 
ATOM     58  C   UNL     1     -16.847  -0.107  -2.561  1.00  0.00     0.074 A 
ATOM     59  C   UNL     1     -15.475   3.771   2.532  1.00  0.00     0.029 A 
ATOM     60  N   UNL     1     -16.409   3.505   0.550  1.00  0.00    -0.354 N 
ATOM     61  N   UNL     1     -17.349  -0.278  -1.367  1.00  0.00    -0.248 NA
ATOM     62  C   UNL     1     -16.877   1.267  -3.044  1.00  0.00     0.031 C 
ATOM     63  C   UNL     1     -16.247   2.571   2.516  1.00  0.00     0.029 A 
ATOM     64  C   UNL     1     -16.689   2.335   1.211  1.00  0.00     0.049 A 
ATOM     65  H   UNL     1     -16.847   3.807  -0.278  1.00  0.00     0.167 HD
ATOM     66  C   UNL     1     -17.359   0.983  -0.790  1.00  0.00     0.074 A 
ATOM     67  C   UNL     1     -17.191   1.904  -1.911  1.00  0.00     0.031 C 
ATOM     68  C   UNL     1     -17.212   1.139   0.561  1.00  0.00     0.034 A 
BRANCH  55  69
ATOM     69  C   UNL     1     -14.815   5.947  -0.597  1.00  0.00     0.023 A 
ATOM     70  C   UNL     1     -16.025   6.621  -0.359  1.00  0.00     0.031 A 
ATOM     71  C   UNL     1     -14.242   6.156  -1.877  1.00  0.00     0.131 A 
ATOM     72  C   UNL     1     -16.654   7.357  -1.378  1.00  0.00     0.055 A 
ATOM     73  C   UNL     1     -14.843   6.935  -2.867  1.00  0.00     0.041 A 
ATOM     74  F   UNL     1     -13.119   5.560  -2.292  1.00  0.00    -0.206 F 
ATOM     75  C   UNL     1     -16.073   7.515  -2.633  1.00  0.00     0.022 A 
BRANCH  72  76
ATOM     76  S   UNL     1     -18.330   7.966  -1.086  1.00  0.00     0.124 S 
ATOM     77  O   UNL     1     -19.027   6.741  -0.710  1.00  0.00    -0.237 OA
ATOM     78  O   UNL     1     -18.110   8.939  -0.020  1.00  0.00    -0.237 OA
ATOM     79  O   UNL     1     -18.712   8.532  -2.377  1.00  0.00    -0.744 OA
ENDBRANCH  72  76
ENDBRANCH  55  69
BRANCH  56  80
ATOM     80  C   UNL     1     -15.988  -1.494  -4.623  1.00  0.00     0.023 A 
ATOM     81  C   UNL     1     -17.191  -1.869  -5.258  1.00  0.00     0.031 A 
ATOM     82  C   UNL     1     -14.863  -1.306  -5.461  1.00  0.00     0.131 A 
ATOM     83  C   UNL     1     -17.230  -2.045  -6.664  1.00  0.00     0.055 A 
ATOM     84  C   UNL     1     -14.906  -1.484  -6.845  1.00  0.00     0.041 A 
ATOM     85  F   UNL     1     -13.696  -0.863  -4.967  1.00  0.00    -0.206 F 
ATOM     86  C   UNL     1     -16.094  -1.849  -7.455  1.00  0.00     0.022 A 
BRANCH  83  87
ATOM     87  S   UNL     1     -18.787  -2.484  -7.506  1.00  0.00     0.124 S 
ATOM     88  O   UNL     1     -19.127  -3.762  -6.893  1.00  0.00    -0.237 OA
ATOM     89  O   UNL     1     -19.648  -1.355  -7.174  1.00  0.00    -0.237 OA
ATOM     90  O   UNL     1     -18.403  -2.566  -8.917  1.00  0.00    -0.744 OA
ENDBRANCH  83  87
ENDBRANCH  56  80
BRANCH  68  91
ATOM     91  C   UNL     1     -17.478  -0.067   1.446  1.00  0.00     0.023 A 
ATOM     92  C   UNL     1     -16.770  -1.291   1.412  1.00  0.00     0.031 A 
ATOM     93  C   UNL     1     -18.464   0.087   2.438  1.00  0.00     0.131 A 
ATOM     94  C   UNL     1     -17.070  -2.302   2.350  1.00  0.00     0.055 A 
ATOM     95  C   UNL     1     -18.740  -0.904   3.377  1.00  0.00     0.041 A 
ATOM     96  F   UNL     1     -19.161   1.232   2.532  1.00  0.00    -0.206 F 
ATOM     97  C   UNL     1     -18.047  -2.106   3.333  1.00  0.00     0.022 A 
BRANCH  94  98
ATOM     98  S   UNL     1     -16.212  -3.912   2.303  1.00  0.00     0.124 S 
ATOM     99  O   UNL     1     -16.286  -4.296   0.898  1.00  0.00    -0.237 OA
ATOM    100  O   UNL     1     -14.883  -3.575   2.806  1.00  0.00    -0.237 OA
ATOM    101  O   UNL     1     -17.008  -4.748   3.204  1.00  0.00    -0.744 OA
ENDBRANCH  94  98
ENDBRANCH  68  91
ENDBRANCH  42  43
ENDBRANCH  35  37
ENDBRANCH  34  35
ENDBRANCH  33  34
ENDBRANCH  32  33
ENDBRANCH  31  32
ENDBRANCH  30  31
ENDBRANCH  29  30
ENDBRANCH   1  29
TORSDOF 26
