REMARK SMILES O=C(OCCOCCOCCOCCOC(=O)c1ccccc1O[C@@H]1CCOC2(CCOCC2)C1)c1ccc(-c2c3nc(c(-c4cc(S(=O)(=O)[O-])ccc4F)c4ccc([nH]4)c(-c4cc(S(=O)(=O)[O-])ccc4F)c4nc(c(-c5cc(S(=O)(=O)[O-])ccc5F)c5ccc2[nH]5)C=C4)C=C3)cc1
REMARK SMILES IDX 8 1 7 2 6 3 5 4 4 5 3 6 2 7 1 8 36 9 37 10 98 11 38 12 97 13
REMARK SMILES IDX 39 14 40 15 41 16 91 17 42 18 96 19 90 20 92 21 43 22 95 23
REMARK SMILES IDX 89 24 88 25 44 27 76 28 56 29 75 30 57 31 60 32 74 33 93 34
REMARK SMILES IDX 58 35 59 36 73 38 94 39 61 40 45 41 46 42 54 43 47 44 53 45
REMARK SMILES IDX 55 46 52 47 48 48 49 49 50 50 51 51 77 52 78 53 86 54 79 55
REMARK SMILES IDX 85 56 87 57 84 58 80 59 81 60 82 61 83 62 62 63 63 64 71 65
REMARK SMILES IDX 64 66 70 67 72 68 69 69 65 70 66 71 67 72 68 73 9 74 10 75
REMARK SMILES IDX 11 76 12 77 13 78 14 79 15 80 16 81 17 82 18 83 19 84 23 85
REMARK SMILES IDX 20 86 22 87 21 88 24 89 25 90 26 91 35 92 27 93 29 94 28 95
REMARK SMILES IDX 30 96 34 97 31 98 33 99 32 100
REMARK H PARENT 92 26 60 37
REMARK Flexibility Score: inf
ROOT
ATOM      1  C   UNL     1       2.804   1.502  -1.876  1.00  0.00     0.188 C 
ENDROOT
BRANCH   1   2
ATOM      2  C   UNL     1       3.027   0.984  -0.470  1.00  0.00     0.188 C 
BRANCH   2   3
ATOM      3  O   UNL     1       4.253   0.295  -0.265  1.00  0.00    -0.376 OA
BRANCH   3   4
ATOM      4  C   UNL     1       4.258  -1.108  -0.475  1.00  0.00     0.202 C 
BRANCH   4   5
ATOM      5  C   UNL     1       4.094  -1.897   0.824  1.00  0.00     0.261 C 
BRANCH   5   6
ATOM      6  O   UNL     1       2.798  -1.702   1.422  1.00  0.00    -0.460 OA
BRANCH   6   7
ATOM      7  C   UNL     1       2.333  -0.730   2.242  1.00  0.00     0.338 C 
ATOM      8  O   UNL     1       1.158  -0.812   2.603  1.00  0.00    -0.246 OA
BRANCH   7   9
ATOM      9  C   UNL     1       3.095   0.500   2.651  1.00  0.00     0.060 A 
ATOM     10  C   UNL     1       4.432   0.767   2.350  1.00  0.00     0.016 A 
ATOM     11  C   UNL     1       2.371   1.503   3.332  1.00  0.00     0.016 A 
ATOM     12  C   UNL     1       5.004   2.003   2.596  1.00  0.00     0.010 A 
ATOM     13  C   UNL     1       2.975   2.709   3.705  1.00  0.00     0.010 A 
ATOM     14  C   UNL     1       4.306   2.940   3.349  1.00  0.00    -0.014 A 
BRANCH  14  15
ATOM     15  C   UNL     1       5.173   3.877   4.077  1.00  0.00     0.031 A 
ATOM     16  C   UNL     1       5.796   3.325   5.332  1.00  0.00     0.074 A 
ATOM     17  C   UNL     1       5.589   5.012   3.495  1.00  0.00     0.049 A 
ATOM     18  N   UNL     1       6.705   3.838   6.111  1.00  0.00    -0.248 NA
ATOM     19  C   UNL     1       5.373   1.964   5.723  1.00  0.00     0.031 C 
ATOM     20  C   UNL     1       5.184   5.479   2.167  1.00  0.00     0.029 A 
ATOM     21  N   UNL     1       6.484   5.951   3.923  1.00  0.00    -0.354 N 
ATOM     22  C   UNL     1       6.961   2.864   7.074  1.00  0.00     0.074 A 
ATOM     23  C   UNL     1       6.127   1.727   6.779  1.00  0.00     0.031 C 
ATOM     24  C   UNL     1       5.832   6.624   1.892  1.00  0.00     0.029 A 
ATOM     25  C   UNL     1       6.654   6.993   3.041  1.00  0.00     0.049 A 
ATOM     26  H   UNL     1       6.963   5.888   4.780  1.00  0.00     0.167 HD
ATOM     27  C   UNL     1       7.803   2.934   8.129  1.00  0.00     0.034 A 
ATOM     28  C   UNL     1       7.373   8.122   3.190  1.00  0.00     0.034 A 
ATOM     29  C   UNL     1       8.549   4.128   8.418  1.00  0.00     0.049 A 
ATOM     30  C   UNL     1       8.159   8.264   4.475  1.00  0.00     0.074 A 
ATOM     31  C   UNL     1       9.319   4.429   9.522  1.00  0.00     0.029 A 
ATOM     32  N   UNL     1       8.582   5.244   7.583  1.00  0.00    -0.354 N 
ATOM     33  N   UNL     1       8.312   7.394   5.452  1.00  0.00    -0.248 NA
ATOM     34  C   UNL     1       8.862   9.532   4.684  1.00  0.00     0.031 C 
ATOM     35  C   UNL     1       9.749   5.755   9.392  1.00  0.00     0.029 A 
ATOM     36  C   UNL     1       9.335   6.247   8.161  1.00  0.00     0.049 A 
ATOM     37  H   UNL     1       8.135   5.307   6.708  1.00  0.00     0.167 HD
ATOM     38  C   UNL     1       9.161   7.996   6.374  1.00  0.00     0.074 A 
ATOM     39  C   UNL     1       9.494   9.298   5.825  1.00  0.00     0.031 C 
ATOM     40  C   UNL     1       9.631   7.529   7.562  1.00  0.00     0.034 A 
BRANCH  27  41
ATOM     41  C   UNL     1       7.786   1.766   9.084  1.00  0.00     0.023 A 
ATOM     42  C   UNL     1       8.195   0.474   8.700  1.00  0.00     0.031 A 
ATOM     43  C   UNL     1       7.199   1.918  10.352  1.00  0.00     0.131 A 
ATOM     44  C   UNL     1       7.924  -0.623   9.537  1.00  0.00     0.055 A 
ATOM     45  C   UNL     1       7.013   0.837  11.215  1.00  0.00     0.041 A 
ATOM     46  F   UNL     1       6.743   3.115  10.754  1.00  0.00    -0.206 F 
ATOM     47  C   UNL     1       7.359  -0.446  10.802  1.00  0.00     0.022 A 
BRANCH  44  48
ATOM     48  S   UNL     1       8.147  -2.299   8.873  1.00  0.00     0.124 S 
ATOM     49  O   UNL     1       7.211  -2.297   7.748  1.00  0.00    -0.237 OA
ATOM     50  O   UNL     1       9.556  -2.327   8.534  1.00  0.00    -0.237 OA
ATOM     51  O   UNL     1       7.754  -3.164   9.993  1.00  0.00    -0.744 OA
ENDBRANCH  44  48
ENDBRANCH  27  41
BRANCH  28  52
ATOM     52  C   UNL     1       7.328   9.215   2.170  1.00  0.00     0.023 A 
ATOM     53  C   UNL     1       8.493   9.710   1.562  1.00  0.00     0.031 A 
ATOM     54  C   UNL     1       6.109   9.841   1.843  1.00  0.00     0.131 A 
ATOM     55  C   UNL     1       8.422  10.823   0.705  1.00  0.00     0.055 A 
ATOM     56  C   UNL     1       6.035  10.907   0.944  1.00  0.00     0.041 A 
ATOM     57  F   UNL     1       4.959   9.428   2.401  1.00  0.00    -0.206 F 
ATOM     58  C   UNL     1       7.199  11.415   0.381  1.00  0.00     0.022 A 
BRANCH  55  59
ATOM     59  S   UNL     1       9.967  11.562   0.104  1.00  0.00     0.124 S 
ATOM     60  O   UNL     1      10.660  11.858   1.346  1.00  0.00    -0.237 OA
ATOM     61  O   UNL     1      10.524  10.482  -0.706  1.00  0.00    -0.237 OA
ATOM     62  O   UNL     1       9.512  12.731  -0.654  1.00  0.00    -0.744 OA
ENDBRANCH  55  59
ENDBRANCH  28  52
BRANCH  40  63
ATOM     63  C   UNL     1      10.603   8.414   8.296  1.00  0.00     0.023 A 
ATOM     64  C   UNL     1      10.220   9.657   8.823  1.00  0.00     0.031 A 
ATOM     65  C   UNL     1      11.935   7.996   8.466  1.00  0.00     0.131 A 
ATOM     66  C   UNL     1      11.180  10.474   9.432  1.00  0.00     0.055 A 
ATOM     67  C   UNL     1      12.865   8.778   9.146  1.00  0.00     0.041 A 
ATOM     68  F   UNL     1      12.349   6.814   7.981  1.00  0.00    -0.206 F 
ATOM     69  C   UNL     1      12.494  10.034   9.618  1.00  0.00     0.022 A 
BRANCH  66  70
ATOM     70  S   UNL     1      10.718  12.172   9.864  1.00  0.00     0.124 S 
ATOM     71  O   UNL     1      10.261  12.697   8.582  1.00  0.00    -0.237 OA
ATOM     72  O   UNL     1       9.683  11.965  10.873  1.00  0.00    -0.237 OA
ATOM     73  O   UNL     1      11.964  12.748  10.364  1.00  0.00    -0.744 OA
ENDBRANCH  66  70
ENDBRANCH  40  63
ENDBRANCH  14  15
ENDBRANCH   7   9
ENDBRANCH   6   7
ENDBRANCH   5   6
ENDBRANCH   4   5
ENDBRANCH   3   4
ENDBRANCH   2   3
ENDBRANCH   1   2
BRANCH   1  74
ATOM     74  O   UNL     1       3.846   1.365  -2.822  1.00  0.00    -0.377 OA
BRANCH  74  75
ATOM     75  C   UNL     1       5.210   1.501  -2.452  1.00  0.00     0.188 C 
BRANCH  75  76
ATOM     76  C   UNL     1       5.608   2.765  -1.687  1.00  0.00     0.188 C 
BRANCH  76  77
ATOM     77  O   UNL     1       4.603   3.769  -1.715  1.00  0.00    -0.376 OA
BRANCH  77  78
ATOM     78  C   UNL     1       4.665   4.638  -2.844  1.00  0.00     0.202 C 
BRANCH  78  79
ATOM     79  C   UNL     1       4.671   3.963  -4.228  1.00  0.00     0.261 C 
BRANCH  79  80
ATOM     80  O   UNL     1       5.852   3.174  -4.600  1.00  0.00    -0.460 OA
BRANCH  80  81
ATOM     81  C   UNL     1       6.215   2.934  -5.905  1.00  0.00     0.342 C 
ATOM     82  O   UNL     1       7.007   3.679  -6.478  1.00  0.00    -0.246 OA
BRANCH  81  83
ATOM     83  C   UNL     1       6.114   1.513  -6.449  1.00  0.00     0.102 A 
ATOM     84  C   UNL     1       7.074   0.617  -5.924  1.00  0.00     0.019 A 
ATOM     85  C   UNL     1       5.420   1.119  -7.640  1.00  0.00     0.134 A 
ATOM     86  C   UNL     1       7.404  -0.575  -6.590  1.00  0.00     0.001 A 
ATOM     87  C   UNL     1       5.854  -0.019  -8.345  1.00  0.00     0.047 A 
ATOM     88  C   UNL     1       6.822  -0.873  -7.817  1.00  0.00     0.004 A 
BRANCH  85  89
ATOM     89  O   UNL     1       4.444   1.836  -8.275  1.00  0.00    -0.489 OA
BRANCH  89  90
ATOM     90  C   UNL     1       2.994   1.550  -8.310  1.00  0.00     0.178 C 
ATOM     91  C   UNL     1       2.478   2.804  -7.660  1.00  0.00     0.074 C 
ATOM     92  C   UNL     1       2.111   0.489  -7.534  1.00  0.00     0.081 C 
ATOM     93  C   UNL     1       2.861   2.617  -6.197  1.00  0.00     0.165 C 
ATOM     94  C   UNL     1       2.694   0.134  -6.176  1.00  0.00     0.076 C 
ATOM     95  O   UNL     1       3.399   1.317  -5.772  1.00  0.00    -0.375 OA
ATOM     96  C   UNL     1       3.468  -1.163  -6.519  1.00  0.00     0.064 C 
ATOM     97  C   UNL     1       1.793  -0.273  -4.987  1.00  0.00     0.064 C 
ATOM     98  C   UNL     1       4.226  -1.793  -5.390  1.00  0.00     0.163 C 
ATOM     99  C   UNL     1       2.555  -1.128  -3.931  1.00  0.00     0.163 C 
ATOM    100  O   UNL     1       3.236  -2.256  -4.476  1.00  0.00    -0.381 OA
ENDBRANCH  89  90
ENDBRANCH  85  89
ENDBRANCH  81  83
ENDBRANCH  80  81
ENDBRANCH  79  80
ENDBRANCH  78  79
ENDBRANCH  77  78
ENDBRANCH  76  77
ENDBRANCH  75  76
ENDBRANCH  74  75
ENDBRANCH   1  74
TORSDOF 25
