REMARK SMILES CCC1(C(=O)N[C@H]2C=C[C@H](C(=O)OCCOCCOCCOCCOC(=O)c3ccc(-c4c5nc(c(-c6cc(S(=O)(=O)[O-])ccc6F)c6ccc([nH]6)c(-c6cc(S(=O)(=O)[O-])ccc6F)c6nc(c(-c7cc(S(=O)(=O)[O-])ccc7F)c7ccc4[nH]7)C=C6)C=C5)cc3)C2)CC[NH2+]CC1
REMARK SMILES IDX 19 1 18 2 17 3 16 4 15 5 14 6 13 7 11 8 12 9 10 10 7 11 8 12
REMARK SMILES IDX 91 13 9 14 6 15 4 16 5 17 3 19 92 20 96 21 93 22 95 23 94 24
REMARK SMILES IDX 2 27 1 28 20 29 21 30 22 31 23 32 24 33 25 34 26 35 27 36
REMARK SMILES IDX 28 37 29 38 90 39 30 40 89 41 31 42 32 43 33 44 83 45 34 46
REMARK SMILES IDX 88 47 82 48 84 49 35 50 87 51 81 52 80 53 36 55 68 56 48 57
REMARK SMILES IDX 67 58 49 59 52 60 66 61 85 62 50 63 51 64 65 66 86 67 53 68
REMARK SMILES IDX 37 69 38 70 46 71 39 72 45 73 47 74 44 75 40 76 41 77 42 78
REMARK SMILES IDX 43 79 69 80 70 81 78 82 71 83 77 84 79 85 76 86 72 87 73 88
REMARK SMILES IDX 74 89 75 90 54 91 55 92 63 93 56 94 62 95 64 96 61 97 57 98
REMARK SMILES IDX 58 99 59 100 60 101
REMARK H PARENT 6 18 94 25 94 26 84 54 52 65
REMARK Flexibility Score: inf
ROOT
ATOM      1  O   UNL     1       1.220   8.969  -0.815  1.00  0.00    -0.377 OA
ENDROOT
BRANCH   1   2
ATOM      2  C   UNL     1       2.510   8.562  -1.247  1.00  0.00     0.188 C 
BRANCH   2   3
ATOM      3  C   UNL     1       3.110   9.031  -2.603  1.00  0.00     0.188 C 
BRANCH   3   4
ATOM      4  O   UNL     1       2.306   9.946  -3.324  1.00  0.00    -0.376 OA
BRANCH   4   5
ATOM      5  C   UNL     1       1.684   9.627  -4.552  1.00  0.00     0.202 C 
BRANCH   5   6
ATOM      6  C   UNL     1       0.875   8.346  -4.669  1.00  0.00     0.261 C 
BRANCH   6   7
ATOM      7  O   UNL     1       1.392   7.303  -3.865  1.00  0.00    -0.463 OA
BRANCH   7   8
ATOM      8  C   UNL     1       2.385   6.462  -4.273  1.00  0.00     0.312 C 
ATOM      9  O   UNL     1       2.986   6.525  -5.333  1.00  0.00    -0.252 OA
BRANCH   8  10
ATOM     10  C   UNL     1       2.653   5.496  -3.106  1.00  0.00     0.124 C 
ATOM     11  C   UNL     1       2.061   3.207  -3.682  1.00  0.00     0.106 C 
ATOM     12  C   UNL     1       0.899   3.997  -3.260  1.00  0.00    -0.006 C 
ATOM     13  C   UNL     1       3.260   4.143  -3.459  1.00  0.00     0.048 C 
ATOM     14  C   UNL     1       1.262   5.138  -2.684  1.00  0.00    -0.014 C 
BRANCH  11  15
ATOM     15  N   UNL     1       2.150   1.942  -2.949  1.00  0.00    -0.349 N 
ATOM     16  C   UNL     1       1.840   1.384  -1.747  1.00  0.00     0.227 C 
ATOM     17  O   UNL     1       2.376   0.272  -1.629  1.00  0.00    -0.274 OA
ATOM     18  H   UNL     1       2.580   1.266  -3.520  1.00  0.00     0.164 HD
BRANCH  16  19
ATOM     19  C   UNL     1       0.960   1.976  -0.577  1.00  0.00     0.060 C 
ATOM     20  C   UNL     1       1.743   3.179   0.017  1.00  0.00     0.078 C 
ATOM     21  C   UNL     1      -0.474   2.346  -1.053  1.00  0.00     0.078 C 
ATOM     22  C   UNL     1       0.880   4.125   0.843  1.00  0.00     0.261 C 
ATOM     23  C   UNL     1      -1.137   3.527  -0.323  1.00  0.00     0.261 C 
ATOM     24  N   UNL     1      -0.230   4.607   0.041  1.00  0.00    -0.346 N 
ATOM     25  H   UNL     1       0.136   5.032  -0.810  1.00  0.00     0.346 HD
ATOM     26  H   UNL     1      -0.751   5.288   0.594  1.00  0.00     0.346 HD
BRANCH  19  27
ATOM     27  C   UNL     1       0.708   0.993   0.648  1.00  0.00     0.014 C 
ATOM     28  C   UNL     1       0.909  -0.500   0.457  1.00  0.00     0.005 C 
ENDBRANCH  19  27
ENDBRANCH  16  19
ENDBRANCH  11  15
ENDBRANCH   8  10
ENDBRANCH   7   8
ENDBRANCH   6   7
ENDBRANCH   5   6
ENDBRANCH   4   5
ENDBRANCH   3   4
ENDBRANCH   2   3
ENDBRANCH   1   2
BRANCH   1  29
ATOM     29  C   UNL     1       0.723  10.255  -1.159  1.00  0.00     0.188 C 
BRANCH  29  30
ATOM     30  C   UNL     1       1.678  11.470  -1.197  1.00  0.00     0.188 C 
BRANCH  30  31
ATOM     31  O   UNL     1       3.037  11.158  -0.936  1.00  0.00    -0.376 OA
BRANCH  31  32
ATOM     32  C   UNL     1       3.616  11.617   0.268  1.00  0.00     0.202 C 
BRANCH  32  33
ATOM     33  C   UNL     1       3.039  11.055   1.574  1.00  0.00     0.261 C 
BRANCH  33  34
ATOM     34  O   UNL     1       1.619  11.175   1.733  1.00  0.00    -0.460 OA
BRANCH  34  35
ATOM     35  C   UNL     1       1.132  12.430   1.823  1.00  0.00     0.338 C 
ATOM     36  O   UNL     1       1.781  13.468   1.804  1.00  0.00    -0.246 OA
BRANCH  35  37
ATOM     37  C   UNL     1      -0.337  12.357   1.727  1.00  0.00     0.060 A 
ATOM     38  C   UNL     1      -0.979  13.034   0.682  1.00  0.00     0.016 A 
ATOM     39  C   UNL     1      -1.076  11.623   2.659  1.00  0.00     0.016 A 
ATOM     40  C   UNL     1      -2.367  13.009   0.588  1.00  0.00     0.010 A 
ATOM     41  C   UNL     1      -2.471  11.623   2.579  1.00  0.00     0.010 A 
ATOM     42  C   UNL     1      -3.122  12.348   1.565  1.00  0.00    -0.014 A 
BRANCH  42  43
ATOM     43  C   UNL     1      -4.581  12.599   1.617  1.00  0.00     0.031 A 
ATOM     44  C   UNL     1      -5.092  13.640   2.576  1.00  0.00     0.074 A 
ATOM     45  C   UNL     1      -5.419  11.984   0.764  1.00  0.00     0.049 A 
ATOM     46  N   UNL     1      -6.310  14.077   2.758  1.00  0.00    -0.248 NA
ATOM     47  C   UNL     1      -4.088  14.274   3.446  1.00  0.00     0.031 C 
ATOM     48  C   UNL     1      -5.024  10.995  -0.238  1.00  0.00     0.029 A 
ATOM     49  N   UNL     1      -6.773  12.113   0.596  1.00  0.00    -0.354 N 
ATOM     50  C   UNL     1      -6.221  15.041   3.758  1.00  0.00     0.074 A 
ATOM     51  C   UNL     1      -4.836  15.086   4.175  1.00  0.00     0.031 C 
ATOM     52  C   UNL     1      -6.115  10.613  -0.924  1.00  0.00     0.029 A 
ATOM     53  C   UNL     1      -7.287  11.302  -0.388  1.00  0.00     0.049 A 
ATOM     54  H   UNL     1      -7.326  12.729   1.129  1.00  0.00     0.167 HD
ATOM     55  C   UNL     1      -7.202  15.824   4.269  1.00  0.00     0.034 A 
ATOM     56  C   UNL     1      -8.560  11.130  -0.797  1.00  0.00     0.034 A 
ATOM     57  C   UNL     1      -8.581  15.750   3.852  1.00  0.00     0.049 A 
ATOM     58  C   UNL     1      -9.649  11.954  -0.151  1.00  0.00     0.074 A 
ATOM     59  C   UNL     1      -9.658  16.496   4.299  1.00  0.00     0.029 A 
ATOM     60  N   UNL     1      -9.080  14.868   2.900  1.00  0.00    -0.354 N 
ATOM     61  N   UNL     1      -9.551  12.872   0.785  1.00  0.00    -0.248 NA
ATOM     62  C   UNL     1     -11.017  11.729  -0.632  1.00  0.00     0.031 C 
ATOM     63  C   UNL     1     -10.816  16.008   3.683  1.00  0.00     0.029 A 
ATOM     64  C   UNL     1     -10.453  15.025   2.776  1.00  0.00     0.049 A 
ATOM     65  H   UNL     1      -8.538  14.226   2.388  1.00  0.00     0.167 HD
ATOM     66  C   UNL     1     -10.844  13.354   0.981  1.00  0.00     0.074 A 
ATOM     67  C   UNL     1     -11.691  12.647   0.042  1.00  0.00     0.031 C 
ATOM     68  C   UNL     1     -11.293  14.294   1.854  1.00  0.00     0.034 A 
BRANCH  55  69
ATOM     69  C   UNL     1      -6.821  16.780   5.376  1.00  0.00     0.023 A 
ATOM     70  C   UNL     1      -5.905  17.828   5.174  1.00  0.00     0.031 A 
ATOM     71  C   UNL     1      -7.360  16.620   6.665  1.00  0.00     0.131 A 
ATOM     72  C   UNL     1      -5.505  18.629   6.256  1.00  0.00     0.055 A 
ATOM     73  C   UNL     1      -7.023  17.473   7.717  1.00  0.00     0.041 A 
ATOM     74  F   UNL     1      -8.215  15.620   6.929  1.00  0.00    -0.206 F 
ATOM     75  C   UNL     1      -6.080  18.476   7.520  1.00  0.00     0.022 A 
BRANCH  72  76
ATOM     76  S   UNL     1      -4.115  19.771   6.025  1.00  0.00     0.124 S 
ATOM     77  O   UNL     1      -3.053  18.862   5.602  1.00  0.00    -0.237 OA
ATOM     78  O   UNL     1      -4.621  20.682   5.005  1.00  0.00    -0.237 OA
ATOM     79  O   UNL     1      -3.930  20.359   7.350  1.00  0.00    -0.744 OA
ENDBRANCH  72  76
ENDBRANCH  55  69
BRANCH  56  80
ATOM     80  C   UNL     1      -8.891  10.119  -1.845  1.00  0.00     0.023 A 
ATOM     81  C   UNL     1      -9.483  10.493  -3.062  1.00  0.00     0.031 A 
ATOM     82  C   UNL     1      -8.677   8.748  -1.613  1.00  0.00     0.131 A 
ATOM     83  C   UNL     1      -9.889   9.507  -3.976  1.00  0.00     0.055 A 
ATOM     84  C   UNL     1      -9.025   7.776  -2.551  1.00  0.00     0.041 A 
ATOM     85  F   UNL     1      -8.119   8.332  -0.464  1.00  0.00    -0.206 F 
ATOM     86  C   UNL     1      -9.649   8.152  -3.735  1.00  0.00     0.022 A 
BRANCH  83  87
ATOM     87  S   UNL     1     -10.827  10.014  -5.443  1.00  0.00     0.124 S 
ATOM     88  O   UNL     1     -11.973  10.689  -4.845  1.00  0.00    -0.237 OA
ATOM     89  O   UNL     1      -9.868  10.868  -6.135  1.00  0.00    -0.237 OA
ATOM     90  O   UNL     1     -11.125   8.748  -6.111  1.00  0.00    -0.744 OA
ENDBRANCH  83  87
ENDBRANCH  56  80
BRANCH  68  91
ATOM     91  C   UNL     1     -12.768  14.627   1.799  1.00  0.00     0.023 A 
ATOM     92  C   UNL     1     -13.755  13.661   2.068  1.00  0.00     0.031 A 
ATOM     93  C   UNL     1     -13.195  15.912   1.415  1.00  0.00     0.131 A 
ATOM     94  C   UNL     1     -15.108  13.963   1.851  1.00  0.00     0.055 A 
ATOM     95  C   UNL     1     -14.548  16.231   1.288  1.00  0.00     0.041 A 
ATOM     96  F   UNL     1     -12.303  16.878   1.143  1.00  0.00    -0.206 F 
ATOM     97  C   UNL     1     -15.513  15.247   1.482  1.00  0.00     0.022 A 
BRANCH  94  98
ATOM     98  S   UNL     1     -16.314  12.608   1.896  1.00  0.00     0.124 S 
ATOM     99  O   UNL     1     -15.751  11.671   0.928  1.00  0.00    -0.237 OA
ATOM    100  O   UNL     1     -16.260  12.190   3.293  1.00  0.00    -0.237 OA
ATOM    101  O   UNL     1     -17.562  13.247   1.486  1.00  0.00    -0.744 OA
ENDBRANCH  94  98
ENDBRANCH  68  91
ENDBRANCH  42  43
ENDBRANCH  35  37
ENDBRANCH  34  35
ENDBRANCH  33  34
ENDBRANCH  32  33
ENDBRANCH  31  32
ENDBRANCH  30  31
ENDBRANCH  29  30
ENDBRANCH   1  29
TORSDOF 26
