REMARK SMILES O=C(OCCOCCOCCOCCOC(=O)c1cc(-c2ccn(C(F)F)c(=O)c2)ccc1O)c1ccc(-c2c3nc(c(-c4cc(S(=O)(=O)[O-])ccc4F)c4ccc([nH]4)c(-c4cc(S(=O)(=O)[O-])ccc4F)c4nc(c(-c5cc(S(=O)(=O)[O-])ccc5F)c5ccc2[nH]5)C=C4)C=C3)cc1
REMARK SMILES IDX 8 1 7 2 6 3 5 4 4 5 3 6 2 7 1 8 35 9 36 10 97 11 37 12 96 13
REMARK SMILES IDX 38 14 39 15 40 16 90 17 41 18 95 19 89 20 91 21 42 22 94 23
REMARK SMILES IDX 88 24 87 25 43 27 75 28 55 29 74 30 56 31 59 32 73 33 92 34
REMARK SMILES IDX 57 35 58 36 72 38 93 39 60 40 44 41 45 42 53 43 46 44 52 45
REMARK SMILES IDX 54 46 51 47 47 48 48 49 49 50 50 51 76 52 77 53 85 54 78 55
REMARK SMILES IDX 84 56 86 57 83 58 79 59 80 60 81 61 82 62 61 63 62 64 70 65
REMARK SMILES IDX 63 66 69 67 71 68 68 69 64 70 65 71 66 72 67 73 9 74 10 75
REMARK SMILES IDX 11 76 12 77 13 78 14 79 15 80 16 81 17 82 18 83 19 84 33 85
REMARK SMILES IDX 20 86 32 87 31 88 34 89 21 91 22 92 30 93 23 94 28 95 24 96
REMARK SMILES IDX 29 97 25 98 26 99 27 100
REMARK H PARENT 91 26 59 37 34 90
REMARK Flexibility Score: inf
ROOT
ATOM      1  C   UNL     1       2.235   2.019   0.806  1.00  0.00     0.188 C 
ENDROOT
BRANCH   1   2
ATOM      2  C   UNL     1       2.778   0.684   1.293  1.00  0.00     0.188 C 
BRANCH   2   3
ATOM      3  O   UNL     1       4.137   0.358   1.047  1.00  0.00    -0.376 OA
BRANCH   3   4
ATOM      4  C   UNL     1       4.732   0.526  -0.231  1.00  0.00     0.202 C 
BRANCH   4   5
ATOM      5  C   UNL     1       4.050  -0.014  -1.494  1.00  0.00     0.261 C 
BRANCH   5   6
ATOM      6  O   UNL     1       2.740  -0.581  -1.353  1.00  0.00    -0.460 OA
BRANCH   6   7
ATOM      7  C   UNL     1       2.554  -1.909  -1.113  1.00  0.00     0.338 C 
ATOM      8  O   UNL     1       1.673  -2.549  -1.670  1.00  0.00    -0.246 OA
BRANCH   7   9
ATOM      9  C   UNL     1       3.179  -2.400   0.137  1.00  0.00     0.060 A 
ATOM     10  C   UNL     1       2.328  -2.719   1.207  1.00  0.00     0.016 A 
ATOM     11  C   UNL     1       4.562  -2.442   0.303  1.00  0.00     0.016 A 
ATOM     12  C   UNL     1       2.863  -3.004   2.465  1.00  0.00     0.010 A 
ATOM     13  C   UNL     1       5.094  -2.639   1.574  1.00  0.00     0.010 A 
ATOM     14  C   UNL     1       4.251  -2.956   2.655  1.00  0.00    -0.014 A 
BRANCH  14  15
ATOM     15  C   UNL     1       4.867  -3.618   3.824  1.00  0.00     0.031 A 
ATOM     16  C   UNL     1       5.169  -2.934   5.117  1.00  0.00     0.074 A 
ATOM     17  C   UNL     1       5.235  -4.895   3.606  1.00  0.00     0.049 A 
ATOM     18  N   UNL     1       5.646  -3.463   6.214  1.00  0.00    -0.248 NA
ATOM     19  C   UNL     1       4.913  -1.490   5.204  1.00  0.00     0.031 C 
ATOM     20  C   UNL     1       5.020  -5.611   2.343  1.00  0.00     0.029 A 
ATOM     21  N   UNL     1       5.908  -5.790   4.386  1.00  0.00    -0.354 N 
ATOM     22  C   UNL     1       5.704  -2.436   7.147  1.00  0.00     0.074 A 
ATOM     23  C   UNL     1       5.270  -1.233   6.461  1.00  0.00     0.031 C 
ATOM     24  C   UNL     1       5.626  -6.798   2.403  1.00  0.00     0.029 A 
ATOM     25  C   UNL     1       6.225  -6.948   3.721  1.00  0.00     0.049 A 
ATOM     26  H   UNL     1       6.142  -5.622   5.328  1.00  0.00     0.167 HD
ATOM     27  C   UNL     1       6.064  -2.519   8.454  1.00  0.00     0.034 A 
ATOM     28  C   UNL     1       6.907  -8.033   4.126  1.00  0.00     0.034 A 
ATOM     29  C   UNL     1       6.551  -3.741   9.065  1.00  0.00     0.049 A 
ATOM     30  C   UNL     1       7.283  -8.111   5.572  1.00  0.00     0.074 A 
ATOM     31  C   UNL     1       6.872  -3.971  10.392  1.00  0.00     0.029 A 
ATOM     32  N   UNL     1       6.814  -4.929   8.389  1.00  0.00    -0.354 N 
ATOM     33  N   UNL     1       7.168  -7.189   6.498  1.00  0.00    -0.248 NA
ATOM     34  C   UNL     1       7.811  -9.390   6.049  1.00  0.00     0.031 C 
ATOM     35  C   UNL     1       7.398  -5.262  10.503  1.00  0.00     0.029 A 
ATOM     36  C   UNL     1       7.330  -5.877   9.263  1.00  0.00     0.049 A 
ATOM     37  H   UNL     1       6.655  -5.077   7.429  1.00  0.00     0.167 HD
ATOM     38  C   UNL     1       7.600  -7.777   7.677  1.00  0.00     0.074 A 
ATOM     39  C   UNL     1       7.935  -9.151   7.348  1.00  0.00     0.031 C 
ATOM     40  C   UNL     1       7.713  -7.229   8.915  1.00  0.00     0.034 A 
BRANCH  27  41
ATOM     41  C   UNL     1       5.909  -1.302   9.343  1.00  0.00     0.023 A 
ATOM     42  C   UNL     1       7.008  -0.782  10.059  1.00  0.00     0.031 A 
ATOM     43  C   UNL     1       4.636  -0.768   9.621  1.00  0.00     0.131 A 
ATOM     44  C   UNL     1       6.806   0.203  11.039  1.00  0.00     0.055 A 
ATOM     45  C   UNL     1       4.446   0.242  10.568  1.00  0.00     0.041 A 
ATOM     46  F   UNL     1       3.547  -1.234   8.988  1.00  0.00    -0.206 F 
ATOM     47  C   UNL     1       5.532   0.722  11.292  1.00  0.00     0.022 A 
BRANCH  44  48
ATOM     48  S   UNL     1       8.166   0.793  12.088  1.00  0.00     0.124 S 
ATOM     49  O   UNL     1       8.178   2.224  11.789  1.00  0.00    -0.237 OA
ATOM     50  O   UNL     1       7.696   0.442  13.425  1.00  0.00    -0.237 OA
ATOM     51  O   UNL     1       9.326   0.049  11.611  1.00  0.00    -0.744 OA
ENDBRANCH  44  48
ENDBRANCH  27  41
BRANCH  28  52
ATOM     52  C   UNL     1       7.085  -9.137   3.147  1.00  0.00     0.023 A 
ATOM     53  C   UNL     1       7.857  -8.938   1.986  1.00  0.00     0.031 A 
ATOM     54  C   UNL     1       6.289 -10.290   3.231  1.00  0.00     0.131 A 
ATOM     55  C   UNL     1       7.747  -9.840   0.919  1.00  0.00     0.055 A 
ATOM     56  C   UNL     1       6.237 -11.220   2.194  1.00  0.00     0.041 A 
ATOM     57  F   UNL     1       5.505 -10.492   4.301  1.00  0.00    -0.206 F 
ATOM     58  C   UNL     1       6.952 -10.985   1.022  1.00  0.00     0.022 A 
BRANCH  55  59
ATOM     59  S   UNL     1       8.479  -9.461  -0.699  1.00  0.00     0.124 S 
ATOM     60  O   UNL     1       9.400 -10.578  -0.884  1.00  0.00    -0.237 OA
ATOM     61  O   UNL     1       7.304  -9.462  -1.567  1.00  0.00    -0.237 OA
ATOM     62  O   UNL     1       9.101  -8.156  -0.501  1.00  0.00    -0.744 OA
ENDBRANCH  55  59
ENDBRANCH  28  52
BRANCH  40  63
ATOM     63  C   UNL     1       8.289  -8.103  10.005  1.00  0.00     0.023 A 
ATOM     64  C   UNL     1       7.529  -8.422  11.146  1.00  0.00     0.031 A 
ATOM     65  C   UNL     1       9.621  -8.551   9.947  1.00  0.00     0.131 A 
ATOM     66  C   UNL     1       8.114  -9.152  12.189  1.00  0.00     0.055 A 
ATOM     67  C   UNL     1      10.182  -9.324  10.964  1.00  0.00     0.041 A 
ATOM     68  F   UNL     1      10.392  -8.265   8.885  1.00  0.00    -0.206 F 
ATOM     69  C   UNL     1       9.430  -9.618  12.097  1.00  0.00     0.022 A 
BRANCH  66  70
ATOM     70  S   UNL     1       7.219  -9.463  13.735  1.00  0.00     0.124 S 
ATOM     71  O   UNL     1       7.120 -10.920  13.738  1.00  0.00    -0.237 OA
ATOM     72  O   UNL     1       8.125  -8.899  14.733  1.00  0.00    -0.237 OA
ATOM     73  O   UNL     1       5.957  -8.752  13.562  1.00  0.00    -0.744 OA
ENDBRANCH  66  70
ENDBRANCH  40  63
ENDBRANCH  14  15
ENDBRANCH   7   9
ENDBRANCH   6   7
ENDBRANCH   5   6
ENDBRANCH   4   5
ENDBRANCH   3   4
ENDBRANCH   2   3
ENDBRANCH   1   2
BRANCH   1  74
ATOM     74  O   UNL     1       3.176   2.778   0.080  1.00  0.00    -0.377 OA
BRANCH  74  75
ATOM     75  C   UNL     1       3.901   3.707   0.876  1.00  0.00     0.188 C 
BRANCH  75  76
ATOM     76  C   UNL     1       4.830   3.177   1.993  1.00  0.00     0.188 C 
BRANCH  76  77
ATOM     77  O   UNL     1       4.264   2.641   3.176  1.00  0.00    -0.376 OA
BRANCH  77  78
ATOM     78  C   UNL     1       3.328   3.365   3.953  1.00  0.00     0.202 C 
BRANCH  78  79
ATOM     79  C   UNL     1       3.450   4.879   4.198  1.00  0.00     0.261 C 
BRANCH  79  80
ATOM     80  O   UNL     1       3.705   5.667   3.028  1.00  0.00    -0.460 OA
BRANCH  80  81
ATOM     81  C   UNL     1       4.925   6.272   2.946  1.00  0.00     0.342 C 
ATOM     82  O   UNL     1       5.832   6.215   3.740  1.00  0.00    -0.246 OA
BRANCH  81  83
ATOM     83  C   UNL     1       5.061   6.840   1.582  1.00  0.00     0.102 A 
ATOM     84  C   UNL     1       6.047   6.314   0.723  1.00  0.00     0.028 A 
ATOM     85  C   UNL     1       4.182   7.822   1.127  1.00  0.00     0.130 A 
ATOM     86  C   UNL     1       6.092   6.721  -0.616  1.00  0.00    -0.017 A 
ATOM     87  C   UNL     1       4.269   8.279  -0.185  1.00  0.00     0.048 A 
ATOM     88  C   UNL     1       5.211   7.722  -1.053  1.00  0.00     0.012 A 
BRANCH  85  89
ATOM     89  O   UNL     1       3.240   8.344   1.966  1.00  0.00    -0.507 OA
ATOM     90  H   UNL     1       3.179   8.038   2.850  1.00  0.00     0.293 HD
ENDBRANCH  85  89
BRANCH  86  91
ATOM     91  C   UNL     1       7.008   6.124  -1.609  1.00  0.00    -0.011 A 
ATOM     92  C   UNL     1       8.320   6.672  -1.887  1.00  0.00     0.027 A 
ATOM     93  C   UNL     1       6.541   5.126  -2.383  1.00  0.00     0.080 A 
ATOM     94  C   UNL     1       9.014   6.267  -2.958  1.00  0.00     0.095 A 
ATOM     95  C   UNL     1       7.316   4.644  -3.565  1.00  0.00     0.255 A 
ATOM     96  N   UNL     1       8.519   5.290  -3.803  1.00  0.00    -0.258 N 
ATOM     97  O   UNL     1       6.829   3.764  -4.267  1.00  0.00    -0.269 OA
BRANCH  96  98
ATOM     98  C   UNL     1       9.225   4.942  -5.010  1.00  0.00     0.451 C 
ATOM     99  F   UNL     1       9.496   3.617  -5.072  1.00  0.00    -0.185 F 
ATOM    100  F   UNL     1       8.494   5.273  -6.105  1.00  0.00    -0.185 F 
ENDBRANCH  96  98
ENDBRANCH  86  91
ENDBRANCH  81  83
ENDBRANCH  80  81
ENDBRANCH  79  80
ENDBRANCH  78  79
ENDBRANCH  77  78
ENDBRANCH  76  77
ENDBRANCH  75  76
ENDBRANCH  74  75
ENDBRANCH   1  74
TORSDOF 26
