REMARK SMILES C[C@@H](C(=O)OCCOCCOCCOCCOC(=O)c1ccc(-c2c3nc(c(-c4cc(S(=O)(=O)[O-])ccc4F)c4ccc([nH]4)c(-c4cc(S(=O)(=O)[O-])ccc4F)c4nc(c(-c5cc(S(=O)(=O)[O-])ccc5F)c5ccc2[nH]5)C=C4)C=C3)cc1)c1cc(/C=C/S(C)(=O)=O)cc(C(=O)c2ccccc2)c1
REMARK SMILES IDX 11 1 10 2 9 3 8 4 7 5 6 6 5 7 3 8 4 9 2 10 1 11 83 12 84 13
REMARK SMILES IDX 102 14 85 15 93 16 92 17 86 18 87 19 88 20 89 21 90 22 91 23
REMARK SMILES IDX 94 24 95 25 96 26 97 27 101 28 98 29 100 30 99 31 12 32
REMARK SMILES IDX 13 33 14 34 15 35 16 36 17 37 18 38 19 39 20 40 21 41 82 42
REMARK SMILES IDX 22 43 81 44 23 45 24 46 25 47 75 48 26 49 80 50 74 51 76 52
REMARK SMILES IDX 27 53 79 54 73 55 72 56 28 58 60 59 40 60 59 61 41 62 44 63
REMARK SMILES IDX 58 64 77 65 42 66 43 67 57 69 78 70 45 71 29 72 30 73 38 74
REMARK SMILES IDX 31 75 37 76 39 77 36 78 32 79 33 80 34 81 35 82 61 83 62 84
REMARK SMILES IDX 70 85 63 86 69 87 71 88 68 89 64 90 65 91 66 92 67 93 46 94
REMARK SMILES IDX 47 95 55 96 48 97 54 98 56 99 53 100 49 101 50 102 51 103
REMARK SMILES IDX 52 104
REMARK H PARENT 76 57 44 68
REMARK Flexibility Score: inf
ROOT
ATOM      1  O   UNL     1       2.808  -2.651   0.778  1.00  0.00    -0.377 OA
ENDROOT
BRANCH   1   2
ATOM      2  C   UNL     1       1.429  -2.370   0.844  1.00  0.00     0.188 C 
BRANCH   2   3
ATOM      3  C   UNL     1       0.616  -3.314  -0.038  1.00  0.00     0.188 C 
BRANCH   3   4
ATOM      4  O   UNL     1       1.308  -4.470  -0.468  1.00  0.00    -0.376 OA
BRANCH   4   5
ATOM      5  C   UNL     1       2.015  -4.456  -1.699  1.00  0.00     0.202 C 
BRANCH   5   6
ATOM      6  C   UNL     1       2.709  -3.197  -2.253  1.00  0.00     0.261 C 
BRANCH   6   7
ATOM      7  O   UNL     1       2.055  -1.947  -1.998  1.00  0.00    -0.463 OA
BRANCH   7   8
ATOM      8  C   UNL     1       1.044  -1.548  -2.803  1.00  0.00     0.313 C 
ATOM      9  O   UNL     1       0.661  -2.170  -3.786  1.00  0.00    -0.252 OA
BRANCH   8  10
ATOM     10  C   UNL     1       0.372  -0.267  -2.285  1.00  0.00     0.126 C 
ATOM     11  C   UNL     1       1.204   0.518  -1.234  1.00  0.00     0.025 C 
BRANCH  10  12
ATOM     12  C   UNL     1      -1.092  -0.425  -1.826  1.00  0.00    -0.033 A 
ATOM     13  C   UNL     1      -1.771   0.738  -1.415  1.00  0.00     0.012 A 
ATOM     14  C   UNL     1      -1.809  -1.639  -1.796  1.00  0.00     0.016 A 
ATOM     15  C   UNL     1      -3.090   0.715  -0.941  1.00  0.00    -0.024 A 
ATOM     16  C   UNL     1      -3.114  -1.701  -1.278  1.00  0.00     0.023 A 
ATOM     17  C   UNL     1      -3.748  -0.519  -0.869  1.00  0.00     0.020 A 
BRANCH  15  18
ATOM     18  C   UNL     1      -3.816   1.942  -0.561  1.00  0.00     0.020 C 
ATOM     19  C   UNL     1      -3.250   3.150  -0.418  1.00  0.00     0.106 C 
BRANCH  19  20
ATOM     20  S   UNL     1      -4.214   4.536  -0.019  1.00  0.00     0.168 S 
ATOM     21  C   UNL     1      -3.359   5.150   1.411  1.00  0.00     0.163 C 
ATOM     22  O   UNL     1      -4.047   5.520  -1.071  1.00  0.00    -0.225 OA
ATOM     23  O   UNL     1      -5.539   4.131   0.412  1.00  0.00    -0.225 OA
ENDBRANCH  19  20
ENDBRANCH  15  18
BRANCH  16  24
ATOM     24  C   UNL     1      -3.892  -2.975  -1.188  1.00  0.00     0.193 C 
ATOM     25  O   UNL     1      -5.120  -2.950  -1.201  1.00  0.00    -0.289 OA
BRANCH  24  26
ATOM     26  C   UNL     1      -3.227  -4.288  -1.056  1.00  0.00     0.022 A 
ATOM     27  C   UNL     1      -3.340  -5.221  -2.089  1.00  0.00     0.012 A 
ATOM     28  C   UNL     1      -2.550  -4.622   0.119  1.00  0.00     0.012 A 
ATOM     29  C   UNL     1      -2.705  -6.461  -1.977  1.00  0.00     0.001 A 
ATOM     30  C   UNL     1      -1.903  -5.859   0.221  1.00  0.00     0.001 A 
ATOM     31  C   UNL     1      -1.971  -6.771  -0.831  1.00  0.00     0.000 A 
ENDBRANCH  24  26
ENDBRANCH  16  24
ENDBRANCH  10  12
ENDBRANCH   8  10
ENDBRANCH   7   8
ENDBRANCH   6   7
ENDBRANCH   5   6
ENDBRANCH   4   5
ENDBRANCH   3   4
ENDBRANCH   2   3
ENDBRANCH   1   2
BRANCH   1  32
ATOM     32  C   UNL     1       3.271  -3.717   1.607  1.00  0.00     0.188 C 
BRANCH  32  33
ATOM     33  C   UNL     1       2.329  -4.848   2.114  1.00  0.00     0.188 C 
BRANCH  33  34
ATOM     34  O   UNL     1       1.015  -4.437   2.491  1.00  0.00    -0.376 OA
BRANCH  34  35
ATOM     35  C   UNL     1       0.700  -4.370   3.873  1.00  0.00     0.202 C 
BRANCH  35  36
ATOM     36  C   UNL     1       1.324  -3.193   4.636  1.00  0.00     0.261 C 
BRANCH  36  37
ATOM     37  O   UNL     1       2.756  -3.124   4.594  1.00  0.00    -0.460 OA
BRANCH  37  38
ATOM     38  C   UNL     1       3.433  -4.174   5.113  1.00  0.00     0.338 C 
ATOM     39  O   UNL     1       2.951  -5.149   5.666  1.00  0.00    -0.246 OA
BRANCH  38  40
ATOM     40  C   UNL     1       4.843  -4.051   4.690  1.00  0.00     0.060 A 
ATOM     41  C   UNL     1       5.423  -5.096   3.958  1.00  0.00     0.016 A 
ATOM     42  C   UNL     1       5.568  -2.887   4.960  1.00  0.00     0.016 A 
ATOM     43  C   UNL     1       6.742  -4.994   3.521  1.00  0.00     0.010 A 
ATOM     44  C   UNL     1       6.899  -2.799   4.548  1.00  0.00     0.010 A 
ATOM     45  C   UNL     1       7.501  -3.866   3.857  1.00  0.00    -0.014 A 
BRANCH  45  46
ATOM     46  C   UNL     1       8.975  -3.910   3.708  1.00  0.00     0.031 A 
ATOM     47  C   UNL     1       9.785  -4.307   4.913  1.00  0.00     0.074 A 
ATOM     48  C   UNL     1       9.579  -3.636   2.538  1.00  0.00     0.049 A 
ATOM     49  N   UNL     1      11.081  -4.371   5.062  1.00  0.00    -0.248 NA
ATOM     50  C   UNL     1       9.019  -4.677   6.114  1.00  0.00     0.031 C 
ATOM     51  C   UNL     1       8.894  -3.301   1.291  1.00  0.00     0.029 A 
ATOM     52  N   UNL     1      10.911  -3.596   2.214  1.00  0.00    -0.354 N 
ATOM     53  C   UNL     1      11.287  -4.781   6.375  1.00  0.00     0.074 A 
ATOM     54  C   UNL     1       9.984  -4.912   6.988  1.00  0.00     0.031 C 
ATOM     55  C   UNL     1       9.816  -3.081   0.337  1.00  0.00     0.029 A 
ATOM     56  C   UNL     1      11.153  -3.216   0.914  1.00  0.00     0.049 A 
ATOM     57  H   UNL     1      11.628  -3.817   2.852  1.00  0.00     0.167 HD
ATOM     58  C   UNL     1      12.459  -5.031   7.009  1.00  0.00     0.034 A 
ATOM     59  C   UNL     1      12.320  -2.980   0.279  1.00  0.00     0.034 A 
ATOM     60  C   UNL     1      13.749  -4.878   6.386  1.00  0.00     0.049 A 
ATOM     61  C   UNL     1      13.616  -3.162   1.038  1.00  0.00     0.074 A 
ATOM     62  C   UNL     1      15.000  -5.113   6.929  1.00  0.00     0.029 A 
ATOM     63  N   UNL     1      13.957  -4.433   5.086  1.00  0.00    -0.354 N 
ATOM     64  N   UNL     1      13.802  -3.555   2.278  1.00  0.00    -0.248 NA
ATOM     65  C   UNL     1      14.858  -2.873   0.309  1.00  0.00     0.031 C 
ATOM     66  C   UNL     1      15.962  -4.728   5.990  1.00  0.00     0.029 A 
ATOM     67  C   UNL     1      15.316  -4.346   4.825  1.00  0.00     0.049 A 
ATOM     68  H   UNL     1      13.244  -4.212   4.445  1.00  0.00     0.167 HD
ATOM     69  C   UNL     1      15.184  -3.597   2.461  1.00  0.00     0.074 A 
ATOM     70  C   UNL     1      15.779  -3.199   1.203  1.00  0.00     0.031 C 
ATOM     71  C   UNL     1      15.896  -3.940   3.566  1.00  0.00     0.034 A 
BRANCH  58  72
ATOM     72  C   UNL     1      12.388  -5.426   8.464  1.00  0.00     0.023 A 
ATOM     73  C   UNL     1      11.754  -6.609   8.885  1.00  0.00     0.031 A 
ATOM     74  C   UNL     1      12.929  -4.584   9.452  1.00  0.00     0.131 A 
ATOM     75  C   UNL     1      11.613  -6.878  10.254  1.00  0.00     0.055 A 
ATOM     76  C   UNL     1      12.862  -4.901  10.809  1.00  0.00     0.041 A 
ATOM     77  F   UNL     1      13.518  -3.426   9.114  1.00  0.00    -0.206 F 
ATOM     78  C   UNL     1      12.187  -6.047  11.219  1.00  0.00     0.022 A 
BRANCH  75  79
ATOM     79  S   UNL     1      10.531  -8.244  10.762  1.00  0.00     0.124 S 
ATOM     80  O   UNL     1       9.263  -7.860  10.147  1.00  0.00    -0.237 OA
ATOM     81  O   UNL     1      11.197  -9.405  10.182  1.00  0.00    -0.237 OA
ATOM     82  O   UNL     1      10.553  -8.174  12.221  1.00  0.00    -0.744 OA
ENDBRANCH  75  79
ENDBRANCH  58  72
BRANCH  59  83
ATOM     83  C   UNL     1      12.333  -2.506  -1.137  1.00  0.00     0.023 A 
ATOM     84  C   UNL     1      12.944  -3.262  -2.151  1.00  0.00     0.031 A 
ATOM     85  C   UNL     1      11.793  -1.255  -1.485  1.00  0.00     0.131 A 
ATOM     86  C   UNL     1      13.044  -2.739  -3.450  1.00  0.00     0.055 A 
ATOM     87  C   UNL     1      11.842  -0.765  -2.792  1.00  0.00     0.041 A 
ATOM     88  F   UNL     1      11.204  -0.486  -0.555  1.00  0.00    -0.206 F 
ATOM     89  C   UNL     1      12.483  -1.504  -3.781  1.00  0.00     0.022 A 
BRANCH  86  90
ATOM     90  S   UNL     1      14.005  -3.658  -4.685  1.00  0.00     0.124 S 
ATOM     91  O   UNL     1      15.315  -3.726  -4.048  1.00  0.00    -0.237 OA
ATOM     92  O   UNL     1      13.266  -4.912  -4.771  1.00  0.00    -0.237 OA
ATOM     93  O   UNL     1      13.931  -2.810  -5.873  1.00  0.00    -0.744 OA
ENDBRANCH  86  90
ENDBRANCH  59  83
BRANCH  71  94
ATOM     94  C   UNL     1      17.403  -3.955   3.443  1.00  0.00     0.023 A 
ATOM     95  C   UNL     1      18.144  -2.782   3.218  1.00  0.00     0.031 A 
ATOM     96  C   UNL     1      18.107  -5.168   3.555  1.00  0.00     0.131 A 
ATOM     97  C   UNL     1      19.537  -2.856   3.054  1.00  0.00     0.055 A 
ATOM     98  C   UNL     1      19.498  -5.225   3.462  1.00  0.00     0.041 A 
ATOM     99  F   UNL     1      17.452  -6.321   3.768  1.00  0.00    -0.206 F 
ATOM    100  C   UNL     1      20.220  -4.066   3.195  1.00  0.00     0.022 A 
BRANCH  97 101
ATOM    101  S   UNL     1      20.435  -1.363   2.550  1.00  0.00     0.124 S 
ATOM    102  O   UNL     1      19.767  -1.015   1.299  1.00  0.00    -0.237 OA
ATOM    103  O   UNL     1      20.196  -0.461   3.672  1.00  0.00    -0.237 OA
ATOM    104  O   UNL     1      21.815  -1.823   2.408  1.00  0.00    -0.744 OA
ENDBRANCH  97 101
ENDBRANCH  71  94
ENDBRANCH  45  46
ENDBRANCH  38  40
ENDBRANCH  37  38
ENDBRANCH  36  37
ENDBRANCH  35  36
ENDBRANCH  34  35
ENDBRANCH  33  34
ENDBRANCH  32  33
ENDBRANCH   1  32
TORSDOF 28
