REMARK SMILES CC(=O)N1CC[NH2+]C[C@@H]1c1ccc(C(=O)OCCOCCOCCOCCOC(=O)c2ccc(-c3c4nc(c(-c5cc(S(=O)(=O)[O-])ccc5F)c5ccc([nH]5)c(-c5cc(S(=O)(=O)[O-])ccc5F)c5nc(c(-c6cc(S(=O)(=O)[O-])ccc6F)c6ccc3[nH]6)C=C5)C=C4)cc2)cc1
REMARK SMILES IDX 23 1 22 2 21 3 20 4 19 5 18 6 17 7 16 8 14 9 15 10 13 11
REMARK SMILES IDX 10 12 11 13 95 14 12 15 94 16 9 17 4 18 5 19 6 20 8 21 7 22
REMARK SMILES IDX 2 25 1 26 3 27 24 28 25 29 26 30 27 31 28 32 29 33 30 34
REMARK SMILES IDX 31 35 32 36 93 37 33 38 92 39 34 40 35 41 36 42 86 43 37 44
REMARK SMILES IDX 91 45 85 46 87 47 38 48 90 49 84 50 83 51 39 53 71 54 51 55
REMARK SMILES IDX 70 56 52 57 55 58 69 59 88 60 53 61 54 62 68 64 89 65 56 66
REMARK SMILES IDX 40 67 41 68 49 69 42 70 48 71 50 72 47 73 43 74 44 75 45 76
REMARK SMILES IDX 46 77 72 78 73 79 81 80 74 81 80 82 82 83 79 84 75 85 76 86
REMARK SMILES IDX 77 87 78 88 57 89 58 90 66 91 59 92 65 93 67 94 64 95 60 96
REMARK SMILES IDX 61 97 62 98 63 99
REMARK H PARENT 7 23 7 24 87 52 55 63
REMARK Flexibility Score: inf
ROOT
ATOM      1  C   UNL     1       1.454  10.562   1.768  1.00  0.00     0.188 C 
ENDROOT
BRANCH   1   2
ATOM      2  O   UNL     1       1.626   9.145   1.704  1.00  0.00    -0.377 OA
BRANCH   2   3
ATOM      3  C   UNL     1       2.610   8.512   2.503  1.00  0.00     0.188 C 
BRANCH   3   4
ATOM      4  C   UNL     1       4.076   8.926   2.265  1.00  0.00     0.188 C 
BRANCH   4   5
ATOM      5  O   UNL     1       4.221  10.131   1.540  1.00  0.00    -0.376 OA
BRANCH   5   6
ATOM      6  C   UNL     1       4.527  10.118   0.159  1.00  0.00     0.202 C 
BRANCH   6   7
ATOM      7  C   UNL     1       3.774   9.221  -0.835  1.00  0.00     0.261 C 
BRANCH   7   8
ATOM      8  O   UNL     1       3.386   7.925  -0.379  1.00  0.00    -0.460 OA
BRANCH   8   9
ATOM      9  C   UNL     1       4.353   6.990  -0.243  1.00  0.00     0.338 C 
ATOM     10  O   UNL     1       5.539   7.127  -0.439  1.00  0.00    -0.246 OA
BRANCH   9  11
ATOM     11  C   UNL     1       3.725   5.793   0.373  1.00  0.00     0.060 A 
ATOM     12  C   UNL     1       2.585   3.478   1.543  1.00  0.00    -0.020 A 
ATOM     13  C   UNL     1       3.845   3.954   1.952  1.00  0.00     0.007 A 
ATOM     14  C   UNL     1       1.903   4.220   0.556  1.00  0.00     0.007 A 
ATOM     15  C   UNL     1       4.413   5.096   1.370  1.00  0.00     0.016 A 
ATOM     16  C   UNL     1       2.453   5.372  -0.010  1.00  0.00     0.016 A 
BRANCH  12  17
ATOM     17  C   UNL     1       2.042   2.129   2.048  1.00  0.00     0.170 C 
ATOM     18  N   UNL     1       0.626   1.915   1.671  1.00  0.00    -0.325 N 
ATOM     19  C   UNL     1      -0.357   2.622   2.501  1.00  0.00     0.181 C 
ATOM     20  C   UNL     1      -0.132   2.313   3.992  1.00  0.00     0.282 C 
ATOM     21  C   UNL     1       2.198   1.857   3.577  1.00  0.00     0.290 C 
ATOM     22  N   UNL     1       1.249   2.592   4.440  1.00  0.00    -0.343 N 
ATOM     23  H   UNL     1       1.362   2.288   5.407  1.00  0.00     0.346 HD
ATOM     24  H   UNL     1       1.434   3.594   4.378  1.00  0.00     0.346 HD
BRANCH  18  25
ATOM     25  C   UNL     1       0.186   1.197   0.574  1.00  0.00     0.220 C 
ATOM     26  C   UNL     1       1.111   0.149   0.010  1.00  0.00     0.114 C 
ATOM     27  O   UNL     1      -0.949   1.324   0.114  1.00  0.00    -0.275 OA
ENDBRANCH  18  25
ENDBRANCH  12  17
ENDBRANCH   9  11
ENDBRANCH   8   9
ENDBRANCH   7   8
ENDBRANCH   6   7
ENDBRANCH   5   6
ENDBRANCH   4   5
ENDBRANCH   3   4
ENDBRANCH   2   3
ENDBRANCH   1   2
BRANCH   1  28
ATOM     28  C   UNL     1       2.192  11.460   2.792  1.00  0.00     0.188 C 
BRANCH  28  29
ATOM     29  O   UNL     1       2.706  10.775   3.923  1.00  0.00    -0.376 OA
BRANCH  29  30
ATOM     30  C   UNL     1       2.083  11.005   5.172  1.00  0.00     0.202 C 
BRANCH  30  31
ATOM     31  C   UNL     1       0.650  10.477   5.313  1.00  0.00     0.261 C 
BRANCH  31  32
ATOM     32  O   UNL     1      -0.286  10.934   4.327  1.00  0.00    -0.460 OA
BRANCH  32  33
ATOM     33  C   UNL     1      -0.569  12.258   4.319  1.00  0.00     0.338 C 
ATOM     34  O   UNL     1      -0.114  13.106   5.063  1.00  0.00    -0.246 OA
BRANCH  33  35
ATOM     35  C   UNL     1      -1.390  12.527   3.119  1.00  0.00     0.060 A 
ATOM     36  C   UNL     1      -0.909  13.409   2.143  1.00  0.00     0.016 A 
ATOM     37  C   UNL     1      -2.623  11.893   2.957  1.00  0.00     0.016 A 
ATOM     38  C   UNL     1      -1.680  13.683   1.012  1.00  0.00     0.010 A 
ATOM     39  C   UNL     1      -3.401  12.183   1.834  1.00  0.00     0.010 A 
ATOM     40  C   UNL     1      -2.948  13.103   0.872  1.00  0.00    -0.014 A 
BRANCH  40  41
ATOM     41  C   UNL     1      -3.884  13.607  -0.165  1.00  0.00     0.031 A 
ATOM     42  C   UNL     1      -4.930  14.605   0.252  1.00  0.00     0.074 A 
ATOM     43  C   UNL     1      -3.802  13.201  -1.444  1.00  0.00     0.049 A 
ATOM     44  N   UNL     1      -5.904  15.131  -0.444  1.00  0.00    -0.248 NA
ATOM     45  C   UNL     1      -4.870  15.063   1.648  1.00  0.00     0.031 C 
ATOM     46  C   UNL     1      -2.800  12.281  -1.977  1.00  0.00     0.029 A 
ATOM     47  N   UNL     1      -4.587  13.509  -2.529  1.00  0.00    -0.354 N 
ATOM     48  C   UNL     1      -6.577  15.978   0.431  1.00  0.00     0.074 A 
ATOM     49  C   UNL     1      -5.923  15.862   1.716  1.00  0.00     0.031 C 
ATOM     50  C   UNL     1      -3.037  12.090  -3.287  1.00  0.00     0.029 A 
ATOM     51  C   UNL     1      -4.234  12.836  -3.675  1.00  0.00     0.049 A 
ATOM     52  H   UNL     1      -5.332  14.151  -2.489  1.00  0.00     0.167 HD
ATOM     53  C   UNL     1      -7.638  16.784   0.181  1.00  0.00     0.034 A 
ATOM     54  C   UNL     1      -4.828  12.803  -4.886  1.00  0.00     0.034 A 
ATOM     55  C   UNL     1      -8.287  16.875  -1.103  1.00  0.00     0.049 A 
ATOM     56  C   UNL     1      -6.074  13.630  -5.114  1.00  0.00     0.074 A 
ATOM     57  C   UNL     1      -9.363  17.664  -1.470  1.00  0.00     0.029 A 
ATOM     58  N   UNL     1      -7.934  16.139  -2.228  1.00  0.00    -0.354 N 
ATOM     59  N   UNL     1      -6.700  14.431  -4.282  1.00  0.00    -0.248 NA
ATOM     60  C   UNL     1      -6.690  13.551  -6.446  1.00  0.00     0.031 C 
ATOM     61  C   UNL     1      -9.713  17.344  -2.786  1.00  0.00     0.029 A 
ATOM     62  C   UNL     1      -8.796  16.427  -3.275  1.00  0.00     0.049 A 
ATOM     63  H   UNL     1      -7.182  15.506  -2.275  1.00  0.00     0.167 HD
ATOM     64  C   UNL     1      -7.760  14.979  -5.004  1.00  0.00     0.074 A 
ATOM     65  C   UNL     1      -7.679  14.425  -6.340  1.00  0.00     0.031 C 
ATOM     66  C   UNL     1      -8.710  15.863  -4.603  1.00  0.00     0.034 A 
BRANCH  53  67
ATOM     67  C   UNL     1      -8.192  17.580   1.338  1.00  0.00     0.023 A 
ATOM     68  C   UNL     1      -7.431  18.562   1.997  1.00  0.00     0.031 A 
ATOM     69  C   UNL     1      -9.493  17.331   1.810  1.00  0.00     0.131 A 
ATOM     70  C   UNL     1      -7.949  19.204   3.132  1.00  0.00     0.055 A 
ATOM     71  C   UNL     1     -10.034  18.036   2.887  1.00  0.00     0.041 A 
ATOM     72  F   UNL     1     -10.258  16.386   1.241  1.00  0.00    -0.206 F 
ATOM     73  C   UNL     1      -9.255  18.968   3.565  1.00  0.00     0.022 A 
BRANCH  70  74
ATOM     74  S   UNL     1      -6.837  20.237   4.126  1.00  0.00     0.124 S 
ATOM     75  O   UNL     1      -5.783  19.287   4.474  1.00  0.00    -0.237 OA
ATOM     76  O   UNL     1      -6.464  21.291   3.190  1.00  0.00    -0.237 OA
ATOM     77  O   UNL     1      -7.675  20.664   5.245  1.00  0.00    -0.744 OA
ENDBRANCH  70  74
ENDBRANCH  53  67
BRANCH  54  78
ATOM     78  C   UNL     1      -4.293  11.928  -5.972  1.00  0.00     0.023 A 
ATOM     79  C   UNL     1      -3.840  12.468  -7.186  1.00  0.00     0.031 A 
ATOM     80  C   UNL     1      -4.293  10.528  -5.836  1.00  0.00     0.131 A 
ATOM     81  C   UNL     1      -3.454  11.615  -8.232  1.00  0.00     0.055 A 
ATOM     82  C   UNL     1      -3.849   9.685  -6.857  1.00  0.00     0.041 A 
ATOM     83  F   UNL     1      -4.724   9.955  -4.701  1.00  0.00    -0.206 F 
ATOM     84  C   UNL     1      -3.439  10.228  -8.070  1.00  0.00     0.022 A 
BRANCH  81  85
ATOM     85  S   UNL     1      -3.066  12.342  -9.849  1.00  0.00     0.124 S 
ATOM     86  O   UNL     1      -4.308  13.038 -10.166  1.00  0.00    -0.237 OA
ATOM     87  O   UNL     1      -1.919  13.186  -9.533  1.00  0.00    -0.237 OA
ATOM     88  O   UNL     1      -2.770  11.179 -10.683  1.00  0.00    -0.744 OA
ENDBRANCH  81  85
ENDBRANCH  54  78
BRANCH  66  89
ATOM     89  C   UNL     1      -9.705  16.332  -5.640  1.00  0.00     0.023 A 
ATOM     90  C   UNL     1     -10.634  15.459  -6.232  1.00  0.00     0.031 A 
ATOM     91  C   UNL     1      -9.719  17.681  -6.043  1.00  0.00     0.131 A 
ATOM     92  C   UNL     1     -11.497  15.930  -7.234  1.00  0.00     0.055 A 
ATOM     93  C   UNL     1     -10.627  18.158  -6.989  1.00  0.00     0.041 A 
ATOM     94  F   UNL     1      -8.852  18.561  -5.517  1.00  0.00    -0.206 F 
ATOM     95  C   UNL     1     -11.513  17.278  -7.601  1.00  0.00     0.022 A 
BRANCH  92  96
ATOM     96  S   UNL     1     -12.528  14.736  -8.129  1.00  0.00     0.124 S 
ATOM     97  O   UNL     1     -11.529  13.819  -8.671  1.00  0.00    -0.237 OA
ATOM     98  O   UNL     1     -13.377  14.200  -7.070  1.00  0.00    -0.237 OA
ATOM     99  O   UNL     1     -13.220  15.556  -9.122  1.00  0.00    -0.744 OA
ENDBRANCH  92  96
ENDBRANCH  66  89
ENDBRANCH  40  41
ENDBRANCH  33  35
ENDBRANCH  32  33
ENDBRANCH  31  32
ENDBRANCH  30  31
ENDBRANCH  29  30
ENDBRANCH  28  29
ENDBRANCH   1  28
TORSDOF 25
