REMARK SMILES CC(C)[C@@](C)(CC(=O)NC[C@@H]1C[N@@H+](C)CCO1)C(=O)OCCOCCOCCOCCOC(=O)c1ccc(-c2c3nc(c(-c4cc(S(=O)(=O)[O-])ccc4F)c4ccc([nH]4)c(-c4cc(S(=O)(=O)[O-])ccc4F)c4nc(c(-c5cc(S(=O)(=O)[O-])ccc5F)c5ccc2[nH]5)C=C4)C=C3)cc1
REMARK SMILES IDX 25 1 24 2 23 3 22 4 21 5 20 6 18 7 19 8 4 9 5 10 2 11 1 12
REMARK SMILES IDX 3 13 6 14 7 15 8 16 9 17 10 19 11 20 12 21 17 22 13 23 16 24
REMARK SMILES IDX 14 25 15 26 26 28 27 29 28 30 29 31 30 32 31 33 32 34 33 35
REMARK SMILES IDX 34 36 35 37 36 38 97 39 37 40 96 41 38 42 39 43 40 44 90 45
REMARK SMILES IDX 41 46 95 47 89 48 91 49 42 50 94 51 88 52 87 53 43 55 75 56
REMARK SMILES IDX 55 57 74 58 56 59 59 60 73 61 92 62 57 63 58 64 72 66 93 67
REMARK SMILES IDX 60 68 44 69 45 70 53 71 46 72 52 73 54 74 51 75 47 76 48 77
REMARK SMILES IDX 49 78 50 79 76 80 77 81 85 82 78 83 84 84 86 85 83 86 79 87
REMARK SMILES IDX 80 88 81 89 82 90 61 91 62 92 70 93 63 94 69 95 71 96 68 97
REMARK SMILES IDX 64 98 65 99 66 100 67 101
REMARK H PARENT 9 18 13 27 91 54 59 65
REMARK Flexibility Score: inf
ROOT
ATOM      1  C   UNL     1      -1.775   2.575  -2.881  1.00  0.00     0.188 C 
ENDROOT
BRANCH   1   2
ATOM      2  C   UNL     1      -1.449   1.253  -3.571  1.00  0.00     0.188 C 
BRANCH   2   3
ATOM      3  O   UNL     1      -2.577   0.525  -4.031  1.00  0.00    -0.376 OA
BRANCH   3   4
ATOM      4  C   UNL     1      -3.138  -0.390  -3.093  1.00  0.00     0.202 C 
BRANCH   4   5
ATOM      5  C   UNL     1      -3.986   0.232  -1.967  1.00  0.00     0.261 C 
BRANCH   5   6
ATOM      6  O   UNL     1      -3.249   1.034  -1.008  1.00  0.00    -0.463 OA
BRANCH   6   7
ATOM      7  C   UNL     1      -2.580   0.358  -0.056  1.00  0.00     0.312 C 
ATOM      8  O   UNL     1      -2.591  -0.870   0.004  1.00  0.00    -0.252 OA
BRANCH   7   9
ATOM      9  C   UNL     1      -1.800   1.231   0.973  1.00  0.00     0.076 C 
ATOM     10  C   UNL     1      -2.652   1.075   2.260  1.00  0.00     0.024 C 
BRANCH   9  11
ATOM     11  C   UNL     1      -0.420   0.605   1.185  1.00  0.00     0.000 C 
ATOM     12  C   UNL     1      -0.263  -0.701   1.965  1.00  0.00     0.008 C 
ATOM     13  C   UNL     1       0.215   0.372  -0.163  1.00  0.00     0.008 C 
ENDBRANCH   9  11
BRANCH   9  14
ATOM     14  C   UNL     1      -1.629   2.791   0.763  1.00  0.00     0.118 C 
BRANCH  14  15
ATOM     15  C   UNL     1      -0.653   3.652  -0.108  1.00  0.00     0.221 C 
ATOM     16  O   UNL     1      -1.132   4.693  -0.599  1.00  0.00    -0.275 OA
ATOM     17  N   UNL     1       0.666   3.542  -0.402  1.00  0.00    -0.353 N 
ATOM     18  H   UNL     1       0.873   3.936  -1.280  1.00  0.00     0.163 HD
BRANCH  17  19
ATOM     19  C   UNL     1       1.868   2.996   0.235  1.00  0.00     0.153 C 
BRANCH  19  20
ATOM     20  C   UNL     1       3.060   2.567  -0.698  1.00  0.00     0.192 C 
ATOM     21  C   UNL     1       2.828   1.584  -1.888  1.00  0.00     0.296 C 
ATOM     22  O   UNL     1       4.169   2.089   0.110  1.00  0.00    -0.365 OA
ATOM     23  N   UNL     1       2.719   0.182  -1.493  1.00  0.00    -0.333 N 
ATOM     24  C   UNL     1       3.966   0.744   0.573  1.00  0.00     0.222 C 
ATOM     25  C   UNL     1       2.382  -0.767  -2.535  1.00  0.00     0.332 C 
ATOM     26  C   UNL     1       3.773  -0.256  -0.582  1.00  0.00     0.290 C 
ATOM     27  H   UNL     1       1.864   0.174  -0.937  1.00  0.00     0.348 HD
ENDBRANCH  19  20
ENDBRANCH  17  19
ENDBRANCH  14  15
ENDBRANCH   9  14
ENDBRANCH   7   9
ENDBRANCH   6   7
ENDBRANCH   5   6
ENDBRANCH   4   5
ENDBRANCH   3   4
ENDBRANCH   2   3
ENDBRANCH   1   2
BRANCH   1  28
ATOM     28  O   UNL     1      -3.057   3.152  -3.034  1.00  0.00    -0.377 OA
BRANCH  28  29
ATOM     29  C   UNL     1      -3.663   3.121  -4.312  1.00  0.00     0.188 C 
BRANCH  29  30
ATOM     30  C   UNL     1      -2.783   3.409  -5.538  1.00  0.00     0.188 C 
BRANCH  30  31
ATOM     31  O   UNL     1      -1.467   3.868  -5.242  1.00  0.00    -0.376 OA
BRANCH  31  32
ATOM     32  C   UNL     1      -1.252   5.273  -5.316  1.00  0.00     0.202 C 
BRANCH  32  33
ATOM     33  C   UNL     1      -1.913   6.133  -4.228  1.00  0.00     0.261 C 
BRANCH  33  34
ATOM     34  O   UNL     1      -3.346   6.117  -4.198  1.00  0.00    -0.460 OA
BRANCH  34  35
ATOM     35  C   UNL     1      -4.014   6.494  -5.314  1.00  0.00     0.338 C 
ATOM     36  O   UNL     1      -3.545   6.887  -6.355  1.00  0.00    -0.246 OA
BRANCH  35  37
ATOM     37  C   UNL     1      -5.431   6.129  -5.088  1.00  0.00     0.060 A 
ATOM     38  C   UNL     1      -6.032   5.204  -5.951  1.00  0.00     0.016 A 
ATOM     39  C   UNL     1      -6.123   6.628  -3.981  1.00  0.00     0.016 A 
ATOM     40  C   UNL     1      -7.336   4.775  -5.705  1.00  0.00     0.010 A 
ATOM     41  C   UNL     1      -7.442   6.229  -3.760  1.00  0.00     0.010 A 
ATOM     42  C   UNL     1      -8.060   5.319  -4.635  1.00  0.00    -0.014 A 
BRANCH  42  43
ATOM     43  C   UNL     1      -9.532   5.151  -4.601  1.00  0.00     0.031 A 
ATOM     44  C   UNL     1     -10.352   6.171  -5.343  1.00  0.00     0.074 A 
ATOM     45  C   UNL     1     -10.122   4.128  -3.959  1.00  0.00     0.049 A 
ATOM     46  N   UNL     1     -11.648   6.277  -5.457  1.00  0.00    -0.248 NA
ATOM     47  C   UNL     1      -9.594   7.216  -6.052  1.00  0.00     0.031 C 
ATOM     48  C   UNL     1      -9.424   3.059  -3.247  1.00  0.00     0.029 A 
ATOM     49  N   UNL     1     -11.452   3.826  -3.801  1.00  0.00    -0.354 N 
ATOM     50  C   UNL     1     -11.862   7.391  -6.262  1.00  0.00     0.074 A 
ATOM     51  C   UNL     1     -10.565   7.950  -6.570  1.00  0.00     0.031 C 
ATOM     52  C   UNL     1     -10.336   2.225  -2.714  1.00  0.00     0.029 A 
ATOM     53  C   UNL     1     -11.680   2.717  -3.019  1.00  0.00     0.049 A 
ATOM     54  H   UNL     1     -12.175   4.354  -4.210  1.00  0.00     0.167 HD
ATOM     55  C   UNL     1     -13.035   7.897  -6.712  1.00  0.00     0.034 A 
ATOM     56  C   UNL     1     -12.841   2.184  -2.584  1.00  0.00     0.034 A 
ATOM     57  C   UNL     1     -14.320   7.357  -6.355  1.00  0.00     0.049 A 
ATOM     58  C   UNL     1     -14.142   2.831  -3.008  1.00  0.00     0.074 A 
ATOM     59  C   UNL     1     -15.576   7.799  -6.728  1.00  0.00     0.029 A 
ATOM     60  N   UNL     1     -14.514   6.262  -5.521  1.00  0.00    -0.354 N 
ATOM     61  N   UNL     1     -14.335   3.879  -3.778  1.00  0.00    -0.248 NA
ATOM     62  C   UNL     1     -15.382   2.220  -2.510  1.00  0.00     0.031 C 
ATOM     63  C   UNL     1     -16.528   7.018  -6.064  1.00  0.00     0.029 A 
ATOM     64  C   UNL     1     -15.869   6.034  -5.343  1.00  0.00     0.049 A 
ATOM     65  H   UNL     1     -13.794   5.727  -5.116  1.00  0.00     0.167 HD
ATOM     66  C   UNL     1     -15.717   4.029  -3.881  1.00  0.00     0.074 A 
ATOM     67  C   UNL     1     -16.307   2.958  -3.105  1.00  0.00     0.031 C 
ATOM     68  C   UNL     1     -16.436   4.962  -4.557  1.00  0.00     0.034 A 
BRANCH  55  69
ATOM     69  C   UNL     1     -12.958   9.128  -7.580  1.00  0.00     0.023 A 
ATOM     70  C   UNL     1     -12.332   9.105  -8.839  1.00  0.00     0.031 A 
ATOM     71  C   UNL     1     -13.460  10.356  -7.116  1.00  0.00     0.131 A 
ATOM     72  C   UNL     1     -12.156  10.298  -9.556  1.00  0.00     0.055 A 
ATOM     73  C   UNL     1     -13.354  11.525  -7.871  1.00  0.00     0.041 A 
ATOM     74  F   UNL     1     -14.040  10.446  -5.909  1.00  0.00    -0.206 F 
ATOM     75  C   UNL     1     -12.686  11.504  -9.092  1.00  0.00     0.022 A 
BRANCH  72  76
ATOM     76  S   UNL     1     -11.096  10.278 -11.028  1.00  0.00     0.124 S 
ATOM     77  O   UNL     1      -9.826   9.819 -10.471  1.00  0.00    -0.237 OA
ATOM     78  O   UNL     1     -11.787   9.338 -11.902  1.00  0.00    -0.237 OA
ATOM     79  O   UNL     1     -11.106  11.669 -11.476  1.00  0.00    -0.744 OA
ENDBRANCH  72  76
ENDBRANCH  55  69
BRANCH  56  80
ATOM     80  C   UNL     1     -12.844   1.011  -1.660  1.00  0.00     0.023 A 
ATOM     81  C   UNL     1     -13.433  -0.211  -2.026  1.00  0.00     0.031 A 
ATOM     82  C   UNL     1     -12.317   1.121  -0.360  1.00  0.00     0.131 A 
ATOM     83  C   UNL     1     -13.522  -1.255  -1.091  1.00  0.00     0.055 A 
ATOM     84  C   UNL     1     -12.361   0.061   0.549  1.00  0.00     0.041 A 
ATOM     85  F   UNL     1     -11.750   2.267   0.048  1.00  0.00    -0.206 F 
ATOM     86  C   UNL     1     -12.979  -1.132   0.190  1.00  0.00     0.022 A 
BRANCH  83  87
ATOM     87  S   UNL     1     -14.444  -2.753  -1.540  1.00  0.00     0.124 S 
ATOM     88  O   UNL     1     -15.762  -2.210  -1.849  1.00  0.00    -0.237 OA
ATOM     89  O   UNL     1     -13.674  -3.254  -2.673  1.00  0.00    -0.237 OA
ATOM     90  O   UNL     1     -14.374  -3.572  -0.331  1.00  0.00    -0.744 OA
ENDBRANCH  83  87
ENDBRANCH  56  80
BRANCH  68  91
ATOM     91  C   UNL     1     -17.940   4.830  -4.528  1.00  0.00     0.023 A 
ATOM     92  C   UNL     1     -18.680   5.018  -3.348  1.00  0.00     0.031 A 
ATOM     93  C   UNL     1     -18.642   4.517  -5.707  1.00  0.00     0.131 A 
ATOM     94  C   UNL     1     -20.072   4.839  -3.362  1.00  0.00     0.055 A 
ATOM     95  C   UNL     1     -20.032   4.402  -5.727  1.00  0.00     0.041 A 
ATOM     96  F   UNL     1     -17.985   4.327  -6.863  1.00  0.00    -0.206 F 
ATOM     97  C   UNL     1     -20.754   4.551  -4.547  1.00  0.00     0.022 A 
BRANCH  94  98
ATOM     98  S   UNL     1     -20.975   4.901  -1.790  1.00  0.00     0.124 S 
ATOM     99  O   UNL     1     -20.320   3.848  -1.022  1.00  0.00    -0.237 OA
ATOM    100  O   UNL     1     -20.726   6.267  -1.340  1.00  0.00    -0.237 OA
ATOM    101  O   UNL     1     -22.356   4.619  -2.176  1.00  0.00    -0.744 OA
ENDBRANCH  94  98
ENDBRANCH  68  91
ENDBRANCH  42  43
ENDBRANCH  35  37
ENDBRANCH  34  35
ENDBRANCH  33  34
ENDBRANCH  32  33
ENDBRANCH  31  32
ENDBRANCH  30  31
ENDBRANCH  29  30
ENDBRANCH  28  29
ENDBRANCH   1  28
TORSDOF 28
