REMARK SMILES CCC(CC)(NC(=O)CS[C@H]1CCS(=O)(=O)C1)C(=O)OCCOCCOCCOCCOC(=O)c1ccc(-c2c3nc(c(-c4cc(S(=O)(=O)[O-])ccc4F)c4ccc([nH]4)c(-c4cc(S(=O)(=O)[O-])ccc4F)c4nc(c(-c5cc(S(=O)(=O)[O-])ccc5F)c5ccc2[nH]5)C=C4)C=C3)cc1
REMARK SMILES IDX 25 1 24 2 23 3 22 4 21 5 20 6 18 7 19 8 3 9 2 10 1 11 4 12
REMARK SMILES IDX 5 13 6 14 7 15 8 17 9 18 10 19 11 20 12 21 17 22 13 23 14 24
REMARK SMILES IDX 15 25 16 26 26 27 27 28 28 29 29 30 30 31 31 32 32 33 33 34
REMARK SMILES IDX 34 35 35 36 36 37 97 38 37 39 96 40 38 41 39 42 40 43 90 44
REMARK SMILES IDX 41 45 95 46 89 47 91 48 42 49 94 50 88 51 87 52 43 54 75 55
REMARK SMILES IDX 55 56 74 57 56 58 59 59 73 60 92 61 57 62 58 63 72 65 93 66
REMARK SMILES IDX 60 67 44 68 45 69 53 70 46 71 52 72 54 73 51 74 47 75 48 76
REMARK SMILES IDX 49 77 50 78 76 79 77 80 85 81 78 82 84 83 86 84 83 85 79 86
REMARK SMILES IDX 80 87 81 88 82 89 61 90 62 91 70 92 63 93 69 94 71 95 68 96
REMARK SMILES IDX 64 97 65 98 66 99 67 100
REMARK H PARENT 6 16 91 53 59 64
REMARK Flexibility Score: inf
ROOT
ATOM      1  C   UNL     1       3.058  -4.197   5.193  1.00  0.00     0.188 C 
ENDROOT
BRANCH   1   2
ATOM      2  C   UNL     1       2.818  -2.652   4.558  1.00  0.00     0.188 C 
BRANCH   2   3
ATOM      3  O   UNL     1       3.367  -1.669   3.548  1.00  0.00    -0.376 OA
BRANCH   3   4
ATOM      4  C   UNL     1       4.579  -0.931   3.107  1.00  0.00     0.202 C 
BRANCH   4   5
ATOM      5  C   UNL     1       4.988   0.441   3.719  1.00  0.00     0.261 C 
BRANCH   5   6
ATOM      6  O   UNL     1       4.199   0.718   4.843  1.00  0.00    -0.461 OA
BRANCH   6   7
ATOM      7  C   UNL     1       2.904   0.804   4.452  1.00  0.00     0.331 C 
ATOM      8  O   UNL     1       2.555   1.314   3.394  1.00  0.00    -0.249 OA
BRANCH   7   9
ATOM      9  C   UNL     1       1.993   0.223   5.534  1.00  0.00     0.137 C 
BRANCH   9  10
ATOM     10  C   UNL     1       0.715  -0.556   4.960  1.00  0.00     0.037 C 
ATOM     11  C   UNL     1       0.281  -0.237   3.524  1.00  0.00     0.007 C 
ENDBRANCH   9  10
BRANCH   9  12
ATOM     12  C   UNL     1       1.472   1.557   6.206  1.00  0.00     0.037 C 
ATOM     13  C   UNL     1       0.017   1.620   6.673  1.00  0.00     0.007 C 
ENDBRANCH   9  12
BRANCH   9  14
ATOM     14  N   UNL     1       2.932  -0.598   6.576  1.00  0.00    -0.340 N 
ATOM     15  C   UNL     1       3.971  -1.588   6.601  1.00  0.00     0.230 C 
ATOM     16  H   UNL     1       2.715  -0.326   7.497  1.00  0.00     0.164 HD
ATOM     17  O   UNL     1       4.049  -2.105   7.735  1.00  0.00    -0.274 OA
BRANCH  15  18
ATOM     18  C   UNL     1       5.174  -2.038   5.437  1.00  0.00     0.169 C 
BRANCH  18  19
ATOM     19  S   UNL     1       5.351  -3.643   3.874  1.00  0.00    -0.148 SA
BRANCH  19  20
ATOM     20  C   UNL     1       3.935  -3.786   2.216  1.00  0.00     0.063 C 
ATOM     21  C   UNL     1       3.975  -5.205   1.561  1.00  0.00     0.031 C 
ATOM     22  C   UNL     1       2.368  -3.594   2.178  1.00  0.00     0.151 C 
ATOM     23  C   UNL     1       3.115  -5.137   0.270  1.00  0.00     0.138 C 
ATOM     24  S   UNL     1       1.704  -4.149   0.656  1.00  0.00     0.151 S 
ATOM     25  O   UNL     1       1.609  -3.030  -0.246  1.00  0.00    -0.229 OA
ATOM     26  O   UNL     1       0.558  -5.000   0.951  1.00  0.00    -0.229 OA
ENDBRANCH  19  20
ENDBRANCH  18  19
ENDBRANCH  15  18
ENDBRANCH   9  14
ENDBRANCH   7   9
ENDBRANCH   6   7
ENDBRANCH   5   6
ENDBRANCH   4   5
ENDBRANCH   3   4
ENDBRANCH   2   3
ENDBRANCH   1   2
BRANCH   1  27
ATOM     27  O   UNL     1       3.818  -4.422   6.386  1.00  0.00    -0.377 OA
BRANCH  27  28
ATOM     28  C   UNL     1       5.127  -5.005   6.514  1.00  0.00     0.188 C 
BRANCH  28  29
ATOM     29  C   UNL     1       5.593  -6.345   5.899  1.00  0.00     0.188 C 
BRANCH  29  30
ATOM     30  O   UNL     1       4.849  -7.539   6.043  1.00  0.00    -0.376 OA
BRANCH  30  31
ATOM     31  C   UNL     1       3.721  -7.511   6.889  1.00  0.00     0.202 C 
BRANCH  31  32
ATOM     32  C   UNL     1       3.984  -7.649   8.397  1.00  0.00     0.261 C 
BRANCH  32  33
ATOM     33  O   UNL     1       4.820  -6.643   9.001  1.00  0.00    -0.460 OA
BRANCH  33  34
ATOM     34  C   UNL     1       6.139  -6.952   9.101  1.00  0.00     0.338 C 
ATOM     35  O   UNL     1       6.662  -7.990   8.733  1.00  0.00    -0.246 OA
BRANCH  34  36
ATOM     36  C   UNL     1       6.934  -5.803   9.615  1.00  0.00     0.060 A 
ATOM     37  C   UNL     1       8.127  -5.480   8.952  1.00  0.00     0.016 A 
ATOM     38  C   UNL     1       6.604  -5.148  10.805  1.00  0.00     0.016 A 
ATOM     39  C   UNL     1       9.044  -4.596   9.529  1.00  0.00     0.010 A 
ATOM     40  C   UNL     1       7.530  -4.268  11.390  1.00  0.00     0.010 A 
ATOM     41  C   UNL     1       8.787  -4.048  10.793  1.00  0.00    -0.014 A 
BRANCH  41  42
ATOM     42  C   UNL     1       9.934  -3.543  11.605  1.00  0.00     0.031 A 
ATOM     43  C   UNL     1      10.559  -4.496  12.601  1.00  0.00     0.074 A 
ATOM     44  C   UNL     1      10.465  -2.318  11.432  1.00  0.00     0.049 A 
ATOM     45  N   UNL     1      11.554  -4.311  13.431  1.00  0.00    -0.248 NA
ATOM     46  C   UNL     1       9.970  -5.843  12.667  1.00  0.00     0.031 C 
ATOM     47  C   UNL     1      10.005  -1.327  10.462  1.00  0.00     0.029 A 
ATOM     48  N   UNL     1      11.517  -1.702  12.068  1.00  0.00    -0.354 N 
ATOM     49  C   UNL     1      11.700  -5.512  14.123  1.00  0.00     0.074 A 
ATOM     50  C   UNL     1      10.664  -6.400  13.646  1.00  0.00     0.031 C 
ATOM     51  C   UNL     1      10.772  -0.226  10.568  1.00  0.00     0.029 A 
ATOM     52  C   UNL     1      11.754  -0.417  11.636  1.00  0.00     0.049 A 
ATOM     53  H   UNL     1      12.053  -2.140  12.768  1.00  0.00     0.167 HD
ATOM     54  C   UNL     1      12.617  -5.851  15.063  1.00  0.00     0.034 A 
ATOM     55  C   UNL     1      12.646   0.502  12.065  1.00  0.00     0.034 A 
ATOM     56  C   UNL     1      13.644  -4.955  15.537  1.00  0.00     0.049 A 
ATOM     57  C   UNL     1      13.604   0.134  13.178  1.00  0.00     0.074 A 
ATOM     58  C   UNL     1      14.628  -5.195  16.480  1.00  0.00     0.029 A 
ATOM     59  N   UNL     1      13.812  -3.643  15.114  1.00  0.00    -0.354 N 
ATOM     60  N   UNL     1      13.729  -1.003  13.824  1.00  0.00    -0.248 NA
ATOM     61  C   UNL     1      14.550   1.173  13.608  1.00  0.00     0.031 C 
ATOM     62  C   UNL     1      15.332  -4.005  16.690  1.00  0.00     0.029 A 
ATOM     63  C   UNL     1      14.859  -3.050  15.803  1.00  0.00     0.049 A 
ATOM     64  H   UNL     1      13.266  -3.197  14.426  1.00  0.00     0.167 HD
ATOM     65  C   UNL     1      14.801  -0.829  14.700  1.00  0.00     0.074 A 
ATOM     66  C   UNL     1      15.289   0.518  14.490  1.00  0.00     0.031 C 
ATOM     67  C   UNL     1      15.339  -1.704  15.590  1.00  0.00     0.034 A 
BRANCH  54  68
ATOM     68  C   UNL     1      12.501  -7.224  15.687  1.00  0.00     0.023 A 
ATOM     69  C   UNL     1      12.640  -8.404  14.933  1.00  0.00     0.031 A 
ATOM     70  C   UNL     1      12.207  -7.354  17.056  1.00  0.00     0.131 A 
ATOM     71  C   UNL     1      12.409  -9.652  15.534  1.00  0.00     0.055 A 
ATOM     72  C   UNL     1      12.067  -8.601  17.667  1.00  0.00     0.041 A 
ATOM     73  F   UNL     1      12.035  -6.267  17.825  1.00  0.00    -0.206 F 
ATOM     74  C   UNL     1      12.151  -9.760  16.902  1.00  0.00     0.022 A 
BRANCH  71  75
ATOM     75  S   UNL     1      12.291 -11.120  14.474  1.00  0.00     0.124 S 
ATOM     76  O   UNL     1      11.207 -10.744  13.569  1.00  0.00    -0.237 OA
ATOM     77  O   UNL     1      13.622 -11.190  13.883  1.00  0.00    -0.237 OA
ATOM     78  O   UNL     1      11.967 -12.194  15.410  1.00  0.00    -0.744 OA
ENDBRANCH  71  75
ENDBRANCH  54  68
BRANCH  55  79
ATOM     79  C   UNL     1      12.675   1.875  11.473  1.00  0.00     0.023 A 
ATOM     80  C   UNL     1      13.818   2.366  10.818  1.00  0.00     0.031 A 
ATOM     81  C   UNL     1      11.581   2.748  11.621  1.00  0.00     0.131 A 
ATOM     82  C   UNL     1      13.860   3.701  10.383  1.00  0.00     0.055 A 
ATOM     83  C   UNL     1      11.606   4.056  11.133  1.00  0.00     0.041 A 
ATOM     84  F   UNL     1      10.466   2.340  12.247  1.00  0.00    -0.206 F 
ATOM     85  C   UNL     1      12.756   4.545  10.522  1.00  0.00     0.022 A 
BRANCH  82  86
ATOM     86  S   UNL     1      15.419   4.354   9.722  1.00  0.00     0.124 S 
ATOM     87  O   UNL     1      16.330   4.138  10.840  1.00  0.00    -0.237 OA
ATOM     88  O   UNL     1      15.627   3.510   8.550  1.00  0.00    -0.237 OA
ATOM     89  O   UNL     1      15.107   5.752   9.431  1.00  0.00    -0.744 OA
ENDBRANCH  82  86
ENDBRANCH  55  79
BRANCH  67  90
ATOM     90  C   UNL     1      16.568  -1.255  16.350  1.00  0.00     0.023 A 
ATOM     91  C   UNL     1      16.541  -0.170  17.244  1.00  0.00     0.031 A 
ATOM     92  C   UNL     1      17.796  -1.913  16.154  1.00  0.00     0.131 A 
ATOM     93  C   UNL     1      17.731   0.273  17.843  1.00  0.00     0.055 A 
ATOM     94  C   UNL     1      18.960  -1.518  16.815  1.00  0.00     0.041 A 
ATOM     95  F   UNL     1      17.888  -2.954  15.310  1.00  0.00    -0.206 F 
ATOM     96  C   UNL     1      18.936  -0.407  17.651  1.00  0.00     0.022 A 
BRANCH  93  97
ATOM     97  S   UNL     1      17.711   1.834  18.769  1.00  0.00     0.124 S 
ATOM     98  O   UNL     1      17.172   2.764  17.781  1.00  0.00    -0.237 OA
ATOM     99  O   UNL     1      16.834   1.519  19.892  1.00  0.00    -0.237 OA
ATOM    100  O   UNL     1      19.114   2.044  19.118  1.00  0.00    -0.744 OA
ENDBRANCH  93  97
ENDBRANCH  67  90
ENDBRANCH  41  42
ENDBRANCH  34  36
ENDBRANCH  33  34
ENDBRANCH  32  33
ENDBRANCH  31  32
ENDBRANCH  30  31
ENDBRANCH  29  30
ENDBRANCH  28  29
ENDBRANCH  27  28
ENDBRANCH   1  27
TORSDOF 29
