REMARK SMILES Cc1ccc(-c2nc(C)c(C(=O)N3CCC(C(=O)OCCOCCOCCOCCOC(=O)c4ccc(-c5c6nc(c(-c7cc(S(=O)(=O)[O-])ccc7F)c7ccc([nH]7)c(-c7cc(S(=O)(=O)[O-])ccc7F)c7nc(c(-c8cc(S(=O)(=O)[O-])ccc8F)c8ccc5[nH]8)C=C7)C=C6)cc4)CC3)s2)o1
REMARK SMILES IDX 26 1 25 2 24 3 23 4 22 5 21 6 20 7 19 8 17 9 18 10 16 11
REMARK SMILES IDX 11 12 12 13 13 14 14 15 98 16 15 17 97 18 10 19 6 20 7 21
REMARK SMILES IDX 99 22 8 23 9 24 5 25 1 26 2 27 3 28 100 29 4 30 27 31 28 32
REMARK SMILES IDX 29 33 30 34 31 35 32 36 33 37 34 38 35 39 96 40 36 41 95 42
REMARK SMILES IDX 37 43 38 44 39 45 89 46 40 47 94 48 88 49 90 50 41 51 93 52
REMARK SMILES IDX 87 53 86 54 42 56 74 57 54 58 73 59 55 60 58 61 72 62 91 63
REMARK SMILES IDX 56 64 57 65 71 67 92 68 59 69 43 70 44 71 52 72 45 73 51 74
REMARK SMILES IDX 53 75 50 76 46 77 47 78 48 79 49 80 75 81 76 82 84 83 77 84
REMARK SMILES IDX 83 85 85 86 82 87 78 88 79 89 80 90 81 91 60 92 61 93 69 94
REMARK SMILES IDX 62 95 68 96 70 97 67 98 63 99 64 100 65 101 66 102
REMARK H PARENT 90 55 58 66
REMARK Flexibility Score: inf
ROOT
ATOM      1  C   UNL     1     -11.564   8.033   2.754  1.00  0.00     0.188 C 
ENDROOT
BRANCH   1   2
ATOM      2  O   UNL     1     -10.812   7.559   1.640  1.00  0.00    -0.377 OA
BRANCH   2   3
ATOM      3  C   UNL     1     -10.222   8.533   0.809  1.00  0.00     0.188 C 
BRANCH   3   4
ATOM      4  C   UNL     1     -10.955   8.852  -0.496  1.00  0.00     0.188 C 
BRANCH   4   5
ATOM      5  O   UNL     1     -12.289   8.437  -0.729  1.00  0.00    -0.376 OA
BRANCH   5   6
ATOM      6  C   UNL     1     -12.762   7.175  -0.282  1.00  0.00     0.202 C 
BRANCH   6   7
ATOM      7  C   UNL     1     -12.038   5.866  -0.636  1.00  0.00     0.261 C 
BRANCH   7   8
ATOM      8  O   UNL     1     -10.638   5.795  -0.320  1.00  0.00    -0.463 OA
BRANCH   8   9
ATOM      9  C   UNL     1      -9.793   5.936  -1.361  1.00  0.00     0.309 C 
ATOM     10  O   UNL     1     -10.137   6.142  -2.522  1.00  0.00    -0.252 OA
BRANCH   9  11
ATOM     11  C   UNL     1      -8.333   5.745  -1.005  1.00  0.00     0.103 C 
ATOM     12  C   UNL     1      -5.242   3.648   0.841  1.00  0.00     0.265 C 
ATOM     13  O   UNL     1      -5.459   3.609   2.052  1.00  0.00    -0.268 OA
ATOM     14  N   UNL     1      -5.978   4.490   0.025  1.00  0.00    -0.338 N 
ATOM     15  C   UNL     1      -6.374   5.767   0.564  1.00  0.00     0.120 C 
ATOM     16  C   UNL     1      -6.440   4.154  -1.318  1.00  0.00     0.120 C 
ATOM     17  C   UNL     1      -7.865   5.993   0.436  1.00  0.00     0.037 C 
ATOM     18  C   UNL     1      -7.947   4.322  -1.419  1.00  0.00     0.037 C 
BRANCH  12  19
ATOM     19  C   UNL     1      -4.141   2.945   0.223  1.00  0.00     0.115 A 
ATOM     20  C   UNL     1      -2.288   1.454  -0.144  1.00  0.00     0.159 A 
ATOM     21  N   UNL     1      -2.233   2.436  -1.014  1.00  0.00    -0.237 NA
ATOM     22  S   UNL     1      -3.628   1.458   0.909  1.00  0.00    -0.105 S 
ATOM     23  C   UNL     1      -3.284   3.310  -0.808  1.00  0.00     0.062 A 
ATOM     24  C   UNL     1      -3.298   4.525  -1.666  1.00  0.00     0.068 C 
BRANCH  20  25
ATOM     25  C   UNL     1      -1.255   0.472  -0.058  1.00  0.00     0.162 A 
ATOM     26  C   UNL     1       2.262  -0.149  -0.018  1.00  0.00     0.087 C 
ATOM     27  C   UNL     1       0.799  -0.327  -0.002  1.00  0.00     0.101 A 
ATOM     28  C   UNL     1      -0.036  -1.414   0.114  1.00  0.00     0.046 A 
ATOM     29  O   UNL     1       0.071   0.811  -0.124  1.00  0.00    -0.459 OA
ATOM     30  C   UNL     1      -1.355  -0.900   0.095  1.00  0.00     0.054 A 
ENDBRANCH  20  25
ENDBRANCH  12  19
ENDBRANCH   9  11
ENDBRANCH   8   9
ENDBRANCH   7   8
ENDBRANCH   6   7
ENDBRANCH   5   6
ENDBRANCH   4   5
ENDBRANCH   3   4
ENDBRANCH   2   3
ENDBRANCH   1   2
BRANCH   1  31
ATOM     31  C   UNL     1     -12.320   9.367   2.587  1.00  0.00     0.188 C 
BRANCH  31  32
ATOM     32  O   UNL     1     -11.521  10.433   2.086  1.00  0.00    -0.376 OA
BRANCH  32  33
ATOM     33  C   UNL     1     -10.879  11.308   3.005  1.00  0.00     0.202 C 
BRANCH  33  34
ATOM     34  C   UNL     1      -9.828  10.727   3.971  1.00  0.00     0.261 C 
BRANCH  34  35
ATOM     35  O   UNL     1     -10.271   9.706   4.876  1.00  0.00    -0.460 OA
BRANCH  35  36
ATOM     36  C   UNL     1     -11.340   9.995   5.653  1.00  0.00     0.338 C 
ATOM     37  O   UNL     1     -11.910  11.061   5.731  1.00  0.00    -0.246 OA
BRANCH  36  38
ATOM     38  C   UNL     1     -11.850   8.729   6.226  1.00  0.00     0.060 A 
ATOM     39  C   UNL     1     -13.194   8.404   6.008  1.00  0.00     0.016 A 
ATOM     40  C   UNL     1     -11.035   7.901   7.001  1.00  0.00     0.016 A 
ATOM     41  C   UNL     1     -13.752   7.296   6.636  1.00  0.00     0.010 A 
ATOM     42  C   UNL     1     -11.602   6.799   7.651  1.00  0.00     0.010 A 
ATOM     43  C   UNL     1     -12.978   6.535   7.519  1.00  0.00    -0.014 A 
BRANCH  43  44
ATOM     44  C   UNL     1     -13.688   5.685   8.508  1.00  0.00     0.031 A 
ATOM     45  C   UNL     1     -13.935   6.260   9.878  1.00  0.00     0.074 A 
ATOM     46  C   UNL     1     -14.193   4.486   8.173  1.00  0.00     0.049 A 
ATOM     47  N   UNL     1     -14.557   5.741  10.904  1.00  0.00    -0.248 NA
ATOM     48  C   UNL     1     -13.400   7.609  10.119  1.00  0.00     0.031 C 
ATOM     49  C   UNL     1     -14.066   3.853   6.862  1.00  0.00     0.029 A 
ATOM     50  N   UNL     1     -14.924   3.591   8.912  1.00  0.00    -0.354 N 
ATOM     51  C   UNL     1     -14.492   6.701  11.909  1.00  0.00     0.074 A 
ATOM     52  C   UNL     1     -13.712   7.803  11.389  1.00  0.00     0.031 C 
ATOM     53  C   UNL     1     -14.692   2.664   6.893  1.00  0.00     0.029 A 
ATOM     54  C   UNL     1     -15.235   2.438   8.232  1.00  0.00     0.049 A 
ATOM     55  H   UNL     1     -15.198   3.758   9.843  1.00  0.00     0.167 HD
ATOM     56  C   UNL     1     -15.049   6.679  13.146  1.00  0.00     0.034 A 
ATOM     57  C   UNL     1     -15.865   1.322   8.652  1.00  0.00     0.034 A 
ATOM     58  C   UNL     1     -15.801   5.559  13.657  1.00  0.00     0.049 A 
ATOM     59  C   UNL     1     -16.398   1.272  10.064  1.00  0.00     0.074 A 
ATOM     60  C   UNL     1     -16.393   5.410  14.898  1.00  0.00     0.029 A 
ATOM     61  N   UNL     1     -16.052   4.385  12.955  1.00  0.00    -0.354 N 
ATOM     62  N   UNL     1     -16.326   2.181  11.011  1.00  0.00    -0.248 NA
ATOM     63  C   UNL     1     -17.114   0.053  10.456  1.00  0.00     0.031 C 
ATOM     64  C   UNL     1     -16.930   4.120  14.976  1.00  0.00     0.029 A 
ATOM     65  C   UNL     1     -16.765   3.498  13.748  1.00  0.00     0.049 A 
ATOM     66  H   UNL     1     -15.766   4.209  12.030  1.00  0.00     0.167 HD
ATOM     67  C   UNL     1     -17.021   1.655  12.099  1.00  0.00     0.074 A 
ATOM     68  C   UNL     1     -17.513   0.357  11.682  1.00  0.00     0.031 C 
ATOM     69  C   UNL     1     -17.240   2.198  13.326  1.00  0.00     0.034 A 
BRANCH  56  70
ATOM     70  C   UNL     1     -14.800   7.880  14.031  1.00  0.00     0.023 A 
ATOM     71  C   UNL     1     -15.219   9.172  13.661  1.00  0.00     0.031 A 
ATOM     72  C   UNL     1     -14.065   7.748  15.222  1.00  0.00     0.131 A 
ATOM     73  C   UNL     1     -14.812  10.284  14.413  1.00  0.00     0.055 A 
ATOM     74  C   UNL     1     -13.751   8.849  16.021  1.00  0.00     0.041 A 
ATOM     75  F   UNL     1     -13.612   6.548  15.617  1.00  0.00    -0.206 F 
ATOM     76  C   UNL     1     -14.105  10.130  15.607  1.00  0.00     0.022 A 
BRANCH  73  77
ATOM     77  S   UNL     1     -15.045  11.939  13.705  1.00  0.00     0.124 S 
ATOM     78  O   UNL     1     -14.329  11.820  12.437  1.00  0.00    -0.237 OA
ATOM     79  O   UNL     1     -16.496  12.041  13.613  1.00  0.00    -0.237 OA
ATOM     80  O   UNL     1     -14.416  12.823  14.685  1.00  0.00    -0.744 OA
ENDBRANCH  73  77
ENDBRANCH  56  70
BRANCH  57  81
ATOM     81  C   UNL     1     -15.988   0.148   7.740  1.00  0.00     0.023 A 
ATOM     82  C   UNL     1     -17.236  -0.326   7.306  1.00  0.00     0.031 A 
ATOM     83  C   UNL     1     -14.837  -0.542   7.314  1.00  0.00     0.131 A 
ATOM     84  C   UNL     1     -17.306  -1.475   6.501  1.00  0.00     0.055 A 
ATOM     85  C   UNL     1     -14.909  -1.651   6.470  1.00  0.00     0.041 A 
ATOM     86  F   UNL     1     -13.619  -0.135   7.704  1.00  0.00    -0.206 F 
ATOM     87  C   UNL     1     -16.150  -2.130   6.067  1.00  0.00     0.022 A 
BRANCH  84  88
ATOM     88  S   UNL     1     -18.937  -2.151   6.083  1.00  0.00     0.124 S 
ATOM     89  O   UNL     1     -19.490  -2.430   7.404  1.00  0.00    -0.237 OA
ATOM     90  O   UNL     1     -19.546  -1.045   5.353  1.00  0.00    -0.237 OA
ATOM     91  O   UNL     1     -18.621  -3.328   5.277  1.00  0.00    -0.744 OA
ENDBRANCH  84  88
ENDBRANCH  57  81
BRANCH  69  92
ATOM     92  C   UNL     1     -18.105   1.410  14.286  1.00  0.00     0.023 A 
ATOM     93  C   UNL     1     -17.724   0.148  14.773  1.00  0.00     0.031 A 
ATOM     94  C   UNL     1     -19.347   1.927  14.701  1.00  0.00     0.131 A 
ATOM     95  C   UNL     1     -18.606  -0.587  15.581  1.00  0.00     0.055 A 
ATOM     96  C   UNL     1     -20.185   1.226  15.568  1.00  0.00     0.041 A 
ATOM     97  F   UNL     1     -19.769   3.125  14.267  1.00  0.00    -0.206 F 
ATOM     98  C   UNL     1     -19.826  -0.047  15.998  1.00  0.00     0.022 A 
BRANCH  95  99
ATOM     99  S   UNL     1     -18.202  -2.313  15.965  1.00  0.00     0.124 S 
ATOM    100  O   UNL     1     -18.015  -2.883  14.635  1.00  0.00    -0.237 OA
ATOM    101  O   UNL     1     -16.997  -2.177  16.777  1.00  0.00    -0.237 OA
ATOM    102  O   UNL     1     -19.383  -2.790  16.683  1.00  0.00    -0.744 OA
ENDBRANCH  95  99
ENDBRANCH  69  92
ENDBRANCH  43  44
ENDBRANCH  36  38
ENDBRANCH  35  36
ENDBRANCH  34  35
ENDBRANCH  33  34
ENDBRANCH  32  33
ENDBRANCH  31  32
ENDBRANCH   1  31
TORSDOF 25
