REMARK SMILES CC[NH+](CC)[C@@H](C(=O)OCCOCCOCCOCCOC(=O)c1ccc(-c2c3nc(c(-c4cc(S(=O)(=O)[O-])ccc4F)c4ccc([nH]4)c(-c4cc(S(=O)(=O)[O-])ccc4F)c4nc(c(-c5cc(S(=O)(=O)[O-])ccc5F)c5ccc2[nH]5)C=C4)C=C3)cc1)c1ccc(C2CC2)cc1
REMARK SMILES IDX 16 1 15 2 14 3 13 4 12 5 11 6 10 7 9 8 7 9 8 10 6 11 3 12
REMARK SMILES IDX 2 14 1 15 4 16 5 17 87 18 88 19 95 20 89 21 94 22 90 23
REMARK SMILES IDX 91 24 92 25 93 26 17 27 18 28 19 29 20 30 21 31 22 32 23 33
REMARK SMILES IDX 24 34 25 35 86 36 26 37 85 38 27 39 28 40 29 41 79 42 30 43
REMARK SMILES IDX 84 44 78 45 80 46 31 47 83 48 77 49 76 50 32 52 64 53 44 54
REMARK SMILES IDX 63 55 45 56 48 57 62 58 81 59 46 60 47 61 61 63 82 64 49 65
REMARK SMILES IDX 33 66 34 67 42 68 35 69 41 70 43 71 40 72 36 73 37 74 38 75
REMARK SMILES IDX 39 76 65 77 66 78 74 79 67 80 73 81 75 82 72 83 68 84 69 85
REMARK SMILES IDX 70 86 71 87 50 88 51 89 59 90 52 91 58 92 60 93 57 94 53 95
REMARK SMILES IDX 54 96 55 97 56 98
REMARK H PARENT 3 13 80 51 48 62
REMARK Flexibility Score: inf
ROOT
ATOM      1  C   UNL     1       0.922  -3.833   2.545  1.00  0.00     0.188 C 
ENDROOT
BRANCH   1   2
ATOM      2  O   UNL     1       1.761  -2.772   2.100  1.00  0.00    -0.377 OA
BRANCH   2   3
ATOM      3  C   UNL     1       2.732  -3.013   1.098  1.00  0.00     0.188 C 
BRANCH   3   4
ATOM      4  C   UNL     1       4.163  -3.166   1.609  1.00  0.00     0.188 C 
BRANCH   4   5
ATOM      5  O   UNL     1       4.348  -4.053   2.699  1.00  0.00    -0.376 OA
BRANCH   5   6
ATOM      6  C   UNL     1       4.016  -3.568   4.005  1.00  0.00     0.202 C 
BRANCH   6   7
ATOM      7  C   UNL     1       4.228  -2.081   4.332  1.00  0.00     0.261 C 
BRANCH   7   8
ATOM      8  O   UNL     1       3.305  -1.195   3.644  1.00  0.00    -0.459 OA
BRANCH   8   9
ATOM      9  C   UNL     1       3.797   0.036   3.345  1.00  0.00     0.369 C 
ATOM     10  O   UNL     1       4.958   0.358   3.610  1.00  0.00    -0.245 OA
BRANCH   9  11
ATOM     11  C   UNL     1       2.860   1.018   2.599  1.00  0.00     0.326 C 
BRANCH  11  12
ATOM     12  N   UNL     1       1.384   0.903   2.729  1.00  0.00    -0.320 N 
ATOM     13  H   UNL     1       1.315   1.772   2.201  1.00  0.00     0.349 HD
BRANCH  12  14
ATOM     14  C   UNL     1       0.506   0.178   1.815  1.00  0.00     0.259 C 
ATOM     15  C   UNL     1       0.640   0.352   0.306  1.00  0.00     0.071 C 
ENDBRANCH  12  14
BRANCH  12  16
ATOM     16  C   UNL     1       0.851   0.998   4.093  1.00  0.00     0.259 C 
ATOM     17  C   UNL     1       0.519  -0.311   4.808  1.00  0.00     0.071 C 
ENDBRANCH  12  16
ENDBRANCH  11  12
BRANCH  11  18
ATOM     18  C   UNL     1       3.362   1.400   1.201  1.00  0.00     0.021 A 
ATOM     19  C   UNL     1       4.148   0.552   0.414  1.00  0.00     0.011 A 
ATOM     20  C   UNL     1       3.002   2.639   0.652  1.00  0.00     0.011 A 
ATOM     21  C   UNL     1       4.490   0.894  -0.899  1.00  0.00     0.004 A 
ATOM     22  C   UNL     1       3.344   2.974  -0.666  1.00  0.00     0.004 A 
ATOM     23  C   UNL     1       4.075   2.100  -1.483  1.00  0.00    -0.045 A 
BRANCH  23  24
ATOM     24  C   UNL     1       4.395   2.367  -2.937  1.00  0.00     0.019 C 
ATOM     25  C   UNL     1       4.182   3.699  -3.611  1.00  0.00     0.009 C 
ATOM     26  C   UNL     1       5.572   3.250  -3.274  1.00  0.00     0.009 C 
ENDBRANCH  23  24
ENDBRANCH  11  18
ENDBRANCH   9  11
ENDBRANCH   8   9
ENDBRANCH   7   8
ENDBRANCH   6   7
ENDBRANCH   5   6
ENDBRANCH   4   5
ENDBRANCH   3   4
ENDBRANCH   2   3
ENDBRANCH   1   2
BRANCH   1  27
ATOM     27  C   UNL     1       0.769  -5.047   1.631  1.00  0.00     0.188 C 
BRANCH  27  28
ATOM     28  O   UNL     1       0.286  -4.807   0.307  1.00  0.00    -0.376 OA
BRANCH  28  29
ATOM     29  C   UNL     1      -0.613  -3.721   0.097  1.00  0.00     0.202 C 
BRANCH  29  30
ATOM     30  C   UNL     1      -2.076  -3.994   0.450  1.00  0.00     0.261 C 
BRANCH  30  31
ATOM     31  O   UNL     1      -2.288  -4.113   1.865  1.00  0.00    -0.460 OA
BRANCH  31  32
ATOM     32  C   UNL     1      -2.370  -5.388   2.317  1.00  0.00     0.338 C 
ATOM     33  O   UNL     1      -2.284  -6.406   1.657  1.00  0.00    -0.246 OA
BRANCH  32  34
ATOM     34  C   UNL     1      -2.438  -5.391   3.791  1.00  0.00     0.060 A 
ATOM     35  C   UNL     1      -1.601  -6.274   4.484  1.00  0.00     0.016 A 
ATOM     36  C   UNL     1      -3.390  -4.628   4.471  1.00  0.00     0.016 A 
ATOM     37  C   UNL     1      -1.762  -6.452   5.855  1.00  0.00     0.010 A 
ATOM     38  C   UNL     1      -3.560  -4.816   5.844  1.00  0.00     0.010 A 
ATOM     39  C   UNL     1      -2.781  -5.766   6.528  1.00  0.00    -0.014 A 
BRANCH  39  40
ATOM     40  C   UNL     1      -3.169  -6.212   7.887  1.00  0.00     0.031 A 
ATOM     41  C   UNL     1      -4.328  -7.163   8.019  1.00  0.00     0.074 A 
ATOM     42  C   UNL     1      -2.477  -5.810   8.967  1.00  0.00     0.049 A 
ATOM     43  N   UNL     1      -4.869  -7.671   9.095  1.00  0.00    -0.248 NA
ATOM     44  C   UNL     1      -4.965  -7.596   6.764  1.00  0.00     0.031 C 
ATOM     45  C   UNL     1      -1.312  -4.927   8.941  1.00  0.00     0.029 A 
ATOM     46  N   UNL     1      -2.659  -6.091  10.296  1.00  0.00    -0.354 N 
ATOM     47  C   UNL     1      -5.914  -8.475   8.649  1.00  0.00     0.074 A 
ATOM     48  C   UNL     1      -5.950  -8.360   7.207  1.00  0.00     0.031 C 
ATOM     49  C   UNL     1      -0.891  -4.726  10.202  1.00  0.00     0.029 A 
ATOM     50  C   UNL     1      -1.775  -5.438  11.122  1.00  0.00     0.049 A 
ATOM     51  H   UNL     1      -3.356  -6.703  10.627  1.00  0.00     0.167 HD
ATOM     52  C   UNL     1      -6.761  -9.242   9.378  1.00  0.00     0.034 A 
ATOM     53  C   UNL     1      -1.709  -5.404  12.468  1.00  0.00     0.034 A 
ATOM     54  C   UNL     1      -6.710  -9.334  10.817  1.00  0.00     0.049 A 
ATOM     55  C   UNL     1      -2.699  -6.223  13.262  1.00  0.00     0.074 A 
ATOM     56  C   UNL     1      -7.508 -10.083  11.663  1.00  0.00     0.029 A 
ATOM     57  N   UNL     1      -5.815  -8.643  11.624  1.00  0.00    -0.354 N 
ATOM     58  N   UNL     1      -3.676  -6.989  12.830  1.00  0.00    -0.248 NA
ATOM     59  C   UNL     1      -2.565  -6.187  14.723  1.00  0.00     0.031 C 
ATOM     60  C   UNL     1      -7.143  -9.791  12.982  1.00  0.00     0.029 A 
ATOM     61  C   UNL     1      -6.060  -8.925  12.959  1.00  0.00     0.049 A 
ATOM     62  H   UNL     1      -5.109  -8.040  11.296  1.00  0.00     0.167 HD
ATOM     63  C   UNL     1      -4.250  -7.552  13.968  1.00  0.00     0.074 A 
ATOM     64  C   UNL     1      -3.496  -7.051  15.100  1.00  0.00     0.031 C 
ATOM     65  C   UNL     1      -5.300  -8.408  14.073  1.00  0.00     0.034 A 
BRANCH  52  66
ATOM     66  C   UNL     1      -7.844  -9.985   8.633  1.00  0.00     0.023 A 
ATOM     67  C   UNL     1      -7.552 -11.005   7.710  1.00  0.00     0.031 A 
ATOM     68  C   UNL     1      -9.195  -9.645   8.830  1.00  0.00     0.131 A 
ATOM     69  C   UNL     1      -8.588 -11.603   6.975  1.00  0.00     0.055 A 
ATOM     70  C   UNL     1     -10.226 -10.296   8.152  1.00  0.00     0.041 A 
ATOM     71  F   UNL     1      -9.534  -8.661   9.678  1.00  0.00    -0.206 F 
ATOM     72  C   UNL     1      -9.925 -11.273   7.208  1.00  0.00     0.022 A 
BRANCH  69  73
ATOM     73  S   UNL     1      -8.157 -12.725   5.615  1.00  0.00     0.124 S 
ATOM     74  O   UNL     1      -7.363 -11.852   4.754  1.00  0.00    -0.237 OA
ATOM     75  O   UNL     1      -7.426 -13.784   6.300  1.00  0.00    -0.237 OA
ATOM     76  O   UNL     1      -9.455 -13.115   5.069  1.00  0.00    -0.744 OA
ENDBRANCH  69  73
ENDBRANCH  52  66
BRANCH  53  77
ATOM     77  C   UNL     1      -0.705  -4.541  13.156  1.00  0.00     0.023 A 
ATOM     78  C   UNL     1       0.288  -5.091  13.982  1.00  0.00     0.031 A 
ATOM     79  C   UNL     1      -0.764  -3.140  13.042  1.00  0.00     0.131 A 
ATOM     80  C   UNL     1       1.146  -4.245  14.703  1.00  0.00     0.055 A 
ATOM     81  C   UNL     1       0.127  -2.305  13.717  1.00  0.00     0.041 A 
ATOM     82  F   UNL     1      -1.693  -2.561  12.264  1.00  0.00    -0.206 F 
ATOM     83  C   UNL     1       1.080  -2.856  14.566  1.00  0.00     0.022 A 
BRANCH  80  84
ATOM     84  S   UNL     1       2.290  -4.984  15.901  1.00  0.00     0.124 S 
ATOM     85  O   UNL     1       1.377  -5.718  16.770  1.00  0.00    -0.237 OA
ATOM     86  O   UNL     1       3.146  -5.793  15.040  1.00  0.00    -0.237 OA
ATOM     87  O   UNL     1       2.939  -3.825  16.511  1.00  0.00    -0.744 OA
ENDBRANCH  80  84
ENDBRANCH  53  77
BRANCH  65  88
ATOM     88  C   UNL     1      -5.651  -8.891  15.460  1.00  0.00     0.023 A 
ATOM     89  C   UNL     1      -6.128  -8.017  16.452  1.00  0.00     0.031 A 
ATOM     90  C   UNL     1      -5.479 -10.245  15.800  1.00  0.00     0.131 A 
ATOM     91  C   UNL     1      -6.346  -8.490  17.755  1.00  0.00     0.055 A 
ATOM     92  C   UNL     1      -5.764 -10.724  17.079  1.00  0.00     0.041 A 
ATOM     93  F   UNL     1      -5.026 -11.125  14.893  1.00  0.00    -0.206 F 
ATOM     94  C   UNL     1      -6.184  -9.841  18.070  1.00  0.00     0.022 A 
BRANCH  91  95
ATOM     95  S   UNL     1      -6.728  -7.292  19.062  1.00  0.00     0.124 S 
ATOM     96  O   UNL     1      -5.598  -6.372  18.970  1.00  0.00    -0.237 OA
ATOM     97  O   UNL     1      -8.018  -6.763  18.632  1.00  0.00    -0.237 OA
ATOM     98  O   UNL     1      -6.765  -8.108  20.274  1.00  0.00    -0.744 OA
ENDBRANCH  91  95
ENDBRANCH  65  88
ENDBRANCH  39  40
ENDBRANCH  32  34
ENDBRANCH  31  32
ENDBRANCH  30  31
ENDBRANCH  29  30
ENDBRANCH  28  29
ENDBRANCH  27  28
ENDBRANCH   1  27
TORSDOF 28
