REMARK SMILES C[C@@](NC(=O)[C@H]1COc2ccccc21)(C(=O)OCCOCCOCCOCCOC(=O)c1ccc(-c2c3nc(c(-c4cc(S(=O)(=O)[O-])ccc4F)c4ccc([nH]4)c(-c4cc(S(=O)(=O)[O-])ccc4F)c4nc(c(-c5cc(S(=O)(=O)[O-])ccc5F)c5ccc2[nH]5)C=C4)C=C3)cc1)C(F)(F)F
REMARK SMILES IDX 24 1 23 2 22 3 21 4 20 5 19 6 18 7 17 8 15 9 16 10 2 11 1 12
REMARK SMILES IDX 3 13 4 14 5 16 6 17 7 18 14 19 8 20 9 21 13 22 10 23 12 24
REMARK SMILES IDX 11 25 95 26 96 27 97 28 98 29 25 30 26 31 27 32 28 33 29 34
REMARK SMILES IDX 30 35 31 36 32 37 33 38 94 39 34 40 93 41 35 42 36 43 37 44
REMARK SMILES IDX 87 45 38 46 92 47 86 48 88 49 39 50 91 51 85 52 84 53 40 55
REMARK SMILES IDX 72 56 52 57 71 58 53 59 56 60 70 61 89 62 54 63 55 64 69 66
REMARK SMILES IDX 90 67 57 68 41 69 42 70 50 71 43 72 49 73 51 74 48 75 44 76
REMARK SMILES IDX 45 77 46 78 47 79 73 80 74 81 82 82 75 83 81 84 83 85 80 86
REMARK SMILES IDX 76 87 77 88 78 89 79 90 58 91 59 92 67 93 60 94 66 95 68 96
REMARK SMILES IDX 65 97 61 98 62 99 63 100 64 101
REMARK H PARENT 3 15 88 54 56 65
REMARK Flexibility Score: inf
ROOT
ATOM      1  C   UNL     1      -3.152  -0.334   2.668  1.00  0.00     0.188 C 
ENDROOT
BRANCH   1   2
ATOM      2  O   UNL     1      -1.827   0.130   2.611  1.00  0.00    -0.377 OA
BRANCH   2   3
ATOM      3  C   UNL     1      -1.547   0.804   1.403  1.00  0.00     0.188 C 
BRANCH   3   4
ATOM      4  C   UNL     1      -2.707   1.630   0.730  1.00  0.00     0.188 C 
BRANCH   4   5
ATOM      5  O   UNL     1      -3.939   1.078   0.133  1.00  0.00    -0.376 OA
BRANCH   5   6
ATOM      6  C   UNL     1      -4.147  -0.031  -0.820  1.00  0.00     0.202 C 
BRANCH   6   7
ATOM      7  C   UNL     1      -3.156  -0.470  -2.287  1.00  0.00     0.261 C 
BRANCH   7   8
ATOM      8  O   UNL     1      -1.141  -0.039  -2.308  1.00  0.00    -0.461 OA
BRANCH   8   9
ATOM      9  C   UNL     1      -0.035   0.725  -1.836  1.00  0.00     0.341 C 
ATOM     10  O   UNL     1      -0.075   1.723  -1.126  1.00  0.00    -0.249 OA
BRANCH   9  11
ATOM     11  C   UNL     1       1.220  -0.031  -2.132  1.00  0.00     0.231 C 
ATOM     12  C   UNL     1       1.706  -0.700  -0.825  1.00  0.00     0.058 C 
BRANCH  11  13
ATOM     13  N   UNL     1       1.064  -1.029  -3.261  1.00  0.00    -0.332 N 
ATOM     14  C   UNL     1      -0.016  -1.545  -3.938  1.00  0.00     0.232 C 
ATOM     15  H   UNL     1       1.924  -1.387  -3.580  1.00  0.00     0.164 HD
ATOM     16  O   UNL     1       0.246  -2.249  -4.919  1.00  0.00    -0.274 OA
BRANCH  14  17
ATOM     17  C   UNL     1      -1.505  -1.295  -3.558  1.00  0.00     0.150 C 
ATOM     18  C   UNL     1      -1.617  -1.585  -1.573  1.00  0.00     0.248 C 
ATOM     19  C   UNL     1      -1.990   0.549  -3.883  1.00  0.00     0.010 A 
ATOM     20  O   UNL     1      -2.081   0.189  -0.933  1.00  0.00    -0.492 OA
ATOM     21  C   UNL     1      -2.367   1.371  -2.370  1.00  0.00     0.123 A 
ATOM     22  C   UNL     1      -2.057   1.278  -5.017  1.00  0.00     0.008 A 
ATOM     23  C   UNL     1      -2.899   2.612  -2.238  1.00  0.00     0.047 A 
ATOM     24  C   UNL     1      -2.511   2.613  -4.774  1.00  0.00     0.001 A 
ATOM     25  C   UNL     1      -2.937   3.222  -3.492  1.00  0.00     0.004 A 
ENDBRANCH  14  17
ENDBRANCH  11  13
BRANCH  11  26
ATOM     26  C   UNL     1       2.220   1.093  -2.460  1.00  0.00     0.422 C 
ATOM     27  F   UNL     1       2.442   1.945  -1.433  1.00  0.00    -0.168 F 
ATOM     28  F   UNL     1       3.431   0.546  -2.755  1.00  0.00    -0.168 F 
ATOM     29  F   UNL     1       1.850   1.819  -3.536  1.00  0.00    -0.168 F 
ENDBRANCH  11  26
ENDBRANCH   9  11
ENDBRANCH   8   9
ENDBRANCH   7   8
ENDBRANCH   6   7
ENDBRANCH   5   6
ENDBRANCH   4   5
ENDBRANCH   3   4
ENDBRANCH   2   3
ENDBRANCH   1   2
BRANCH   1  30
ATOM     30  C   UNL     1      -4.166   0.741   3.116  1.00  0.00     0.188 C 
BRANCH  30  31
ATOM     31  O   UNL     1      -3.801   2.022   3.630  1.00  0.00    -0.376 OA
BRANCH  31  32
ATOM     32  C   UNL     1      -2.513   2.322   4.136  1.00  0.00     0.202 C 
BRANCH  32  33
ATOM     33  C   UNL     1      -1.983   1.595   5.375  1.00  0.00     0.261 C 
BRANCH  33  34
ATOM     34  O   UNL     1      -2.305   0.208   5.462  1.00  0.00    -0.460 OA
BRANCH  34  35
ATOM     35  C   UNL     1      -3.510  -0.060   6.023  1.00  0.00     0.338 C 
ATOM     36  O   UNL     1      -4.288   0.740   6.509  1.00  0.00    -0.246 OA
BRANCH  35  37
ATOM     37  C   UNL     1      -3.837  -1.473   5.736  1.00  0.00     0.060 A 
ATOM     38  C   UNL     1      -5.088  -1.763   5.165  1.00  0.00     0.016 A 
ATOM     39  C   UNL     1      -2.898  -2.487   5.943  1.00  0.00     0.016 A 
ATOM     40  C   UNL     1      -5.409  -3.060   4.799  1.00  0.00     0.010 A 
ATOM     41  C   UNL     1      -3.253  -3.805   5.664  1.00  0.00     0.010 A 
ATOM     42  C   UNL     1      -4.529  -4.088   5.143  1.00  0.00    -0.014 A 
BRANCH  42  43
ATOM     43  C   UNL     1      -5.123  -5.421   5.360  1.00  0.00     0.031 A 
ATOM     44  C   UNL     1      -5.663  -5.689   6.738  1.00  0.00     0.074 A 
ATOM     45  C   UNL     1      -5.250  -6.311   4.367  1.00  0.00     0.049 A 
ATOM     46  N   UNL     1      -6.195  -6.773   7.230  1.00  0.00    -0.248 NA
ATOM     47  C   UNL     1      -5.584  -4.570   7.694  1.00  0.00     0.031 C 
ATOM     48  C   UNL     1      -4.850  -6.095   2.978  1.00  0.00     0.029 A 
ATOM     49  N   UNL     1      -5.762  -7.579   4.384  1.00  0.00    -0.354 N 
ATOM     50  C   UNL     1      -6.497  -6.470   8.555  1.00  0.00     0.074 A 
ATOM     51  C   UNL     1      -6.053  -5.118   8.799  1.00  0.00     0.031 C 
ATOM     52  C   UNL     1      -5.123  -7.208   2.274  1.00  0.00     0.029 A 
ATOM     53  C   UNL     1      -5.673  -8.221   3.174  1.00  0.00     0.049 A 
ATOM     54  H   UNL     1      -6.157  -7.991   5.186  1.00  0.00     0.167 HD
ATOM     55  C   UNL     1      -7.097  -7.252   9.481  1.00  0.00     0.034 A 
ATOM     56  C   UNL     1      -5.977  -9.494   2.854  1.00  0.00     0.034 A 
ATOM     57  C   UNL     1      -7.504  -8.605   9.210  1.00  0.00     0.049 A 
ATOM     58  C   UNL     1      -6.533 -10.394   3.933  1.00  0.00     0.074 A 
ATOM     59  C   UNL     1      -8.107  -9.512  10.060  1.00  0.00     0.029 A 
ATOM     60  N   UNL     1      -7.330  -9.253   7.991  1.00  0.00    -0.354 N 
ATOM     61  N   UNL     1      -6.794 -10.116   5.192  1.00  0.00    -0.248 NA
ATOM     62  C   UNL     1      -6.841 -11.774   3.545  1.00  0.00     0.031 C 
ATOM     63  C   UNL     1      -8.211 -10.733   9.386  1.00  0.00     0.029 A 
ATOM     64  C   UNL     1      -7.776 -10.561   8.080  1.00  0.00     0.049 A 
ATOM     65  H   UNL     1      -6.944  -8.842   7.184  1.00  0.00     0.167 HD
ATOM     66  C   UNL     1      -7.340 -11.278   5.734  1.00  0.00     0.074 A 
ATOM     67  C   UNL     1      -7.371 -12.253   4.661  1.00  0.00     0.031 C 
ATOM     68  C   UNL     1      -7.787 -11.517   6.995  1.00  0.00     0.034 A 
BRANCH  55  69
ATOM     69  C   UNL     1      -7.247  -6.680  10.871  1.00  0.00     0.023 A 
ATOM     70  C   UNL     1      -7.989  -5.511  11.123  1.00  0.00     0.031 A 
ATOM     71  C   UNL     1      -6.559  -7.263  11.950  1.00  0.00     0.131 A 
ATOM     72  C   UNL     1      -7.944  -4.912  12.391  1.00  0.00     0.055 A 
ATOM     73  C   UNL     1      -6.602  -6.718  13.234  1.00  0.00     0.041 A 
ATOM     74  F   UNL     1      -5.803  -8.357  11.767  1.00  0.00    -0.206 F 
ATOM     75  C   UNL     1      -7.280  -5.524  13.456  1.00  0.00     0.022 A 
BRANCH  72  76
ATOM     76  S   UNL     1      -8.593  -3.228  12.577  1.00  0.00     0.124 S 
ATOM     77  O   UNL     1      -7.811  -2.500  11.581  1.00  0.00    -0.237 OA
ATOM     78  O   UNL     1     -10.009  -3.401  12.276  1.00  0.00    -0.237 OA
ATOM     79  O   UNL     1      -8.285  -2.893  13.966  1.00  0.00    -0.744 OA
ENDBRANCH  72  76
ENDBRANCH  55  69
BRANCH  56  80
ATOM     80  C   UNL     1      -5.739  -9.998   1.474  1.00  0.00     0.023 A 
ATOM     81  C   UNL     1      -6.803 -10.430   0.668  1.00  0.00     0.031 A 
ATOM     82  C   UNL     1      -4.436 -10.082   0.948  1.00  0.00     0.131 A 
ATOM     83  C   UNL     1      -6.544 -10.961  -0.606  1.00  0.00     0.055 A 
ATOM     84  C   UNL     1      -4.189 -10.560  -0.340  1.00  0.00     0.041 A 
ATOM     85  F   UNL     1      -3.382  -9.684   1.676  1.00  0.00    -0.206 F 
ATOM     86  C   UNL     1      -5.247 -11.014  -1.121  1.00  0.00     0.022 A 
BRANCH  83  87
ATOM     87  S   UNL     1      -7.927 -11.652  -1.553  1.00  0.00     0.124 S 
ATOM     88  O   UNL     1      -8.406 -12.698  -0.658  1.00  0.00    -0.237 OA
ATOM     89  O   UNL     1      -8.796 -10.490  -1.709  1.00  0.00    -0.237 OA
ATOM     90  O   UNL     1      -7.293 -12.122  -2.783  1.00  0.00    -0.744 OA
ENDBRANCH  83  87
ENDBRANCH  56  80
BRANCH  68  91
ATOM     91  C   UNL     1      -8.409 -12.868   7.261  1.00  0.00     0.023 A 
ATOM     92  C   UNL     1      -7.671 -14.060   7.180  1.00  0.00     0.031 A 
ATOM     93  C   UNL     1      -9.773 -12.957   7.598  1.00  0.00     0.131 A 
ATOM     94  C   UNL     1      -8.316 -15.293   7.363  1.00  0.00     0.055 A 
ATOM     95  C   UNL     1     -10.389 -14.180   7.860  1.00  0.00     0.041 A 
ATOM     96  F   UNL     1     -10.530 -11.851   7.686  1.00  0.00    -0.206 F 
ATOM     97  C   UNL     1      -9.663 -15.359   7.726  1.00  0.00     0.022 A 
BRANCH  94  98
ATOM     98  S   UNL     1      -7.399 -16.814   6.995  1.00  0.00     0.124 S 
ATOM     99  O   UNL     1      -6.992 -16.593   5.612  1.00  0.00    -0.237 OA
ATOM    100  O   UNL     1      -6.330 -16.782   7.988  1.00  0.00    -0.237 OA
ATOM    101  O   UNL     1      -8.394 -17.868   7.188  1.00  0.00    -0.744 OA
ENDBRANCH  94  98
ENDBRANCH  68  91
ENDBRANCH  42  43
ENDBRANCH  35  37
ENDBRANCH  34  35
ENDBRANCH  33  34
ENDBRANCH  32  33
ENDBRANCH  31  32
ENDBRANCH  30  31
ENDBRANCH   1  30
TORSDOF 26
