REMARK SMILES C[NH2+][C@@](C)(CC[N@@H+](C)C1CCC(C)(C)CC1)C(=O)OCCOCCOCCOCCOC(=O)c1ccc(-c2c3nc(c(-c4cc(S(=O)(=O)[O-])ccc4F)c4ccc([nH]4)c(-c4cc(S(=O)(=O)[O-])ccc4F)c4nc(c(-c5cc(S(=O)(=O)[O-])ccc5F)c5ccc2[nH]5)C=C4)C=C3)cc1
REMARK SMILES IDX 24 1 23 2 22 3 21 4 20 5 19 6 17 7 18 8 3 9 4 10 2 11 1 12
REMARK SMILES IDX 5 15 6 16 7 17 8 18 9 20 10 21 16 22 11 23 15 24 12 25 13 26
REMARK SMILES IDX 14 27 25 28 26 29 27 30 28 31 29 32 30 33 31 34 32 35 33 36
REMARK SMILES IDX 34 37 35 38 96 39 36 40 95 41 37 42 38 43 39 44 89 45 40 46
REMARK SMILES IDX 94 47 88 48 90 49 41 50 93 51 87 52 86 53 42 55 74 56 54 57
REMARK SMILES IDX 73 58 55 59 58 60 72 61 91 62 56 63 57 64 71 66 92 67 59 68
REMARK SMILES IDX 43 69 44 70 52 71 45 72 51 73 53 74 50 75 46 76 47 77 48 78
REMARK SMILES IDX 49 79 75 80 76 81 84 82 77 83 83 84 85 85 82 86 78 87 79 88
REMARK SMILES IDX 80 89 81 90 60 91 61 92 69 93 62 94 68 95 70 96 67 97 63 98
REMARK SMILES IDX 64 99 65 100 66 101
REMARK H PARENT 2 13 2 14 7 19 90 54 58 65
REMARK Flexibility Score: inf
ROOT
ATOM      1  C   UNL     1      -0.609  -2.944  -3.731  1.00  0.00     0.188 C 
ENDROOT
BRANCH   1   2
ATOM      2  C   UNL     1      -0.323  -2.855  -1.648  1.00  0.00     0.188 C 
BRANCH   2   3
ATOM      3  O   UNL     1      -0.861  -3.614  -0.454  1.00  0.00    -0.376 OA
BRANCH   3   4
ATOM      4  C   UNL     1      -2.099  -3.495   0.256  1.00  0.00     0.202 C 
BRANCH   4   5
ATOM      5  C   UNL     1      -2.691  -2.183   0.829  1.00  0.00     0.261 C 
BRANCH   5   6
ATOM      6  O   UNL     1      -2.345  -0.963   0.162  1.00  0.00    -0.459 OA
BRANCH   6   7
ATOM      7  C   UNL     1      -1.487  -0.164   0.833  1.00  0.00     0.368 C 
ATOM      8  O   UNL     1      -1.032  -0.463   1.937  1.00  0.00    -0.245 OA
BRANCH   7   9
ATOM      9  C   UNL     1      -1.140   1.189   0.112  1.00  0.00     0.196 C 
ATOM     10  C   UNL     1      -1.544   2.253   1.170  1.00  0.00     0.092 C 
BRANCH   9  11
ATOM     11  N   UNL     1       0.323   1.326  -0.167  1.00  0.00    -0.335 N 
ATOM     12  C   UNL     1       1.224   0.610   0.725  1.00  0.00     0.331 C 
ATOM     13  H   UNL     1       0.492   0.988  -1.114  1.00  0.00     0.347 HD
ATOM     14  H   UNL     1       0.533   2.315  -0.026  1.00  0.00     0.347 HD
ENDBRANCH   9  11
BRANCH   9  15
ATOM     15  C   UNL     1      -1.944   1.559  -1.191  1.00  0.00     0.142 C 
BRANCH  15  16
ATOM     16  C   UNL     1      -1.283   1.388  -2.596  1.00  0.00     0.269 C 
BRANCH  16  17
ATOM     17  N   UNL     1      -1.670   0.173  -3.353  1.00  0.00    -0.335 N 
ATOM     18  C   UNL     1      -1.289   0.343  -4.757  1.00  0.00     0.332 C 
ATOM     19  H   UNL     1      -2.682   0.050  -3.319  1.00  0.00     0.348 HD
BRANCH  17  20
ATOM     20  C   UNL     1      -1.111  -1.057  -2.731  1.00  0.00     0.183 C 
ATOM     21  C   UNL     1      -2.275  -2.604  -2.446  1.00  0.00     0.065 C 
ATOM     22  C   UNL     1       0.790  -1.363  -2.901  1.00  0.00     0.065 C 
ATOM     23  C   UNL     1      -1.519  -4.436  -2.539  1.00  0.00     0.012 C 
ATOM     24  C   UNL     1       1.506  -3.148  -3.056  1.00  0.00     0.012 C 
ATOM     25  C   UNL     1       0.412  -4.698  -2.739  1.00  0.00    -0.035 C 
ATOM     26  C   UNL     1       0.702  -5.681  -3.950  1.00  0.00     0.011 C 
ATOM     27  C   UNL     1       0.998  -5.513  -1.548  1.00  0.00     0.011 C 
ENDBRANCH  17  20
ENDBRANCH  16  17
ENDBRANCH  15  16
ENDBRANCH   9  15
ENDBRANCH   7   9
ENDBRANCH   6   7
ENDBRANCH   5   6
ENDBRANCH   4   5
ENDBRANCH   3   4
ENDBRANCH   2   3
ENDBRANCH   1   2
BRANCH   1  28
ATOM     28  O   UNL     1      -1.739  -2.494  -4.594  1.00  0.00    -0.377 OA
BRANCH  28  29
ATOM     29  C   UNL     1      -2.684  -3.394  -5.182  1.00  0.00     0.188 C 
BRANCH  29  30
ATOM     30  C   UNL     1      -2.188  -4.480  -6.137  1.00  0.00     0.188 C 
BRANCH  30  31
ATOM     31  O   UNL     1      -1.150  -4.186  -7.056  1.00  0.00    -0.376 OA
BRANCH  31  32
ATOM     32  C   UNL     1      -0.986  -2.851  -7.507  1.00  0.00     0.202 C 
BRANCH  32  33
ATOM     33  C   UNL     1      -2.037  -2.296  -8.475  1.00  0.00     0.261 C 
BRANCH  33  34
ATOM     34  O   UNL     1      -3.328  -2.068  -7.885  1.00  0.00    -0.460 OA
BRANCH  34  35
ATOM     35  C   UNL     1      -4.269  -3.000  -8.181  1.00  0.00     0.338 C 
ATOM     36  O   UNL     1      -4.125  -3.980  -8.887  1.00  0.00    -0.246 OA
BRANCH  35  37
ATOM     37  C   UNL     1      -5.499  -2.762  -7.396  1.00  0.00     0.060 A 
ATOM     38  C   UNL     1      -6.010  -3.826  -6.637  1.00  0.00     0.016 A 
ATOM     39  C   UNL     1      -6.213  -1.568  -7.514  1.00  0.00     0.016 A 
ATOM     40  C   UNL     1      -7.278  -3.732  -6.066  1.00  0.00     0.010 A 
ATOM     41  C   UNL     1      -7.496  -1.484  -6.964  1.00  0.00     0.010 A 
ATOM     42  C   UNL     1      -8.054  -2.591  -6.296  1.00  0.00    -0.014 A 
BRANCH  42  43
ATOM     43  C   UNL     1      -9.526  -2.683  -6.132  1.00  0.00     0.031 A 
ATOM     44  C   UNL     1     -10.330  -3.101  -7.338  1.00  0.00     0.074 A 
ATOM     45  C   UNL     1     -10.124  -2.446  -4.953  1.00  0.00     0.049 A 
ATOM     46  N   UNL     1     -11.625  -3.187  -7.491  1.00  0.00    -0.248 NA
ATOM     47  C   UNL     1      -9.559  -3.470  -8.538  1.00  0.00     0.031 C 
ATOM     48  C   UNL     1      -9.434  -2.118  -3.707  1.00  0.00     0.029 A 
ATOM     49  N   UNL     1     -11.453  -2.442  -4.614  1.00  0.00    -0.354 N 
ATOM     50  C   UNL     1     -11.822  -3.609  -8.803  1.00  0.00     0.074 A 
ATOM     51  C   UNL     1     -10.517  -3.737  -9.410  1.00  0.00     0.031 C 
ATOM     52  C   UNL     1     -10.350  -1.926  -2.741  1.00  0.00     0.029 A 
ATOM     53  C   UNL     1     -11.688  -2.073  -3.310  1.00  0.00     0.049 A 
ATOM     54  H   UNL     1     -12.171  -2.679  -5.245  1.00  0.00     0.167 HD
ATOM     55  C   UNL     1     -12.989  -3.865  -9.444  1.00  0.00     0.034 A 
ATOM     56  C   UNL     1     -12.854  -1.849  -2.669  1.00  0.00     0.034 A 
ATOM     57  C   UNL     1     -14.280  -3.708  -8.823  1.00  0.00     0.049 A 
ATOM     58  C   UNL     1     -14.146  -2.039  -3.433  1.00  0.00     0.074 A 
ATOM     59  C   UNL     1     -15.533  -3.922  -9.367  1.00  0.00     0.029 A 
ATOM     60  N   UNL     1     -14.480  -3.282  -7.515  1.00  0.00    -0.354 N 
ATOM     61  N   UNL     1     -14.323  -2.422  -4.678  1.00  0.00    -0.248 NA
ATOM     62  C   UNL     1     -15.392  -1.769  -2.705  1.00  0.00     0.031 C 
ATOM     63  C   UNL     1     -16.490  -3.556  -8.414  1.00  0.00     0.029 A 
ATOM     64  C   UNL     1     -15.836  -3.193  -7.246  1.00  0.00     0.049 A 
ATOM     65  H   UNL     1     -13.763  -3.073  -6.874  1.00  0.00     0.167 HD
ATOM     66  C   UNL     1     -15.702  -2.470  -4.869  1.00  0.00     0.074 A 
ATOM     67  C   UNL     1     -16.306  -2.089  -3.608  1.00  0.00     0.031 C 
ATOM     68  C   UNL     1     -16.410  -2.803  -5.980  1.00  0.00     0.034 A 
BRANCH  55  69
ATOM     69  C   UNL     1     -12.909  -4.260 -10.899  1.00  0.00     0.023 A 
ATOM     70  C   UNL     1     -12.294  -5.455 -11.317  1.00  0.00     0.031 A 
ATOM     71  C   UNL     1     -13.416  -3.401 -11.891  1.00  0.00     0.131 A 
ATOM     72  C   UNL     1     -12.141  -5.722 -12.687  1.00  0.00     0.055 A 
ATOM     73  C   UNL     1     -13.328  -3.710 -13.250  1.00  0.00     0.041 A 
ATOM     74  F   UNL     1     -13.988  -2.233 -11.556  1.00  0.00    -0.206 F 
ATOM     75  C   UNL     1     -12.675  -4.869 -13.655  1.00  0.00     0.022 A 
BRANCH  72  76
ATOM     76  S   UNL     1     -11.110  -7.128 -13.190  1.00  0.00     0.124 S 
ATOM     77  O   UNL     1      -9.825  -6.783 -12.588  1.00  0.00    -0.237 OA
ATOM     78  O   UNL     1     -11.810  -8.261 -12.595  1.00  0.00    -0.237 OA
ATOM     79  O   UNL     1     -11.142  -7.072 -14.650  1.00  0.00    -0.744 OA
ENDBRANCH  72  76
ENDBRANCH  55  69
BRANCH  56  80
ATOM     80  C   UNL     1     -12.867  -1.373  -1.254  1.00  0.00     0.023 A 
ATOM     81  C   UNL     1     -13.462  -2.133  -0.234  1.00  0.00     0.031 A 
ATOM     82  C   UNL     1     -12.336  -0.116  -0.911  1.00  0.00     0.131 A 
ATOM     83  C   UNL     1     -13.550  -1.612   1.068  1.00  0.00     0.055 A 
ATOM     84  C   UNL     1     -12.378   0.374   0.396  1.00  0.00     0.041 A 
ATOM     85  F   UNL     1     -11.761   0.657  -1.846  1.00  0.00    -0.206 F 
ATOM     86  C   UNL     1     -13.000  -0.370   1.393  1.00  0.00     0.022 A 
BRANCH  83  87
ATOM     87  S   UNL     1     -14.477  -2.545   2.318  1.00  0.00     0.124 S 
ATOM     88  O   UNL     1     -15.790  -2.658   1.692  1.00  0.00    -0.237 OA
ATOM     89  O   UNL     1     -13.702  -3.777   2.411  1.00  0.00    -0.237 OA
ATOM     90  O   UNL     1     -14.419  -1.684   3.498  1.00  0.00    -0.744 OA
ENDBRANCH  83  87
ENDBRANCH  56  80
BRANCH  68  91
ATOM     91  C   UNL     1     -17.914  -2.817  -5.855  1.00  0.00     0.023 A 
ATOM     92  C   UNL     1     -18.652  -1.639  -5.654  1.00  0.00     0.031 A 
ATOM     93  C   UNL     1     -18.616  -4.034  -5.938  1.00  0.00     0.131 A 
ATOM     94  C   UNL     1     -20.043  -1.708  -5.484  1.00  0.00     0.055 A 
ATOM     95  C   UNL     1     -20.005  -4.088  -5.832  1.00  0.00     0.041 A 
ATOM     96  F   UNL     1     -17.960  -5.190  -6.129  1.00  0.00    -0.206 F 
ATOM     97  C   UNL     1     -20.726  -2.922  -5.590  1.00  0.00     0.022 A 
BRANCH  94  98
ATOM     98  S   UNL     1     -20.939  -0.199  -5.027  1.00  0.00     0.124 S 
ATOM     99  O   UNL     1     -20.279   0.181  -3.782  1.00  0.00    -0.237 OA
ATOM    100  O   UNL     1     -20.690   0.671  -6.172  1.00  0.00    -0.237 OA
ATOM    101  O   UNL     1     -22.322  -0.652  -4.883  1.00  0.00    -0.744 OA
ENDBRANCH  94  98
ENDBRANCH  68  91
ENDBRANCH  42  43
ENDBRANCH  35  37
ENDBRANCH  34  35
ENDBRANCH  33  34
ENDBRANCH  32  33
ENDBRANCH  31  32
ENDBRANCH  30  31
ENDBRANCH  29  30
ENDBRANCH  28  29
ENDBRANCH   1  28
TORSDOF 28
