REMARK SMILES COc1cc([C@H]2CC(c3ccc(S(C)(=O)=O)cc3)=NN2c2ccc(C(=O)OCCOCCOCCOCCOC(=O)c3ccc(-c4c5nc(c(-c6cc(S(=O)(=O)[O-])ccc6F)c6ccc([nH]6)c(-c6cc(S(=O)(=O)[O-])ccc6F)c6nc(c(-c7cc(S(=O)(=O)[O-])ccc7F)c7ccc4[nH]7)C=C6)C=C5)cc3)cc2)cc(OC)c1OC
REMARK SMILES IDX 33 1 32 2 31 3 30 4 29 5 28 6 27 7 25 8 26 9 24 10 21 11
REMARK SMILES IDX 22 12 106 13 23 14 105 15 20 16 6 17 7 18 8 19 19 20 5 21
REMARK SMILES IDX 3 22 4 23 111 24 108 25 107 26 2 27 1 28 112 29 113 30
REMARK SMILES IDX 109 31 110 32 9 33 10 34 18 35 11 36 17 37 12 38 13 39 14 40
REMARK SMILES IDX 15 41 16 42 34 43 35 44 36 45 37 46 38 47 39 48 40 49 41 50
REMARK SMILES IDX 42 51 43 52 104 53 44 54 103 55 45 56 46 57 47 58 97 59
REMARK SMILES IDX 48 60 102 61 96 62 98 63 49 64 101 65 95 66 94 67 50 69
REMARK SMILES IDX 82 70 62 71 81 72 63 73 66 74 80 75 99 76 64 77 65 78 79 80
REMARK SMILES IDX 100 81 67 82 51 83 52 84 60 85 53 86 59 87 61 88 58 89 54 90
REMARK SMILES IDX 55 91 56 92 57 93 83 94 84 95 92 96 85 97 91 98 93 99 90 100
REMARK SMILES IDX 86 101 87 102 88 103 89 104 68 105 69 106 77 107 70 108
REMARK SMILES IDX 76 109 78 110 75 111 71 112 72 113 73 114 74 115
REMARK H PARENT 98 68 66 79
REMARK Flexibility Score: inf
ROOT
ATOM      1  O   UNL     1       0.142   6.843   7.569  1.00  0.00    -0.377 OA
ENDROOT
BRANCH   1   2
ATOM      2  C   UNL     1       1.275   6.030   7.828  1.00  0.00     0.188 C 
BRANCH   2   3
ATOM      3  C   UNL     1       2.614   6.391   7.152  1.00  0.00     0.188 C 
BRANCH   3   4
ATOM      4  O   UNL     1       2.622   7.665   6.534  1.00  0.00    -0.376 OA
BRANCH   4   5
ATOM      5  C   UNL     1       2.581   7.755   5.122  1.00  0.00     0.202 C 
BRANCH   5   6
ATOM      6  C   UNL     1       1.419   7.112   4.351  1.00  0.00     0.261 C 
BRANCH   6   7
ATOM      7  O   UNL     1       1.016   5.809   4.781  1.00  0.00    -0.460 OA
BRANCH   7   8
ATOM      8  C   UNL     1       1.841   4.780   4.496  1.00  0.00     0.338 C 
ATOM      9  O   UNL     1       2.905   4.836   3.905  1.00  0.00    -0.246 OA
BRANCH   8  10
ATOM     10  C   UNL     1       1.331   3.585   5.208  1.00  0.00     0.060 A 
ATOM     11  C   UNL     1       0.435   1.262   6.494  1.00  0.00     0.060 A 
ATOM     12  C   UNL     1       1.785   1.632   6.562  1.00  0.00     0.029 A 
ATOM     13  C   UNL     1      -0.473   2.129   5.870  1.00  0.00     0.029 A 
ATOM     14  C   UNL     1       2.239   2.771   5.894  1.00  0.00     0.018 A 
ATOM     15  C   UNL     1      -0.035   3.293   5.239  1.00  0.00     0.018 A 
BRANCH  11  16
ATOM     16  N   UNL     1       0.024  -0.010   6.886  1.00  0.00    -0.257 N 
ATOM     17  C   UNL     1      -0.412  -0.995   5.882  1.00  0.00     0.144 C 
ATOM     18  C   UNL     1      -0.466  -2.290   6.708  1.00  0.00     0.091 C 
ATOM     19  C   UNL     1       0.050  -1.796   8.036  1.00  0.00     0.071 C 
ATOM     20  N   UNL     1       0.352  -0.536   8.096  1.00  0.00    -0.176 NA
BRANCH  17  21
ATOM     21  C   UNL     1       0.518  -1.027   4.665  1.00  0.00    -0.015 A 
ATOM     22  C   UNL     1       1.077  -0.240   2.404  1.00  0.00     0.164 A 
ATOM     23  C   UNL     1       0.171  -0.357   3.477  1.00  0.00     0.056 A 
ATOM     24  C   UNL     1       2.364  -0.804   2.478  1.00  0.00     0.203 A 
ATOM     25  C   UNL     1       2.718  -1.473   3.670  1.00  0.00     0.164 A 
ATOM     26  C   UNL     1       1.803  -1.576   4.735  1.00  0.00     0.056 A 
BRANCH  22  27
ATOM     27  O   UNL     1       0.715   0.608   1.387  1.00  0.00    -0.493 OA
ATOM     28  C   UNL     1      -0.074  -0.023   0.381  1.00  0.00     0.278 C 
ENDBRANCH  22  27
BRANCH  24  29
ATOM     29  O   UNL     1       3.330  -0.763   1.513  1.00  0.00    -0.490 OA
ATOM     30  C   UNL     1       3.110  -0.158   0.254  1.00  0.00     0.278 C 
ENDBRANCH  24  29
BRANCH  25  31
ATOM     31  O   UNL     1       3.914  -2.083   3.975  1.00  0.00    -0.493 OA
ATOM     32  C   UNL     1       5.064  -1.732   3.218  1.00  0.00     0.278 C 
ENDBRANCH  25  31
ENDBRANCH  17  21
BRANCH  19  33
ATOM     33  C   UNL     1       0.122  -2.696   9.201  1.00  0.00    -0.002 A 
ATOM     34  C   UNL     1      -0.553  -2.334  10.375  1.00  0.00     0.011 A 
ATOM     35  C   UNL     1       0.818  -3.905   9.132  1.00  0.00     0.011 A 
ATOM     36  C   UNL     1      -0.555  -3.195  11.477  1.00  0.00     0.021 A 
ATOM     37  C   UNL     1       0.840  -4.757  10.242  1.00  0.00     0.021 A 
ATOM     38  C   UNL     1       0.150  -4.401  11.407  1.00  0.00     0.067 A 
BRANCH  38  39
ATOM     39  S   UNL     1       0.119  -5.514  12.797  1.00  0.00     0.175 S 
ATOM     40  C   UNL     1       0.851  -4.602  14.129  1.00  0.00     0.163 C 
ATOM     41  O   UNL     1      -1.276  -5.748  13.116  1.00  0.00    -0.224 OA
ATOM     42  O   UNL     1       1.007  -6.621  12.492  1.00  0.00    -0.224 OA
ENDBRANCH  38  39
ENDBRANCH  19  33
ENDBRANCH  11  16
ENDBRANCH   8  10
ENDBRANCH   7   8
ENDBRANCH   6   7
ENDBRANCH   5   6
ENDBRANCH   4   5
ENDBRANCH   3   4
ENDBRANCH   2   3
ENDBRANCH   1   2
BRANCH   1  43
ATOM     43  C   UNL     1       0.227   8.259   7.712  1.00  0.00     0.188 C 
BRANCH  43  44
ATOM     44  C   UNL     1       1.314   8.936   8.581  1.00  0.00     0.188 C 
BRANCH  44  45
ATOM     45  O   UNL     1       2.051   8.053   9.412  1.00  0.00    -0.376 OA
BRANCH  45  46
ATOM     46  C   UNL     1       1.794   8.106  10.803  1.00  0.00     0.202 C 
BRANCH  46  47
ATOM     47  C   UNL     1       0.394   7.670  11.254  1.00  0.00     0.261 C 
BRANCH  47  48
ATOM     48  O   UNL     1      -0.707   8.369  10.655  1.00  0.00    -0.460 OA
BRANCH  48  49
ATOM     49  C   UNL     1      -0.821   9.690  10.917  1.00  0.00     0.338 C 
ATOM     50  O   UNL     1      -0.084  10.364  11.618  1.00  0.00    -0.246 OA
BRANCH  49  51
ATOM     51  C   UNL     1      -1.890  10.221  10.046  1.00  0.00     0.060 A 
ATOM     52  C   UNL     1      -1.581  11.208   9.100  1.00  0.00     0.016 A 
ATOM     53  C   UNL     1      -3.188   9.716  10.145  1.00  0.00     0.016 A 
ATOM     54  C   UNL     1      -2.581  11.708   8.263  1.00  0.00     0.010 A 
ATOM     55  C   UNL     1      -4.191  10.233   9.322  1.00  0.00     0.010 A 
ATOM     56  C   UNL     1      -3.899  11.249   8.395  1.00  0.00    -0.014 A 
BRANCH  56  57
ATOM     57  C   UNL     1      -5.006  11.952   7.702  1.00  0.00     0.031 A 
ATOM     58  C   UNL     1      -5.807  12.960   8.479  1.00  0.00     0.074 A 
ATOM     59  C   UNL     1      -5.296  11.706   6.412  1.00  0.00     0.049 A 
ATOM     60  N   UNL     1      -6.856  13.652   8.116  1.00  0.00    -0.248 NA
ATOM     61  C   UNL     1      -5.364  13.211   9.858  1.00  0.00     0.031 C 
ATOM     62  C   UNL     1      -4.561  10.792   5.541  1.00  0.00     0.029 A 
ATOM     63  N   UNL     1      -6.295  12.204   5.613  1.00  0.00    -0.354 N 
ATOM     64  C   UNL     1      -7.206  14.414   9.227  1.00  0.00     0.074 A 
ATOM     65  C   UNL     1      -6.281  14.064  10.284  1.00  0.00     0.031 C 
ATOM     66  C   UNL     1      -5.135  10.795   4.325  1.00  0.00     0.029 A 
ATOM     67  C   UNL     1      -6.304  11.673   4.345  1.00  0.00     0.049 A 
ATOM     68  H   UNL     1      -6.944  12.879   5.919  1.00  0.00     0.167 HD
ATOM     69  C   UNL     1      -8.205  15.323   9.350  1.00  0.00     0.034 A 
ATOM     70  C   UNL     1      -7.172  11.857   3.328  1.00  0.00     0.034 A 
ATOM     71  C   UNL     1      -9.130  15.643   8.290  1.00  0.00     0.049 A 
ATOM     72  C   UNL     1      -8.345  12.789   3.523  1.00  0.00     0.074 A 
ATOM     73  C   UNL     1     -10.160  16.567   8.294  1.00  0.00     0.029 A 
ATOM     74  N   UNL     1      -9.154  15.030   7.042  1.00  0.00    -0.354 N 
ATOM     75  N   UNL     1      -8.661  13.517   4.570  1.00  0.00    -0.248 NA
ATOM     76  C   UNL     1      -9.279  12.921   2.397  1.00  0.00     0.031 C 
ATOM     77  C   UNL     1     -10.863  16.446   7.090  1.00  0.00     0.029 A 
ATOM     78  C   UNL     1     -10.214  15.518   6.291  1.00  0.00     0.049 A 
ATOM     79  H   UNL     1      -8.513  14.349   6.736  1.00  0.00     0.167 HD
ATOM     80  C   UNL     1      -9.811  14.219   4.213  1.00  0.00     0.074 A 
ATOM     81  C   UNL     1     -10.126  13.832   2.853  1.00  0.00     0.031 C 
ATOM     82  C   UNL     1     -10.535  15.110   4.941  1.00  0.00     0.034 A 
BRANCH  69  83
ATOM     83  C   UNL     1      -8.382  15.973  10.703  1.00  0.00     0.023 A 
ATOM     84  C   UNL     1      -7.371  16.754  11.292  1.00  0.00     0.031 A 
ATOM     85  C   UNL     1      -9.557  15.757  11.444  1.00  0.00     0.131 A 
ATOM     86  C   UNL     1      -7.515  17.205  12.613  1.00  0.00     0.055 A 
ATOM     87  C   UNL     1      -9.733  16.290  12.722  1.00  0.00     0.041 A 
ATOM     88  F   UNL     1     -10.549  14.999  10.948  1.00  0.00    -0.206 F 
ATOM     89  C   UNL     1      -8.700  17.002  13.323  1.00  0.00     0.022 A 
BRANCH  86  90
ATOM     90  S   UNL     1      -6.061  17.893  13.455  1.00  0.00     0.124 S 
ATOM     91  O   UNL     1      -5.094  16.808  13.307  1.00  0.00    -0.237 OA
ATOM     92  O   UNL     1      -5.792  19.100  12.682  1.00  0.00    -0.237 OA
ATOM     93  O   UNL     1      -6.530  18.116  14.821  1.00  0.00    -0.744 OA
ENDBRANCH  86  90
ENDBRANCH  69  83
BRANCH  70  94
ATOM     94  C   UNL     1      -6.990  11.126   2.041  1.00  0.00     0.023 A 
ATOM     95  C   UNL     1      -6.736  11.818   0.847  1.00  0.00     0.031 A 
ATOM     96  C   UNL     1      -7.107   9.725   1.979  1.00  0.00     0.131 A 
ATOM     97  C   UNL     1      -6.637  11.113  -0.363  1.00  0.00     0.055 A 
ATOM     98  C   UNL     1      -6.956   9.024   0.782  1.00  0.00     0.041 A 
ATOM     99  F   UNL     1      -7.358   9.014   3.090  1.00  0.00    -0.206 F 
ATOM    100  C   UNL     1      -6.729   9.720  -0.401  1.00  0.00     0.022 A 
BRANCH  97 101
ATOM    101  S   UNL     1      -6.455  12.051  -1.905  1.00  0.00     0.124 S 
ATOM    102  O   UNL     1      -7.675  12.850  -1.912  1.00  0.00    -0.237 OA
ATOM    103  O   UNL     1      -5.212  12.779  -1.672  1.00  0.00    -0.237 OA
ATOM    104  O   UNL     1      -6.382  11.012  -2.929  1.00  0.00    -0.744 OA
ENDBRANCH  97 101
ENDBRANCH  70  94
BRANCH  82 105
ATOM    105  C   UNL     1     -11.719  15.761   4.261  1.00  0.00     0.023 A 
ATOM    106  C   UNL     1     -12.849  15.023   3.866  1.00  0.00     0.031 A 
ATOM    107  C   UNL     1     -11.714  17.144   4.004  1.00  0.00     0.131 A 
ATOM    108  C   UNL     1     -13.899  15.660   3.186  1.00  0.00     0.055 A 
ATOM    109  C   UNL     1     -12.791  17.785   3.390  1.00  0.00     0.041 A 
ATOM    110  F   UNL     1     -10.661  17.901   4.353  1.00  0.00    -0.206 F 
ATOM    111  C   UNL     1     -13.887  17.040   2.965  1.00  0.00     0.022 A 
BRANCH 108 112
ATOM    112  S   UNL     1     -15.239  14.646   2.502  1.00  0.00     0.124 S 
ATOM    113  O   UNL     1     -14.512  13.743   1.616  1.00  0.00    -0.237 OA
ATOM    114  O   UNL     1     -15.814  14.040   3.698  1.00  0.00    -0.237 OA
ATOM    115  O   UNL     1     -16.096  15.619   1.828  1.00  0.00    -0.744 OA
ENDBRANCH 108 112
ENDBRANCH  82 105
ENDBRANCH  56  57
ENDBRANCH  49  51
ENDBRANCH  48  49
ENDBRANCH  47  48
ENDBRANCH  46  47
ENDBRANCH  45  46
ENDBRANCH  44  45
ENDBRANCH  43  44
ENDBRANCH   1  43
TORSDOF 30
