REMARK SMILES CC1=Nn2c(nnc(CCC(=O)OCCOCCOCCOCCOC(=O)c3ccc(-c4c5nc(c(-c6cc(S(=O)(=O)[O-])ccc6F)c6ccc([nH]6)c(-c6cc(S(=O)(=O)[O-])ccc6F)c6nc(c(-c7cc(S(=O)(=O)[O-])ccc7F)c7ccc4[nH]7)C=C6)C=C5)cc3)c2=O)SC1
REMARK SMILES IDX 20 1 19 2 18 3 17 4 16 5 15 6 14 7 13 8 11 9 12 10 10 11
REMARK SMILES IDX 9 12 8 13 1 14 2 15 3 16 94 17 4 18 93 19 5 20 91 21 6 22
REMARK SMILES IDX 92 23 7 24 21 25 22 26 23 27 24 28 25 29 26 30 27 31 28 32
REMARK SMILES IDX 29 33 90 34 30 35 89 36 31 37 32 38 33 39 83 40 34 41 88 42
REMARK SMILES IDX 82 43 84 44 35 45 87 46 81 47 80 48 36 50 68 51 48 52 67 53
REMARK SMILES IDX 49 54 52 55 66 56 85 57 50 58 51 59 65 61 86 62 53 63 37 64
REMARK SMILES IDX 38 65 46 66 39 67 45 68 47 69 44 70 40 71 41 72 42 73 43 74
REMARK SMILES IDX 69 75 70 76 78 77 71 78 77 79 79 80 76 81 72 82 73 83 74 84
REMARK SMILES IDX 75 85 54 86 55 87 63 88 56 89 62 90 64 91 61 92 57 93 58 94
REMARK SMILES IDX 59 95 60 96
REMARK H PARENT 84 49 52 60
REMARK Flexibility Score: inf
ROOT
ATOM      1  C   UNL     1       4.724  -3.898   0.171  1.00  0.00     0.188 C 
ENDROOT
BRANCH   1   2
ATOM      2  O   UNL     1       4.815  -5.282   0.423  1.00  0.00    -0.377 OA
BRANCH   2   3
ATOM      3  C   UNL     1       4.802  -6.207  -0.641  1.00  0.00     0.188 C 
BRANCH   3   4
ATOM      4  C   UNL     1       5.187  -5.897  -2.095  1.00  0.00     0.188 C 
BRANCH   4   5
ATOM      5  O   UNL     1       5.344  -4.562  -2.496  1.00  0.00    -0.376 OA
BRANCH   5   6
ATOM      6  C   UNL     1       4.356  -3.823  -3.193  1.00  0.00     0.202 C 
BRANCH   6   7
ATOM      7  C   UNL     1       2.972  -4.315  -3.661  1.00  0.00     0.261 C 
BRANCH   7   8
ATOM      8  O   UNL     1       2.294  -5.323  -2.896  1.00  0.00    -0.463 OA
BRANCH   8   9
ATOM      9  C   UNL     1       2.201  -6.550  -3.457  1.00  0.00     0.306 C 
ATOM     10  O   UNL     1       2.739  -6.859  -4.517  1.00  0.00    -0.252 OA
BRANCH   9  11
ATOM     11  C   UNL     1       1.272  -7.514  -2.733  1.00  0.00     0.129 C 
BRANCH  11  12
ATOM     12  C   UNL     1       1.210  -7.636  -1.210  1.00  0.00     0.076 C 
BRANCH  12  13
ATOM     13  C   UNL     1       0.404  -6.578  -0.492  1.00  0.00     0.131 A 
ATOM     14  C   UNL     1       0.671  -0.757  -1.115  1.00  0.00     0.064 C 
ATOM     15  C   UNL     1       0.013  -1.926  -0.406  1.00  0.00     0.046 C 
ATOM     16  N   UNL     1       0.676  -3.020  -0.518  1.00  0.00    -0.172 NA
ATOM     17  C   UNL     1      -1.314  -1.764   0.268  1.00  0.00     0.131 C 
ATOM     18  N   UNL     1       0.167  -4.218  -0.148  1.00  0.00    -0.169 N 
ATOM     19  S   UNL     1      -2.078  -3.233   0.925  1.00  0.00    -0.078 SA
ATOM     20  C   UNL     1      -1.052  -4.514   0.384  1.00  0.00     0.214 A 
ATOM     21  C   UNL     1       1.031  -5.247  -0.323  1.00  0.00     0.296 A 
ATOM     22  N   UNL     1      -1.493  -5.728   0.528  1.00  0.00    -0.123 NA
ATOM     23  O   UNL     1       2.249  -5.173  -0.362  1.00  0.00    -0.265 OA
ATOM     24  N   UNL     1      -0.791  -6.807  -0.049  1.00  0.00    -0.147 NA
ENDBRANCH  12  13
ENDBRANCH  11  12
ENDBRANCH   9  11
ENDBRANCH   8   9
ENDBRANCH   7   8
ENDBRANCH   6   7
ENDBRANCH   5   6
ENDBRANCH   4   5
ENDBRANCH   3   4
ENDBRANCH   2   3
ENDBRANCH   1   2
BRANCH   1  25
ATOM     25  C   UNL     1       6.087  -3.197   0.102  1.00  0.00     0.188 C 
BRANCH  25  26
ATOM     26  O   UNL     1       7.282  -3.821   0.557  1.00  0.00    -0.376 OA
BRANCH  26  27
ATOM     27  C   UNL     1       7.250  -4.951   1.409  1.00  0.00     0.202 C 
BRANCH  27  28
ATOM     28  C   UNL     1       6.502  -4.927   2.760  1.00  0.00     0.261 C 
BRANCH  28  29
ATOM     29  O   UNL     1       5.456  -3.965   2.947  1.00  0.00    -0.460 OA
BRANCH  29  30
ATOM     30  C   UNL     1       5.856  -2.728   3.317  1.00  0.00     0.338 C 
ATOM     31  O   UNL     1       7.001  -2.356   3.503  1.00  0.00    -0.246 OA
BRANCH  30  32
ATOM     32  C   UNL     1       4.680  -1.830   3.371  1.00  0.00     0.060 A 
ATOM     33  C   UNL     1       4.655  -0.710   2.533  1.00  0.00     0.016 A 
ATOM     34  C   UNL     1       3.651  -2.033   4.296  1.00  0.00     0.016 A 
ATOM     35  C   UNL     1       3.627   0.229   2.640  1.00  0.00     0.010 A 
ATOM     36  C   UNL     1       2.633  -1.075   4.421  1.00  0.00     0.010 A 
ATOM     37  C   UNL     1       2.634   0.080   3.618  1.00  0.00    -0.014 A 
BRANCH  37  38
ATOM     38  C   UNL     1       1.711   1.215   3.897  1.00  0.00     0.031 A 
ATOM     39  C   UNL     1       2.017   2.138   5.028  1.00  0.00     0.074 A 
ATOM     40  C   UNL     1       0.672   1.510   3.095  1.00  0.00     0.049 A 
ATOM     41  N   UNL     1       1.338   3.176   5.430  1.00  0.00    -0.248 NA
ATOM     42  C   UNL     1       3.252   1.880   5.780  1.00  0.00     0.031 C 
ATOM     43  C   UNL     1       0.372   0.772   1.887  1.00  0.00     0.029 A 
ATOM     44  N   UNL     1      -0.296   2.487   3.130  1.00  0.00    -0.354 N 
ATOM     45  C   UNL     1       2.073   3.718   6.469  1.00  0.00     0.074 A 
ATOM     46  C   UNL     1       3.225   2.862   6.669  1.00  0.00     0.031 C 
ATOM     47  C   UNL     1      -0.697   1.322   1.290  1.00  0.00     0.029 A 
ATOM     48  C   UNL     1      -1.208   2.402   2.101  1.00  0.00     0.049 A 
ATOM     49  H   UNL     1      -0.333   3.183   3.825  1.00  0.00     0.167 HD
ATOM     50  C   UNL     1       1.815   4.844   7.169  1.00  0.00     0.034 A 
ATOM     51  C   UNL     1      -2.342   3.073   1.818  1.00  0.00     0.034 A 
ATOM     52  C   UNL     1       0.661   5.680   6.961  1.00  0.00     0.049 A 
ATOM     53  C   UNL     1      -2.706   4.208   2.719  1.00  0.00     0.074 A 
ATOM     54  C   UNL     1       0.297   6.819   7.656  1.00  0.00     0.029 A 
ATOM     55  N   UNL     1      -0.315   5.476   5.994  1.00  0.00    -0.354 N 
ATOM     56  N   UNL     1      -2.030   4.664   3.744  1.00  0.00    -0.248 NA
ATOM     57  C   UNL     1      -3.952   4.927   2.434  1.00  0.00     0.031 C 
ATOM     58  C   UNL     1      -0.928   7.265   7.156  1.00  0.00     0.029 A 
ATOM     59  C   UNL     1      -1.296   6.450   6.097  1.00  0.00     0.049 A 
ATOM     60  H   UNL     1      -0.310   4.747   5.332  1.00  0.00     0.167 HD
ATOM     61  C   UNL     1      -2.751   5.750   4.211  1.00  0.00     0.074 A 
ATOM     62  C   UNL     1      -3.914   5.881   3.355  1.00  0.00     0.031 C 
ATOM     63  C   UNL     1      -2.458   6.566   5.250  1.00  0.00     0.034 A 
BRANCH  50  64
ATOM     64  C   UNL     1       2.788   5.206   8.250  1.00  0.00     0.023 A 
ATOM     65  C   UNL     1       4.085   5.647   7.944  1.00  0.00     0.031 A 
ATOM     66  C   UNL     1       2.413   5.106   9.599  1.00  0.00     0.131 A 
ATOM     67  C   UNL     1       4.979   5.941   8.982  1.00  0.00     0.055 A 
ATOM     68  C   UNL     1       3.287   5.460  10.626  1.00  0.00     0.041 A 
ATOM     69  F   UNL     1       1.193   4.660   9.937  1.00  0.00    -0.206 F 
ATOM     70  C   UNL     1       4.580   5.875  10.320  1.00  0.00     0.022 A 
BRANCH  67  71
ATOM     71  S   UNL     1       6.695   6.338   8.560  1.00  0.00     0.124 S 
ATOM     72  O   UNL     1       7.157   5.073   7.993  1.00  0.00    -0.237 OA
ATOM     73  O   UNL     1       6.544   7.441   7.619  1.00  0.00    -0.237 OA
ATOM     74  O   UNL     1       7.289   6.693   9.847  1.00  0.00    -0.744 OA
ENDBRANCH  67  71
ENDBRANCH  50  64
BRANCH  51  75
ATOM     75  C   UNL     1      -3.215   2.677   0.669  1.00  0.00     0.023 A 
ATOM     76  C   UNL     1      -3.413   3.527  -0.431  1.00  0.00     0.031 A 
ATOM     77  C   UNL     1      -3.876   1.432   0.659  1.00  0.00     0.131 A 
ATOM     78  C   UNL     1      -4.266   3.134  -1.478  1.00  0.00     0.055 A 
ATOM     79  C   UNL     1      -4.696   1.032  -0.399  1.00  0.00     0.041 A 
ATOM     80  F   UNL     1      -3.701   0.565   1.669  1.00  0.00    -0.206 F 
ATOM     81  C   UNL     1      -4.902   1.890  -1.473  1.00  0.00     0.022 A 
BRANCH  78  82
ATOM     82  S   UNL     1      -4.560   4.291  -2.845  1.00  0.00     0.124 S 
ATOM     83  O   UNL     1      -5.142   5.432  -2.148  1.00  0.00    -0.237 OA
ATOM     84  O   UNL     1      -3.212   4.475  -3.373  1.00  0.00    -0.237 OA
ATOM     85  O   UNL     1      -5.473   3.558  -3.720  1.00  0.00    -0.744 OA
ENDBRANCH  78  82
ENDBRANCH  51  75
BRANCH  63  86
ATOM     86  C   UNL     1      -3.404   7.701   5.506  1.00  0.00     0.023 A 
ATOM     87  C   UNL     1      -4.691   7.473   6.014  1.00  0.00     0.031 A 
ATOM     88  C   UNL     1      -2.997   9.025   5.273  1.00  0.00     0.131 A 
ATOM     89  C   UNL     1      -5.543   8.558   6.250  1.00  0.00     0.055 A 
ATOM     90  C   UNL     1      -3.829  10.104   5.562  1.00  0.00     0.041 A 
ATOM     91  F   UNL     1      -1.775   9.287   4.781  1.00  0.00    -0.206 F 
ATOM     92  C   UNL     1      -5.113   9.873   6.049  1.00  0.00     0.022 A 
BRANCH  89  93
ATOM     93  S   UNL     1      -7.241   8.223   6.785  1.00  0.00     0.124 S 
ATOM     94  O   UNL     1      -7.792   7.535   5.622  1.00  0.00    -0.237 OA
ATOM     95  O   UNL     1      -7.041   7.402   7.975  1.00  0.00    -0.237 OA
ATOM     96  O   UNL     1      -7.789   9.555   7.038  1.00  0.00    -0.744 OA
ENDBRANCH  89  93
ENDBRANCH  63  86
ENDBRANCH  37  38
ENDBRANCH  30  32
ENDBRANCH  29  30
ENDBRANCH  28  29
ENDBRANCH  27  28
ENDBRANCH  26  27
ENDBRANCH  25  26
ENDBRANCH   1  25
TORSDOF 25
