REMARK SMILES NS(=O)(=O)c1ccc(-c2coc(=O)n2-c2ccc(C(=O)OCCOCCOCCOCCOC(=O)c3ccc(-c4c5nc(c(-c6cc(S(=O)(=O)[O-])ccc6F)c6ccc([nH]6)c(-c6cc(S(=O)(=O)[O-])ccc6F)c6nc(c(-c7cc(S(=O)(=O)[O-])ccc7F)c7ccc4[nH]7)C=C6)C=C5)cc3)cc2)cc1
REMARK SMILES IDX 26 1 25 2 24 3 23 4 22 5 21 6 19 7 20 8 18 9 15 10 16 11
REMARK SMILES IDX 100 12 17 13 99 14 14 15 9 16 10 17 11 18 12 19 13 20 8 21
REMARK SMILES IDX 5 22 6 23 102 24 7 25 101 26 2 27 3 28 4 29 1 30 27 33 28 34
REMARK SMILES IDX 29 35 30 36 31 37 32 38 33 39 34 40 35 41 36 42 37 43 98 44
REMARK SMILES IDX 38 45 97 46 39 47 40 48 41 49 91 50 42 51 96 52 90 53 92 54
REMARK SMILES IDX 43 55 95 56 89 57 88 58 44 60 76 61 56 62 75 63 57 64 60 65
REMARK SMILES IDX 74 66 93 67 58 68 59 69 73 71 94 72 61 73 45 74 46 75 54 76
REMARK SMILES IDX 47 77 53 78 55 79 52 80 48 81 49 82 50 83 51 84 77 85 78 86
REMARK SMILES IDX 86 87 79 88 85 89 87 90 84 91 80 92 81 93 82 94 83 95 62 96
REMARK SMILES IDX 63 97 71 98 64 99 70 100 72 101 69 102 65 103 66 104 67 105
REMARK SMILES IDX 68 106
REMARK H PARENT 1 31 1 32 92 59 60 70
REMARK Flexibility Score: inf
ROOT
ATOM      1  C   UNL     1       9.117   5.935  -1.883  1.00  0.00     0.188 C 
ENDROOT
BRANCH   1   2
ATOM      2  C   UNL     1       9.638   5.287  -0.579  1.00  0.00     0.188 C 
BRANCH   2   3
ATOM      3  O   UNL     1      10.476   4.139  -0.580  1.00  0.00    -0.376 OA
BRANCH   3   4
ATOM      4  C   UNL     1      10.305   3.068  -1.491  1.00  0.00     0.202 C 
BRANCH   4   5
ATOM      5  C   UNL     1       8.932   2.471  -1.840  1.00  0.00     0.261 C 
BRANCH   5   6
ATOM      6  O   UNL     1       7.799   3.318  -1.664  1.00  0.00    -0.460 OA
BRANCH   6   7
ATOM      7  C   UNL     1       7.209   3.256  -0.453  1.00  0.00     0.338 C 
ATOM      8  O   UNL     1       7.482   2.512   0.473  1.00  0.00    -0.246 OA
BRANCH   7   9
ATOM      9  C   UNL     1       6.249   4.375  -0.352  1.00  0.00     0.060 A 
ATOM     10  C   UNL     1       4.369   6.399  -0.011  1.00  0.00     0.053 A 
ATOM     11  C   UNL     1       5.350   6.203   0.963  1.00  0.00     0.028 A 
ATOM     12  C   UNL     1       4.413   5.664  -1.208  1.00  0.00     0.028 A 
ATOM     13  C   UNL     1       6.261   5.160   0.810  1.00  0.00     0.018 A 
ATOM     14  C   UNL     1       5.366   4.665  -1.392  1.00  0.00     0.018 A 
BRANCH  10  15
ATOM     15  N   UNL     1       3.227   7.166   0.297  1.00  0.00    -0.242 N 
ATOM     16  C   UNL     1       1.923   6.761   0.209  1.00  0.00     0.095 A 
ATOM     17  C   UNL     1       1.192   7.778   0.646  1.00  0.00     0.228 A 
ATOM     18  O   UNL     1       1.936   8.884   1.055  1.00  0.00    -0.415 OA
ATOM     19  C   UNL     1       3.246   8.438   0.862  1.00  0.00     0.424 A 
ATOM     20  O   UNL     1       4.221   9.113   1.161  1.00  0.00    -0.223 OA
BRANCH  16  21
ATOM     21  C   UNL     1       1.482   5.397  -0.091  1.00  0.00     0.002 A 
ATOM     22  C   UNL     1       0.832   2.750  -0.743  1.00  0.00     0.082 A 
ATOM     23  C   UNL     1       1.687   3.000   0.328  1.00  0.00     0.022 A 
ATOM     24  C   UNL     1       0.273   3.810  -1.468  1.00  0.00     0.022 A 
ATOM     25  C   UNL     1       1.998   4.320   0.656  1.00  0.00     0.012 A 
ATOM     26  C   UNL     1       0.599   5.131  -1.142  1.00  0.00     0.012 A 
BRANCH  22  27
ATOM     27  S   UNL     1       0.437   1.099  -1.236  1.00  0.00     0.238 S 
ATOM     28  O   UNL     1       1.163   0.804  -2.452  1.00  0.00    -0.207 OA
ATOM     29  O   UNL     1      -0.987   0.916  -1.109  1.00  0.00    -0.207 OA
BRANCH  27  30
ATOM     30  N   UNL     1       1.120   0.117  -0.055  1.00  0.00    -0.225 NA
ATOM     31  H   UNL     1       0.931  -0.861  -0.275  1.00  0.00     0.137 HD
ATOM     32  H   UNL     1       0.716   0.345   0.853  1.00  0.00     0.137 HD
ENDBRANCH  27  30
ENDBRANCH  22  27
ENDBRANCH  16  21
ENDBRANCH  10  15
ENDBRANCH   7   9
ENDBRANCH   6   7
ENDBRANCH   5   6
ENDBRANCH   4   5
ENDBRANCH   3   4
ENDBRANCH   2   3
ENDBRANCH   1   2
BRANCH   1  33
ATOM     33  O   UNL     1       9.395   5.181  -3.051  1.00  0.00    -0.377 OA
BRANCH  33  34
ATOM     34  C   UNL     1      10.558   5.577  -3.776  1.00  0.00     0.188 C 
BRANCH  34  35
ATOM     35  C   UNL     1      11.863   5.839  -2.981  1.00  0.00     0.188 C 
BRANCH  35  36
ATOM     36  O   UNL     1      11.680   6.575  -1.776  1.00  0.00    -0.376 OA
BRANCH  36  37
ATOM     37  C   UNL     1      12.135   7.911  -1.653  1.00  0.00     0.202 C 
BRANCH  37  38
ATOM     38  C   UNL     1      11.338   8.968  -2.409  1.00  0.00     0.261 C 
BRANCH  38  39
ATOM     39  O   UNL     1      11.010   8.590  -3.731  1.00  0.00    -0.460 OA
BRANCH  39  40
ATOM     40  C   UNL     1      12.062   8.483  -4.565  1.00  0.00     0.338 C 
ATOM     41  O   UNL     1      13.241   8.444  -4.262  1.00  0.00    -0.246 OA
BRANCH  40  42
ATOM     42  C   UNL     1      11.553   8.555  -5.934  1.00  0.00     0.060 A 
ATOM     43  C   UNL     1      12.519   8.503  -6.935  1.00  0.00     0.016 A 
ATOM     44  C   UNL     1      10.263   9.073  -6.144  1.00  0.00     0.016 A 
ATOM     45  C   UNL     1      12.296   9.260  -8.055  1.00  0.00     0.010 A 
ATOM     46  C   UNL     1      10.054   9.847  -7.252  1.00  0.00     0.010 A 
ATOM     47  C   UNL     1      11.116  10.011  -8.131  1.00  0.00    -0.014 A 
BRANCH  47  48
ATOM     48  C   UNL     1      10.983  10.922  -9.236  1.00  0.00     0.031 A 
ATOM     49  C   UNL     1      10.667  10.216 -10.483  1.00  0.00     0.074 A 
ATOM     50  C   UNL     1      11.107  12.254  -9.125  1.00  0.00     0.049 A 
ATOM     51  N   UNL     1      11.499   9.893 -11.412  1.00  0.00    -0.248 NA
ATOM     52  C   UNL     1       9.352   9.569 -10.591  1.00  0.00     0.031 C 
ATOM     53  C   UNL     1      11.172  13.080  -7.919  1.00  0.00     0.029 A 
ATOM     54  N   UNL     1      11.126  13.167 -10.127  1.00  0.00    -0.354 N 
ATOM     55  C   UNL     1      10.742   9.224 -12.358  1.00  0.00     0.074 A 
ATOM     56  C   UNL     1       9.531   8.835 -11.689  1.00  0.00     0.031 C 
ATOM     57  C   UNL     1      11.002  14.379  -8.266  1.00  0.00     0.029 A 
ATOM     58  C   UNL     1      10.956  14.481  -9.718  1.00  0.00     0.049 A 
ATOM     59  H   UNL     1      11.249  12.916 -11.071  1.00  0.00     0.167 HD
ATOM     60  C   UNL     1      11.060   9.307 -13.676  1.00  0.00     0.034 A 
ATOM     61  C   UNL     1      10.725  15.547 -10.531  1.00  0.00     0.034 A 
ATOM     62  C   UNL     1      12.417   9.789 -13.849  1.00  0.00     0.049 A 
ATOM     63  C   UNL     1      11.244  15.178 -11.877  1.00  0.00     0.074 A 
ATOM     64  C   UNL     1      13.657   9.343 -13.426  1.00  0.00     0.029 A 
ATOM     65  N   UNL     1      12.599  11.113 -14.191  1.00  0.00    -0.354 N 
ATOM     66  N   UNL     1      12.512  14.980 -12.120  1.00  0.00    -0.248 NA
ATOM     67  C   UNL     1      10.335  14.534 -12.816  1.00  0.00     0.031 C 
ATOM     68  C   UNL     1      14.375  10.524 -13.073  1.00  0.00     0.029 A 
ATOM     69  C   UNL     1      13.576  11.629 -13.373  1.00  0.00     0.049 A 
ATOM     70  H   UNL     1      12.115  11.601 -14.896  1.00  0.00     0.167 HD
ATOM     71  C   UNL     1      12.556  13.862 -12.941  1.00  0.00     0.074 A 
ATOM     72  C   UNL     1      11.184  13.692 -13.416  1.00  0.00     0.031 C 
ATOM     73  C   UNL     1      13.629  13.014 -12.931  1.00  0.00     0.034 A 
BRANCH  60  74
ATOM     74  C   UNL     1      10.036   9.336 -14.785  1.00  0.00     0.023 A 
ATOM     75  C   UNL     1      10.531   9.459 -16.094  1.00  0.00     0.031 A 
ATOM     76  C   UNL     1       8.642   9.532 -14.636  1.00  0.00     0.131 A 
ATOM     77  C   UNL     1       9.696   9.871 -17.144  1.00  0.00     0.055 A 
ATOM     78  C   UNL     1       7.803   9.873 -15.698  1.00  0.00     0.041 A 
ATOM     79  F   UNL     1       8.016   9.500 -13.455  1.00  0.00    -0.206 F 
ATOM     80  C   UNL     1       8.333  10.081 -16.956  1.00  0.00     0.022 A 
BRANCH  77  81
ATOM     81  S   UNL     1      10.467  10.307 -18.720  1.00  0.00     0.124 S 
ATOM     82  O   UNL     1      11.451  11.298 -18.297  1.00  0.00    -0.237 OA
ATOM     83  O   UNL     1      10.995   9.020 -19.159  1.00  0.00    -0.237 OA
ATOM     84  O   UNL     1       9.353  10.827 -19.508  1.00  0.00    -0.744 OA
ENDBRANCH  77  81
ENDBRANCH  60  74
BRANCH  61  85
ATOM     85  C   UNL     1       9.766  16.661 -10.288  1.00  0.00     0.023 A 
ATOM     86  C   UNL     1       9.800  17.873 -11.011  1.00  0.00     0.031 A 
ATOM     87  C   UNL     1       8.625  16.439  -9.482  1.00  0.00     0.131 A 
ATOM     88  C   UNL     1       8.729  18.794 -10.910  1.00  0.00     0.055 A 
ATOM     89  C   UNL     1       7.573  17.353  -9.384  1.00  0.00     0.041 A 
ATOM     90  F   UNL     1       8.449  15.281  -8.826  1.00  0.00    -0.206 F 
ATOM     91  C   UNL     1       7.617  18.532 -10.107  1.00  0.00     0.022 A 
BRANCH  88  92
ATOM     92  S   UNL     1       8.723  20.323 -11.904  1.00  0.00     0.124 S 
ATOM     93  O   UNL     1       9.806  21.090 -11.300  1.00  0.00    -0.237 OA
ATOM     94  O   UNL     1       8.955  19.822 -13.253  1.00  0.00    -0.237 OA
ATOM     95  O   UNL     1       7.384  20.871 -11.679  1.00  0.00    -0.744 OA
ENDBRANCH  88  92
ENDBRANCH  61  85
BRANCH  73  96
ATOM     96  C   UNL     1      14.902  13.466 -12.237  1.00  0.00     0.023 A 
ATOM     97  C   UNL     1      14.996  13.853 -10.879  1.00  0.00     0.031 A 
ATOM     98  C   UNL     1      16.099  13.385 -12.972  1.00  0.00     0.131 A 
ATOM     99  C   UNL     1      16.254  14.151 -10.315  1.00  0.00     0.055 A 
ATOM    100  C   UNL     1      17.343  13.658 -12.404  1.00  0.00     0.041 A 
ATOM    101  F   UNL     1      16.082  13.001 -14.259  1.00  0.00    -0.206 F 
ATOM    102  C   UNL     1      17.424  14.048 -11.073  1.00  0.00     0.022 A 
BRANCH  99 103
ATOM    103  S   UNL     1      16.395  14.698  -8.581  1.00  0.00     0.124 S 
ATOM    104  O   UNL     1      15.367  15.725  -8.462  1.00  0.00    -0.237 OA
ATOM    105  O   UNL     1      16.155  13.463  -7.840  1.00  0.00    -0.237 OA
ATOM    106  O   UNL     1      17.768  15.200  -8.494  1.00  0.00    -0.744 OA
ENDBRANCH  99 103
ENDBRANCH  73  96
ENDBRANCH  47  48
ENDBRANCH  40  42
ENDBRANCH  39  40
ENDBRANCH  38  39
ENDBRANCH  37  38
ENDBRANCH  36  37
ENDBRANCH  35  36
ENDBRANCH  34  35
ENDBRANCH  33  34
ENDBRANCH   1  33
TORSDOF 27
