REMARK SMILES O=C(OCCOCCOCCOCCOC(=O)[C@@H]1CS[C@@H](c2cc(Br)ccc2O)[NH2+]1)c1ccc(-c2c3nc(c(-c4cc(S(=O)(=O)[O-])ccc4F)c4ccc([nH]4)c(-c4cc(S(=O)(=O)[O-])ccc4F)c4nc(c(-c5cc(S(=O)(=O)[O-])ccc5F)c5ccc2[nH]5)C=C4)C=C3)cc1
REMARK SMILES IDX 8 1 7 2 6 3 5 4 4 5 3 6 2 7 1 8 31 9 32 10 93 11 33 12 92 13
REMARK SMILES IDX 34 14 35 15 36 16 86 17 37 18 91 19 85 20 87 21 38 22 90 23
REMARK SMILES IDX 84 24 83 25 39 27 71 28 51 29 70 30 52 31 55 32 69 33 88 34
REMARK SMILES IDX 53 35 54 36 68 38 89 39 56 40 40 41 41 42 49 43 42 44 48 45
REMARK SMILES IDX 50 46 47 47 43 48 44 49 45 50 46 51 72 52 73 53 81 54 74 55
REMARK SMILES IDX 80 56 82 57 79 58 75 59 76 60 77 61 78 62 57 63 58 64 66 65
REMARK SMILES IDX 59 66 65 67 67 68 64 69 60 70 61 71 62 72 63 73 9 74 10 75
REMARK SMILES IDX 11 76 12 77 13 78 14 79 15 80 16 81 17 82 18 83 19 84 30 85
REMARK SMILES IDX 20 86 21 87 22 90 23 91 28 92 24 93 27 94 25 95 26 96 29 97
REMARK H PARENT 87 26 55 37 30 88 30 89 29 98
REMARK Flexibility Score: inf
ROOT
ATOM      1  C   UNL     1       8.784  -4.803   5.217  1.00  0.00     0.188 C 
ENDROOT
BRANCH   1   2
ATOM      2  C   UNL     1       9.868  -3.854   4.711  1.00  0.00     0.188 C 
BRANCH   2   3
ATOM      3  O   UNL     1       9.852  -2.618   5.426  1.00  0.00    -0.376 OA
BRANCH   3   4
ATOM      4  C   UNL     1      10.033  -1.427   4.658  1.00  0.00     0.202 C 
BRANCH   4   5
ATOM      5  C   UNL     1      11.480  -1.125   4.274  1.00  0.00     0.261 C 
BRANCH   5   6
ATOM      6  O   UNL     1      12.251  -2.308   4.037  1.00  0.00    -0.460 OA
BRANCH   6   7
ATOM      7  C   UNL     1      12.922  -3.062   4.944  1.00  0.00     0.338 C 
ATOM      8  O   UNL     1      13.540  -4.038   4.515  1.00  0.00    -0.246 OA
BRANCH   7   9
ATOM      9  C   UNL     1      12.915  -2.840   6.432  1.00  0.00     0.060 A 
ATOM     10  C   UNL     1      12.040  -2.016   7.145  1.00  0.00     0.016 A 
ATOM     11  C   UNL     1      13.834  -3.601   7.179  1.00  0.00     0.016 A 
ATOM     12  C   UNL     1      12.043  -1.956   8.530  1.00  0.00     0.010 A 
ATOM     13  C   UNL     1      13.870  -3.527   8.575  1.00  0.00     0.010 A 
ATOM     14  C   UNL     1      12.971  -2.696   9.247  1.00  0.00    -0.014 A 
BRANCH  14  15
ATOM     15  C   UNL     1      13.091  -2.408  10.682  1.00  0.00     0.031 A 
ATOM     16  C   UNL     1      14.156  -1.440  11.092  1.00  0.00     0.074 A 
ATOM     17  C   UNL     1      12.179  -2.889  11.544  1.00  0.00     0.049 A 
ATOM     18  N   UNL     1      14.545  -1.095  12.285  1.00  0.00    -0.248 NA
ATOM     19  C   UNL     1      14.870  -0.751  10.000  1.00  0.00     0.031 C 
ATOM     20  C   UNL     1      11.003  -3.682  11.171  1.00  0.00     0.029 A 
ATOM     21  N   UNL     1      12.084  -2.771  12.903  1.00  0.00    -0.354 N 
ATOM     22  C   UNL     1      15.576  -0.184  12.090  1.00  0.00     0.074 A 
ATOM     23  C   UNL     1      15.739  -0.008  10.667  1.00  0.00     0.031 C 
ATOM     24  C   UNL     1      10.318  -3.996  12.283  1.00  0.00     0.029 A 
ATOM     25  C   UNL     1      11.051  -3.503  13.444  1.00  0.00     0.049 A 
ATOM     26  H   UNL     1      12.694  -2.217  13.442  1.00  0.00     0.167 HD
ATOM     27  C   UNL     1      16.333   0.417  13.035  1.00  0.00     0.034 A 
ATOM     28  C   UNL     1      10.791  -3.792  14.734  1.00  0.00     0.034 A 
ATOM     29  C   UNL     1      16.127   0.190  14.440  1.00  0.00     0.049 A 
ATOM     30  C   UNL     1      11.740  -3.220  15.765  1.00  0.00     0.074 A 
ATOM     31  C   UNL     1      16.841   0.687  15.512  1.00  0.00     0.029 A 
ATOM     32  N   UNL     1      15.128  -0.627  14.963  1.00  0.00    -0.354 N 
ATOM     33  N   UNL     1      12.758  -2.404  15.585  1.00  0.00    -0.248 NA
ATOM     34  C   UNL     1      11.528  -3.618  17.160  1.00  0.00     0.031 C 
ATOM     35  C   UNL     1      16.327   0.104  16.674  1.00  0.00     0.029 A 
ATOM     36  C   UNL     1      15.239  -0.690  16.338  1.00  0.00     0.049 A 
ATOM     37  H   UNL     1      14.444  -1.092  14.430  1.00  0.00     0.167 HD
ATOM     38  C   UNL     1      13.298  -2.184  16.847  1.00  0.00     0.074 A 
ATOM     39  C   UNL     1      12.472  -2.925  17.781  1.00  0.00     0.031 C 
ATOM     40  C   UNL     1      14.381  -1.451  17.215  1.00  0.00     0.034 A 
BRANCH  27  41
ATOM     41  C   UNL     1      17.503   1.240  12.568  1.00  0.00     0.023 A 
ATOM     42  C   UNL     1      17.348   2.452  11.874  1.00  0.00     0.031 A 
ATOM     43  C   UNL     1      18.808   0.758  12.776  1.00  0.00     0.131 A 
ATOM     44  C   UNL     1      18.480   3.115  11.369  1.00  0.00     0.055 A 
ATOM     45  C   UNL     1      19.931   1.456  12.332  1.00  0.00     0.041 A 
ATOM     46  F   UNL     1      19.011  -0.415  13.395  1.00  0.00    -0.206 F 
ATOM     47  C   UNL     1      19.770   2.638  11.615  1.00  0.00     0.022 A 
BRANCH  44  48
ATOM     48  S   UNL     1      18.242   4.549  10.284  1.00  0.00     0.124 S 
ATOM     49  O   UNL     1      17.543   3.948   9.150  1.00  0.00    -0.237 OA
ATOM     50  O   UNL     1      17.451   5.449  11.115  1.00  0.00    -0.237 OA
ATOM     51  O   UNL     1      19.604   4.997  10.002  1.00  0.00    -0.744 OA
ENDBRANCH  44  48
ENDBRANCH  27  41
BRANCH  28  52
ATOM     52  C   UNL     1       9.705  -4.745  15.120  1.00  0.00     0.023 A 
ATOM     53  C   UNL     1       8.713  -4.389  16.048  1.00  0.00     0.031 A 
ATOM     54  C   UNL     1       9.700  -6.071  14.643  1.00  0.00     0.131 A 
ATOM     55  C   UNL     1       7.809  -5.357  16.519  1.00  0.00     0.055 A 
ATOM     56  C   UNL     1       8.754  -7.010  15.058  1.00  0.00     0.041 A 
ATOM     57  F   UNL     1      10.631  -6.486  13.769  1.00  0.00    -0.206 F 
ATOM     58  C   UNL     1       7.813  -6.661  16.019  1.00  0.00     0.022 A 
BRANCH  55  59
ATOM     59  S   UNL     1       6.723  -4.928  17.909  1.00  0.00     0.124 S 
ATOM     60  O   UNL     1       7.682  -4.440  18.894  1.00  0.00    -0.237 OA
ATOM     61  O   UNL     1       5.849  -3.925  17.311  1.00  0.00    -0.237 OA
ATOM     62  O   UNL     1       6.079  -6.197  18.241  1.00  0.00    -0.744 OA
ENDBRANCH  55  59
ENDBRANCH  28  52
BRANCH  40  63
ATOM     63  C   UNL     1      14.697  -1.409  18.685  1.00  0.00     0.023 A 
ATOM     64  C   UNL     1      15.166  -2.547  19.361  1.00  0.00     0.031 A 
ATOM     65  C   UNL     1      14.556  -0.210  19.404  1.00  0.00     0.131 A 
ATOM     66  C   UNL     1      15.437  -2.473  20.732  1.00  0.00     0.055 A 
ATOM     67  C   UNL     1      14.892  -0.127  20.753  1.00  0.00     0.041 A 
ATOM     68  F   UNL     1      14.112   0.902  18.798  1.00  0.00    -0.206 F 
ATOM     69  C   UNL     1      15.325  -1.266  21.428  1.00  0.00     0.022 A 
BRANCH  66  70
ATOM     70  S   UNL     1      15.867  -3.997  21.611  1.00  0.00     0.124 S 
ATOM     71  O   UNL     1      14.671  -4.809  21.412  1.00  0.00    -0.237 OA
ATOM     72  O   UNL     1      17.064  -4.441  20.904  1.00  0.00    -0.237 OA
ATOM     73  O   UNL     1      16.090  -3.548  22.985  1.00  0.00    -0.744 OA
ENDBRANCH  66  70
ENDBRANCH  40  63
ENDBRANCH  14  15
ENDBRANCH   7   9
ENDBRANCH   6   7
ENDBRANCH   5   6
ENDBRANCH   4   5
ENDBRANCH   3   4
ENDBRANCH   2   3
ENDBRANCH   1   2
BRANCH   1  74
ATOM     74  O   UNL     1       7.461  -4.415   4.874  1.00  0.00    -0.377 OA
BRANCH  74  75
ATOM     75  C   UNL     1       7.118  -3.067   5.156  1.00  0.00     0.188 C 
BRANCH  75  76
ATOM     76  C   UNL     1       7.301  -2.529   6.601  1.00  0.00     0.188 C 
BRANCH  76  77
ATOM     77  O   UNL     1       7.569  -3.549   7.541  1.00  0.00    -0.376 OA
BRANCH  77  78
ATOM     78  C   UNL     1       6.449  -3.976   8.303  1.00  0.00     0.202 C 
BRANCH  78  79
ATOM     79  C   UNL     1       5.266  -4.548   7.502  1.00  0.00     0.261 C 
BRANCH  79  80
ATOM     80  O   UNL     1       4.682  -3.704   6.477  1.00  0.00    -0.459 OA
BRANCH  80  81
ATOM     81  C   UNL     1       4.107  -2.516   6.824  1.00  0.00     0.365 C 
ATOM     82  O   UNL     1       4.010  -2.127   7.973  1.00  0.00    -0.245 OA
BRANCH  81  83
ATOM     83  C   UNL     1       3.655  -1.747   5.537  1.00  0.00     0.304 C 
ATOM     84  C   UNL     1       4.741  -0.940   4.795  1.00  0.00     0.153 C 
ATOM     85  N   UNL     1       2.556  -0.805   5.862  1.00  0.00    -0.319 N 
ATOM     86  S   UNL     1       4.317   0.806   4.939  1.00  0.00    -0.087 SA
ATOM     87  C   UNL     1       3.204   0.441   6.306  1.00  0.00     0.278 C 
ATOM     88  H   UNL     1       1.973  -1.186   6.607  1.00  0.00     0.348 HD
ATOM     89  H   UNL     1       1.952  -0.645   5.056  1.00  0.00     0.348 HD
BRANCH  87  90
ATOM     90  C   UNL     1       2.172   1.477   6.654  1.00  0.00     0.063 A 
ATOM     91  C   UNL     1       1.795   2.525   5.799  1.00  0.00     0.030 A 
ATOM     92  C   UNL     1       1.492   1.337   7.876  1.00  0.00     0.125 A 
ATOM     93  C   UNL     1       0.747   3.372   6.152  1.00  0.00     0.018 A 
ATOM     94  C   UNL     1       0.435   2.170   8.220  1.00  0.00     0.048 A 
ATOM     95  Br  UNL     1       0.247   4.772   4.982  1.00  0.00    -0.051 Br
ATOM     96  C   UNL     1       0.055   3.188   7.347  1.00  0.00     0.019 A 
BRANCH  92  97
ATOM     97  O   UNL     1       1.892   0.351   8.730  1.00  0.00    -0.507 OA
ATOM     98  H   UNL     1       2.606  -0.210   8.497  1.00  0.00     0.293 HD
ENDBRANCH  92  97
ENDBRANCH  87  90
ENDBRANCH  81  83
ENDBRANCH  80  81
ENDBRANCH  79  80
ENDBRANCH  78  79
ENDBRANCH  77  78
ENDBRANCH  76  77
ENDBRANCH  75  76
ENDBRANCH  74  75
ENDBRANCH   1  74
TORSDOF 25
