REMARK SMILES Cc1ccc(-c2nn(-c3ccccc3)cc2[C@@H]2[NH2+][C@H](C(=O)OCCOCCOCCOCCOC(=O)c3ccc(-c4c5nc(c(-c6cc(S(=O)(=O)[O-])ccc6F)c6ccc([nH]6)c(-c6cc(S(=O)(=O)[O-])ccc6F)c6nc(c(-c7cc(S(=O)(=O)[O-])ccc7F)c7ccc4[nH]7)C=C6)C=C5)cc3)CS2)cc1
REMARK SMILES IDX 29 1 28 2 27 3 26 4 25 5 24 6 23 7 22 8 20 9 21 10 19 11
REMARK SMILES IDX 17 12 18 13 101 14 100 17 16 18 6 19 7 20 8 21 15 22 5 23
REMARK SMILES IDX 1 24 2 25 3 26 103 27 4 28 102 29 9 30 10 31 14 32 11 33
REMARK SMILES IDX 13 34 12 35 30 36 31 37 32 38 33 39 34 40 35 41 36 42 37 43
REMARK SMILES IDX 38 44 99 45 39 46 98 47 40 48 41 49 42 50 92 51 43 52 97 53
REMARK SMILES IDX 91 54 93 55 44 56 96 57 90 58 89 59 45 61 77 62 57 63 76 64
REMARK SMILES IDX 58 65 61 66 75 67 94 68 59 69 60 70 74 72 95 73 62 74 46 75
REMARK SMILES IDX 47 76 55 77 48 78 54 79 56 80 53 81 49 82 50 83 51 84 52 85
REMARK SMILES IDX 78 86 79 87 87 88 80 89 86 90 88 91 85 92 81 93 82 94 83 95
REMARK SMILES IDX 84 96 63 97 64 98 72 99 65 100 71 101 73 102 70 103 66 104
REMARK SMILES IDX 67 105 68 106 69 107
REMARK H PARENT 18 15 18 16 93 60 61 71
REMARK Flexibility Score: inf
ROOT
ATOM      1  C   UNL     1      -3.628  -4.005  -0.295  1.00  0.00     0.188 C 
ENDROOT
BRANCH   1   2
ATOM      2  O   UNL     1      -3.070  -4.457   0.935  1.00  0.00    -0.377 OA
BRANCH   2   3
ATOM      3  C   UNL     1      -3.462  -5.722   1.467  1.00  0.00     0.188 C 
BRANCH   3   4
ATOM      4  C   UNL     1      -4.860  -5.845   2.092  1.00  0.00     0.188 C 
BRANCH   4   5
ATOM      5  O   UNL     1      -5.936  -6.335   1.308  1.00  0.00    -0.376 OA
BRANCH   5   6
ATOM      6  C   UNL     1      -7.033  -5.421   1.162  1.00  0.00     0.202 C 
BRANCH   6   7
ATOM      7  C   UNL     1      -7.670  -4.769   2.413  1.00  0.00     0.261 C 
BRANCH   7   8
ATOM      8  O   UNL     1      -6.940  -3.567   2.742  1.00  0.00    -0.459 OA
BRANCH   8   9
ATOM      9  C   UNL     1      -6.161  -3.445   3.842  1.00  0.00     0.365 C 
ATOM     10  O   UNL     1      -6.288  -4.098   4.869  1.00  0.00    -0.245 OA
BRANCH   9  11
ATOM     11  C   UNL     1      -4.930  -2.543   3.521  1.00  0.00     0.304 C 
ATOM     12  C   UNL     1      -3.828  -1.462   1.596  1.00  0.00     0.278 C 
ATOM     13  N   UNL     1      -4.659  -2.565   2.050  1.00  0.00    -0.319 N 
ATOM     14  S   UNL     1      -4.019  -0.149   2.925  1.00  0.00    -0.087 SA
ATOM     15  H   UNL     1      -4.186  -3.440   1.821  1.00  0.00     0.348 HD
ATOM     16  H   UNL     1      -5.558  -2.476   1.577  1.00  0.00     0.348 HD
ATOM     17  C   UNL     1      -5.097  -1.128   4.014  1.00  0.00     0.153 C 
BRANCH  12  18
ATOM     18  C   UNL     1      -3.973  -0.873  -0.060  1.00  0.00     0.067 A 
ATOM     19  C   UNL     1      -3.375   0.987   0.072  1.00  0.00     0.103 A 
ATOM     20  N   UNL     1      -4.289   1.983  -0.953  1.00  0.00    -0.167 NA
ATOM     21  N   UNL     1      -5.514   0.989  -1.945  1.00  0.00    -0.240 N 
ATOM     22  C   UNL     1      -5.229  -0.874  -1.491  1.00  0.00     0.126 A 
BRANCH  19  23
ATOM     23  C   UNL     1      -1.825   1.208   0.498  1.00  0.00     0.003 A 
ATOM     24  C   UNL     1       2.545   0.610   0.092  1.00  0.00     0.044 C 
ATOM     25  C   UNL     1       1.100   0.929   0.378  1.00  0.00    -0.051 A 
ATOM     26  C   UNL     1       0.318  -0.067   0.913  1.00  0.00     0.004 A 
ATOM     27  C   UNL     1       0.433   2.103  -0.017  1.00  0.00     0.004 A 
ATOM     28  C   UNL     1      -1.075   0.105   1.003  1.00  0.00     0.011 A 
ATOM     29  C   UNL     1      -1.006   2.240   0.028  1.00  0.00     0.011 A 
ENDBRANCH  19  23
BRANCH  21  30
ATOM     30  C   UNL     1      -6.489   1.693  -2.814  1.00  0.00     0.065 A 
ATOM     31  C   UNL     1      -6.981   1.188  -4.024  1.00  0.00     0.028 A 
ATOM     32  C   UNL     1      -7.108   2.850  -2.334  1.00  0.00     0.028 A 
ATOM     33  C   UNL     1      -8.226   1.547  -4.524  1.00  0.00     0.002 A 
ATOM     34  C   UNL     1      -8.405   3.162  -2.776  1.00  0.00     0.002 A 
ATOM     35  C   UNL     1      -8.989   2.461  -3.828  1.00  0.00     0.000 A 
ENDBRANCH  21  30
ENDBRANCH  12  18
ENDBRANCH   9  11
ENDBRANCH   8   9
ENDBRANCH   7   8
ENDBRANCH   6   7
ENDBRANCH   5   6
ENDBRANCH   4   5
ENDBRANCH   3   4
ENDBRANCH   2   3
ENDBRANCH   1   2
BRANCH   1  36
ATOM     36  C   UNL     1      -3.407  -4.807  -1.526  1.00  0.00     0.188 C 
BRANCH  36  37
ATOM     37  O   UNL     1      -4.050  -6.060  -1.362  1.00  0.00    -0.376 OA
BRANCH  37  38
ATOM     38  C   UNL     1      -3.260  -7.167  -1.749  1.00  0.00     0.202 C 
BRANCH  38  39
ATOM     39  C   UNL     1      -2.719  -7.056  -3.176  1.00  0.00     0.261 C 
BRANCH  39  40
ATOM     40  O   UNL     1      -3.831  -7.068  -4.103  1.00  0.00    -0.460 OA
BRANCH  40  41
ATOM     41  C   UNL     1      -4.120  -5.878  -4.706  1.00  0.00     0.338 C 
ATOM     42  O   UNL     1      -3.431  -5.360  -5.569  1.00  0.00    -0.246 OA
BRANCH  41  43
ATOM     43  C   UNL     1      -5.376  -5.271  -4.152  1.00  0.00     0.060 A 
ATOM     44  C   UNL     1      -5.678  -3.920  -4.371  1.00  0.00     0.016 A 
ATOM     45  C   UNL     1      -6.115  -5.962  -3.200  1.00  0.00     0.016 A 
ATOM     46  C   UNL     1      -6.573  -3.240  -3.510  1.00  0.00     0.010 A 
ATOM     47  C   UNL     1      -6.902  -5.255  -2.291  1.00  0.00     0.010 A 
ATOM     48  C   UNL     1      -7.098  -3.869  -2.373  1.00  0.00    -0.014 A 
BRANCH  48  49
ATOM     49  C   UNL     1      -7.931  -3.209  -1.308  1.00  0.00     0.031 A 
ATOM     50  C   UNL     1      -9.350  -3.624  -1.226  1.00  0.00     0.074 A 
ATOM     51  C   UNL     1      -7.457  -2.495  -0.235  1.00  0.00     0.049 A 
ATOM     52  N   UNL     1     -10.216  -3.073  -0.455  1.00  0.00    -0.248 NA
ATOM     53  C   UNL     1      -9.888  -4.824  -1.862  1.00  0.00     0.031 C 
ATOM     54  C   UNL     1      -8.044  -1.879   0.934  1.00  0.00     0.029 A 
ATOM     55  N   UNL     1      -6.180  -2.114   0.068  1.00  0.00    -0.354 N 
ATOM     56  C   UNL     1     -11.035  -4.091  -0.025  1.00  0.00     0.074 A 
ATOM     57  C   UNL     1     -10.936  -5.080  -1.069  1.00  0.00     0.031 C 
ATOM     58  C   UNL     1      -7.293  -0.866   1.444  1.00  0.00     0.029 A 
ATOM     59  C   UNL     1      -6.170  -0.707   0.533  1.00  0.00     0.049 A 
ATOM     60  H   UNL     1      -5.384  -2.689  -0.011  1.00  0.00     0.167 HD
ATOM     61  C   UNL     1     -11.501  -4.043   1.260  1.00  0.00     0.034 A 
ATOM     62  C   UNL     1      -5.341   0.438  -0.167  1.00  0.00     0.034 A 
ATOM     63  C   UNL     1     -11.183  -2.740   1.929  1.00  0.00     0.049 A 
ATOM     64  C   UNL     1      -6.933   1.262   0.045  1.00  0.00     0.074 A 
ATOM     65  C   UNL     1     -10.710  -2.356   3.178  1.00  0.00     0.029 A 
ATOM     66  N   UNL     1     -11.159  -1.552   1.167  1.00  0.00    -0.354 N 
ATOM     67  N   UNL     1      -8.142   0.722  -0.231  1.00  0.00    -0.248 NA
ATOM     68  C   UNL     1      -7.119   2.466   0.881  1.00  0.00     0.031 C 
ATOM     69  C   UNL     1     -10.278  -0.983   3.093  1.00  0.00     0.029 A 
ATOM     70  C   UNL     1     -10.445  -0.526   1.782  1.00  0.00     0.049 A 
ATOM     71  H   UNL     1     -11.601  -1.457   0.293  1.00  0.00     0.167 HD
ATOM     72  C   UNL     1      -9.157   1.322   0.555  1.00  0.00     0.074 A 
ATOM     73  C   UNL     1      -8.454   2.495   1.102  1.00  0.00     0.031 C 
ATOM     74  C   UNL     1     -10.328   0.794   1.135  1.00  0.00     0.034 A 
BRANCH  61  75
ATOM     75  C   UNL     1     -12.069  -5.247   2.017  1.00  0.00     0.023 A 
ATOM     76  C   UNL     1     -12.648  -5.026   3.283  1.00  0.00     0.031 A 
ATOM     77  C   UNL     1     -12.009  -6.611   1.634  1.00  0.00     0.131 A 
ATOM     78  C   UNL     1     -13.107  -6.083   4.095  1.00  0.00     0.055 A 
ATOM     79  C   UNL     1     -12.538  -7.659   2.410  1.00  0.00     0.041 A 
ATOM     80  F   UNL     1     -11.389  -7.021   0.522  1.00  0.00    -0.206 F 
ATOM     81  C   UNL     1     -13.085  -7.401   3.654  1.00  0.00     0.022 A 
BRANCH  78  82
ATOM     82  S   UNL     1     -13.696  -5.704   5.767  1.00  0.00     0.124 S 
ATOM     83  O   UNL     1     -12.456  -5.330   6.440  1.00  0.00    -0.237 OA
ATOM     84  O   UNL     1     -14.650  -4.628   5.525  1.00  0.00    -0.237 OA
ATOM     85  O   UNL     1     -14.287  -6.965   6.213  1.00  0.00    -0.744 OA
ENDBRANCH  78  82
ENDBRANCH  61  75
BRANCH  62  86
ATOM     86  C   UNL     1      -3.803   0.216  -1.735  1.00  0.00     0.023 A 
ATOM     87  C   UNL     1      -2.397  -0.471  -1.777  1.00  0.00     0.031 A 
ATOM     88  C   UNL     1      -4.051  -0.121  -3.336  1.00  0.00     0.131 A 
ATOM     89  C   UNL     1      -1.638  -1.132  -2.856  1.00  0.00     0.055 A 
ATOM     90  C   UNL     1      -3.281  -0.646  -4.415  1.00  0.00     0.041 A 
ATOM     91  F   UNL     1      -5.298  -0.472  -3.701  1.00  0.00    -0.206 F 
ATOM     92  C   UNL     1      -2.078  -1.214  -4.159  1.00  0.00     0.022 A 
BRANCH  89  93
ATOM     93  S   UNL     1      -0.209  -2.216  -2.437  1.00  0.00     0.124 S 
ATOM     94  O   UNL     1       0.907  -1.281  -2.498  1.00  0.00    -0.237 OA
ATOM     95  O   UNL     1      -0.551  -2.730  -1.113  1.00  0.00    -0.237 OA
ATOM     96  O   UNL     1      -0.227  -3.234  -3.487  1.00  0.00    -0.744 OA
ENDBRANCH  89  93
ENDBRANCH  62  86
BRANCH  74  97
ATOM     97  C   UNL     1     -11.635   1.590   1.216  1.00  0.00     0.023 A 
ATOM     98  C   UNL     1     -11.739   2.869   0.683  1.00  0.00     0.031 A 
ATOM     99  C   UNL     1     -12.857   1.030   1.716  1.00  0.00     0.131 A 
ATOM    100  C   UNL     1     -12.968   3.550   0.706  1.00  0.00     0.055 A 
ATOM    101  C   UNL     1     -14.089   1.679   1.658  1.00  0.00     0.041 A 
ATOM    102  F   UNL     1     -12.938  -0.183   2.279  1.00  0.00    -0.206 F 
ATOM    103  C   UNL     1     -14.149   2.961   1.159  1.00  0.00     0.022 A 
BRANCH 100 104
ATOM    104  S   UNL     1     -12.953   5.277   0.200  1.00  0.00     0.124 S 
ATOM    105  O   UNL     1     -12.036   5.858   1.177  1.00  0.00    -0.237 OA
ATOM    106  O   UNL     1     -12.454   5.192  -1.169  1.00  0.00    -0.237 OA
ATOM    107  O   UNL     1     -14.349   5.687   0.334  1.00  0.00    -0.744 OA
ENDBRANCH 100 104
ENDBRANCH  74  97
ENDBRANCH  48  49
ENDBRANCH  41  43
ENDBRANCH  40  41
ENDBRANCH  39  40
ENDBRANCH  38  39
ENDBRANCH  37  38
ENDBRANCH  36  37
ENDBRANCH   1  36
TORSDOF 26
