REMARK SMILES C=C[C@@H]1[C@@H](O)C[C@@H]2[C@@]3(CC[C@@]4(C)[C@@H]([C@H](C)CCC=C(C)C)CC[C@@]24C)C[C@@]13CCC(=O)OCCOCCOCCOCCOC(=O)c1ccc(-c2c3nc(c(-c4cc(S(=O)(=O)[O-])ccc4F)c4ccc([nH]4)c(-c4cc(S(=O)(=O)[O-])ccc4F)c4nc(c(-c5cc(S(=O)(=O)[O-])ccc5F)c5ccc2[nH]5)C=C4)C=C3)cc1
REMARK SMILES IDX 36 1 35 2 34 3 33 4 32 5 30 6 31 7 29 8 28 9 27 10 3 11 4 12
REMARK SMILES IDX 6 13 8 14 26 15 7 16 9 17 24 18 10 19 11 20 23 21 25 22
REMARK SMILES IDX 12 23 13 24 22 25 2 26 1 27 5 28 14 30 15 31 16 32 17 33
REMARK SMILES IDX 18 34 19 35 20 36 21 37 37 38 38 39 39 40 40 41 41 42 42 43
REMARK SMILES IDX 43 44 44 45 45 46 46 47 47 48 48 49 109 50 49 51 108 52
REMARK SMILES IDX 50 53 51 54 52 55 102 56 53 57 107 58 101 59 103 60 54 61
REMARK SMILES IDX 106 62 100 63 99 64 55 66 87 67 67 68 86 69 68 70 71 71
REMARK SMILES IDX 85 72 104 73 69 74 70 75 84 77 105 78 72 79 56 80 57 81
REMARK SMILES IDX 65 82 58 83 64 84 66 85 63 86 59 87 60 88 61 89 62 90 88 91
REMARK SMILES IDX 89 92 97 93 90 94 96 95 98 96 95 97 91 98 92 99 93 100
REMARK SMILES IDX 94 101 73 102 74 103 82 104 75 105 81 106 83 107 80 108
REMARK SMILES IDX 76 109 77 110 78 111 79 112
REMARK H PARENT 5 29 103 65 71 76
REMARK Flexibility Score: inf
ROOT
ATOM      1  C   UNL     1       2.030  -2.329   2.376  1.00  0.00     0.188 C 
ENDROOT
BRANCH   1   2
ATOM      2  O   UNL     1       0.771  -2.864   2.766  1.00  0.00    -0.376 OA
BRANCH   2   3
ATOM      3  C   UNL     1      -0.149  -1.913   3.259  1.00  0.00     0.202 C 
BRANCH   3   4
ATOM      4  C   UNL     1      -1.246  -2.541   4.085  1.00  0.00     0.261 C 
BRANCH   4   5
ATOM      5  O   UNL     1      -0.746  -3.153   5.253  1.00  0.00    -0.463 OA
BRANCH   5   6
ATOM      6  C   UNL     1      -1.703  -3.879   5.882  1.00  0.00     0.305 C 
ATOM      7  O   UNL     1      -2.732  -4.332   5.381  1.00  0.00    -0.252 OA
BRANCH   6   8
ATOM      8  C   UNL     1      -1.380  -3.922   7.325  1.00  0.00     0.123 C 
BRANCH   8   9
ATOM      9  C   UNL     1      -1.620  -2.542   7.945  1.00  0.00     0.020 C 
BRANCH   9  10
ATOM     10  C   UNL     1      -2.908  -1.795   7.527  1.00  0.00    -0.014 C 
ATOM     11  C   UNL     1      -4.265  -2.436   7.996  1.00  0.00     0.047 C 
ATOM     12  C   UNL     1      -5.444  -2.187   7.010  1.00  0.00     0.122 C 
ATOM     13  C   UNL     1      -5.393  -0.858   6.263  1.00  0.00     0.037 C 
ATOM     14  C   UNL     1      -2.871  -0.701   6.360  1.00  0.00    -0.019 C 
ATOM     15  C   UNL     1      -2.917  -0.321   7.831  1.00  0.00     0.016 C 
ATOM     16  C   UNL     1      -4.114  -0.795   5.411  1.00  0.00     0.005 C 
ATOM     17  C   UNL     1      -1.599  -0.093   5.745  1.00  0.00     0.008 C 
ATOM     18  C   UNL     1      -4.159   0.314   4.301  1.00  0.00    -0.023 C 
ATOM     19  C   UNL     1      -1.683   0.479   4.313  1.00  0.00     0.008 C 
ATOM     20  C   UNL     1      -2.895   0.207   3.369  1.00  0.00    -0.024 C 
ATOM     21  C   UNL     1      -5.290   0.163   3.264  1.00  0.00     0.008 C 
ATOM     22  C   UNL     1      -4.335   1.655   5.056  1.00  0.00     0.012 C 
ATOM     23  C   UNL     1      -2.757   1.470   2.389  1.00  0.00     0.012 C 
ATOM     24  C   UNL     1      -3.260  -1.025   2.224  1.00  0.00    -0.002 C 
ATOM     25  C   UNL     1      -4.787  -0.643   2.051  1.00  0.00     0.005 C 
BRANCH  11  26
ATOM     26  C   UNL     1      -4.218  -3.869   8.515  1.00  0.00    -0.028 C 
ATOM     27  C   UNL     1      -4.803  -4.957   7.993  1.00  0.00     0.004 C 
ENDBRANCH  11  26
BRANCH  12  28
ATOM     28  O   UNL     1      -6.689  -2.229   7.726  1.00  0.00    -0.392 OA
ATOM     29  H   UNL     1      -6.715  -1.507   8.373  1.00  0.00     0.210 HD
ENDBRANCH  12  28
BRANCH  24  30
ATOM     30  C   UNL     1      -3.146  -2.700   1.774  1.00  0.00    -0.010 C 
ATOM     31  C   UNL     1      -4.234  -3.658   2.299  1.00  0.00     0.008 C 
BRANCH  30  32
ATOM     32  C   UNL     1      -1.820  -3.639   1.329  1.00  0.00     0.008 C 
BRANCH  32  33
ATOM     33  C   UNL     1      -1.374  -4.926   2.209  1.00  0.00     0.027 C 
BRANCH  33  34
ATOM     34  C   UNL     1      -0.183  -5.834   1.891  1.00  0.00    -0.028 C 
ATOM     35  C   UNL     1       0.833  -6.169   2.738  1.00  0.00    -0.080 C 
ATOM     36  C   UNL     1       1.812  -7.276   2.427  1.00  0.00     0.039 C 
ATOM     37  C   UNL     1       1.099  -5.580   4.111  1.00  0.00     0.039 C 
ENDBRANCH  33  34
ENDBRANCH  32  33
ENDBRANCH  30  32
ENDBRANCH  24  30
ENDBRANCH   9  10
ENDBRANCH   8   9
ENDBRANCH   6   8
ENDBRANCH   5   6
ENDBRANCH   4   5
ENDBRANCH   3   4
ENDBRANCH   2   3
ENDBRANCH   1   2
BRANCH   1  38
ATOM     38  C   UNL     1       2.700  -1.534   3.498  1.00  0.00     0.188 C 
BRANCH  38  39
ATOM     39  O   UNL     1       2.186  -0.218   3.727  1.00  0.00    -0.377 OA
BRANCH  39  40
ATOM     40  C   UNL     1       1.967   0.638   2.606  1.00  0.00     0.188 C 
BRANCH  40  41
ATOM     41  C   UNL     1       3.253   1.131   1.954  1.00  0.00     0.188 C 
BRANCH  41  42
ATOM     42  O   UNL     1       4.021   2.014   2.771  1.00  0.00    -0.376 OA
BRANCH  42  43
ATOM     43  C   UNL     1       4.504   1.458   3.988  1.00  0.00     0.202 C 
BRANCH  43  44
ATOM     44  C   UNL     1       3.816   1.991   5.259  1.00  0.00     0.261 C 
BRANCH  44  45
ATOM     45  O   UNL     1       2.441   2.390   5.117  1.00  0.00    -0.460 OA
BRANCH  45  46
ATOM     46  C   UNL     1       2.270   3.620   4.592  1.00  0.00     0.338 C 
ATOM     47  O   UNL     1       3.164   4.386   4.210  1.00  0.00    -0.246 OA
BRANCH  46  48
ATOM     48  C   UNL     1       0.849   4.002   4.532  1.00  0.00     0.060 A 
ATOM     49  C   UNL     1       0.305   4.410   3.307  1.00  0.00     0.016 A 
ATOM     50  C   UNL     1       0.126   4.184   5.715  1.00  0.00     0.016 A 
ATOM     51  C   UNL     1      -0.922   5.084   3.270  1.00  0.00     0.010 A 
ATOM     52  C   UNL     1      -1.098   4.867   5.675  1.00  0.00     0.010 A 
ATOM     53  C   UNL     1      -1.601   5.377   4.460  1.00  0.00    -0.014 A 
BRANCH  53  54
ATOM     54  C   UNL     1      -2.670   6.418   4.491  1.00  0.00     0.031 A 
ATOM     55  C   UNL     1      -2.281   7.834   4.817  1.00  0.00     0.074 A 
ATOM     56  C   UNL     1      -3.966   6.146   4.258  1.00  0.00     0.049 A 
ATOM     57  N   UNL     1      -3.044   8.889   4.939  1.00  0.00    -0.248 NA
ATOM     58  C   UNL     1      -0.845   8.101   4.986  1.00  0.00     0.031 C 
ATOM     59  C   UNL     1      -4.479   4.874   3.787  1.00  0.00     0.029 A 
ATOM     60  N   UNL     1      -5.097   6.908   4.427  1.00  0.00    -0.354 N 
ATOM     61  C   UNL     1      -2.179   9.957   5.137  1.00  0.00     0.074 A 
ATOM     62  C   UNL     1      -0.840   9.409   5.199  1.00  0.00     0.031 C 
ATOM     63  C   UNL     1      -5.820   4.871   3.863  1.00  0.00     0.029 A 
ATOM     64  C   UNL     1      -6.263   6.181   4.325  1.00  0.00     0.049 A 
ATOM     65  H   UNL     1      -5.076   7.877   4.603  1.00  0.00     0.167 HD
ATOM     66  C   UNL     1      -2.473  11.277   5.217  1.00  0.00     0.034 A 
ATOM     67  C   UNL     1      -7.541   6.526   4.577  1.00  0.00     0.034 A 
ATOM     68  C   UNL     1      -3.813  11.810   5.200  1.00  0.00     0.049 A 
ATOM     69  C   UNL     1      -7.854   7.967   4.881  1.00  0.00     0.074 A 
ATOM     70  C   UNL     1      -4.214  13.134   5.246  1.00  0.00     0.029 A 
ATOM     71  N   UNL     1      -4.973  11.047   5.170  1.00  0.00    -0.354 N 
ATOM     72  N   UNL     1      -7.028   8.980   4.991  1.00  0.00    -0.248 NA
ATOM     73  C   UNL     1      -9.270   8.324   5.029  1.00  0.00     0.031 C 
ATOM     74  C   UNL     1      -5.612  13.167   5.324  1.00  0.00     0.029 A 
ATOM     75  C   UNL     1      -6.088  11.868   5.251  1.00  0.00     0.049 A 
ATOM     76  H   UNL     1      -5.000  10.065   5.100  1.00  0.00     0.167 HD
ATOM     77  C   UNL     1      -7.829  10.106   5.150  1.00  0.00     0.074 A 
ATOM     78  C   UNL     1      -9.202   9.643   5.143  1.00  0.00     0.031 C 
ATOM     79  C   UNL     1      -7.458  11.407   5.256  1.00  0.00     0.034 A 
BRANCH  66  80
ATOM     80  C   UNL     1      -1.311  12.223   5.364  1.00  0.00     0.023 A 
ATOM     81  C   UNL     1      -0.365  12.387   4.335  1.00  0.00     0.031 A 
ATOM     82  C   UNL     1      -1.126  12.943   6.555  1.00  0.00     0.131 A 
ATOM     83  C   UNL     1       0.757  13.203   4.542  1.00  0.00     0.055 A 
ATOM     84  C   UNL     1      -0.043  13.805   6.730  1.00  0.00     0.041 A 
ATOM     85  F   UNL     1      -1.986  12.804   7.577  1.00  0.00    -0.206 F 
ATOM     86  C   UNL     1       0.913  13.929   5.725  1.00  0.00     0.022 A 
BRANCH  83  87
ATOM     87  S   UNL     1       2.074  13.204   3.295  1.00  0.00     0.124 S 
ATOM     88  O   UNL     1       2.452  11.793   3.262  1.00  0.00    -0.237 OA
ATOM     89  O   UNL     1       1.387  13.709   2.111  1.00  0.00    -0.237 OA
ATOM     90  O   UNL     1       3.081  14.099   3.861  1.00  0.00    -0.744 OA
ENDBRANCH  83  87
ENDBRANCH  66  80
BRANCH  67  91
ATOM     91  C   UNL     1      -8.619   5.499   4.564  1.00  0.00     0.023 A 
ATOM     92  C   UNL     1      -9.632   5.508   3.594  1.00  0.00     0.031 A 
ATOM     93  C   UNL     1      -8.682   4.525   5.578  1.00  0.00     0.131 A 
ATOM     94  C   UNL     1     -10.694   4.593   3.686  1.00  0.00     0.055 A 
ATOM     95  C   UNL     1      -9.721   3.594   5.644  1.00  0.00     0.041 A 
ATOM     96  F   UNL     1      -7.734   4.472   6.528  1.00  0.00    -0.206 F 
ATOM     97  C   UNL     1     -10.743   3.635   4.701  1.00  0.00     0.022 A 
BRANCH  94  98
ATOM     98  S   UNL     1     -12.060   4.730   2.500  1.00  0.00     0.124 S 
ATOM     99  O   UNL     1     -12.482   6.113   2.687  1.00  0.00    -0.237 OA
ATOM    100  O   UNL     1     -11.392   4.427   1.238  1.00  0.00    -0.237 OA
ATOM    101  O   UNL     1     -13.011   3.719   2.958  1.00  0.00    -0.744 OA
ENDBRANCH  94  98
ENDBRANCH  67  91
BRANCH  79 102
ATOM    102  C   UNL     1      -8.562  12.433   5.312  1.00  0.00     0.023 A 
ATOM    103  C   UNL     1      -9.440  12.520   6.406  1.00  0.00     0.031 A 
ATOM    104  C   UNL     1      -8.749  13.325   4.241  1.00  0.00     0.131 A 
ATOM    105  C   UNL     1     -10.498  13.442   6.380  1.00  0.00     0.055 A 
ATOM    106  C   UNL     1      -9.767  14.280   4.247  1.00  0.00     0.041 A 
ATOM    107  F   UNL     1      -7.943  13.283   3.167  1.00  0.00    -0.206 F 
ATOM    108  C   UNL     1     -10.656  14.333   5.316  1.00  0.00     0.022 A 
BRANCH 105 109
ATOM    109  S   UNL     1     -11.720  13.402   7.720  1.00  0.00     0.124 S 
ATOM    110  O   UNL     1     -12.245  12.045   7.611  1.00  0.00    -0.237 OA
ATOM    111  O   UNL     1     -10.902  13.677   8.897  1.00  0.00    -0.237 OA
ATOM    112  O   UNL     1     -12.659  14.463   7.359  1.00  0.00    -0.744 OA
ENDBRANCH 105 109
ENDBRANCH  79 102
ENDBRANCH  53  54
ENDBRANCH  46  48
ENDBRANCH  45  46
ENDBRANCH  44  45
ENDBRANCH  43  44
ENDBRANCH  42  43
ENDBRANCH  41  42
ENDBRANCH  40  41
ENDBRANCH  39  40
ENDBRANCH  38  39
ENDBRANCH   1  38
TORSDOF 31
