REMARK SMILES O=C(OCCOCCOCCOCCOC(=O)c1ccc(-c2c(F)cccc2F)cn1)c1ccc(-c2c3nc(c(-c4cc(S(=O)(=O)[O-])ccc4F)c4ccc([nH]4)c(-c4cc(S(=O)(=O)[O-])ccc4F)c4nc(c(-c5cc(S(=O)(=O)[O-])ccc5F)c5ccc2[nH]5)C=C4)C=C3)cc1
REMARK SMILES IDX 8 1 7 2 6 3 5 4 4 5 3 6 2 7 1 8 32 9 33 10 94 11 34 12 93 13
REMARK SMILES IDX 35 14 36 15 37 16 87 17 38 18 92 19 86 20 88 21 39 22 91 23
REMARK SMILES IDX 85 24 84 25 40 27 72 28 52 29 71 30 53 31 56 32 70 33 89 34
REMARK SMILES IDX 54 35 55 36 69 38 90 39 57 40 41 41 42 42 50 43 43 44 49 45
REMARK SMILES IDX 51 46 48 47 44 48 45 49 46 50 47 51 73 52 74 53 82 54 75 55
REMARK SMILES IDX 81 56 83 57 80 58 76 59 77 60 78 61 79 62 58 63 59 64 67 65
REMARK SMILES IDX 60 66 66 67 68 68 65 69 61 70 62 71 63 72 64 73 9 74 10 75
REMARK SMILES IDX 11 76 12 77 13 78 14 79 15 80 16 81 17 82 18 83 19 84 31 85
REMARK SMILES IDX 20 86 30 87 21 88 22 89 23 90 28 91 24 92 25 93 27 94 29 95
REMARK SMILES IDX 26 96
REMARK H PARENT 88 26 56 37
REMARK Flexibility Score: inf
ROOT
ATOM      1  C   UNL     1       1.819  -1.075  -2.572  1.00  0.00     0.188 C 
ENDROOT
BRANCH   1   2
ATOM      2  C   UNL     1       2.232  -1.206  -1.105  1.00  0.00     0.188 C 
BRANCH   2   3
ATOM      3  O   UNL     1       3.561  -0.717  -0.914  1.00  0.00    -0.376 OA
BRANCH   3   4
ATOM      4  C   UNL     1       4.343  -1.434   0.042  1.00  0.00     0.202 C 
BRANCH   4   5
ATOM      5  C   UNL     1       4.138  -0.981   1.490  1.00  0.00     0.261 C 
BRANCH   5   6
ATOM      6  O   UNL     1       2.765  -0.660   1.758  1.00  0.00    -0.460 OA
BRANCH   6   7
ATOM      7  C   UNL     1       2.180   0.564   1.702  1.00  0.00     0.338 C 
ATOM      8  O   UNL     1       0.988   0.651   1.998  1.00  0.00    -0.246 OA
BRANCH   7   9
ATOM      9  C   UNL     1       2.899   1.822   1.319  1.00  0.00     0.060 A 
ATOM     10  C   UNL     1       4.019   1.897   0.489  1.00  0.00     0.016 A 
ATOM     11  C   UNL     1       2.358   3.029   1.796  1.00  0.00     0.016 A 
ATOM     12  C   UNL     1       4.648   3.104   0.217  1.00  0.00     0.010 A 
ATOM     13  C   UNL     1       2.962   4.256   1.498  1.00  0.00     0.010 A 
ATOM     14  C   UNL     1       4.135   4.287   0.737  1.00  0.00    -0.014 A 
BRANCH  14  15
ATOM     15  C   UNL     1       4.965   5.501   0.626  1.00  0.00     0.031 A 
ATOM     16  C   UNL     1       5.739   5.923   1.839  1.00  0.00     0.074 A 
ATOM     17  C   UNL     1       5.132   6.100  -0.565  1.00  0.00     0.049 A 
ATOM     18  N   UNL     1       6.496   6.970   2.022  1.00  0.00    -0.248 NA
ATOM     19  C   UNL     1       5.655   5.027   3.004  1.00  0.00     0.031 C 
ATOM     20  C   UNL     1       4.533   5.649  -1.824  1.00  0.00     0.029 A 
ATOM     21  N   UNL     1       5.879   7.190  -0.922  1.00  0.00    -0.354 N 
ATOM     22  C   UNL     1       6.955   6.874   3.331  1.00  0.00     0.074 A 
ATOM     23  C   UNL     1       6.379   5.676   3.900  1.00  0.00     0.031 C 
ATOM     24  C   UNL     1       4.952   6.450  -2.818  1.00  0.00     0.029 A 
ATOM     25  C   UNL     1       5.784   7.509  -2.257  1.00  0.00     0.049 A 
ATOM     26  H   UNL     1       6.431   7.697  -0.284  1.00  0.00     0.167 HD
ATOM     27  C   UNL     1       7.780   7.721   3.993  1.00  0.00     0.034 A 
ATOM     28  C   UNL     1       6.282   8.566  -2.928  1.00  0.00     0.034 A 
ATOM     29  C   UNL     1       8.312   8.914   3.385  1.00  0.00     0.049 A 
ATOM     30  C   UNL     1       7.091   9.568  -2.139  1.00  0.00     0.074 A 
ATOM     31  C   UNL     1       9.077   9.914   3.953  1.00  0.00     0.029 A 
ATOM     32  N   UNL     1       8.120   9.267   2.051  1.00  0.00    -0.354 N 
ATOM     33  N   UNL     1       7.442   9.532  -0.871  1.00  0.00    -0.248 NA
ATOM     34  C   UNL     1       7.560  10.755  -2.861  1.00  0.00     0.031 C 
ATOM     35  C   UNL     1       9.293  10.899   2.981  1.00  0.00     0.029 A 
ATOM     36  C   UNL     1       8.728  10.480   1.784  1.00  0.00     0.049 A 
ATOM     37  H   UNL     1       7.622   8.729   1.393  1.00  0.00     0.167 HD
ATOM     38  C   UNL     1       8.183  10.687  -0.647  1.00  0.00     0.074 A 
ATOM     39  C   UNL     1       8.249  11.383  -1.919  1.00  0.00     0.031 C 
ATOM     40  C   UNL     1       8.755  11.142   0.499  1.00  0.00     0.034 A 
BRANCH  27  41
ATOM     41  C   UNL     1       8.030   7.421   5.451  1.00  0.00     0.023 A 
ATOM     42  C   UNL     1       8.684   6.247   5.870  1.00  0.00     0.031 A 
ATOM     43  C   UNL     1       7.489   8.260   6.442  1.00  0.00     0.131 A 
ATOM     44  C   UNL     1       8.690   5.897   7.231  1.00  0.00     0.055 A 
ATOM     45  C   UNL     1       7.577   7.949   7.800  1.00  0.00     0.041 A 
ATOM     46  F   UNL     1       6.826   9.377   6.104  1.00  0.00    -0.206 F 
ATOM     47  C   UNL     1       8.161   6.751   8.201  1.00  0.00     0.022 A 
BRANCH  44  48
ATOM     48  S   UNL     1       9.229   4.226   7.696  1.00  0.00     0.124 S 
ATOM     49  O   UNL     1       8.289   3.393   6.949  1.00  0.00    -0.237 OA
ATOM     50  O   UNL     1      10.612   4.199   7.235  1.00  0.00    -0.237 OA
ATOM     51  O   UNL     1       9.055   4.200   9.147  1.00  0.00    -0.744 OA
ENDBRANCH  44  48
ENDBRANCH  27  41
BRANCH  28  52
ATOM     52  C   UNL     1       5.968   8.775  -4.373  1.00  0.00     0.023 A 
ATOM     53  C   UNL     1       6.979   8.847  -5.345  1.00  0.00     0.031 A 
ATOM     54  C   UNL     1       4.637   8.951  -4.801  1.00  0.00     0.131 A 
ATOM     55  C   UNL     1       6.647   9.120  -6.684  1.00  0.00     0.055 A 
ATOM     56  C   UNL     1       4.309   9.166  -6.140  1.00  0.00     0.041 A 
ATOM     57  F   UNL     1       3.627   8.906  -3.917  1.00  0.00    -0.206 F 
ATOM     58  C   UNL     1       5.319   9.264  -7.090  1.00  0.00     0.022 A 
BRANCH  55  59
ATOM     59  S   UNL     1       7.986   9.374  -7.883  1.00  0.00     0.124 S 
ATOM     60  O   UNL     1       8.729  10.471  -7.273  1.00  0.00    -0.237 OA
ATOM     61  O   UNL     1       8.646   8.072  -7.881  1.00  0.00    -0.237 OA
ATOM     62  O   UNL     1       7.280   9.710  -9.117  1.00  0.00    -0.744 OA
ENDBRANCH  55  59
ENDBRANCH  28  52
BRANCH  40  63
ATOM     63  C   UNL     1       9.523  12.434   0.398  1.00  0.00     0.023 A 
ATOM     64  C   UNL     1       8.873  13.657   0.165  1.00  0.00     0.031 A 
ATOM     65  C   UNL     1      10.921  12.435   0.535  1.00  0.00     0.131 A 
ATOM     66  C   UNL     1       9.629  14.828   0.021  1.00  0.00     0.055 A 
ATOM     67  C   UNL     1      11.663  13.613   0.453  1.00  0.00     0.041 A 
ATOM     68  F   UNL     1      11.588  11.291   0.759  1.00  0.00    -0.206 F 
ATOM     69  C   UNL     1      11.018  14.817   0.182  1.00  0.00     0.022 A 
BRANCH  66  70
ATOM     70  S   UNL     1       8.781  16.355  -0.465  1.00  0.00     0.124 S 
ATOM     71  O   UNL     1       8.190  15.978  -1.745  1.00  0.00    -0.237 OA
ATOM     72  O   UNL     1       7.845  16.557   0.636  1.00  0.00    -0.237 OA
ATOM     73  O   UNL     1       9.862  17.336  -0.546  1.00  0.00    -0.744 OA
ENDBRANCH  66  70
ENDBRANCH  40  63
ENDBRANCH  14  15
ENDBRANCH   7   9
ENDBRANCH   6   7
ENDBRANCH   5   6
ENDBRANCH   4   5
ENDBRANCH   3   4
ENDBRANCH   2   3
ENDBRANCH   1   2
BRANCH   1  74
ATOM     74  O   UNL     1       2.515  -1.935  -3.475  1.00  0.00    -0.377 OA
BRANCH  74  75
ATOM     75  C   UNL     1       3.939  -1.905  -3.408  1.00  0.00     0.188 C 
BRANCH  75  76
ATOM     76  C   UNL     1       4.675  -0.575  -3.683  1.00  0.00     0.188 C 
BRANCH  76  77
ATOM     77  O   UNL     1       3.829   0.548  -3.903  1.00  0.00    -0.376 OA
BRANCH  77  78
ATOM     78  C   UNL     1       3.800   1.029  -5.245  1.00  0.00     0.202 C 
BRANCH  78  79
ATOM     79  C   UNL     1       2.901   0.198  -6.170  1.00  0.00     0.261 C 
BRANCH  79  80
ATOM     80  O   UNL     1       3.322  -1.169  -6.325  1.00  0.00    -0.459 OA
BRANCH  80  81
ATOM     81  C   UNL     1       4.509  -1.381  -6.946  1.00  0.00     0.356 C 
ATOM     82  O   UNL     1       5.180  -0.550  -7.533  1.00  0.00    -0.244 OA
BRANCH  81  83
ATOM     83  C   UNL     1       4.922  -2.779  -6.636  1.00  0.00     0.148 A 
ATOM     84  C   UNL     1       4.045  -3.835  -6.850  1.00  0.00     0.037 A 
ATOM     85  N   UNL     1       6.130  -2.921  -6.027  1.00  0.00    -0.249 NA
ATOM     86  C   UNL     1       4.441  -5.112  -6.449  1.00  0.00     0.013 A 
ATOM     87  C   UNL     1       6.472  -4.170  -5.633  1.00  0.00     0.121 A 
ATOM     88  C   UNL     1       5.684  -5.304  -5.832  1.00  0.00     0.006 A 
BRANCH  88  89
ATOM     89  C   UNL     1       6.181  -6.641  -5.516  1.00  0.00     0.055 A 
ATOM     90  C   UNL     1       6.788  -7.410  -6.517  1.00  0.00     0.134 A 
ATOM     91  C   UNL     1       6.096  -7.206  -4.240  1.00  0.00     0.134 A 
ATOM     92  F   UNL     1       6.902  -6.917  -7.760  1.00  0.00    -0.206 F 
ATOM     93  C   UNL     1       7.290  -8.686  -6.268  1.00  0.00     0.040 A 
ATOM     94  C   UNL     1       6.590  -8.487  -3.973  1.00  0.00     0.040 A 
ATOM     95  F   UNL     1       5.529  -6.523  -3.234  1.00  0.00    -0.206 F 
ATOM     96  C   UNL     1       7.190  -9.229  -4.990  1.00  0.00     0.006 A 
ENDBRANCH  88  89
ENDBRANCH  81  83
ENDBRANCH  80  81
ENDBRANCH  79  80
ENDBRANCH  78  79
ENDBRANCH  77  78
ENDBRANCH  76  77
ENDBRANCH  75  76
ENDBRANCH  74  75
ENDBRANCH   1  74
TORSDOF 24
