REMARK SMILES O=C(Cc1ccccc1)Nc1cccc(C(=O)Nc2ccccc2C(=O)OCCOCCOCCOCCOC(=O)c2ccc(-c3c4nc(c(-c5cc(S(=O)(=O)[O-])ccc5F)c5ccc([nH]5)c(-c5cc(S(=O)(=O)[O-])ccc5F)c5nc(c(-c6cc(S(=O)(=O)[O-])ccc6F)c6ccc3[nH]6)C=C5)C=C4)cc2)c1
REMARK SMILES IDX 32 1 31 2 30 3 29 4 28 5 27 6 25 7 26 8 24 9 19 10 20 11
REMARK SMILES IDX 21 12 23 13 22 14 18 15 16 16 17 17 15 19 11 20 12 21 105 22
REMARK SMILES IDX 13 23 14 24 10 25 1 26 2 27 3 29 4 30 5 31 9 32 6 33 8 34
REMARK SMILES IDX 7 35 33 36 34 37 35 38 36 39 37 40 38 41 39 42 40 43 41 44
REMARK SMILES IDX 42 45 43 46 104 47 44 48 103 49 45 50 46 51 47 52 97 53
REMARK SMILES IDX 48 54 102 55 96 56 98 57 49 58 101 59 95 60 94 61 50 63
REMARK SMILES IDX 82 64 62 65 81 66 63 67 66 68 80 69 99 70 64 71 65 72 79 74
REMARK SMILES IDX 100 75 67 76 51 77 52 78 60 79 53 80 59 81 61 82 58 83 54 84
REMARK SMILES IDX 55 85 56 86 57 87 83 88 84 89 92 90 85 91 91 92 93 93 90 94
REMARK SMILES IDX 86 95 87 96 88 97 89 98 68 99 69 100 77 101 70 102 76 103
REMARK SMILES IDX 78 104 75 105 71 106 72 107 73 108 74 109
REMARK H PARENT 18 18 10 28 98 62 66 73
REMARK Flexibility Score: inf
ROOT
ATOM      1  C   UNL     1       2.611  -0.341  -5.895  1.00  0.00     0.188 C 
ENDROOT
BRANCH   1   2
ATOM      2  C   UNL     1       3.935  -0.820  -5.261  1.00  0.00     0.188 C 
BRANCH   2   3
ATOM      3  O   UNL     1       4.393  -2.157  -5.359  1.00  0.00    -0.376 OA
BRANCH   3   4
ATOM      4  C   UNL     1       3.615  -3.288  -5.013  1.00  0.00     0.202 C 
BRANCH   4   5
ATOM      5  C   UNL     1       2.558  -3.317  -3.912  1.00  0.00     0.261 C 
BRANCH   5   6
ATOM      6  O   UNL     1       1.735  -2.165  -3.750  1.00  0.00    -0.460 OA
BRANCH   6   7
ATOM      7  C   UNL     1       2.152  -1.310  -2.799  1.00  0.00     0.340 C 
ATOM      8  O   UNL     1       3.200  -1.406  -2.167  1.00  0.00    -0.246 OA
BRANCH   7   9
ATOM      9  C   UNL     1       1.278  -0.113  -2.689  1.00  0.00     0.083 A 
ATOM     10  C   UNL     1      -0.115  -0.031  -2.885  1.00  0.00     0.056 A 
ATOM     11  C   UNL     1      -0.705   1.248  -2.810  1.00  0.00     0.027 A 
ATOM     12  C   UNL     1       0.032   2.393  -2.486  1.00  0.00     0.002 A 
ATOM     13  C   UNL     1       2.015   1.063  -2.399  1.00  0.00     0.018 A 
ATOM     14  C   UNL     1       1.398   2.302  -2.282  1.00  0.00     0.001 A 
BRANCH  10  15
ATOM     15  N   UNL     1      -1.056  -1.066  -3.126  1.00  0.00    -0.321 N 
ATOM     16  C   UNL     1      -1.171  -2.385  -2.736  1.00  0.00     0.255 C 
ATOM     17  O   UNL     1      -2.029  -3.095  -3.259  1.00  0.00    -0.269 OA
ATOM     18  H   UNL     1      -1.797  -0.776  -3.706  1.00  0.00     0.170 HD
BRANCH  16  19
ATOM     19  C   UNL     1      -0.335  -2.960  -1.661  1.00  0.00     0.042 A 
ATOM     20  C   UNL     1       1.345  -2.500  -0.047  1.00  0.00     0.041 A 
ATOM     21  C   UNL     1       1.880  -3.781  -0.247  1.00  0.00     0.026 A 
ATOM     22  C   UNL     1       0.138  -2.151  -0.631  1.00  0.00     0.040 A 
ATOM     23  C   UNL     1       1.230  -4.697  -1.073  1.00  0.00     0.003 A 
ATOM     24  C   UNL     1       0.136  -4.270  -1.818  1.00  0.00     0.014 A 
BRANCH  20  25
ATOM     25  N   UNL     1       2.214  -1.514   0.446  1.00  0.00    -0.326 N 
ATOM     26  O   UNL     1       0.806   0.256   0.997  1.00  0.00    -0.274 OA
ATOM     27  C   UNL     1       1.927  -0.220   0.840  1.00  0.00     0.228 C 
ATOM     28  H   UNL     1       3.158  -1.781   0.523  1.00  0.00     0.169 HD
BRANCH  27  29
ATOM     29  C   UNL     1       3.182   0.619   1.042  1.00  0.00     0.135 C 
BRANCH  29  30
ATOM     30  C   UNL     1       4.009   0.271   2.264  1.00  0.00    -0.039 A 
ATOM     31  C   UNL     1       4.178  -1.044   2.725  1.00  0.00     0.004 A 
ATOM     32  C   UNL     1       4.702   1.293   2.928  1.00  0.00     0.004 A 
ATOM     33  C   UNL     1       4.986  -1.332   3.821  1.00  0.00     0.000 A 
ATOM     34  C   UNL     1       5.504   1.007   4.035  1.00  0.00     0.000 A 
ATOM     35  C   UNL     1       5.645  -0.305   4.481  1.00  0.00     0.000 A 
ENDBRANCH  29  30
ENDBRANCH  27  29
ENDBRANCH  20  25
ENDBRANCH  16  19
ENDBRANCH  10  15
ENDBRANCH   7   9
ENDBRANCH   6   7
ENDBRANCH   5   6
ENDBRANCH   4   5
ENDBRANCH   3   4
ENDBRANCH   2   3
ENDBRANCH   1   2
BRANCH   1  36
ATOM     36  O   UNL     1       1.671  -1.337  -6.225  1.00  0.00    -0.377 OA
BRANCH  36  37
ATOM     37  C   UNL     1       1.828  -2.074  -7.430  1.00  0.00     0.188 C 
BRANCH  37  38
ATOM     38  C   UNL     1       3.181  -2.099  -8.177  1.00  0.00     0.188 C 
BRANCH  38  39
ATOM     39  O   UNL     1       3.939  -0.906  -8.081  1.00  0.00    -0.376 OA
BRANCH  39  40
ATOM     40  C   UNL     1       3.919   0.015  -9.155  1.00  0.00     0.202 C 
BRANCH  40  41
ATOM     41  C   UNL     1       2.574   0.647  -9.541  1.00  0.00     0.261 C 
BRANCH  41  42
ATOM     42  O   UNL     1       1.500  -0.257  -9.826  1.00  0.00    -0.460 OA
BRANCH  42  43
ATOM     43  C   UNL     1       1.671  -1.123 -10.848  1.00  0.00     0.338 C 
ATOM     44  O   UNL     1       2.643  -1.206 -11.580  1.00  0.00    -0.246 OA
BRANCH  43  45
ATOM     45  C   UNL     1       0.554  -2.088 -10.799  1.00  0.00     0.060 A 
ATOM     46  C   UNL     1       0.829  -3.452 -10.625  1.00  0.00     0.016 A 
ATOM     47  C   UNL     1      -0.762  -1.637 -10.912  1.00  0.00     0.016 A 
ATOM     48  C   UNL     1      -0.214  -4.376 -10.608  1.00  0.00     0.010 A 
ATOM     49  C   UNL     1      -1.804  -2.566 -10.925  1.00  0.00     0.010 A 
ATOM     50  C   UNL     1      -1.529  -3.941 -10.817  1.00  0.00    -0.014 A 
BRANCH  50  51
ATOM     51  C   UNL     1      -2.575  -4.920 -11.198  1.00  0.00     0.031 A 
ATOM     52  C   UNL     1      -2.838  -5.111 -12.668  1.00  0.00     0.074 A 
ATOM     53  C   UNL     1      -3.265  -5.619 -10.280  1.00  0.00     0.049 A 
ATOM     54  N   UNL     1      -3.768  -5.807 -13.265  1.00  0.00    -0.248 NA
ATOM     55  C   UNL     1      -1.927  -4.409 -13.588  1.00  0.00     0.031 C 
ATOM     56  C   UNL     1      -3.049  -5.564  -8.835  1.00  0.00     0.029 A 
ATOM     57  N   UNL     1      -4.302  -6.505 -10.433  1.00  0.00    -0.354 N 
ATOM     58  C   UNL     1      -3.565  -5.614 -14.627  1.00  0.00     0.074 A 
ATOM     59  C   UNL     1      -2.442  -4.715 -14.768  1.00  0.00     0.031 C 
ATOM     60  C   UNL     1      -3.943  -6.368  -8.232  1.00  0.00     0.029 A 
ATOM     61  C   UNL     1      -4.825  -6.954  -9.241  1.00  0.00     0.049 A 
ATOM     62  H   UNL     1      -4.640  -6.792 -11.311  1.00  0.00     0.167 HD
ATOM     63  C   UNL     1      -4.254  -6.143 -15.666  1.00  0.00     0.034 A 
ATOM     64  C   UNL     1      -5.913  -7.715  -9.001  1.00  0.00     0.034 A 
ATOM     65  C   UNL     1      -5.378  -7.029 -15.504  1.00  0.00     0.049 A 
ATOM     66  C   UNL     1      -6.729  -8.213 -10.176  1.00  0.00     0.074 A 
ATOM     67  C   UNL     1      -6.147  -7.630 -16.484  1.00  0.00     0.029 A 
ATOM     68  N   UNL     1      -5.902  -7.432 -14.283  1.00  0.00    -0.354 N 
ATOM     69  N   UNL     1      -6.532  -8.023 -11.462  1.00  0.00    -0.248 NA
ATOM     70  C   UNL     1      -7.910  -9.031  -9.868  1.00  0.00     0.031 C 
ATOM     71  C   UNL     1      -7.184  -8.328 -15.858  1.00  0.00     0.029 A 
ATOM     72  C   UNL     1      -7.005  -8.245 -14.486  1.00  0.00     0.049 A 
ATOM     73  H   UNL     1      -5.542  -7.177 -13.402  1.00  0.00     0.167 HD
ATOM     74  C   UNL     1      -7.538  -8.738 -12.111  1.00  0.00     0.074 A 
ATOM     75  C   UNL     1      -8.333  -9.365 -11.078  1.00  0.00     0.031 C 
ATOM     76  C   UNL     1      -7.781  -8.871 -13.441  1.00  0.00     0.034 A 
BRANCH  63  77
ATOM     77  C   UNL     1      -3.851  -5.724 -17.058  1.00  0.00     0.023 A 
ATOM     78  C   UNL     1      -2.594  -6.047 -17.599  1.00  0.00     0.031 A 
ATOM     79  C   UNL     1      -4.739  -4.977 -17.853  1.00  0.00     0.131 A 
ATOM     80  C   UNL     1      -2.240  -5.577 -18.872  1.00  0.00     0.055 A 
ATOM     81  C   UNL     1      -4.411  -4.581 -19.150  1.00  0.00     0.041 A 
ATOM     82  F   UNL     1      -5.940  -4.613 -17.377  1.00  0.00    -0.206 F 
ATOM     83  C   UNL     1      -3.150  -4.871 -19.663  1.00  0.00     0.022 A 
BRANCH  80  84
ATOM     84  S   UNL     1      -0.529  -5.791 -19.433  1.00  0.00     0.124 S 
ATOM     85  O   UNL     1       0.212  -5.070 -18.401  1.00  0.00    -0.237 OA
ATOM     86  O   UNL     1      -0.375  -7.241 -19.434  1.00  0.00    -0.237 OA
ATOM     87  O   UNL     1      -0.518  -5.162 -20.752  1.00  0.00    -0.744 OA
ENDBRANCH  80  84
ENDBRANCH  63  77
BRANCH  64  88
ATOM     88  C   UNL     1      -6.344  -8.017  -7.603  1.00  0.00     0.023 A 
ATOM     89  C   UNL     1      -6.441  -9.340  -7.142  1.00  0.00     0.031 A 
ATOM     90  C   UNL     1      -6.755  -6.990  -6.734  1.00  0.00     0.131 A 
ATOM     91  C   UNL     1      -6.995  -9.605  -5.880  1.00  0.00     0.055 A 
ATOM     92  C   UNL     1      -7.240  -7.254  -5.452  1.00  0.00     0.041 A 
ATOM     93  F   UNL     1      -6.699  -5.706  -7.125  1.00  0.00    -0.206 F 
ATOM     94  C   UNL     1      -7.380  -8.571  -5.025  1.00  0.00     0.022 A 
BRANCH  91  95
ATOM     95  S   UNL     1      -7.327 -11.330  -5.424  1.00  0.00     0.124 S 
ATOM     96  O   UNL     1      -8.186 -11.765  -6.519  1.00  0.00    -0.237 OA
ATOM     97  O   UNL     1      -5.985 -11.900  -5.396  1.00  0.00    -0.237 OA
ATOM     98  O   UNL     1      -7.983 -11.218  -4.123  1.00  0.00    -0.744 OA
ENDBRANCH  91  95
ENDBRANCH  64  88
BRANCH  76  99
ATOM     99  C   UNL     1      -8.905  -9.791 -13.857  1.00  0.00     0.023 A 
ATOM    100  C   UNL     1     -10.251  -9.507 -13.570  1.00  0.00     0.031 A 
ATOM    101  C   UNL     1      -8.615 -10.970 -14.569  1.00  0.00     0.131 A 
ATOM    102  C   UNL     1     -11.252 -10.416 -13.947  1.00  0.00     0.055 A 
ATOM    103  C   UNL     1      -9.620 -11.835 -15.001  1.00  0.00     0.041 A 
ATOM    104  F   UNL     1      -7.347 -11.293 -14.869  1.00  0.00    -0.206 F 
ATOM    105  C   UNL     1     -10.947 -11.567 -14.679  1.00  0.00     0.022 A 
BRANCH 102 106
ATOM    106  S   UNL     1     -12.953 -10.121 -13.392  1.00  0.00     0.124 S 
ATOM    107  O   UNL     1     -12.797 -10.087 -11.942  1.00  0.00    -0.237 OA
ATOM    108  O   UNL     1     -13.274  -8.848 -14.029  1.00  0.00    -0.237 OA
ATOM    109  O   UNL     1     -13.687 -11.274 -13.910  1.00  0.00    -0.744 OA
ENDBRANCH 102 106
ENDBRANCH  76  99
ENDBRANCH  50  51
ENDBRANCH  43  45
ENDBRANCH  42  43
ENDBRANCH  41  42
ENDBRANCH  40  41
ENDBRANCH  39  40
ENDBRANCH  38  39
ENDBRANCH  37  38
ENDBRANCH  36  37
ENDBRANCH   1  36
TORSDOF 28
