REMARK SMILES O=C(OCCOCCOCCOCCOC(=O)[C@@H]1[C@H](C(=O)Nc2ccc(Cn3cncn3)cc2)[C@@H]2C=C[C@H]1CC2)c1ccc(-c2c3nc(c(-c4cc(S(=O)(=O)[O-])ccc4F)c4ccc([nH]4)c(-c4cc(S(=O)(=O)[O-])ccc4F)c4nc(c(-c5cc(S(=O)(=O)[O-])ccc5F)c5ccc2[nH]5)C=C4)C=C3)cc1
REMARK SMILES IDX 10 1 9 2 8 3 7 4 6 5 5 6 4 7 3 8 2 9 1 10 41 11 42 12 103 13
REMARK SMILES IDX 43 14 102 15 44 16 45 17 46 18 96 19 47 20 101 21 95 22
REMARK SMILES IDX 97 23 48 24 100 25 94 26 93 27 49 29 81 30 61 31 80 32 62 33
REMARK SMILES IDX 65 34 79 35 98 36 63 37 64 38 78 40 99 41 66 42 50 43 51 44
REMARK SMILES IDX 59 45 52 46 58 47 60 48 57 49 53 50 54 51 55 52 56 53 82 54
REMARK SMILES IDX 83 55 91 56 84 57 90 58 92 59 89 60 85 61 86 62 87 63 88 64
REMARK SMILES IDX 67 65 68 66 76 67 69 68 75 69 77 70 74 71 70 72 71 73 72 74
REMARK SMILES IDX 73 75 11 76 12 77 13 78 14 79 15 80 16 81 17 82 18 83 19 84
REMARK SMILES IDX 38 85 35 86 37 87 39 88 36 89 40 90 20 91 21 92 22 93 23 95
REMARK SMILES IDX 24 96 34 97 25 98 33 99 26 100 27 101 28 102 29 103 32 104
REMARK SMILES IDX 30 105 31 106
REMARK H PARENT 97 28 65 39 22 94
REMARK Flexibility Score: inf
ROOT
ATOM      1  C   UNL     1       4.665   0.529  -3.715  1.00  0.00     0.188 C 
ENDROOT
BRANCH   1   2
ATOM      2  O   UNL     1       3.247   0.529  -3.870  1.00  0.00    -0.377 OA
BRANCH   2   3
ATOM      3  C   UNL     1       2.450   1.463  -3.136  1.00  0.00     0.188 C 
BRANCH   3   4
ATOM      4  C   UNL     1       2.942   1.680  -1.738  1.00  0.00     0.188 C 
BRANCH   4   5
ATOM      5  O   UNL     1       4.200   2.336  -1.672  1.00  0.00    -0.376 OA
BRANCH   5   6
ATOM      6  C   UNL     1       4.844   2.214  -0.401  1.00  0.00     0.202 C 
BRANCH   6   7
ATOM      7  C   UNL     1       5.024   0.786   0.159  1.00  0.00     0.261 C 
BRANCH   7   8
ATOM      8  O   UNL     1       3.845  -0.026   0.434  1.00  0.00    -0.460 OA
BRANCH   8   9
ATOM      9  C   UNL     1       2.566   0.323   0.700  1.00  0.00     0.338 C 
ATOM     10  O   UNL     1       1.614  -0.215   0.134  1.00  0.00    -0.246 OA
BRANCH   9  11
ATOM     11  C   UNL     1       2.299   1.238   1.798  1.00  0.00     0.060 A 
ATOM     12  C   UNL     1       3.343   1.753   2.547  1.00  0.00     0.016 A 
ATOM     13  C   UNL     1       0.955   1.373   2.201  1.00  0.00     0.016 A 
ATOM     14  C   UNL     1       3.070   2.245   3.782  1.00  0.00     0.010 A 
ATOM     15  C   UNL     1       0.672   1.911   3.437  1.00  0.00     0.010 A 
ATOM     16  C   UNL     1       1.748   2.286   4.229  1.00  0.00    -0.014 A 
BRANCH  16  17
ATOM     17  C   UNL     1       1.612   2.938   5.504  1.00  0.00     0.031 A 
ATOM     18  C   UNL     1       2.174   4.307   5.475  1.00  0.00     0.074 A 
ATOM     19  C   UNL     1       1.096   2.341   6.582  1.00  0.00     0.049 A 
ATOM     20  N   UNL     1       3.218   4.742   6.098  1.00  0.00    -0.248 NA
ATOM     21  C   UNL     1       1.694   5.192   4.398  1.00  0.00     0.031 C 
ATOM     22  C   UNL     1       0.332   1.100   6.649  1.00  0.00     0.029 A 
ATOM     23  N   UNL     1       1.039   2.831   7.842  1.00  0.00    -0.354 N 
ATOM     24  C   UNL     1       3.395   6.040   5.643  1.00  0.00     0.074 A 
ATOM     25  C   UNL     1       2.604   6.160   4.454  1.00  0.00     0.031 C 
ATOM     26  C   UNL     1      -0.350   1.091   7.815  1.00  0.00     0.029 A 
ATOM     27  C   UNL     1       0.023   2.268   8.589  1.00  0.00     0.049 A 
ATOM     28  H   UNL     1       1.655   3.517   8.188  1.00  0.00     0.167 HD
ATOM     29  C   UNL     1       3.946   6.989   6.442  1.00  0.00     0.034 A 
ATOM     30  C   UNL     1      -0.565   2.843   9.666  1.00  0.00     0.034 A 
ATOM     31  C   UNL     1       4.790   6.381   7.455  1.00  0.00     0.049 A 
ATOM     32  C   UNL     1       0.385   3.857  10.207  1.00  0.00     0.074 A 
ATOM     33  C   UNL     1       5.892   5.545   7.397  1.00  0.00     0.029 A 
ATOM     34  N   UNL     1       4.325   6.282   8.752  1.00  0.00    -0.354 N 
ATOM     35  N   UNL     1       1.540   3.554  10.739  1.00  0.00    -0.248 NA
ATOM     36  C   UNL     1       0.278   5.236   9.741  1.00  0.00     0.031 C 
ATOM     37  C   UNL     1       5.739   4.641   8.489  1.00  0.00     0.029 A 
ATOM     38  C   UNL     1       4.592   5.008   9.194  1.00  0.00     0.049 A 
ATOM     39  H   UNL     1       3.883   6.995   9.267  1.00  0.00     0.167 HD
ATOM     40  C   UNL     1       2.419   4.535  10.301  1.00  0.00     0.074 A 
ATOM     41  C   UNL     1       1.563   5.602   9.789  1.00  0.00     0.031 C 
ATOM     42  C   UNL     1       3.751   4.277  10.127  1.00  0.00     0.034 A 
BRANCH  29  43
ATOM     43  C   UNL     1       3.311   8.362   6.585  1.00  0.00     0.023 A 
ATOM     44  C   UNL     1       3.793   9.150   7.639  1.00  0.00     0.031 A 
ATOM     45  C   UNL     1       2.087   8.793   6.016  1.00  0.00     0.131 A 
ATOM     46  C   UNL     1       2.981  10.132   8.226  1.00  0.00     0.055 A 
ATOM     47  C   UNL     1       1.306   9.809   6.570  1.00  0.00     0.041 A 
ATOM     48  F   UNL     1       1.537   8.242   4.930  1.00  0.00    -0.206 F 
ATOM     49  C   UNL     1       1.727  10.450   7.717  1.00  0.00     0.022 A 
BRANCH  46  50
ATOM     50  S   UNL     1       3.520  10.813   9.809  1.00  0.00     0.124 S 
ATOM     51  O   UNL     1       3.734   9.592  10.579  1.00  0.00    -0.237 OA
ATOM     52  O   UNL     1       4.717  11.549   9.418  1.00  0.00    -0.237 OA
ATOM     53  O   UNL     1       2.386  11.632  10.225  1.00  0.00    -0.744 OA
ENDBRANCH  46  50
ENDBRANCH  29  43
BRANCH  30  54
ATOM     54  C   UNL     1      -2.011   2.769   9.989  1.00  0.00     0.023 A 
ATOM     55  C   UNL     1      -2.501   3.080  11.268  1.00  0.00     0.031 A 
ATOM     56  C   UNL     1      -2.977   2.558   8.973  1.00  0.00     0.131 A 
ATOM     57  C   UNL     1      -3.893   3.138  11.497  1.00  0.00     0.055 A 
ATOM     58  C   UNL     1      -4.351   2.580   9.213  1.00  0.00     0.041 A 
ATOM     59  F   UNL     1      -2.626   2.401   7.687  1.00  0.00    -0.206 F 
ATOM     60  C   UNL     1      -4.816   2.876  10.481  1.00  0.00     0.022 A 
BRANCH  57  61
ATOM     61  S   UNL     1      -4.524   3.675  13.114  1.00  0.00     0.124 S 
ATOM     62  O   UNL     1      -4.227   2.525  13.959  1.00  0.00    -0.237 OA
ATOM     63  O   UNL     1      -3.749   4.885  13.366  1.00  0.00    -0.237 OA
ATOM     64  O   UNL     1      -5.947   3.905  12.863  1.00  0.00    -0.744 OA
ENDBRANCH  57  61
ENDBRANCH  30  54
BRANCH  42  65
ATOM     65  C   UNL     1       4.337   3.023  10.746  1.00  0.00     0.023 A 
ATOM     66  C   UNL     1       3.848   1.715  10.531  1.00  0.00     0.031 A 
ATOM     67  C   UNL     1       5.514   3.158  11.507  1.00  0.00     0.131 A 
ATOM     68  C   UNL     1       4.518   0.609  11.088  1.00  0.00     0.055 A 
ATOM     69  C   UNL     1       6.186   2.059  12.041  1.00  0.00     0.041 A 
ATOM     70  F   UNL     1       6.055   4.369  11.720  1.00  0.00    -0.206 F 
ATOM     71  C   UNL     1       5.683   0.779  11.842  1.00  0.00     0.022 A 
BRANCH  68  72
ATOM     72  S   UNL     1       3.873  -1.080  10.869  1.00  0.00     0.124 S 
ATOM     73  O   UNL     1       2.432  -0.926  11.025  1.00  0.00    -0.237 OA
ATOM     74  O   UNL     1       4.340  -1.418   9.527  1.00  0.00    -0.237 OA
ATOM     75  O   UNL     1       4.525  -1.831  11.944  1.00  0.00    -0.744 OA
ENDBRANCH  68  72
ENDBRANCH  42  65
ENDBRANCH  16  17
ENDBRANCH   9  11
ENDBRANCH   8   9
ENDBRANCH   7   8
ENDBRANCH   6   7
ENDBRANCH   5   6
ENDBRANCH   4   5
ENDBRANCH   3   4
ENDBRANCH   2   3
ENDBRANCH   1   2
BRANCH   1  76
ATOM     76  C   UNL     1       5.470   1.642  -4.389  1.00  0.00     0.188 C 
BRANCH  76  77
ATOM     77  O   UNL     1       5.189   2.005  -5.738  1.00  0.00    -0.376 OA
BRANCH  77  78
ATOM     78  C   UNL     1       3.836   2.034  -6.153  1.00  0.00     0.202 C 
BRANCH  78  79
ATOM     79  C   UNL     1       3.418   0.792  -6.956  1.00  0.00     0.261 C 
BRANCH  79  80
ATOM     80  O   UNL     1       3.507  -0.501  -6.315  1.00  0.00    -0.463 OA
BRANCH  80  81
ATOM     81  C   UNL     1       4.714  -1.104  -6.341  1.00  0.00     0.310 C 
ATOM     82  O   UNL     1       5.750  -0.567  -6.729  1.00  0.00    -0.252 OA
BRANCH  81  83
ATOM     83  C   UNL     1       4.708  -2.579  -5.995  1.00  0.00     0.119 C 
ATOM     84  C   UNL     1       3.475  -3.453  -5.666  1.00  0.00     0.100 C 
ATOM     85  C   UNL     1       5.954  -3.075  -5.170  1.00  0.00     0.026 C 
ATOM     86  C   UNL     1       3.985  -4.791  -5.037  1.00  0.00     0.025 C 
ATOM     87  C   UNL     1       5.620  -3.582  -3.779  1.00  0.00    -0.027 C 
ATOM     88  C   UNL     1       6.399  -4.386  -5.864  1.00  0.00     0.009 C 
ATOM     89  C   UNL     1       4.646  -4.507  -3.721  1.00  0.00    -0.027 C 
ATOM     90  C   UNL     1       5.165  -5.348  -5.920  1.00  0.00     0.009 C 
BRANCH  84  91
ATOM     91  C   UNL     1       2.103  -2.855  -5.253  1.00  0.00     0.228 C 
ATOM     92  O   UNL     1       1.337  -2.532  -6.182  1.00  0.00    -0.274 OA
ATOM     93  N   UNL     1       1.538  -2.782  -4.015  1.00  0.00    -0.326 N 
ATOM     94  H   UNL     1       0.558  -2.704  -4.061  1.00  0.00     0.169 HD
BRANCH  93  95
ATOM     95  C   UNL     1       2.005  -2.790  -2.693  1.00  0.00     0.041 A 
ATOM     96  C   UNL     1       1.150  -3.177  -1.657  1.00  0.00     0.026 A 
ATOM     97  C   UNL     1       3.267  -2.360  -2.347  1.00  0.00     0.026 A 
ATOM     98  C   UNL     1       1.634  -3.331  -0.343  1.00  0.00     0.008 A 
ATOM     99  C   UNL     1       3.773  -2.538  -1.054  1.00  0.00     0.008 A 
ATOM    100  C   UNL     1       2.980  -3.080  -0.043  1.00  0.00    -0.026 A 
BRANCH 100 101
ATOM    101  C   UNL     1       3.591  -3.429   1.294  1.00  0.00     0.181 C 
BRANCH 101 102
ATOM    102  N   UNL     1       3.637  -2.359   2.273  1.00  0.00    -0.249 N 
ATOM    103  C   UNL     1       2.615  -1.923   3.057  1.00  0.00     0.220 A 
ATOM    104  N   UNL     1       4.821  -1.854   2.700  1.00  0.00    -0.160 NA
ATOM    105  N   UNL     1       3.085  -1.128   3.987  1.00  0.00    -0.224 NA
ATOM    106  C   UNL     1       4.430  -1.130   3.755  1.00  0.00     0.246 A 
ENDBRANCH 101 102
ENDBRANCH 100 101
ENDBRANCH  93  95
ENDBRANCH  84  91
ENDBRANCH  81  83
ENDBRANCH  80  81
ENDBRANCH  79  80
ENDBRANCH  78  79
ENDBRANCH  77  78
ENDBRANCH  76  77
ENDBRANCH   1  76
TORSDOF 27
