REMARK SMILES COc1cc(Cl)c(C)cc1N1C(=O)C[C@H](Nc2cc(C(=O)OCCOCCOCCOCCOC(=O)c3ccc(-c4c5nc(c(-c6cc(S(=O)(=O)[O-])ccc6F)c6ccc([nH]6)c(-c6cc(S(=O)(=O)[O-])ccc6F)c6nc(c(-c7cc(S(=O)(=O)[O-])ccc7F)c7ccc4[nH]7)C=C6)C=C5)cc3)ccc2C)C1=O
REMARK SMILES IDX 27 1 26 2 25 3 24 4 23 5 22 6 20 7 21 8 19 9 17 10 18 11
REMARK SMILES IDX 102 12 101 13 103 14 100 15 16 16 15 18 11 19 12 20 104 21
REMARK SMILES IDX 13 22 14 23 105 24 10 25 3 26 4 27 5 28 9 29 6 30 7 31 8 32
REMARK SMILES IDX 2 33 1 34 28 35 29 36 30 37 31 38 32 39 33 40 34 41 35 42
REMARK SMILES IDX 36 43 37 44 38 45 99 46 39 47 98 48 40 49 41 50 42 51 92 52
REMARK SMILES IDX 43 53 97 54 91 55 93 56 44 57 96 58 90 59 89 60 45 62 77 63
REMARK SMILES IDX 57 64 76 65 58 66 61 67 75 68 94 69 59 70 60 71 74 73 95 74
REMARK SMILES IDX 62 75 46 76 47 77 55 78 48 79 54 80 56 81 53 82 49 83 50 84
REMARK SMILES IDX 51 85 52 86 78 87 79 88 87 89 80 90 86 91 88 92 85 93 81 94
REMARK SMILES IDX 82 95 83 96 84 97 63 98 64 99 72 100 65 101 71 102 73 103
REMARK SMILES IDX 70 104 66 105 67 106 68 107 69 108
REMARK H PARENT 16 17 93 61 61 72
REMARK Flexibility Score: inf
ROOT
ATOM      1  C   UNL     1       7.323  -5.998  -2.948  1.00  0.00     0.188 C 
ENDROOT
BRANCH   1   2
ATOM      2  C   UNL     1       7.965  -6.973  -1.951  1.00  0.00     0.188 C 
BRANCH   2   3
ATOM      3  O   UNL     1       7.490  -8.307  -1.841  1.00  0.00    -0.376 OA
BRANCH   3   4
ATOM      4  C   UNL     1       6.248  -8.448  -1.152  1.00  0.00     0.202 C 
BRANCH   4   5
ATOM      5  C   UNL     1       6.250  -8.020   0.311  1.00  0.00     0.261 C 
BRANCH   5   6
ATOM      6  O   UNL     1       6.189  -6.594   0.401  1.00  0.00    -0.460 OA
BRANCH   6   7
ATOM      7  C   UNL     1       7.049  -6.058   1.289  1.00  0.00     0.338 C 
ATOM      8  O   UNL     1       7.675  -6.628   2.149  1.00  0.00    -0.246 OA
BRANCH   7   9
ATOM      9  C   UNL     1       7.412  -4.715   0.782  1.00  0.00     0.062 A 
ATOM     10  C   UNL     1       6.991  -2.588  -0.343  1.00  0.00     0.038 A 
ATOM     11  C   UNL     1       6.526  -3.814   0.162  1.00  0.00     0.041 A 
ATOM     12  C   UNL     1       8.374  -2.317  -0.230  1.00  0.00    -0.028 A 
ATOM     13  C   UNL     1       9.262  -3.274   0.295  1.00  0.00     0.006 A 
ATOM     14  C   UNL     1       8.978  -0.978  -0.537  1.00  0.00     0.046 C 
ATOM     15  C   UNL     1       8.783  -4.462   0.805  1.00  0.00     0.016 A 
BRANCH  10  16
ATOM     16  N   UNL     1       6.176  -1.765  -1.134  1.00  0.00    -0.373 N 
ATOM     17  H   UNL     1       6.436  -1.582  -2.066  1.00  0.00     0.161 HD
BRANCH  16  18
ATOM     18  C   UNL     1       4.940  -1.169  -0.598  1.00  0.00     0.179 C 
ATOM     19  N   UNL     1       3.581   0.482  -1.615  1.00  0.00    -0.245 N 
ATOM     20  C   UNL     1       4.320   1.152  -0.682  1.00  0.00     0.236 C 
ATOM     21  C   UNL     1       3.904  -0.854  -1.680  1.00  0.00     0.256 C 
ATOM     22  O   UNL     1       4.241   2.336  -0.374  1.00  0.00    -0.274 OA
ATOM     23  C   UNL     1       5.239   0.192   0.011  1.00  0.00     0.136 C 
ATOM     24  O   UNL     1       3.476  -1.680  -2.472  1.00  0.00    -0.272 OA
BRANCH  19  25
ATOM     25  C   UNL     1       2.540   1.093  -2.356  1.00  0.00     0.094 A 
ATOM     26  C   UNL     1       1.219   0.621  -2.295  1.00  0.00     0.144 A 
ATOM     27  C   UNL     1       0.206   1.232  -3.041  1.00  0.00     0.069 A 
ATOM     28  C   UNL     1       0.494   2.338  -3.842  1.00  0.00     0.047 A 
ATOM     29  C   UNL     1       2.809   2.228  -3.144  1.00  0.00     0.035 A 
ATOM     30  Cl  UNL     1      -0.809   3.071  -4.715  1.00  0.00    -0.084 Cl
ATOM     31  C   UNL     1       1.800   2.846  -3.913  1.00  0.00    -0.030 A 
ATOM     32  C   UNL     1       2.144   4.004  -4.810  1.00  0.00     0.046 C 
BRANCH  26  33
ATOM     33  O   UNL     1       0.838  -0.429  -1.498  1.00  0.00    -0.495 OA
ATOM     34  C   UNL     1       0.818  -0.069  -0.116  1.00  0.00     0.278 C 
ENDBRANCH  26  33
ENDBRANCH  19  25
ENDBRANCH  16  18
ENDBRANCH  10  16
ENDBRANCH   7   9
ENDBRANCH   6   7
ENDBRANCH   5   6
ENDBRANCH   4   5
ENDBRANCH   3   4
ENDBRANCH   2   3
ENDBRANCH   1   2
BRANCH   1  35
ATOM     35  O   UNL     1       5.908  -5.988  -3.024  1.00  0.00    -0.377 OA
BRANCH  35  36
ATOM     36  C   UNL     1       5.464  -6.072  -4.383  1.00  0.00     0.188 C 
BRANCH  36  37
ATOM     37  C   UNL     1       5.317  -7.528  -4.779  1.00  0.00     0.188 C 
BRANCH  37  38
ATOM     38  O   UNL     1       6.457  -8.359  -4.594  1.00  0.00    -0.376 OA
BRANCH  38  39
ATOM     39  C   UNL     1       7.391  -8.482  -5.651  1.00  0.00     0.202 C 
BRANCH  39  40
ATOM     40  C   UNL     1       6.784  -8.867  -7.007  1.00  0.00     0.261 C 
BRANCH  40  41
ATOM     41  O   UNL     1       6.035 -10.094  -6.873  1.00  0.00    -0.460 OA
BRANCH  41  42
ATOM     42  C   UNL     1       4.689  -9.994  -7.077  1.00  0.00     0.338 C 
ATOM     43  O   UNL     1       4.167  -9.530  -8.075  1.00  0.00    -0.246 OA
BRANCH  42  44
ATOM     44  C   UNL     1       3.959 -10.326  -5.812  1.00  0.00     0.060 A 
ATOM     45  C   UNL     1       2.655  -9.836  -5.602  1.00  0.00     0.016 A 
ATOM     46  C   UNL     1       4.691 -10.796  -4.731  1.00  0.00     0.016 A 
ATOM     47  C   UNL     1       2.180  -9.616  -4.293  1.00  0.00     0.010 A 
ATOM     48  C   UNL     1       4.251 -10.494  -3.455  1.00  0.00     0.010 A 
ATOM     49  C   UNL     1       3.028  -9.841  -3.208  1.00  0.00    -0.014 A 
BRANCH  49  50
ATOM     50  C   UNL     1       2.891  -9.244  -1.849  1.00  0.00     0.031 A 
ATOM     51  C   UNL     1       3.225 -10.106  -0.654  1.00  0.00     0.074 A 
ATOM     52  C   UNL     1       2.862  -7.882  -1.732  1.00  0.00     0.049 A 
ATOM     53  N   UNL     1       3.313  -9.695   0.562  1.00  0.00    -0.248 NA
ATOM     54  C   UNL     1       3.548 -11.536  -0.738  1.00  0.00     0.031 C 
ATOM     55  C   UNL     1       3.326  -7.070  -0.602  1.00  0.00     0.029 A 
ATOM     56  N   UNL     1       2.460  -6.899  -2.643  1.00  0.00    -0.354 N 
ATOM     57  C   UNL     1       3.990 -10.636   1.326  1.00  0.00     0.074 A 
ATOM     58  C   UNL     1       4.055 -11.793   0.476  1.00  0.00     0.031 C 
ATOM     59  C   UNL     1       3.146  -5.761  -0.824  1.00  0.00     0.029 A 
ATOM     60  C   UNL     1       2.273  -5.674  -1.958  1.00  0.00     0.049 A 
ATOM     61  H   UNL     1       2.328  -7.038  -3.608  1.00  0.00     0.167 HD
ATOM     62  C   UNL     1       4.502 -10.261   2.542  1.00  0.00     0.034 A 
ATOM     63  C   UNL     1       1.028  -5.126  -1.847  1.00  0.00     0.034 A 
ATOM     64  C   UNL     1       4.026  -8.916   2.916  1.00  0.00     0.049 A 
ATOM     65  C   UNL     1       0.493  -5.366  -0.421  1.00  0.00     0.074 A 
ATOM     66  C   UNL     1       4.626  -7.739   3.325  1.00  0.00     0.029 A 
ATOM     67  N   UNL     1       2.683  -8.603   2.713  1.00  0.00    -0.354 N 
ATOM     68  N   UNL     1       0.901  -6.360   0.348  1.00  0.00    -0.248 NA
ATOM     69  C   UNL     1      -0.291  -4.393   0.344  1.00  0.00     0.031 C 
ATOM     70  C   UNL     1       3.665  -6.691   3.181  1.00  0.00     0.029 A 
ATOM     71  C   UNL     1       2.457  -7.249   2.782  1.00  0.00     0.049 A 
ATOM     72  H   UNL     1       1.981  -9.271   2.541  1.00  0.00     0.167 HD
ATOM     73  C   UNL     1       0.601  -6.098   1.660  1.00  0.00     0.074 A 
ATOM     74  C   UNL     1      -0.199  -4.884   1.597  1.00  0.00     0.031 C 
ATOM     75  C   UNL     1       1.093  -6.756   2.761  1.00  0.00     0.034 A 
BRANCH  62  76
ATOM     76  C   UNL     1       5.563 -10.987   3.378  1.00  0.00     0.023 A 
ATOM     77  C   UNL     1       5.885 -10.487   4.667  1.00  0.00     0.031 A 
ATOM     78  C   UNL     1       6.371 -12.065   2.954  1.00  0.00     0.131 A 
ATOM     79  C   UNL     1       6.950 -11.007   5.437  1.00  0.00     0.055 A 
ATOM     80  C   UNL     1       7.394 -12.623   3.746  1.00  0.00     0.041 A 
ATOM     81  F   UNL     1       6.252 -12.608   1.736  1.00  0.00    -0.206 F 
ATOM     82  C   UNL     1       7.697 -12.089   4.989  1.00  0.00     0.022 A 
BRANCH  79  83
ATOM     83  S   UNL     1       7.376 -10.228   7.026  1.00  0.00     0.124 S 
ATOM     84  O   UNL     1       7.905  -8.935   6.607  1.00  0.00    -0.237 OA
ATOM     85  O   UNL     1       6.094 -10.209   7.722  1.00  0.00    -0.237 OA
ATOM     86  O   UNL     1       8.368 -11.140   7.597  1.00  0.00    -0.744 OA
ENDBRANCH  79  83
ENDBRANCH  62  76
BRANCH  63  87
ATOM     87  C   UNL     1       0.432  -5.038  -3.228  1.00  0.00     0.023 A 
ATOM     88  C   UNL     1       1.145  -4.151  -4.098  1.00  0.00     0.031 A 
ATOM     89  C   UNL     1      -0.123  -6.190  -3.814  1.00  0.00     0.131 A 
ATOM     90  C   UNL     1       1.535  -4.573  -5.386  1.00  0.00     0.055 A 
ATOM     91  C   UNL     1       0.241  -6.584  -5.115  1.00  0.00     0.041 A 
ATOM     92  F   UNL     1      -0.819  -7.065  -3.074  1.00  0.00    -0.206 F 
ATOM     93  C   UNL     1       1.126  -5.814  -5.874  1.00  0.00     0.022 A 
BRANCH  90  94
ATOM     94  S   UNL     1       2.776  -3.614  -6.331  1.00  0.00     0.124 S 
ATOM     95  O   UNL     1       2.026  -2.423  -6.716  1.00  0.00    -0.237 OA
ATOM     96  O   UNL     1       3.856  -3.413  -5.371  1.00  0.00    -0.237 OA
ATOM     97  O   UNL     1       3.129  -4.509  -7.433  1.00  0.00    -0.744 OA
ENDBRANCH  90  94
ENDBRANCH  63  87
BRANCH  75  98
ATOM     98  C   UNL     1       0.262  -7.006   4.000  1.00  0.00     0.023 A 
ATOM     99  C   UNL     1      -1.092  -6.682   4.032  1.00  0.00     0.031 A 
ATOM    100  C   UNL     1       0.749  -7.729   5.124  1.00  0.00     0.131 A 
ATOM    101  C   UNL     1      -1.876  -6.962   5.155  1.00  0.00     0.055 A 
ATOM    102  C   UNL     1      -0.061  -8.103   6.197  1.00  0.00     0.041 A 
ATOM    103  F   UNL     1       2.023  -8.136   5.225  1.00  0.00    -0.206 F 
ATOM    104  C   UNL     1      -1.384  -7.698   6.229  1.00  0.00     0.022 A 
BRANCH 101 105
ATOM    105  S   UNL     1      -3.518  -6.224   5.192  1.00  0.00     0.124 S 
ATOM    106  O   UNL     1      -3.198  -4.799   5.130  1.00  0.00    -0.237 OA
ATOM    107  O   UNL     1      -4.141  -6.783   3.997  1.00  0.00    -0.237 OA
ATOM    108  O   UNL     1      -4.073  -6.684   6.462  1.00  0.00    -0.744 OA
ENDBRANCH 101 105
ENDBRANCH  75  98
ENDBRANCH  49  50
ENDBRANCH  42  44
ENDBRANCH  41  42
ENDBRANCH  40  41
ENDBRANCH  39  40
ENDBRANCH  38  39
ENDBRANCH  37  38
ENDBRANCH  36  37
ENDBRANCH  35  36
ENDBRANCH   1  35
TORSDOF 27
