REMARK SMILES CCC[NH2+][C@]1(C(=O)OCCOCCOCCOCCOC(=O)c2ccc(-c3c4nc(c(-c5cc(S(=O)(=O)[O-])ccc5F)c5ccc([nH]5)c(-c5cc(S(=O)(=O)[O-])ccc5F)c5nc(c(-c6cc(S(=O)(=O)[O-])ccc6F)c6ccc3[nH]6)C=C5)C=C4)cc2)CC[C@H](Oc2ccc(C)c(C)c2)C1
REMARK SMILES IDX 14 1 13 2 12 3 11 4 10 5 9 6 8 7 6 8 7 9 5 10 86 11 98 12
REMARK SMILES IDX 87 13 88 14 4 15 3 18 2 19 1 20 89 21 90 22 91 23 97 24
REMARK SMILES IDX 92 25 95 26 93 27 96 28 94 29 15 30 16 31 17 32 18 33 19 34
REMARK SMILES IDX 20 35 21 36 22 37 23 38 24 39 85 40 25 41 84 42 26 43 27 44
REMARK SMILES IDX 28 45 78 46 29 47 83 48 77 49 79 50 30 51 82 52 76 53 75 54
REMARK SMILES IDX 31 56 63 57 43 58 62 59 44 60 47 61 61 62 80 63 45 64 46 65
REMARK SMILES IDX 60 67 81 68 48 69 32 70 33 71 41 72 34 73 40 74 42 75 39 76
REMARK SMILES IDX 35 77 36 78 37 79 38 80 64 81 65 82 73 83 66 84 72 85 74 86
REMARK SMILES IDX 71 87 67 88 68 89 69 90 70 91 49 92 50 93 58 94 51 95 57 96
REMARK SMILES IDX 59 97 56 98 52 99 53 100 54 101 55 102
REMARK H PARENT 4 16 4 17 79 55 47 66
REMARK Flexibility Score: inf
ROOT
ATOM      1  O   UNL     1      -1.657  -1.004   2.371  1.00  0.00    -0.377 OA
ENDROOT
BRANCH   1   2
ATOM      2  C   UNL     1      -1.096   0.219   2.824  1.00  0.00     0.188 C 
BRANCH   2   3
ATOM      3  C   UNL     1       0.136   0.640   2.029  1.00  0.00     0.188 C 
BRANCH   3   4
ATOM      4  O   UNL     1      -0.046   0.897   0.643  1.00  0.00    -0.376 OA
BRANCH   4   5
ATOM      5  C   UNL     1      -0.685  -0.097  -0.153  1.00  0.00     0.202 C 
BRANCH   5   6
ATOM      6  C   UNL     1       0.007  -1.464  -0.308  1.00  0.00     0.261 C 
BRANCH   6   7
ATOM      7  O   UNL     1       0.036  -2.296   0.875  1.00  0.00    -0.459 OA
BRANCH   7   8
ATOM      8  C   UNL     1       1.222  -2.355   1.537  1.00  0.00     0.368 C 
ATOM      9  O   UNL     1       2.215  -1.710   1.201  1.00  0.00    -0.245 OA
BRANCH   8  10
ATOM     10  C   UNL     1       1.223  -3.319   2.753  1.00  0.00     0.198 C 
ATOM     11  C   UNL     1       0.629  -4.687   2.398  1.00  0.00     0.085 C 
ATOM     12  C   UNL     1       2.714  -3.706   2.952  1.00  0.00     0.126 C 
ATOM     13  C   UNL     1       1.332  -5.675   3.322  1.00  0.00     0.052 C 
ATOM     14  C   UNL     1       2.723  -5.087   3.598  1.00  0.00     0.180 C 
BRANCH  10  15
ATOM     15  N   UNL     1       0.796  -2.697   4.042  1.00  0.00    -0.332 N 
ATOM     16  H   UNL     1       1.509  -2.922   4.735  1.00  0.00     0.347 HD
ATOM     17  H   UNL     1       0.683  -1.709   3.815  1.00  0.00     0.347 HD
BRANCH  15  18
ATOM     18  C   UNL     1      -0.492  -3.079   4.611  1.00  0.00     0.261 C 
BRANCH  18  19
ATOM     19  C   UNL     1      -0.687  -2.648   6.079  1.00  0.00     0.058 C 
ATOM     20  C   UNL     1      -0.471  -1.180   6.404  1.00  0.00     0.010 C 
ENDBRANCH  18  19
ENDBRANCH  15  18
ENDBRANCH  10  15
BRANCH  14  21
ATOM     21  O   UNL     1       2.993  -4.913   4.990  1.00  0.00    -0.490 OA
BRANCH  21  22
ATOM     22  C   UNL     1       3.231  -6.026   5.741  1.00  0.00     0.120 A 
ATOM     23  C   UNL     1       3.215  -7.336   5.279  1.00  0.00     0.047 A 
ATOM     24  C   UNL     1       3.477  -5.780   7.093  1.00  0.00     0.050 A 
ATOM     25  C   UNL     1       3.381  -8.392   6.171  1.00  0.00     0.007 A 
ATOM     26  C   UNL     1       3.671  -6.832   8.003  1.00  0.00    -0.045 A 
ATOM     27  C   UNL     1       3.602  -8.158   7.536  1.00  0.00    -0.048 A 
ATOM     28  C   UNL     1       3.930  -6.504   9.446  1.00  0.00     0.045 C 
ATOM     29  C   UNL     1       3.703  -9.358   8.433  1.00  0.00     0.044 C 
ENDBRANCH  21  22
ENDBRANCH  14  21
ENDBRANCH   8  10
ENDBRANCH   7   8
ENDBRANCH   6   7
ENDBRANCH   5   6
ENDBRANCH   4   5
ENDBRANCH   3   4
ENDBRANCH   2   3
ENDBRANCH   1   2
BRANCH   1  30
ATOM     30  C   UNL     1      -3.063  -1.110   2.148  1.00  0.00     0.188 C 
BRANCH  30  31
ATOM     31  C   UNL     1      -3.901   0.143   2.387  1.00  0.00     0.188 C 
BRANCH  31  32
ATOM     32  O   UNL     1      -3.918   0.675   3.716  1.00  0.00    -0.376 OA
BRANCH  32  33
ATOM     33  C   UNL     1      -3.739  -0.218   4.812  1.00  0.00     0.202 C 
BRANCH  33  34
ATOM     34  C   UNL     1      -5.012  -0.848   5.367  1.00  0.00     0.261 C 
BRANCH  34  35
ATOM     35  O   UNL     1      -5.667  -1.650   4.380  1.00  0.00    -0.460 OA
BRANCH  35  36
ATOM     36  C   UNL     1      -6.635  -0.990   3.703  1.00  0.00     0.338 C 
ATOM     37  O   UNL     1      -7.026   0.152   3.900  1.00  0.00    -0.246 OA
BRANCH  36  38
ATOM     38  C   UNL     1      -7.039  -1.786   2.535  1.00  0.00     0.060 A 
ATOM     39  C   UNL     1      -7.194  -1.107   1.320  1.00  0.00     0.016 A 
ATOM     40  C   UNL     1      -7.314  -3.152   2.637  1.00  0.00     0.016 A 
ATOM     41  C   UNL     1      -7.680  -1.778   0.213  1.00  0.00     0.010 A 
ATOM     42  C   UNL     1      -7.831  -3.823   1.529  1.00  0.00     0.010 A 
ATOM     43  C   UNL     1      -8.061  -3.118   0.335  1.00  0.00    -0.014 A 
BRANCH  43  44
ATOM     44  C   UNL     1      -8.930  -3.669  -0.722  1.00  0.00     0.031 A 
ATOM     45  C   UNL     1     -10.417  -3.620  -0.503  1.00  0.00     0.074 A 
ATOM     46  C   UNL     1      -8.401  -4.068  -1.889  1.00  0.00     0.049 A 
ATOM     47  N   UNL     1     -11.386  -3.960  -1.309  1.00  0.00    -0.248 NA
ATOM     48  C   UNL     1     -10.870  -3.111   0.802  1.00  0.00     0.031 C 
ATOM     49  C   UNL     1      -6.972  -4.075  -2.204  1.00  0.00     0.029 A 
ATOM     50  N   UNL     1      -9.004  -4.518  -3.031  1.00  0.00    -0.354 N 
ATOM     51  C   UNL     1     -12.562  -3.704  -0.612  1.00  0.00     0.074 A 
ATOM     52  C   UNL     1     -12.184  -3.224   0.698  1.00  0.00     0.031 C 
ATOM     53  C   UNL     1      -6.811  -4.502  -3.468  1.00  0.00     0.029 A 
ATOM     54  C   UNL     1      -8.117  -4.830  -4.032  1.00  0.00     0.049 A 
ATOM     55  H   UNL     1      -9.979  -4.609  -3.126  1.00  0.00     0.167 HD
ATOM     56  C   UNL     1     -13.840  -3.847  -1.038  1.00  0.00     0.034 A 
ATOM     57  C   UNL     1      -8.345  -5.339  -5.258  1.00  0.00     0.034 A 
ATOM     58  C   UNL     1     -14.180  -4.345  -2.348  1.00  0.00     0.049 A 
ATOM     59  C   UNL     1      -9.776  -5.574  -5.676  1.00  0.00     0.074 A 
ATOM     60  C   UNL     1     -15.432  -4.551  -2.895  1.00  0.00     0.029 A 
ATOM     61  N   UNL     1     -13.256  -4.726  -3.316  1.00  0.00    -0.354 N 
ATOM     62  N   UNL     1     -10.885  -5.339  -5.008  1.00  0.00    -0.248 NA
ATOM     63  C   UNL     1      -9.986  -6.122  -7.019  1.00  0.00     0.031 C 
ATOM     64  C   UNL     1     -15.267  -5.136  -4.155  1.00  0.00     0.029 A 
ATOM     65  C   UNL     1     -13.911  -5.200  -4.441  1.00  0.00     0.049 A 
ATOM     66  H   UNL     1     -12.278  -4.668  -3.216  1.00  0.00     0.167 HD
ATOM     67  C   UNL     1     -11.926  -5.681  -5.867  1.00  0.00     0.074 A 
ATOM     68  C   UNL     1     -11.307  -6.111  -7.106  1.00  0.00     0.031 C 
ATOM     69  C   UNL     1     -13.269  -5.643  -5.658  1.00  0.00     0.034 A 
BRANCH  56  70
ATOM     70  C   UNL     1     -14.941  -3.531  -0.053  1.00  0.00     0.023 A 
ATOM     71  C   UNL     1     -15.123  -2.241   0.478  1.00  0.00     0.031 A 
ATOM     72  C   UNL     1     -15.798  -4.551   0.396  1.00  0.00     0.131 A 
ATOM     73  C   UNL     1     -16.088  -2.022   1.474  1.00  0.00     0.055 A 
ATOM     74  C   UNL     1     -16.813  -4.309   1.324  1.00  0.00     0.041 A 
ATOM     75  F   UNL     1     -15.653  -5.810  -0.047  1.00  0.00    -0.206 F 
ATOM     76  C   UNL     1     -16.953  -3.041   1.880  1.00  0.00     0.022 A 
BRANCH  73  77
ATOM     77  S   UNL     1     -16.097  -0.430   2.345  1.00  0.00     0.124 S 
ATOM     78  O   UNL     1     -14.744  -0.388   2.895  1.00  0.00    -0.237 OA
ATOM     79  O   UNL     1     -16.381   0.515   1.272  1.00  0.00    -0.237 OA
ATOM     80  O   UNL     1     -17.159  -0.587   3.337  1.00  0.00    -0.744 OA
ENDBRANCH  73  77
ENDBRANCH  56  70
BRANCH  57  81
ATOM     81  C   UNL     1      -7.208  -5.687  -6.156  1.00  0.00     0.023 A 
ATOM     82  C   UNL     1      -7.049  -5.075  -7.408  1.00  0.00     0.031 A 
ATOM     83  C   UNL     1      -6.283  -6.683  -5.789  1.00  0.00     0.131 A 
ATOM     84  C   UNL     1      -6.024  -5.499  -8.269  1.00  0.00     0.055 A 
ATOM     85  C   UNL     1      -5.228  -7.057  -6.622  1.00  0.00     0.041 A 
ATOM     86  F   UNL     1      -6.387  -7.303  -4.602  1.00  0.00    -0.206 F 
ATOM     87  C   UNL     1      -5.104  -6.474  -7.878  1.00  0.00     0.022 A 
BRANCH  84  88
ATOM     88  S   UNL     1      -5.971  -4.826  -9.953  1.00  0.00     0.124 S 
ATOM     89  O   UNL     1      -7.293  -5.180 -10.455  1.00  0.00    -0.237 OA
ATOM     90  O   UNL     1      -5.737  -3.407  -9.703  1.00  0.00    -0.237 OA
ATOM     91  O   UNL     1      -4.855  -5.541 -10.568  1.00  0.00    -0.744 OA
ENDBRANCH  84  88
ENDBRANCH  57  81
BRANCH  69  92
ATOM     92  C   UNL     1     -14.147  -6.038  -6.823  1.00  0.00     0.023 A 
ATOM     93  C   UNL     1     -14.111  -7.333  -7.370  1.00  0.00     0.031 A 
ATOM     94  C   UNL     1     -14.997  -5.092  -7.423  1.00  0.00     0.131 A 
ATOM     95  C   UNL     1     -14.832  -7.616  -8.539  1.00  0.00     0.055 A 
ATOM     96  C   UNL     1     -15.781  -5.407  -8.533  1.00  0.00     0.041 A 
ATOM     97  F   UNL     1     -15.073  -3.839  -6.946  1.00  0.00    -0.206 F 
ATOM     98  C   UNL     1     -15.684  -6.669  -9.112  1.00  0.00     0.022 A 
BRANCH  95  99
ATOM     99  S   UNL     1     -14.516  -9.187  -9.389  1.00  0.00     0.124 S 
ATOM    100  O   UNL     1     -13.071  -9.138  -9.585  1.00  0.00    -0.237 OA
ATOM    101  O   UNL     1     -14.995 -10.167  -8.419  1.00  0.00    -0.237 OA
ATOM    102  O   UNL     1     -15.312  -9.082 -10.610  1.00  0.00    -0.744 OA
ENDBRANCH  95  99
ENDBRANCH  69  92
ENDBRANCH  43  44
ENDBRANCH  36  38
ENDBRANCH  35  36
ENDBRANCH  34  35
ENDBRANCH  33  34
ENDBRANCH  32  33
ENDBRANCH  31  32
ENDBRANCH  30  31
ENDBRANCH   1  30
TORSDOF 28
