REMARK SMILES Cc1cc2c(c(C)c1Br)C=C(C(=O)OCCOCCOCCOCCOC(=O)c1ccc(-c3c4nc(c(-c5cc(S(=O)(=O)[O-])ccc5F)c5ccc([nH]5)c(-c5cc(S(=O)(=O)[O-])ccc5F)c5nc(c(-c6cc(S(=O)(=O)[O-])ccc6F)c6ccc3[nH]6)C=C5)C=C4)cc1)[C@@H](C(F)(F)F)O2
REMARK SMILES IDX 21 1 20 2 19 3 18 4 17 5 16 6 15 7 14 8 12 9 13 10 11 11
REMARK SMILES IDX 1 12 2 13 3 14 8 15 4 16 6 17 9 18 5 19 97 20 7 21 10 22
REMARK SMILES IDX 92 23 93 24 94 25 95 26 96 27 22 28 23 29 24 30 25 31 26 32
REMARK SMILES IDX 27 33 28 34 29 35 30 36 91 37 31 38 90 39 32 40 33 41 34 42
REMARK SMILES IDX 84 43 35 44 89 45 83 46 85 47 36 48 88 49 82 50 81 51 37 53
REMARK SMILES IDX 69 54 49 55 68 56 50 57 53 58 67 59 86 60 51 61 52 62 66 64
REMARK SMILES IDX 87 65 54 66 38 67 39 68 47 69 40 70 46 71 48 72 45 73 41 74
REMARK SMILES IDX 42 75 43 76 44 77 70 78 71 79 79 80 72 81 78 82 80 83 77 84
REMARK SMILES IDX 73 85 74 86 75 87 76 88 55 89 56 90 64 91 57 92 63 93 65 94
REMARK SMILES IDX 62 95 58 96 59 97 60 98 61 99
REMARK H PARENT 85 52 53 63
REMARK Flexibility Score: inf
ROOT
ATOM      1  C   UNL     1      -5.140   7.946  -3.072  1.00  0.00     0.188 C 
ENDROOT
BRANCH   1   2
ATOM      2  O   UNL     1      -4.044   7.040  -3.205  1.00  0.00    -0.377 OA
BRANCH   2   3
ATOM      3  C   UNL     1      -3.146   6.932  -2.114  1.00  0.00     0.188 C 
BRANCH   3   4
ATOM      4  C   UNL     1      -2.039   8.002  -2.141  1.00  0.00     0.188 C 
BRANCH   4   5
ATOM      5  O   UNL     1      -2.327   9.122  -2.955  1.00  0.00    -0.376 OA
BRANCH   5   6
ATOM      6  C   UNL     1      -2.070   9.129  -4.351  1.00  0.00     0.202 C 
BRANCH   6   7
ATOM      7  C   UNL     1      -2.045   7.894  -5.275  1.00  0.00     0.261 C 
BRANCH   7   8
ATOM      8  O   UNL     1      -1.802   6.621  -4.677  1.00  0.00    -0.460 OA
BRANCH   8   9
ATOM      9  C   UNL     1      -0.529   6.287  -4.412  1.00  0.00     0.338 C 
ATOM     10  O   UNL     1       0.469   6.946  -4.643  1.00  0.00    -0.246 OA
BRANCH   9  11
ATOM     11  C   UNL     1      -0.558   5.048  -3.605  1.00  0.00     0.087 C 
ATOM     12  C   UNL     1       0.812  -0.049   0.096  1.00  0.00     0.046 C 
ATOM     13  C   UNL     1       0.559   1.340  -0.425  1.00  0.00    -0.033 A 
ATOM     14  C   UNL     1      -0.319   1.490  -1.505  1.00  0.00     0.051 A 
ATOM     15  C   UNL     1       1.184   2.486   0.110  1.00  0.00     0.024 A 
ATOM     16  C   UNL     1      -0.483   2.725  -2.125  1.00  0.00     0.128 A 
ATOM     17  C   UNL     1       1.000   3.757  -0.485  1.00  0.00    -0.026 A 
ATOM     18  Br  UNL     1       2.322   2.272   1.635  1.00  0.00    -0.050 Br
ATOM     19  C   UNL     1       0.218   3.843  -1.666  1.00  0.00     0.021 A 
ATOM     20  O   UNL     1      -1.336   2.725  -3.190  1.00  0.00    -0.475 OA
ATOM     21  C   UNL     1       1.599   5.020   0.091  1.00  0.00     0.046 C 
ATOM     22  C   UNL     1       0.182   5.048  -2.489  1.00  0.00     0.027 C 
ATOM     23  C   UNL     1      -1.452   3.912  -4.018  1.00  0.00     0.316 C 
BRANCH  23  24
ATOM     24  C   UNL     1      -1.229   3.489  -5.476  1.00  0.00     0.430 C 
ATOM     25  F   UNL     1      -1.992   2.417  -5.799  1.00  0.00    -0.167 F 
ATOM     26  F   UNL     1      -1.542   4.472  -6.348  1.00  0.00    -0.167 F 
ATOM     27  F   UNL     1       0.062   3.146  -5.699  1.00  0.00    -0.167 F 
ENDBRANCH  23  24
ENDBRANCH   9  11
ENDBRANCH   8   9
ENDBRANCH   7   8
ENDBRANCH   6   7
ENDBRANCH   5   6
ENDBRANCH   4   5
ENDBRANCH   3   4
ENDBRANCH   2   3
ENDBRANCH   1   2
BRANCH   1  28
ATOM     28  C   UNL     1      -5.058   9.173  -2.132  1.00  0.00     0.188 C 
BRANCH  28  29
ATOM     29  O   UNL     1      -4.495   8.892  -0.854  1.00  0.00    -0.376 OA
BRANCH  29  30
ATOM     30  C   UNL     1      -5.377   8.831   0.256  1.00  0.00     0.202 C 
BRANCH  30  31
ATOM     31  C   UNL     1      -6.291   7.600   0.308  1.00  0.00     0.261 C 
BRANCH  31  32
ATOM     32  O   UNL     1      -7.175   7.435  -0.810  1.00  0.00    -0.460 OA
BRANCH  32  33
ATOM     33  C   UNL     1      -8.077   8.416  -1.036  1.00  0.00     0.338 C 
ATOM     34  O   UNL     1      -8.257   9.414  -0.360  1.00  0.00    -0.246 OA
BRANCH  33  35
ATOM     35  C   UNL     1      -8.677   8.169  -2.363  1.00  0.00     0.060 A 
ATOM     36  C   UNL     1      -8.542   9.142  -3.363  1.00  0.00     0.016 A 
ATOM     37  C   UNL     1      -9.353   6.975  -2.622  1.00  0.00     0.016 A 
ATOM     38  C   UNL     1      -9.113   8.932  -4.619  1.00  0.00     0.010 A 
ATOM     39  C   UNL     1      -9.946   6.778  -3.871  1.00  0.00     0.010 A 
ATOM     40  C   UNL     1      -9.855   7.769  -4.864  1.00  0.00    -0.014 A 
BRANCH  40  41
ATOM     41  C   UNL     1     -10.720   7.692  -6.066  1.00  0.00     0.031 A 
ATOM     42  C   UNL     1     -12.162   8.101  -5.922  1.00  0.00     0.074 A 
ATOM     43  C   UNL     1     -10.237   7.310  -7.262  1.00  0.00     0.049 A 
ATOM     44  N   UNL     1     -13.124   8.075  -6.805  1.00  0.00    -0.248 NA
ATOM     45  C   UNL     1     -12.570   8.609  -4.601  1.00  0.00     0.031 C 
ATOM     46  C   UNL     1      -8.846   6.957  -7.540  1.00  0.00     0.029 A 
ATOM     47  N   UNL     1     -10.870   7.160  -8.472  1.00  0.00    -0.354 N 
ATOM     48  C   UNL     1     -14.247   8.567  -6.152  1.00  0.00     0.074 A 
ATOM     49  C   UNL     1     -13.858   8.852  -4.789  1.00  0.00     0.031 C 
ATOM     50  C   UNL     1      -8.731   6.631  -8.840  1.00  0.00     0.029 A 
ATOM     51  C   UNL     1     -10.045   6.714  -9.478  1.00  0.00     0.049 A 
ATOM     52  H   UNL     1     -11.826   7.354  -8.606  1.00  0.00     0.167 HD
ATOM     53  C   UNL     1     -15.489   8.774  -6.648  1.00  0.00     0.034 A 
ATOM     54  C   UNL     1     -10.325   6.390 -10.758  1.00  0.00     0.034 A 
ATOM     55  C   UNL     1     -15.870   8.483  -8.004  1.00  0.00     0.049 A 
ATOM     56  C   UNL     1     -11.745   6.523 -11.257  1.00  0.00     0.074 A 
ATOM     57  C   UNL     1     -17.105   8.654  -8.603  1.00  0.00     0.029 A 
ATOM     58  N   UNL     1     -15.025   7.957  -8.971  1.00  0.00    -0.354 N 
ATOM     59  N   UNL     1     -12.806   6.963 -10.620  1.00  0.00    -0.248 NA
ATOM     60  C   UNL     1     -12.007   6.112 -12.644  1.00  0.00     0.031 C 
ATOM     61  C   UNL     1     -17.026   8.168  -9.911  1.00  0.00     0.029 A 
ATOM     62  C   UNL     1     -15.722   7.765 -10.152  1.00  0.00     0.049 A 
ATOM     63  H   UNL     1     -14.072   7.751  -8.837  1.00  0.00     0.167 HD
ATOM     64  C   UNL     1     -13.853   6.902 -11.536  1.00  0.00     0.074 A 
ATOM     65  C   UNL     1     -13.297   6.391 -12.772  1.00  0.00     0.031 C 
ATOM     66  C   UNL     1     -15.156   7.245 -11.372  1.00  0.00     0.034 A 
BRANCH  53  67
ATOM     67  C   UNL     1     -16.537   9.309  -5.710  1.00  0.00     0.023 A 
ATOM     68  C   UNL     1     -16.490  10.629  -5.231  1.00  0.00     0.031 A 
ATOM     69  C   UNL     1     -17.615   8.497  -5.319  1.00  0.00     0.131 A 
ATOM     70  C   UNL     1     -17.490  11.090  -4.363  1.00  0.00     0.055 A 
ATOM     71  C   UNL     1     -18.638   8.980  -4.502  1.00  0.00     0.041 A 
ATOM     72  F   UNL     1     -17.693   7.221  -5.731  1.00  0.00    -0.206 F 
ATOM     73  C   UNL     1     -18.576  10.283  -4.016  1.00  0.00     0.022 A 
BRANCH  70  74
ATOM     74  S   UNL     1     -17.319  12.743  -3.639  1.00  0.00     0.124 S 
ATOM     75  O   UNL     1     -16.117  12.585  -2.825  1.00  0.00    -0.237 OA
ATOM     76  O   UNL     1     -17.186  13.594  -4.816  1.00  0.00    -0.237 OA
ATOM     77  O   UNL     1     -18.558  12.915  -2.884  1.00  0.00    -0.744 OA
ENDBRANCH  70  74
ENDBRANCH  53  67
BRANCH  54  78
ATOM     78  C   UNL     1      -9.253   5.871 -11.655  1.00  0.00     0.023 A 
ATOM     79  C   UNL     1      -8.833   6.597 -12.781  1.00  0.00     0.031 A 
ATOM     80  C   UNL     1      -8.654   4.621 -11.415  1.00  0.00     0.131 A 
ATOM     81  C   UNL     1      -7.862   6.057 -13.639  1.00  0.00     0.055 A 
ATOM     82  C   UNL     1      -7.658   4.108 -12.247  1.00  0.00     0.041 A 
ATOM     83  F   UNL     1      -9.023   3.885 -10.354  1.00  0.00    -0.206 F 
ATOM     84  C   UNL     1      -7.261   4.824 -13.371  1.00  0.00     0.022 A 
BRANCH  81  85
ATOM     85  S   UNL     1      -7.420   6.972 -15.142  1.00  0.00     0.124 S 
ATOM     86  O   UNL     1      -8.682   6.968 -15.873  1.00  0.00    -0.237 OA
ATOM     87  O   UNL     1      -6.994   8.259 -14.601  1.00  0.00    -0.237 OA
ATOM     88  O   UNL     1      -6.353   6.165 -15.730  1.00  0.00    -0.744 OA
ENDBRANCH  81  85
ENDBRANCH  54  78
BRANCH  66  89
ATOM     89  C   UNL     1     -16.074   7.107 -12.559  1.00  0.00     0.023 A 
ATOM     90  C   UNL     1     -16.467   5.848 -13.040  1.00  0.00     0.031 A 
ATOM     91  C   UNL     1     -16.612   8.253 -13.173  1.00  0.00     0.131 A 
ATOM     92  C   UNL     1     -17.356   5.763 -14.123  1.00  0.00     0.055 A 
ATOM     93  C   UNL     1     -17.534   8.162 -14.216  1.00  0.00     0.041 A 
ATOM     94  F   UNL     1     -16.273   9.480 -12.746  1.00  0.00    -0.206 F 
ATOM     95  C   UNL     1     -17.907   6.911 -14.700  1.00  0.00     0.022 A 
BRANCH  92  96
ATOM     96  S   UNL     1     -17.761   4.127 -14.791  1.00  0.00     0.124 S 
ATOM     97  O   UNL     1     -16.463   3.668 -15.275  1.00  0.00    -0.237 OA
ATOM     98  O   UNL     1     -18.288   3.430 -13.623  1.00  0.00    -0.237 OA
ATOM     99  O   UNL     1     -18.745   4.416 -15.834  1.00  0.00    -0.744 OA
ENDBRANCH  92  96
ENDBRANCH  66  89
ENDBRANCH  40  41
ENDBRANCH  33  35
ENDBRANCH  32  33
ENDBRANCH  31  32
ENDBRANCH  30  31
ENDBRANCH  29  30
ENDBRANCH  28  29
ENDBRANCH   1  28
TORSDOF 24
