REMARK SMILES CC(C)CC[C@H](C(=O)OCCOCCOCCOCCOC(=O)c1ccc(-c2c3nc(c(-c4cc(S(=O)(=O)[O-])ccc4F)c4ccc([nH]4)c(-c4cc(S(=O)(=O)[O-])ccc4F)c4nc(c(-c5cc(S(=O)(=O)[O-])ccc5F)c5ccc2[nH]5)C=C4)C=C3)cc1)c1ccc(F)cc1
REMARK SMILES IDX 15 1 14 2 13 3 12 4 11 5 10 6 9 7 7 8 8 9 6 10 5 11 4 12
REMARK SMILES IDX 2 13 1 14 3 15 87 16 88 17 93 18 89 19 92 20 90 21 91 22
REMARK SMILES IDX 16 23 17 24 18 25 19 26 20 27 21 28 22 29 23 30 24 31 25 32
REMARK SMILES IDX 86 33 26 34 85 35 27 36 28 37 29 38 79 39 30 40 84 41 78 42
REMARK SMILES IDX 80 43 31 44 83 45 77 46 76 47 32 49 64 50 44 51 63 52 45 53
REMARK SMILES IDX 48 54 62 55 81 56 46 57 47 58 61 60 82 61 49 62 33 63 34 64
REMARK SMILES IDX 42 65 35 66 41 67 43 68 40 69 36 70 37 71 38 72 39 73 65 74
REMARK SMILES IDX 66 75 74 76 67 77 73 78 75 79 72 80 68 81 69 82 70 83 71 84
REMARK SMILES IDX 50 85 51 86 59 87 52 88 58 89 60 90 57 91 53 92 54 93 55 94
REMARK SMILES IDX 56 95
REMARK H PARENT 80 48 48 59
REMARK Flexibility Score: inf
ROOT
ATOM      1  O   UNL     1       0.890   1.329   0.865  1.00  0.00    -0.377 OA
ENDROOT
BRANCH   1   2
ATOM      2  C   UNL     1       0.039   1.534  -0.248  1.00  0.00     0.188 C 
BRANCH   2   3
ATOM      3  C   UNL     1      -1.492   1.741  -0.111  1.00  0.00     0.188 C 
BRANCH   3   4
ATOM      4  O   UNL     1      -2.046   1.194   1.063  1.00  0.00    -0.376 OA
BRANCH   4   5
ATOM      5  C   UNL     1      -2.618  -0.096   0.994  1.00  0.00     0.202 C 
BRANCH   5   6
ATOM      6  C   UNL     1      -1.815  -1.241   0.356  1.00  0.00     0.261 C 
BRANCH   6   7
ATOM      7  O   UNL     1      -1.267  -1.083  -0.975  1.00  0.00    -0.463 OA
BRANCH   7   8
ATOM      8  C   UNL     1      -2.049  -0.611  -1.982  1.00  0.00     0.313 C 
ATOM      9  O   UNL     1      -3.213  -0.263  -1.829  1.00  0.00    -0.252 OA
BRANCH   8  10
ATOM     10  C   UNL     1      -1.301  -0.638  -3.331  1.00  0.00     0.129 C 
BRANCH  10  11
ATOM     11  C   UNL     1      -1.939  -1.852  -4.073  1.00  0.00     0.020 C 
BRANCH  11  12
ATOM     12  C   UNL     1      -3.497  -1.940  -4.121  1.00  0.00     0.004 C 
BRANCH  12  13
ATOM     13  C   UNL     1      -4.215  -0.734  -4.753  1.00  0.00    -0.017 C 
ATOM     14  C   UNL     1      -4.266  -0.883  -6.274  1.00  0.00     0.007 C 
ATOM     15  C   UNL     1      -5.614  -0.473  -4.201  1.00  0.00     0.007 C 
ENDBRANCH  12  13
ENDBRANCH  11  12
ENDBRANCH  10  11
BRANCH  10  16
ATOM     16  C   UNL     1      -1.242   0.707  -4.096  1.00  0.00    -0.034 A 
ATOM     17  C   UNL     1      -0.826   1.892  -3.481  1.00  0.00     0.007 A 
ATOM     18  C   UNL     1      -1.588   0.844  -5.444  1.00  0.00     0.007 A 
ATOM     19  C   UNL     1      -1.056   3.158  -4.030  1.00  0.00     0.039 A 
ATOM     20  C   UNL     1      -1.864   2.097  -6.008  1.00  0.00     0.039 A 
ATOM     21  C   UNL     1      -1.649   3.247  -5.271  1.00  0.00     0.123 A 
ATOM     22  F   UNL     1      -1.978   4.443  -5.775  1.00  0.00    -0.207 F 
ENDBRANCH  10  16
ENDBRANCH   8  10
ENDBRANCH   7   8
ENDBRANCH   6   7
ENDBRANCH   5   6
ENDBRANCH   4   5
ENDBRANCH   3   4
ENDBRANCH   2   3
ENDBRANCH   1   2
BRANCH   1  23
ATOM     23  C   UNL     1       0.412   1.687   2.145  1.00  0.00     0.188 C 
BRANCH  23  24
ATOM     24  C   UNL     1      -0.091   3.134   2.345  1.00  0.00     0.188 C 
BRANCH  24  25
ATOM     25  O   UNL     1      -0.463   3.802   1.153  1.00  0.00    -0.376 OA
BRANCH  25  26
ATOM     26  C   UNL     1       0.289   4.890   0.656  1.00  0.00     0.202 C 
BRANCH  26  27
ATOM     27  C   UNL     1       1.743   4.667   0.212  1.00  0.00     0.261 C 
BRANCH  27  28
ATOM     28  O   UNL     1       2.539   3.833   1.054  1.00  0.00    -0.460 OA
BRANCH  28  29
ATOM     29  C   UNL     1       2.869   4.355   2.253  1.00  0.00     0.338 C 
ATOM     30  O   UNL     1       2.567   5.463   2.672  1.00  0.00    -0.246 OA
BRANCH  29  31
ATOM     31  C   UNL     1       3.459   3.276   3.065  1.00  0.00     0.060 A 
ATOM     32  C   UNL     1       2.841   2.945   4.277  1.00  0.00     0.016 A 
ATOM     33  C   UNL     1       4.588   2.579   2.625  1.00  0.00     0.016 A 
ATOM     34  C   UNL     1       3.348   1.914   5.055  1.00  0.00     0.010 A 
ATOM     35  C   UNL     1       5.131   1.580   3.436  1.00  0.00     0.010 A 
ATOM     36  C   UNL     1       4.527   1.268   4.665  1.00  0.00    -0.014 A 
BRANCH  36  37
ATOM     37  C   UNL     1       5.231   0.465   5.688  1.00  0.00     0.031 A 
ATOM     38  C   UNL     1       6.261   1.165   6.530  1.00  0.00     0.074 A 
ATOM     39  C   UNL     1       4.876  -0.806   5.938  1.00  0.00     0.049 A 
ATOM     40  N   UNL     1       6.949   0.716   7.546  1.00  0.00    -0.248 NA
ATOM     41  C   UNL     1       6.544   2.567   6.181  1.00  0.00     0.031 C 
ATOM     42  C   UNL     1       3.844  -1.552   5.219  1.00  0.00     0.029 A 
ATOM     43  N   UNL     1       5.334  -1.686   6.883  1.00  0.00    -0.354 N 
ATOM     44  C   UNL     1       7.738   1.782   7.963  1.00  0.00     0.074 A 
ATOM     45  C   UNL     1       7.478   2.883   7.062  1.00  0.00     0.031 C 
ATOM     46  C   UNL     1       3.745  -2.781   5.755  1.00  0.00     0.029 A 
ATOM     47  C   UNL     1       4.725  -2.917   6.832  1.00  0.00     0.049 A 
ATOM     48  H   UNL     1       6.033  -1.458   7.538  1.00  0.00     0.167 HD
ATOM     49  C   UNL     1       8.593   1.838   9.013  1.00  0.00     0.034 A 
ATOM     50  C   UNL     1       4.948  -4.026   7.565  1.00  0.00     0.034 A 
ATOM     51  C   UNL     1       8.854   0.719   9.883  1.00  0.00     0.049 A 
ATOM     52  C   UNL     1       5.979  -3.968   8.668  1.00  0.00     0.074 A 
ATOM     53  C   UNL     1       9.706   0.654  10.971  1.00  0.00     0.029 A 
ATOM     54  N   UNL     1       8.277  -0.540   9.755  1.00  0.00    -0.354 N 
ATOM     55  N   UNL     1       6.719  -2.954   9.061  1.00  0.00    -0.248 NA
ATOM     56  C   UNL     1       6.190  -5.199   9.438  1.00  0.00     0.031 C 
ATOM     57  C   UNL     1       9.709  -0.662  11.445  1.00  0.00     0.029 A 
ATOM     58  C   UNL     1       8.784  -1.397  10.720  1.00  0.00     0.049 A 
ATOM     59  H   UNL     1       7.607  -0.787   9.077  1.00  0.00     0.167 HD
ATOM     60  C   UNL     1       7.457  -3.420  10.147  1.00  0.00     0.074 A 
ATOM     61  C   UNL     1       7.053  -4.795  10.358  1.00  0.00     0.031 C 
ATOM     62  C   UNL     1       8.382  -2.773  10.906  1.00  0.00     0.034 A 
BRANCH  49  63
ATOM     63  C   UNL     1       9.347   3.129   9.223  1.00  0.00     0.023 A 
ATOM     64  C   UNL     1       8.689   4.336   9.523  1.00  0.00     0.031 A 
ATOM     65  C   UNL     1      10.745   3.161   9.078  1.00  0.00     0.131 A 
ATOM     66  C   UNL     1       9.421   5.531   9.601  1.00  0.00     0.055 A 
ATOM     67  C   UNL     1      11.476   4.338   9.241  1.00  0.00     0.041 A 
ATOM     68  F   UNL     1      11.424   2.048   8.758  1.00  0.00    -0.206 F 
ATOM     69  C   UNL     1      10.813   5.536   9.490  1.00  0.00     0.022 A 
BRANCH  66  70
ATOM     70  S   UNL     1       8.515   7.101   9.695  1.00  0.00     0.124 S 
ATOM     71  O   UNL     1       7.703   7.047   8.482  1.00  0.00    -0.237 OA
ATOM     72  O   UNL     1       7.792   6.972  10.955  1.00  0.00    -0.237 OA
ATOM     73  O   UNL     1       9.574   8.109   9.683  1.00  0.00    -0.744 OA
ENDBRANCH  66  70
ENDBRANCH  49  63
BRANCH  50  74
ATOM     74  C   UNL     1       4.216  -5.292   7.269  1.00  0.00     0.023 A 
ATOM     75  C   UNL     1       3.388  -5.902   8.225  1.00  0.00     0.031 A 
ATOM     76  C   UNL     1       4.391  -5.949   6.037  1.00  0.00     0.131 A 
ATOM     77  C   UNL     1       2.811  -7.153   7.955  1.00  0.00     0.055 A 
ATOM     78  C   UNL     1       3.766  -7.163   5.750  1.00  0.00     0.041 A 
ATOM     79  F   UNL     1       5.177  -5.416   5.088  1.00  0.00    -0.206 F 
ATOM     80  C   UNL     1       2.981  -7.780   6.719  1.00  0.00     0.022 A 
BRANCH  77  81
ATOM     81  S   UNL     1       1.912  -8.002   9.283  1.00  0.00     0.124 S 
ATOM     82  O   UNL     1       2.934  -8.097  10.319  1.00  0.00    -0.237 OA
ATOM     83  O   UNL     1       0.815  -7.077   9.545  1.00  0.00    -0.237 OA
ATOM     84  O   UNL     1       1.521  -9.271   8.672  1.00  0.00    -0.744 OA
ENDBRANCH  77  81
ENDBRANCH  50  74
BRANCH  62  85
ATOM     85  C   UNL     1       8.977  -3.542  12.064  1.00  0.00     0.023 A 
ATOM     86  C   UNL     1       9.740  -4.707  11.868  1.00  0.00     0.031 A 
ATOM     87  C   UNL     1       8.746  -3.123  13.387  1.00  0.00     0.131 A 
ATOM     88  C   UNL     1      10.166  -5.458  12.974  1.00  0.00     0.055 A 
ATOM     89  C   UNL     1       9.245  -3.829  14.482  1.00  0.00     0.041 A 
ATOM     90  F   UNL     1       8.023  -2.019  13.639  1.00  0.00    -0.206 F 
ATOM     91  C   UNL     1       9.942  -5.016  14.280  1.00  0.00     0.022 A 
BRANCH  88  92
ATOM     92  S   UNL     1      10.890  -7.096  12.682  1.00  0.00     0.124 S 
ATOM     93  O   UNL     1       9.847  -7.751  11.899  1.00  0.00    -0.237 OA
ATOM     94  O   UNL     1      12.117  -6.771  11.964  1.00  0.00    -0.237 OA
ATOM     95  O   UNL     1      11.082  -7.630  14.029  1.00  0.00    -0.744 OA
ENDBRANCH  88  92
ENDBRANCH  62  85
ENDBRANCH  36  37
ENDBRANCH  29  31
ENDBRANCH  28  29
ENDBRANCH  27  28
ENDBRANCH  26  27
ENDBRANCH  25  26
ENDBRANCH  24  25
ENDBRANCH  23  24
ENDBRANCH   1  23
TORSDOF 27
