REMARK SMILES CCNC(=O)c1ccc(SC[C@H](C)C(=O)OCCOCCOCCOCCOC(=O)c2ccc(-c3c4nc(c(-c5cc(S(=O)(=O)[O-])ccc5F)c5ccc([nH]5)c(-c5cc(S(=O)(=O)[O-])ccc5F)c5nc(c(-c6cc(S(=O)(=O)[O-])ccc6F)c6ccc3[nH]6)C=C5)C=C4)cc2)nn1
REMARK SMILES IDX 21 1 20 2 19 3 18 4 17 5 16 6 14 7 15 8 12 9 13 10 11 11
REMARK SMILES IDX 10 12 9 13 6 14 7 15 95 16 8 17 94 18 4 19 3 20 5 22 2 23
REMARK SMILES IDX 1 24 22 25 23 26 24 27 25 28 26 29 27 30 28 31 29 32 30 33
REMARK SMILES IDX 31 34 32 35 93 36 33 37 92 38 34 39 35 40 36 41 86 42 37 43
REMARK SMILES IDX 91 44 85 45 87 46 38 47 90 48 84 49 83 50 39 52 71 53 51 54
REMARK SMILES IDX 70 55 52 56 55 57 69 58 88 59 53 60 54 61 68 63 89 64 56 65
REMARK SMILES IDX 40 66 41 67 49 68 42 69 48 70 50 71 47 72 43 73 44 74 45 75
REMARK SMILES IDX 46 76 72 77 73 78 81 79 74 80 80 81 82 82 79 83 75 84 76 85
REMARK SMILES IDX 77 86 78 87 57 88 58 89 66 90 59 91 65 92 67 93 64 94 60 95
REMARK SMILES IDX 61 96 62 97 63 98
REMARK H PARENT 3 21 87 51 55 62
REMARK Flexibility Score: inf
ROOT
ATOM      1  C   UNL     1      -8.341   2.380  -1.351  1.00  0.00     0.188 C 
ENDROOT
BRANCH   1   2
ATOM      2  C   UNL     1      -8.171   3.094  -0.003  1.00  0.00     0.188 C 
BRANCH   2   3
ATOM      3  O   UNL     1      -8.232   4.510   0.052  1.00  0.00    -0.376 OA
BRANCH   3   4
ATOM      4  C   UNL     1      -7.235   5.285  -0.604  1.00  0.00     0.202 C 
BRANCH   4   5
ATOM      5  C   UNL     1      -5.763   4.860  -0.606  1.00  0.00     0.261 C 
BRANCH   5   6
ATOM      6  O   UNL     1      -5.482   3.605  -1.258  1.00  0.00    -0.463 OA
BRANCH   6   7
ATOM      7  C   UNL     1      -4.870   2.659  -0.504  1.00  0.00     0.309 C 
ATOM      8  O   UNL     1      -4.678   2.751   0.704  1.00  0.00    -0.252 OA
BRANCH   7   9
ATOM      9  C   UNL     1      -4.379   1.459  -1.298  1.00  0.00     0.106 C 
ATOM     10  C   UNL     1      -5.359   0.853  -2.301  1.00  0.00     0.021 C 
BRANCH   9  11
ATOM     11  C   UNL     1      -3.000   1.622  -1.953  1.00  0.00     0.091 C 
BRANCH  11  12
ATOM     12  S   UNL     1      -2.050   3.162  -1.769  1.00  0.00    -0.104 SA
BRANCH  12  13
ATOM     13  C   UNL     1      -2.933   4.369  -2.727  1.00  0.00     0.119 A 
ATOM     14  C   UNL     1      -4.145   6.479  -3.994  1.00  0.00     0.150 A 
ATOM     15  C   UNL     1      -4.388   5.198  -4.462  1.00  0.00     0.039 A 
ATOM     16  N   UNL     1      -3.342   6.702  -2.934  1.00  0.00    -0.144 NA
ATOM     17  C   UNL     1      -3.761   4.121  -3.816  1.00  0.00     0.040 A 
ATOM     18  N   UNL     1      -2.744   5.637  -2.299  1.00  0.00    -0.143 NA
BRANCH  14  19
ATOM     19  C   UNL     1      -4.659   7.696  -4.668  1.00  0.00     0.271 C 
ATOM     20  N   UNL     1      -6.009   7.934  -4.782  1.00  0.00    -0.351 N 
ATOM     21  H   UNL     1      -6.254   8.712  -5.333  1.00  0.00     0.163 HD
ATOM     22  O   UNL     1      -3.868   8.516  -5.125  1.00  0.00    -0.267 OA
BRANCH  20  23
ATOM     23  C   UNL     1      -7.119   7.207  -4.211  1.00  0.00     0.113 C 
ATOM     24  C   UNL     1      -8.111   8.142  -3.539  1.00  0.00     0.027 C 
ENDBRANCH  20  23
ENDBRANCH  14  19
ENDBRANCH  12  13
ENDBRANCH  11  12
ENDBRANCH   9  11
ENDBRANCH   7   9
ENDBRANCH   6   7
ENDBRANCH   5   6
ENDBRANCH   4   5
ENDBRANCH   3   4
ENDBRANCH   2   3
ENDBRANCH   1   2
BRANCH   1  25
ATOM     25  O   UNL     1      -7.795   3.077  -2.455  1.00  0.00    -0.377 OA
BRANCH  25  26
ATOM     26  C   UNL     1      -8.688   3.821  -3.281  1.00  0.00     0.188 C 
BRANCH  26  27
ATOM     27  C   UNL     1      -9.924   4.500  -2.654  1.00  0.00     0.188 C 
BRANCH  27  28
ATOM     28  O   UNL     1     -10.668   3.661  -1.786  1.00  0.00    -0.376 OA
BRANCH  28  29
ATOM     29  C   UNL     1     -11.832   3.029  -2.297  1.00  0.00     0.202 C 
BRANCH  29  30
ATOM     30  C   UNL     1     -11.636   2.036  -3.453  1.00  0.00     0.261 C 
BRANCH  30  31
ATOM     31  O   UNL     1     -11.097   2.577  -4.670  1.00  0.00    -0.460 OA
BRANCH  31  32
ATOM     32  C   UNL     1     -11.763   3.602  -5.252  1.00  0.00     0.338 C 
ATOM     33  O   UNL     1     -12.793   4.115  -4.873  1.00  0.00    -0.246 OA
BRANCH  32  34
ATOM     34  C   UNL     1     -10.910   4.114  -6.344  1.00  0.00     0.060 A 
ATOM     35  C   UNL     1     -10.487   5.450  -6.321  1.00  0.00     0.016 A 
ATOM     36  C   UNL     1     -10.550   3.272  -7.397  1.00  0.00     0.016 A 
ATOM     37  C   UNL     1      -9.726   5.958  -7.377  1.00  0.00     0.010 A 
ATOM     38  C   UNL     1      -9.806   3.786  -8.459  1.00  0.00     0.010 A 
ATOM     39  C   UNL     1      -9.415   5.138  -8.470  1.00  0.00    -0.014 A 
BRANCH  39  40
ATOM     40  C   UNL     1      -8.875   5.713  -9.728  1.00  0.00     0.031 A 
ATOM     41  C   UNL     1      -9.846   6.026 -10.834  1.00  0.00     0.074 A 
ATOM     42  C   UNL     1      -7.557   5.911  -9.908  1.00  0.00     0.049 A 
ATOM     43  N   UNL     1      -9.614   6.365 -12.073  1.00  0.00    -0.248 NA
ATOM     44  C   UNL     1     -11.272   5.929 -10.487  1.00  0.00     0.031 C 
ATOM     45  C   UNL     1      -6.524   5.713  -8.893  1.00  0.00     0.029 A 
ATOM     46  N   UNL     1      -6.862   6.305 -11.025  1.00  0.00    -0.354 N 
ATOM     47  C   UNL     1     -10.866   6.513 -12.663  1.00  0.00     0.074 A 
ATOM     48  C   UNL     1     -11.848   6.194 -11.649  1.00  0.00     0.031 C 
ATOM     49  C   UNL     1      -5.322   5.963  -9.444  1.00  0.00     0.029 A 
ATOM     50  C   UNL     1      -5.496   6.284 -10.861  1.00  0.00     0.049 A 
ATOM     51  H   UNL     1      -7.300   6.577 -11.864  1.00  0.00     0.167 HD
ATOM     52  C   UNL     1     -11.166   6.881 -13.932  1.00  0.00     0.034 A 
ATOM     53  C   UNL     1      -4.505   6.457 -11.762  1.00  0.00     0.034 A 
ATOM     54  C   UNL     1     -10.175   7.173 -14.937  1.00  0.00     0.049 A 
ATOM     55  C   UNL     1      -4.861   6.745 -13.206  1.00  0.00     0.074 A 
ATOM     56  C   UNL     1     -10.371   7.560 -16.251  1.00  0.00     0.029 A 
ATOM     57  N   UNL     1      -8.802   7.094 -14.747  1.00  0.00    -0.354 N 
ATOM     58  N   UNL     1      -6.047   6.873 -13.758  1.00  0.00    -0.248 NA
ATOM     59  C   UNL     1      -3.745   6.908 -14.149  1.00  0.00     0.031 C 
ATOM     60  C   UNL     1      -9.123   7.630 -16.877  1.00  0.00     0.029 A 
ATOM     61  C   UNL     1      -8.141   7.384 -15.931  1.00  0.00     0.049 A 
ATOM     62  H   UNL     1      -8.362   6.866 -13.897  1.00  0.00     0.167 HD
ATOM     63  C   UNL     1      -5.814   7.177 -15.099  1.00  0.00     0.074 A 
ATOM     64  C   UNL     1      -4.378   7.212 -15.273  1.00  0.00     0.031 C 
ATOM     65  C   UNL     1      -6.706   7.417 -16.094  1.00  0.00     0.034 A 
BRANCH  52  66
ATOM     66  C   UNL     1     -12.625   6.922 -14.314  1.00  0.00     0.023 A 
ATOM     67  C   UNL     1     -13.526   7.812 -13.706  1.00  0.00     0.031 A 
ATOM     68  C   UNL     1     -13.129   6.033 -15.281  1.00  0.00     0.131 A 
ATOM     69  C   UNL     1     -14.892   7.744 -14.014  1.00  0.00     0.055 A 
ATOM     70  C   UNL     1     -14.476   6.031 -15.648  1.00  0.00     0.041 A 
ATOM     71  F   UNL     1     -12.323   5.140 -15.875  1.00  0.00    -0.206 F 
ATOM     72  C   UNL     1     -15.370   6.880 -15.002  1.00  0.00     0.022 A 
BRANCH  69  73
ATOM     73  S   UNL     1     -16.056   8.689 -12.994  1.00  0.00     0.124 S 
ATOM     74  O   UNL     1     -15.768   8.168 -11.660  1.00  0.00    -0.237 OA
ATOM     75  O   UNL     1     -15.648  10.067 -13.243  1.00  0.00    -0.237 OA
ATOM     76  O   UNL     1     -17.363   8.317 -13.531  1.00  0.00    -0.744 OA
ENDBRANCH  69  73
ENDBRANCH  52  66
BRANCH  53  77
ATOM     77  C   UNL     1      -3.076   6.308 -11.357  1.00  0.00     0.023 A 
ATOM     78  C   UNL     1      -2.171   7.374 -11.482  1.00  0.00     0.031 A 
ATOM     79  C   UNL     1      -2.574   5.070 -10.914  1.00  0.00     0.131 A 
ATOM     80  C   UNL     1      -0.807   7.169 -11.222  1.00  0.00     0.055 A 
ATOM     81  C   UNL     1      -1.227   4.889 -10.594  1.00  0.00     0.041 A 
ATOM     82  F   UNL     1      -3.391   4.012 -10.785  1.00  0.00    -0.206 F 
ATOM     83  C   UNL     1      -0.332   5.940 -10.762  1.00  0.00     0.022 A 
BRANCH  80  84
ATOM     84  S   UNL     1       0.360   8.503 -11.613  1.00  0.00     0.124 S 
ATOM     85  O   UNL     1       0.122   8.691 -13.040  1.00  0.00    -0.237 OA
ATOM     86  O   UNL     1      -0.100   9.576 -10.739  1.00  0.00    -0.237 OA
ATOM     87  O   UNL     1       1.659   7.929 -11.267  1.00  0.00    -0.744 OA
ENDBRANCH  80  84
ENDBRANCH  53  77
BRANCH  65  88
ATOM     88  C   UNL     1      -6.161   7.808 -17.449  1.00  0.00     0.023 A 
ATOM     89  C   UNL     1      -5.434   6.912 -18.252  1.00  0.00     0.031 A 
ATOM     90  C   UNL     1      -6.403   9.099 -17.954  1.00  0.00     0.131 A 
ATOM     91  C   UNL     1      -4.942   7.332 -19.499  1.00  0.00     0.055 A 
ATOM     92  C   UNL     1      -5.965   9.491 -19.220  1.00  0.00     0.041 A 
ATOM     93  F   UNL     1      -7.090   9.998 -17.231  1.00  0.00    -0.206 F 
ATOM     94  C   UNL     1      -5.220   8.608 -19.996  1.00  0.00     0.022 A 
BRANCH  91  95
ATOM     95  S   UNL     1      -3.868   6.212 -20.439  1.00  0.00     0.124 S 
ATOM     96  O   UNL     1      -2.764   5.999 -19.508  1.00  0.00    -0.237 OA
ATOM     97  O   UNL     1      -4.738   5.064 -20.669  1.00  0.00    -0.237 OA
ATOM     98  O   UNL     1      -3.531   6.982 -21.635  1.00  0.00    -0.744 OA
ENDBRANCH  91  95
ENDBRANCH  65  88
ENDBRANCH  39  40
ENDBRANCH  32  34
ENDBRANCH  31  32
ENDBRANCH  30  31
ENDBRANCH  29  30
ENDBRANCH  28  29
ENDBRANCH  27  28
ENDBRANCH  26  27
ENDBRANCH  25  26
ENDBRANCH   1  25
TORSDOF 28
