REMARK SMILES COc1cc(OC)c([C@H]2CC(=O)Nc3c(C(=O)OCCOCCOCCOCCOC(=O)c4ccc(-c5c6nc(c(-c7cc(S(=O)(=O)[O-])ccc7F)c7ccc([nH]7)c(-c7cc(S(=O)(=O)[O-])ccc7F)c7nc(c(-c8cc(S(=O)(=O)[O-])ccc8F)c8ccc5[nH]8)C=C7)C=C6)cc4)cn(-c4ccccc4)c32)cc1OC
REMARK SMILES IDX 25 1 24 2 23 3 22 4 21 5 20 6 19 7 18 8 16 9 17 10 15 11
REMARK SMILES IDX 9 12 10 13 104 14 11 15 14 16 97 17 12 18 13 19 96 20 8 22
REMARK SMILES IDX 3 23 4 24 106 25 5 26 105 27 2 28 1 29 107 30 108 31 6 32
REMARK SMILES IDX 7 33 98 34 99 35 103 36 100 37 102 38 101 39 26 40 27 41
REMARK SMILES IDX 28 42 29 43 30 44 31 45 32 46 33 47 34 48 95 49 35 50 94 51
REMARK SMILES IDX 36 52 37 53 38 54 88 55 39 56 93 57 87 58 89 59 40 60 92 61
REMARK SMILES IDX 86 62 85 63 41 65 73 66 53 67 72 68 54 69 57 70 71 71 90 72
REMARK SMILES IDX 55 73 56 74 70 76 91 77 58 78 42 79 43 80 51 81 44 82 50 83
REMARK SMILES IDX 52 84 49 85 45 86 46 87 47 88 48 89 74 90 75 91 83 92 76 93
REMARK SMILES IDX 82 94 84 95 81 96 77 97 78 98 79 99 80 100 59 101 60 102
REMARK SMILES IDX 68 103 61 104 67 105 69 106 66 107 62 108 63 109 64 110
REMARK SMILES IDX 65 111
REMARK H PARENT 13 21 89 64 57 75
REMARK Flexibility Score: inf
ROOT
ATOM      1  C   UNL     1       8.411   9.515  -4.149  1.00  0.00     0.188 C 
ENDROOT
BRANCH   1   2
ATOM      2  O   UNL     1       7.527   8.715  -3.361  1.00  0.00    -0.377 OA
BRANCH   2   3
ATOM      3  C   UNL     1       6.242   9.270  -3.136  1.00  0.00     0.188 C 
BRANCH   3   4
ATOM      4  C   UNL     1       6.093   9.977  -1.770  1.00  0.00     0.188 C 
BRANCH   4   5
ATOM      5  O   UNL     1       7.190  10.192  -0.890  1.00  0.00    -0.376 OA
BRANCH   5   6
ATOM      6  C   UNL     1       8.274   9.290  -0.758  1.00  0.00     0.202 C 
BRANCH   6   7
ATOM      7  C   UNL     1       8.086   7.775  -0.569  1.00  0.00     0.261 C 
BRANCH   7   8
ATOM      8  O   UNL     1       6.861   7.210  -1.028  1.00  0.00    -0.460 OA
BRANCH   8   9
ATOM      9  C   UNL     1       5.813   7.316  -0.171  1.00  0.00     0.341 C 
ATOM     10  O   UNL     1       5.883   7.729   0.980  1.00  0.00    -0.246 OA
BRANCH   9  11
ATOM     11  C   UNL     1       4.557   7.005  -0.837  1.00  0.00     0.102 A 
ATOM     12  C   UNL     1       2.321   5.519  -3.433  1.00  0.00     0.082 C 
ATOM     13  C   UNL     1       3.429   5.146  -4.435  1.00  0.00     0.115 C 
ATOM     14  C   UNL     1       2.953   6.250  -2.260  1.00  0.00     0.055 A 
ATOM     15  C   UNL     1       4.713   4.664  -3.774  1.00  0.00     0.225 C 
ATOM     16  C   UNL     1       4.293   6.172  -1.949  1.00  0.00     0.078 A 
ATOM     17  N   UNL     1       2.350   7.053  -1.306  1.00  0.00    -0.317 N 
ATOM     18  O   UNL     1       5.400   3.767  -4.259  1.00  0.00    -0.275 OA
ATOM     19  N   UNL     1       5.133   5.352  -2.663  1.00  0.00    -0.324 N 
ATOM     20  C   UNL     1       3.345   7.605  -0.529  1.00  0.00     0.109 A 
ATOM     21  H   UNL     1       6.067   5.255  -2.368  1.00  0.00     0.170 HD
BRANCH  12  22
ATOM     22  C   UNL     1       1.168   6.239  -4.140  1.00  0.00     0.008 A 
ATOM     23  C   UNL     1      -1.010   7.861  -5.038  1.00  0.00     0.164 A 
ATOM     24  C   UNL     1      -1.104   6.469  -4.956  1.00  0.00     0.097 A 
ATOM     25  C   UNL     1       0.206   8.458  -4.731  1.00  0.00     0.161 A 
ATOM     26  C   UNL     1      -0.045   5.642  -4.525  1.00  0.00     0.126 A 
ATOM     27  C   UNL     1       1.289   7.645  -4.348  1.00  0.00     0.058 A 
BRANCH  23  28
ATOM     28  O   UNL     1      -2.194   8.475  -5.336  1.00  0.00    -0.493 OA
ATOM     29  C   UNL     1      -2.153   9.541  -6.275  1.00  0.00     0.278 C 
ENDBRANCH  23  28
BRANCH  25  30
ATOM     30  O   UNL     1       0.470   9.799  -4.794  1.00  0.00    -0.493 OA
ATOM     31  C   UNL     1      -0.352  10.612  -3.959  1.00  0.00     0.278 C 
ENDBRANCH  25  30
BRANCH  26  32
ATOM     32  O   UNL     1      -0.461   4.343  -4.532  1.00  0.00    -0.496 OA
ATOM     33  C   UNL     1       0.361   3.248  -4.196  1.00  0.00     0.278 C 
ENDBRANCH  26  32
ENDBRANCH  12  22
BRANCH  17  34
ATOM     34  C   UNL     1       0.972   7.290  -1.115  1.00  0.00     0.045 A 
ATOM     35  C   UNL     1       0.084   6.212  -1.125  1.00  0.00     0.026 A 
ATOM     36  C   UNL     1       0.505   8.601  -0.978  1.00  0.00     0.026 A 
ATOM     37  C   UNL     1      -1.286   6.450  -1.067  1.00  0.00     0.002 A 
ATOM     38  C   UNL     1      -0.870   8.830  -0.936  1.00  0.00     0.002 A 
ATOM     39  C   UNL     1      -1.763   7.758  -0.997  1.00  0.00     0.000 A 
ENDBRANCH  17  34
ENDBRANCH   9  11
ENDBRANCH   8   9
ENDBRANCH   7   8
ENDBRANCH   6   7
ENDBRANCH   5   6
ENDBRANCH   4   5
ENDBRANCH   3   4
ENDBRANCH   2   3
ENDBRANCH   1   2
BRANCH   1  40
ATOM     40  C   UNL     1       8.547  11.018  -3.792  1.00  0.00     0.188 C 
BRANCH  40  41
ATOM     41  O   UNL     1       7.315  11.655  -3.476  1.00  0.00    -0.376 OA
BRANCH  41  42
ATOM     42  C   UNL     1       6.729  12.622  -4.329  1.00  0.00     0.202 C 
BRANCH  42  43
ATOM     43  C   UNL     1       6.162  12.129  -5.654  1.00  0.00     0.261 C 
BRANCH  43  44
ATOM     44  O   UNL     1       6.976  11.168  -6.292  1.00  0.00    -0.460 OA
BRANCH  44  45
ATOM     45  C   UNL     1       8.134  11.645  -6.777  1.00  0.00     0.338 C 
ATOM     46  O   UNL     1       8.643  12.734  -6.535  1.00  0.00    -0.246 OA
BRANCH  45  47
ATOM     47  C   UNL     1       8.649  10.675  -7.739  1.00  0.00     0.060 A 
ATOM     48  C   UNL     1       9.869  10.987  -8.333  1.00  0.00     0.016 A 
ATOM     49  C   UNL     1       7.759   9.729  -8.276  1.00  0.00     0.016 A 
ATOM     50  C   UNL     1      10.056  10.579  -9.628  1.00  0.00     0.010 A 
ATOM     51  C   UNL     1       7.939   9.341  -9.574  1.00  0.00     0.010 A 
ATOM     52  C   UNL     1       9.026   9.870 -10.257  1.00  0.00    -0.014 A 
BRANCH  52  53
ATOM     53  C   UNL     1       9.140   9.633 -11.672  1.00  0.00     0.031 A 
ATOM     54  C   UNL     1      10.125   8.582 -11.969  1.00  0.00     0.074 A 
ATOM     55  C   UNL     1       8.378  10.270 -12.578  1.00  0.00     0.049 A 
ATOM     56  N   UNL     1      11.319   8.751 -12.424  1.00  0.00    -0.248 NA
ATOM     57  C   UNL     1       9.853   7.226 -11.469  1.00  0.00     0.031 C 
ATOM     58  C   UNL     1       7.223  11.143 -12.358  1.00  0.00     0.029 A 
ATOM     59  N   UNL     1       8.440  10.185 -13.929  1.00  0.00    -0.354 N 
ATOM     60  C   UNL     1      11.850   7.475 -12.522  1.00  0.00     0.074 A 
ATOM     61  C   UNL     1      11.027   6.637 -11.694  1.00  0.00     0.031 C 
ATOM     62  C   UNL     1       6.563  11.308 -13.530  1.00  0.00     0.029 A 
ATOM     63  C   UNL     1       7.318  10.664 -14.594  1.00  0.00     0.049 A 
ATOM     64  H   UNL     1       9.219   9.812 -14.402  1.00  0.00     0.167 HD
ATOM     65  C   UNL     1      12.731   7.172 -13.511  1.00  0.00     0.034 A 
ATOM     66  C   UNL     1       7.016  10.462 -15.906  1.00  0.00     0.034 A 
ATOM     67  C   UNL     1      13.304   8.377 -14.077  1.00  0.00     0.049 A 
ATOM     68  C   UNL     1       8.299  10.145 -16.592  1.00  0.00     0.074 A 
ATOM     69  C   UNL     1      14.024   9.436 -13.555  1.00  0.00     0.029 A 
ATOM     70  N   UNL     1      12.809   8.827 -15.284  1.00  0.00    -0.354 N 
ATOM     71  N   UNL     1       9.274  11.008 -16.706  1.00  0.00    -0.248 NA
ATOM     72  C   UNL     1       8.708   8.748 -16.675  1.00  0.00     0.031 C 
ATOM     73  C   UNL     1      13.512  10.592 -14.215  1.00  0.00     0.029 A 
ATOM     74  C   UNL     1      12.574  10.177 -15.163  1.00  0.00     0.049 A 
ATOM     75  H   UNL     1      12.652   8.280 -16.087  1.00  0.00     0.167 HD
ATOM     76  C   UNL     1      10.430  10.291 -16.429  1.00  0.00     0.074 A 
ATOM     77  C   UNL     1      10.029   8.886 -16.511  1.00  0.00     0.031 C 
ATOM     78  C   UNL     1      11.524  10.891 -15.870  1.00  0.00     0.034 A 
BRANCH  65  79
ATOM     79  C   UNL     1      12.765   5.840 -14.221  1.00  0.00     0.023 A 
ATOM     80  C   UNL     1      13.731   5.689 -15.229  1.00  0.00     0.031 A 
ATOM     81  C   UNL     1      11.758   4.846 -14.181  1.00  0.00     0.131 A 
ATOM     82  C   UNL     1      13.612   4.676 -16.194  1.00  0.00     0.055 A 
ATOM     83  C   UNL     1      11.684   3.798 -15.100  1.00  0.00     0.041 A 
ATOM     84  F   UNL     1      10.734   4.871 -13.320  1.00  0.00    -0.206 F 
ATOM     85  C   UNL     1      12.594   3.728 -16.137  1.00  0.00     0.022 A 
BRANCH  82  86
ATOM     86  S   UNL     1      14.706   4.739 -17.631  1.00  0.00     0.124 S 
ATOM     87  O   UNL     1      14.475   6.096 -18.114  1.00  0.00    -0.237 OA
ATOM     88  O   UNL     1      16.008   4.483 -17.025  1.00  0.00    -0.237 OA
ATOM     89  O   UNL     1      14.196   3.674 -18.490  1.00  0.00    -0.744 OA
ENDBRANCH  82  86
ENDBRANCH  65  79
BRANCH  66  90
ATOM     90  C   UNL     1       5.670  10.144 -16.470  1.00  0.00     0.023 A 
ATOM     91  C   UNL     1       5.358  10.259 -17.843  1.00  0.00     0.031 A 
ATOM     92  C   UNL     1       4.716   9.480 -15.663  1.00  0.00     0.131 A 
ATOM     93  C   UNL     1       4.143   9.728 -18.347  1.00  0.00     0.055 A 
ATOM     94  C   UNL     1       3.521   8.961 -16.165  1.00  0.00     0.041 A 
ATOM     95  F   UNL     1       4.951   9.235 -14.364  1.00  0.00    -0.206 F 
ATOM     96  C   UNL     1       3.232   9.075 -17.513  1.00  0.00     0.022 A 
BRANCH  93  97
ATOM     97  S   UNL     1       3.757   9.806 -20.129  1.00  0.00     0.124 S 
ATOM     98  O   UNL     1       3.563  11.235 -20.343  1.00  0.00    -0.237 OA
ATOM     99  O   UNL     1       4.944   9.213 -20.734  1.00  0.00    -0.237 OA
ATOM    100  O   UNL     1       2.542   8.998 -20.252  1.00  0.00    -0.744 OA
ENDBRANCH  93  97
ENDBRANCH  66  90
BRANCH  78 101
ATOM    101  C   UNL     1      11.557  12.409 -15.801  1.00  0.00     0.023 A 
ATOM    102  C   UNL     1      10.593  13.216 -15.150  1.00  0.00     0.031 A 
ATOM    103  C   UNL     1      12.693  13.052 -16.323  1.00  0.00     0.131 A 
ATOM    104  C   UNL     1      10.784  14.610 -15.057  1.00  0.00     0.055 A 
ATOM    105  C   UNL     1      12.890  14.428 -16.208  1.00  0.00     0.041 A 
ATOM    106  F   UNL     1      13.659  12.342 -16.929  1.00  0.00    -0.206 F 
ATOM    107  C   UNL     1      11.932  15.214 -15.579  1.00  0.00     0.022 A 
BRANCH 104 108
ATOM    108  S   UNL     1       9.531  15.676 -14.268  1.00  0.00     0.124 S 
ATOM    109  O   UNL     1       8.279  15.237 -14.872  1.00  0.00    -0.237 OA
ATOM    110  O   UNL     1       9.701  15.368 -12.850  1.00  0.00    -0.237 OA
ATOM    111  O   UNL     1       9.948  17.028 -14.647  1.00  0.00    -0.744 OA
ENDBRANCH 104 108
ENDBRANCH  78 101
ENDBRANCH  52  53
ENDBRANCH  45  47
ENDBRANCH  44  45
ENDBRANCH  43  44
ENDBRANCH  42  43
ENDBRANCH  41  42
ENDBRANCH  40  41
ENDBRANCH   1  40
TORSDOF 28
