REMARK SMILES CC1=C(CC(=O)OCCOCCOCCOCCOC(=O)c2ccc(-c3c4nc(c(-c5cc(S(=O)(=O)[O-])ccc5F)c5ccc([nH]5)c(-c5cc(S(=O)(=O)[O-])ccc5F)c5nc(c(-c6cc(S(=O)(=O)[O-])ccc6F)c6ccc3[nH]6)C=C5)C=C4)cc2)c2cc(F)ccc2/C1=C\c1ccc([S@@+](C)[O-])cc1
REMARK SMILES IDX 13 1 12 2 11 3 10 4 9 5 8 6 7 7 5 8 6 9 4 10 3 11 1 12 2 13
REMARK SMILES IDX 92 14 85 15 91 16 93 17 86 18 90 19 87 20 89 21 88 22 94 23
REMARK SMILES IDX 95 24 102 25 96 26 101 27 97 28 98 29 99 30 100 31 14 32
REMARK SMILES IDX 15 33 16 34 17 35 18 36 19 37 20 38 21 39 22 40 23 41 84 42
REMARK SMILES IDX 24 43 83 44 25 45 26 46 27 47 77 48 28 49 82 50 76 51 78 52
REMARK SMILES IDX 29 53 81 54 75 55 74 56 30 58 62 59 42 60 61 61 43 62 46 63
REMARK SMILES IDX 60 64 79 65 44 66 45 67 59 69 80 70 47 71 31 72 32 73 40 74
REMARK SMILES IDX 33 75 39 76 41 77 38 78 34 79 35 80 36 81 37 82 63 83 64 84
REMARK SMILES IDX 72 85 65 86 71 87 73 88 70 89 66 90 67 91 68 92 69 93 48 94
REMARK SMILES IDX 49 95 57 96 50 97 56 98 58 99 55 100 51 101 52 102 53 103
REMARK SMILES IDX 54 104
REMARK H PARENT 78 57 46 68
REMARK Flexibility Score: inf
ROOT
ATOM      1  O   UNL     1      -2.885  -3.164  -2.759  1.00  0.00    -0.377 OA
ENDROOT
BRANCH   1   2
ATOM      2  C   UNL     1      -1.557  -3.657  -2.786  1.00  0.00     0.188 C 
BRANCH   2   3
ATOM      3  C   UNL     1      -1.143  -5.096  -2.421  1.00  0.00     0.188 C 
BRANCH   3   4
ATOM      4  O   UNL     1      -2.038  -5.797  -1.596  1.00  0.00    -0.376 OA
BRANCH   4   5
ATOM      5  C   UNL     1      -1.985  -5.685  -0.190  1.00  0.00     0.202 C 
BRANCH   5   6
ATOM      6  C   UNL     1      -1.351  -4.519   0.595  1.00  0.00     0.261 C 
BRANCH   6   7
ATOM      7  O   UNL     1      -0.500  -3.587  -0.093  1.00  0.00    -0.463 OA
BRANCH   7   8
ATOM      8  C   UNL     1       0.838  -3.769  -0.006  1.00  0.00     0.310 C 
ATOM      9  O   UNL     1       1.358  -4.723   0.565  1.00  0.00    -0.252 OA
BRANCH   8  10
ATOM     10  C   UNL     1       1.688  -2.674  -0.674  1.00  0.00     0.159 C 
BRANCH  10  11
ATOM     11  C   UNL     1       1.091  -1.587  -1.527  1.00  0.00    -0.025 C 
ATOM     12  C   UNL     1       0.609   0.143   0.253  1.00  0.00     0.045 C 
ATOM     13  C   UNL     1       0.637  -0.365  -1.150  1.00  0.00    -0.039 C 
ATOM     14  C   UNL     1       0.195   0.406  -2.332  1.00  0.00    -0.014 C 
ATOM     15  C   UNL     1       1.048  -1.628  -3.006  1.00  0.00    -0.011 A 
ATOM     16  C   UNL     1       0.471  -0.445  -3.508  1.00  0.00    -0.010 A 
ATOM     17  C   UNL     1      -0.353   1.640  -2.311  1.00  0.00     0.017 C 
ATOM     18  C   UNL     1       1.448  -2.637  -3.877  1.00  0.00     0.048 A 
ATOM     19  C   UNL     1       0.272  -0.280  -4.875  1.00  0.00     0.012 A 
ATOM     20  C   UNL     1       1.225  -2.463  -5.243  1.00  0.00     0.123 A 
ATOM     21  C   UNL     1       0.641  -1.303  -5.747  1.00  0.00     0.040 A 
ATOM     22  F   UNL     1       1.552  -3.446  -6.092  1.00  0.00    -0.207 F 
BRANCH  17  23
ATOM     23  C   UNL     1      -0.817   2.384  -3.492  1.00  0.00    -0.025 A 
ATOM     24  C   UNL     1      -2.082   2.122  -4.035  1.00  0.00     0.013 A 
ATOM     25  C   UNL     1       0.052   3.245  -4.169  1.00  0.00     0.013 A 
ATOM     26  C   UNL     1      -2.425   2.616  -5.300  1.00  0.00     0.061 A 
ATOM     27  C   UNL     1      -0.296   3.747  -5.429  1.00  0.00     0.061 A 
ATOM     28  C   UNL     1      -1.517   3.400  -6.023  1.00  0.00     0.152 A 
BRANCH  28  29
ATOM     29  S   UNL     1      -1.802   3.773  -7.774  1.00  0.00    -0.018 S 
ATOM     30  C   UNL     1      -3.415   4.570  -7.672  1.00  0.00     0.346 C 
ATOM     31  O   UNL     1      -0.745   4.854  -8.201  1.00  0.00    -0.612 OA
ENDBRANCH  28  29
ENDBRANCH  17  23
ENDBRANCH  10  11
ENDBRANCH   8  10
ENDBRANCH   7   8
ENDBRANCH   6   7
ENDBRANCH   5   6
ENDBRANCH   4   5
ENDBRANCH   3   4
ENDBRANCH   2   3
ENDBRANCH   1   2
BRANCH   1  32
ATOM     32  C   UNL     1      -3.957  -4.072  -2.657  1.00  0.00     0.188 C 
BRANCH  32  33
ATOM     33  C   UNL     1      -4.116  -5.073  -3.807  1.00  0.00     0.188 C 
BRANCH  33  34
ATOM     34  O   UNL     1      -2.973  -5.177  -4.652  1.00  0.00    -0.376 OA
BRANCH  34  35
ATOM     35  C   UNL     1      -3.103  -4.622  -5.956  1.00  0.00     0.202 C 
BRANCH  35  36
ATOM     36  C   UNL     1      -3.045  -3.091  -6.052  1.00  0.00     0.261 C 
BRANCH  36  37
ATOM     37  O   UNL     1      -4.050  -2.374  -5.325  1.00  0.00    -0.460 OA
BRANCH  37  38
ATOM     38  C   UNL     1      -5.343  -2.603  -5.635  1.00  0.00     0.338 C 
ATOM     39  O   UNL     1      -5.773  -3.328  -6.515  1.00  0.00    -0.246 OA
BRANCH  38  40
ATOM     40  C   UNL     1      -6.147  -1.961  -4.576  1.00  0.00     0.060 A 
ATOM     41  C   UNL     1      -5.907  -0.631  -4.218  1.00  0.00     0.016 A 
ATOM     42  C   UNL     1      -7.098  -2.724  -3.887  1.00  0.00     0.016 A 
ATOM     43  C   UNL     1      -6.630  -0.058  -3.173  1.00  0.00     0.010 A 
ATOM     44  C   UNL     1      -7.807  -2.156  -2.828  1.00  0.00     0.010 A 
ATOM     45  C   UNL     1      -7.596  -0.812  -2.483  1.00  0.00    -0.014 A 
BRANCH  45  46
ATOM     46  C   UNL     1      -8.563  -0.121  -1.600  1.00  0.00     0.031 A 
ATOM     47  C   UNL     1      -8.450  -0.123  -0.109  1.00  0.00     0.074 A 
ATOM     48  C   UNL     1      -9.586   0.506  -2.211  1.00  0.00     0.049 A 
ATOM     49  N   UNL     1      -9.184   0.519   0.762  1.00  0.00    -0.248 NA
ATOM     50  C   UNL     1      -7.395  -0.955   0.484  1.00  0.00     0.031 C 
ATOM     51  C   UNL     1      -9.797   0.517  -3.660  1.00  0.00     0.029 A 
ATOM     52  N   UNL     1     -10.626   1.243  -1.713  1.00  0.00    -0.354 N 
ATOM     53  C   UNL     1      -8.671   0.192   2.011  1.00  0.00     0.074 A 
ATOM     54  C   UNL     1      -7.593  -0.749   1.782  1.00  0.00     0.031 C 
ATOM     55  C   UNL     1     -10.886   1.243  -3.936  1.00  0.00     0.029 A 
ATOM     56  C   UNL     1     -11.467   1.725  -2.687  1.00  0.00     0.049 A 
ATOM     57  H   UNL     1     -10.759   1.411  -0.752  1.00  0.00     0.167 HD
ATOM     58  C   UNL     1      -9.063   0.655   3.225  1.00  0.00     0.034 A 
ATOM     59  C   UNL     1     -12.579   2.479  -2.592  1.00  0.00     0.034 A 
ATOM     60  C   UNL     1     -10.165   1.572   3.415  1.00  0.00     0.049 A 
ATOM     61  C   UNL     1     -12.999   2.969  -1.235  1.00  0.00     0.074 A 
ATOM     62  C   UNL     1     -10.608   2.145   4.595  1.00  0.00     0.029 A 
ATOM     63  N   UNL     1     -11.007   2.038   2.412  1.00  0.00    -0.354 N 
ATOM     64  N   UNL     1     -12.430   2.753  -0.071  1.00  0.00    -0.248 NA
ATOM     65  C   UNL     1     -14.193   3.820  -1.173  1.00  0.00     0.031 C 
ATOM     66  C   UNL     1     -11.756   2.890   4.319  1.00  0.00     0.029 A 
ATOM     67  C   UNL     1     -11.989   2.856   2.953  1.00  0.00     0.049 A 
ATOM     68  H   UNL     1     -10.920   1.819   1.456  1.00  0.00     0.167 HD
ATOM     69  C   UNL     1     -13.190   3.450   0.862  1.00  0.00     0.074 A 
ATOM     70  C   UNL     1     -14.235   4.126   0.117  1.00  0.00     0.031 C 
ATOM     71  C   UNL     1     -13.039   3.516   2.209  1.00  0.00     0.034 A 
BRANCH  58  72
ATOM     72  C   UNL     1      -8.298   0.217   4.454  1.00  0.00     0.023 A 
ATOM     73  C   UNL     1      -8.954  -0.464   5.499  1.00  0.00     0.031 A 
ATOM     74  C   UNL     1      -6.962   0.607   4.658  1.00  0.00     0.131 A 
ATOM     75  C   UNL     1      -8.285  -0.701   6.708  1.00  0.00     0.055 A 
ATOM     76  C   UNL     1      -6.286   0.331   5.848  1.00  0.00     0.041 A 
ATOM     77  F   UNL     1      -6.290   1.268   3.700  1.00  0.00    -0.206 F 
ATOM     78  C   UNL     1      -6.953  -0.314   6.885  1.00  0.00     0.022 A 
BRANCH  75  79
ATOM     79  S   UNL     1      -9.133  -1.454   8.125  1.00  0.00     0.124 S 
ATOM     80  O   UNL     1      -8.329  -2.653   8.350  1.00  0.00    -0.237 OA
ATOM     81  O   UNL     1      -9.004  -0.416   9.144  1.00  0.00    -0.237 OA
ATOM     82  O   UNL     1     -10.486  -1.695   7.636  1.00  0.00    -0.744 OA
ENDBRANCH  75  79
ENDBRANCH  58  72
BRANCH  59  83
ATOM     83  C   UNL     1     -13.282   2.871  -3.847  1.00  0.00     0.023 A 
ATOM     84  C   UNL     1     -13.828   1.894  -4.700  1.00  0.00     0.031 A 
ATOM     85  C   UNL     1     -13.268   4.204  -4.287  1.00  0.00     0.131 A 
ATOM     86  C   UNL     1     -14.255   2.254  -5.984  1.00  0.00     0.055 A 
ATOM     87  C   UNL     1     -13.769   4.569  -5.537  1.00  0.00     0.041 A 
ATOM     88  F   UNL     1     -12.736   5.165  -3.517  1.00  0.00    -0.206 F 
ATOM     89  C   UNL     1     -14.246   3.588  -6.402  1.00  0.00     0.022 A 
BRANCH  86  90
ATOM     90  S   UNL     1     -14.680   0.985  -7.211  1.00  0.00     0.124 S 
ATOM     91  O   UNL     1     -16.056   1.335  -7.548  1.00  0.00    -0.237 OA
ATOM     92  O   UNL     1     -13.689   1.240  -8.254  1.00  0.00    -0.237 OA
ATOM     93  O   UNL     1     -14.507  -0.268  -6.485  1.00  0.00    -0.744 OA
ENDBRANCH  86  90
ENDBRANCH  59  83
BRANCH  71  94
ATOM     94  C   UNL     1     -14.043   4.327   2.998  1.00  0.00     0.023 A 
ATOM     95  C   UNL     1     -13.621   5.433   3.761  1.00  0.00     0.031 A 
ATOM     96  C   UNL     1     -15.389   3.932   3.094  1.00  0.00     0.131 A 
ATOM     97  C   UNL     1     -14.525   6.079   4.613  1.00  0.00     0.055 A 
ATOM     98  C   UNL     1     -16.300   4.613   3.902  1.00  0.00     0.041 A 
ATOM     99  F   UNL     1     -15.841   2.878   2.396  1.00  0.00    -0.206 F 
ATOM    100  C   UNL     1     -15.865   5.684   4.678  1.00  0.00     0.022 A 
BRANCH  97 101
ATOM    101  S   UNL     1     -13.980   7.397   5.734  1.00  0.00     0.124 S 
ATOM    102  O   UNL     1     -14.772   8.534   5.271  1.00  0.00    -0.237 OA
ATOM    103  O   UNL     1     -14.359   6.865   7.041  1.00  0.00    -0.237 OA
ATOM    104  O   UNL     1     -12.545   7.497   5.490  1.00  0.00    -0.744 OA
ENDBRANCH  97 101
ENDBRANCH  71  94
ENDBRANCH  45  46
ENDBRANCH  38  40
ENDBRANCH  37  38
ENDBRANCH  36  37
ENDBRANCH  35  36
ENDBRANCH  34  35
ENDBRANCH  33  34
ENDBRANCH  32  33
ENDBRANCH   1  32
TORSDOF 26
