REMARK SMILES O=C(CN1C(=O)S/C(=C\c2cccn2-c2cccc(C(=O)OCCOCCOCCOCCOC(=O)c3ccc(-c4c5nc(c(-c6cc(S(=O)(=O)[O-])ccc6F)c6ccc([nH]6)c(-c6cc(S(=O)(=O)[O-])ccc6F)c6nc(c(-c7cc(S(=O)(=O)[O-])ccc7F)c7ccc4[nH]7)C=C6)C=C5)cc3)c2)C1=O)Nc1ccc(Cl)cc1
REMARK SMILES IDX 27 1 26 2 25 3 24 4 23 5 22 6 20 7 21 8 19 9 15 10 16 11
REMARK SMILES IDX 100 12 17 13 18 14 14 15 10 16 11 17 12 18 13 19 9 20 4 21
REMARK SMILES IDX 5 22 101 23 6 24 7 25 8 26 102 27 3 28 2 29 1 30 103 31
REMARK SMILES IDX 104 33 105 34 110 35 106 36 109 37 107 38 108 39 28 40 29 41
REMARK SMILES IDX 30 42 31 43 32 44 33 45 34 46 35 47 36 48 37 49 38 50 99 51
REMARK SMILES IDX 39 52 98 53 40 54 41 55 42 56 92 57 43 58 97 59 91 60 93 61
REMARK SMILES IDX 44 62 96 63 90 64 89 65 45 67 77 68 57 69 76 70 58 71 61 72
REMARK SMILES IDX 75 73 94 74 59 75 60 76 74 78 95 79 62 80 46 81 47 82 55 83
REMARK SMILES IDX 48 84 54 85 56 86 53 87 49 88 50 89 51 90 52 91 78 92 79 93
REMARK SMILES IDX 87 94 80 95 86 96 88 97 85 98 81 99 82 100 83 101 84 102
REMARK SMILES IDX 63 103 64 104 72 105 65 106 71 107 73 108 70 109 66 110
REMARK SMILES IDX 67 111 68 112 69 113
REMARK H PARENT 103 32 93 66 61 77
REMARK Flexibility Score: inf
ROOT
ATOM      1  C   UNL     1       3.004  -6.016  -5.809  1.00  0.00     0.188 C 
ENDROOT
BRANCH   1   2
ATOM      2  C   UNL     1       1.483  -6.125  -6.040  1.00  0.00     0.188 C 
BRANCH   2   3
ATOM      3  O   UNL     1       0.853  -4.985  -6.588  1.00  0.00    -0.376 OA
BRANCH   3   4
ATOM      4  C   UNL     1       0.607  -3.811  -5.837  1.00  0.00     0.202 C 
BRANCH   4   5
ATOM      5  C   UNL     1       1.112  -3.500  -4.413  1.00  0.00     0.261 C 
BRANCH   5   6
ATOM      6  O   UNL     1       1.695  -4.551  -3.645  1.00  0.00    -0.460 OA
BRANCH   6   7
ATOM      7  C   UNL     1       0.866  -5.397  -2.998  1.00  0.00     0.338 C 
ATOM      8  O   UNL     1      -0.349  -5.353  -2.959  1.00  0.00    -0.246 OA
BRANCH   7   9
ATOM      9  C   UNL     1       1.696  -6.539  -2.531  1.00  0.00     0.062 A 
ATOM     10  C   UNL     1       3.783  -7.424  -1.655  1.00  0.00     0.046 A 
ATOM     11  C   UNL     1       3.341  -8.722  -1.949  1.00  0.00     0.026 A 
ATOM     12  C   UNL     1       2.971  -6.332  -1.988  1.00  0.00     0.042 A 
ATOM     13  C   UNL     1       2.072  -8.926  -2.500  1.00  0.00     0.003 A 
ATOM     14  C   UNL     1       1.240  -7.839  -2.770  1.00  0.00     0.016 A 
BRANCH  10  15
ATOM     15  N   UNL     1       5.051  -7.228  -1.023  1.00  0.00    -0.317 N 
ATOM     16  C   UNL     1       5.428  -6.219  -0.129  1.00  0.00     0.047 A 
ATOM     17  C   UNL     1       6.761  -6.411   0.193  1.00  0.00     0.028 A 
ATOM     18  C   UNL     1       7.213  -7.564  -0.477  1.00  0.00     0.020 A 
ATOM     19  C   UNL     1       6.147  -8.059  -1.192  1.00  0.00     0.092 A 
BRANCH  16  20
ATOM     20  C   UNL     1       4.481  -5.291   0.388  1.00  0.00     0.048 C 
ATOM     21  N   UNL     1       3.964  -1.739   0.661  1.00  0.00    -0.259 N 
ATOM     22  C   UNL     1       5.137  -1.527  -0.018  1.00  0.00     0.294 C 
ATOM     23  C   UNL     1       3.581  -3.043   0.847  1.00  0.00     0.268 C 
ATOM     24  O   UNL     1       5.537  -0.459  -0.413  1.00  0.00    -0.261 OA
ATOM     25  S   UNL     1       5.921  -3.052  -0.354  1.00  0.00    -0.022 SA
ATOM     26  C   UNL     1       4.632  -3.962   0.329  1.00  0.00     0.085 C 
ATOM     27  O   UNL     1       2.537  -3.420   1.359  1.00  0.00    -0.268 OA
BRANCH  21  28
ATOM     28  C   UNL     1       3.171  -0.628   1.156  1.00  0.00     0.230 C 
BRANCH  28  29
ATOM     29  C   UNL     1       2.223   0.003   0.131  1.00  0.00     0.244 C 
ATOM     30  O   UNL     1       1.078   0.300   0.468  1.00  0.00    -0.273 OA
ATOM     31  N   UNL     1       2.809   0.331  -1.081  1.00  0.00    -0.325 N 
ATOM     32  H   UNL     1       3.741   0.044  -1.215  1.00  0.00     0.169 HD
BRANCH  31  33
ATOM     33  C   UNL     1       2.203   1.033  -2.144  1.00  0.00     0.041 A 
ATOM     34  C   UNL     1       2.808   0.949  -3.405  1.00  0.00     0.027 A 
ATOM     35  C   UNL     1       1.052   1.812  -1.995  1.00  0.00     0.027 A 
ATOM     36  C   UNL     1       2.237   1.590  -4.510  1.00  0.00     0.022 A 
ATOM     37  C   UNL     1       0.496   2.476  -3.093  1.00  0.00     0.022 A 
ATOM     38  C   UNL     1       1.082   2.350  -4.349  1.00  0.00     0.041 A 
ATOM     39  Cl  UNL     1       0.372   3.135  -5.705  1.00  0.00    -0.084 Cl
ENDBRANCH  31  33
ENDBRANCH  28  29
ENDBRANCH  21  28
ENDBRANCH  16  20
ENDBRANCH  10  15
ENDBRANCH   7   9
ENDBRANCH   6   7
ENDBRANCH   5   6
ENDBRANCH   4   5
ENDBRANCH   3   4
ENDBRANCH   2   3
ENDBRANCH   1   2
BRANCH   1  40
ATOM     40  O   UNL     1       3.481  -4.678  -5.857  1.00  0.00    -0.377 OA
BRANCH  40  41
ATOM     41  C   UNL     1       3.914  -4.206  -7.136  1.00  0.00     0.188 C 
BRANCH  41  42
ATOM     42  C   UNL     1       3.125  -4.596  -8.410  1.00  0.00     0.188 C 
BRANCH  42  43
ATOM     43  O   UNL     1       2.694  -5.952  -8.454  1.00  0.00    -0.376 OA
BRANCH  43  44
ATOM     44  C   UNL     1       3.326  -6.904  -9.287  1.00  0.00     0.202 C 
BRANCH  44  45
ATOM     45  C   UNL     1       4.747  -7.299  -8.881  1.00  0.00     0.261 C 
BRANCH  45  46
ATOM     46  O   UNL     1       5.661  -6.215  -8.781  1.00  0.00    -0.460 OA
BRANCH  46  47
ATOM     47  C   UNL     1       5.774  -5.515  -9.923  1.00  0.00     0.338 C 
ATOM     48  O   UNL     1       5.057  -5.543 -10.909  1.00  0.00    -0.246 OA
BRANCH  47  49
ATOM     49  C   UNL     1       7.010  -4.769  -9.924  1.00  0.00     0.060 A 
ATOM     50  C   UNL     1       7.006  -3.592 -10.673  1.00  0.00     0.016 A 
ATOM     51  C   UNL     1       8.166  -5.484  -9.595  1.00  0.00     0.016 A 
ATOM     52  C   UNL     1       8.187  -3.205 -11.250  1.00  0.00     0.010 A 
ATOM     53  C   UNL     1       9.335  -5.123 -10.215  1.00  0.00     0.010 A 
ATOM     54  C   UNL     1       9.320  -4.009 -11.063  1.00  0.00    -0.014 A 
BRANCH  54  55
ATOM     55  C   UNL     1      10.570  -3.514 -11.629  1.00  0.00     0.031 A 
ATOM     56  C   UNL     1      11.186  -2.513 -10.623  1.00  0.00     0.074 A 
ATOM     57  C   UNL     1      10.856  -3.960 -12.896  1.00  0.00     0.049 A 
ATOM     58  N   UNL     1      11.889  -1.448 -10.837  1.00  0.00    -0.248 NA
ATOM     59  C   UNL     1      10.874  -2.635  -9.160  1.00  0.00     0.031 C 
ATOM     60  C   UNL     1      10.077  -4.973 -13.664  1.00  0.00     0.029 A 
ATOM     61  N   UNL     1      11.843  -3.664 -13.809  1.00  0.00    -0.354 N 
ATOM     62  C   UNL     1      12.343  -0.983  -9.580  1.00  0.00     0.074 A 
ATOM     63  C   UNL     1      11.543  -1.630  -8.595  1.00  0.00     0.031 C 
ATOM     64  C   UNL     1      10.563  -5.127 -14.922  1.00  0.00     0.029 A 
ATOM     65  C   UNL     1      11.717  -4.267 -15.104  1.00  0.00     0.049 A 
ATOM     66  H   UNL     1      12.595  -3.071 -13.585  1.00  0.00     0.167 HD
ATOM     67  C   UNL     1      13.485  -0.249  -9.439  1.00  0.00     0.034 A 
ATOM     68  C   UNL     1      12.479  -4.040 -16.229  1.00  0.00     0.034 A 
ATOM     69  C   UNL     1      14.038  -0.007 -10.730  1.00  0.00     0.049 A 
ATOM     70  C   UNL     1      13.568  -3.199 -15.710  1.00  0.00     0.074 A 
ATOM     71  C   UNL     1      13.598   0.740 -11.790  1.00  0.00     0.029 A 
ATOM     72  N   UNL     1      14.987  -0.906 -11.166  1.00  0.00    -0.354 N 
ATOM     73  N   UNL     1      14.555  -3.627 -14.985  1.00  0.00    -0.248 NA
ATOM     74  C   UNL     1      13.502  -1.749 -15.943  1.00  0.00     0.031 C 
ATOM     75  C   UNL     1      13.882  -0.098 -12.885  1.00  0.00     0.029 A 
ATOM     76  C   UNL     1      14.723  -1.147 -12.488  1.00  0.00     0.049 A 
ATOM     77  H   UNL     1      15.714  -1.299 -10.631  1.00  0.00     0.167 HD
ATOM     78  C   UNL     1      15.029  -2.470 -14.426  1.00  0.00     0.074 A 
ATOM     79  C   UNL     1      14.611  -1.392 -15.300  1.00  0.00     0.031 C 
ATOM     80  C   UNL     1      15.180  -2.389 -13.078  1.00  0.00     0.034 A 
BRANCH  67  81
ATOM     81  C   UNL     1      14.368   0.069  -8.263  1.00  0.00     0.023 A 
ATOM     82  C   UNL     1      15.424   0.974  -8.532  1.00  0.00     0.031 A 
ATOM     83  C   UNL     1      14.472  -0.674  -7.082  1.00  0.00     0.131 A 
ATOM     84  C   UNL     1      16.598   0.973  -7.774  1.00  0.00     0.055 A 
ATOM     85  C   UNL     1      15.614  -0.605  -6.268  1.00  0.00     0.041 A 
ATOM     86  F   UNL     1      13.531  -1.554  -6.714  1.00  0.00    -0.206 F 
ATOM     87  C   UNL     1      16.704   0.183  -6.638  1.00  0.00     0.022 A 
BRANCH  84  88
ATOM     88  S   UNL     1      18.033   1.857  -8.447  1.00  0.00     0.124 S 
ATOM     89  O   UNL     1      18.194   1.224  -9.752  1.00  0.00    -0.237 OA
ATOM     90  O   UNL     1      17.561   3.238  -8.461  1.00  0.00    -0.237 OA
ATOM     91  O   UNL     1      19.089   1.571  -7.479  1.00  0.00    -0.744 OA
ENDBRANCH  84  88
ENDBRANCH  67  81
BRANCH  68  92
ATOM     92  C   UNL     1      12.557  -4.302 -17.742  1.00  0.00     0.023 A 
ATOM     93  C   UNL     1      11.792  -5.192 -18.521  1.00  0.00     0.031 A 
ATOM     94  C   UNL     1      13.490  -3.523 -18.514  1.00  0.00     0.131 A 
ATOM     95  C   UNL     1      11.930  -5.200 -19.951  1.00  0.00     0.055 A 
ATOM     96  C   UNL     1      13.543  -3.461 -19.904  1.00  0.00     0.041 A 
ATOM     97  F   UNL     1      14.440  -2.766 -17.951  1.00  0.00    -0.206 F 
ATOM     98  C   UNL     1      12.746  -4.297 -20.637  1.00  0.00     0.022 A 
BRANCH  95  99
ATOM     99  S   UNL     1      11.058  -6.403 -21.009  1.00  0.00     0.124 S 
ATOM    100  O   UNL     1      11.980  -7.534 -21.003  1.00  0.00    -0.237 OA
ATOM    101  O   UNL     1       9.793  -6.597 -20.310  1.00  0.00    -0.237 OA
ATOM    102  O   UNL     1      10.948  -5.706 -22.292  1.00  0.00    -0.744 OA
ENDBRANCH  95  99
ENDBRANCH  68  92
BRANCH  80 103
ATOM    103  C   UNL     1      15.401  -3.723 -12.365  1.00  0.00     0.023 A 
ATOM    104  C   UNL     1      16.449  -4.576 -12.764  1.00  0.00     0.031 A 
ATOM    105  C   UNL     1      14.549  -4.235 -11.370  1.00  0.00     0.131 A 
ATOM    106  C   UNL     1      16.595  -5.864 -12.209  1.00  0.00     0.055 A 
ATOM    107  C   UNL     1      14.684  -5.519 -10.819  1.00  0.00     0.041 A 
ATOM    108  F   UNL     1      13.542  -3.509 -10.893  1.00  0.00    -0.206 F 
ATOM    109  C   UNL     1      15.713  -6.344 -11.241  1.00  0.00     0.022 A 
BRANCH 106 110
ATOM    110  S   UNL     1      17.983  -6.908 -12.736  1.00  0.00     0.124 S 
ATOM    111  O   UNL     1      17.630  -7.242 -14.111  1.00  0.00    -0.237 OA
ATOM    112  O   UNL     1      19.127  -6.018 -12.566  1.00  0.00    -0.237 OA
ATOM    113  O   UNL     1      17.941  -8.032 -11.799  1.00  0.00    -0.744 OA
ENDBRANCH 106 110
ENDBRANCH  80 103
ENDBRANCH  54  55
ENDBRANCH  47  49
ENDBRANCH  46  47
ENDBRANCH  45  46
ENDBRANCH  44  45
ENDBRANCH  43  44
ENDBRANCH  42  43
ENDBRANCH  41  42
ENDBRANCH  40  41
ENDBRANCH   1  40
TORSDOF 28
