REMARK SMILES O=C(/C=C/C(=O)OCCOCCOCCOCCOC(=O)c1ccc(-c2c3nc(c(-c4cc(S(=O)(=O)[O-])ccc4F)c4ccc([nH]4)c(-c4cc(S(=O)(=O)[O-])ccc4F)c4nc(c(-c5cc(S(=O)(=O)[O-])ccc5F)c5ccc2[nH]5)C=C4)C=C3)cc1)NCc1ccc(-c2cccs2)s1
REMARK SMILES IDX 12 1 11 2 10 3 9 4 8 5 7 6 5 7 6 8 4 9 3 10 2 11 1 12 85 13
REMARK SMILES IDX 86 15 87 16 88 17 96 18 89 19 90 20 91 21 92 22 95 23 93 24
REMARK SMILES IDX 94 25 13 26 14 27 15 28 16 29 17 30 18 31 19 32 20 33 21 34
REMARK SMILES IDX 22 35 23 36 84 37 24 38 83 39 25 40 26 41 27 42 77 43 28 44
REMARK SMILES IDX 82 45 76 46 78 47 29 48 81 49 75 50 74 51 30 53 62 54 42 55
REMARK SMILES IDX 61 56 43 57 46 58 60 59 79 60 44 61 45 62 59 64 80 65 47 66
REMARK SMILES IDX 31 67 32 68 40 69 33 70 39 71 41 72 38 73 34 74 35 75 36 76
REMARK SMILES IDX 37 77 63 78 64 79 72 80 65 81 71 82 73 83 70 84 66 85 67 86
REMARK SMILES IDX 68 87 69 88 48 89 49 90 57 91 50 92 56 93 58 94 55 95 51 96
REMARK SMILES IDX 52 97 53 98 54 99
REMARK H PARENT 85 14 78 52 46 63
REMARK Flexibility Score: inf
ROOT
ATOM      1  C   UNL     1       5.257  -2.320  -2.347  1.00  0.00     0.188 C 
ENDROOT
BRANCH   1   2
ATOM      2  C   UNL     1       6.548  -2.455  -1.521  1.00  0.00     0.188 C 
BRANCH   2   3
ATOM      3  O   UNL     1       7.133  -3.739  -1.469  1.00  0.00    -0.376 OA
BRANCH   3   4
ATOM      4  C   UNL     1       6.645  -4.781  -0.640  1.00  0.00     0.202 C 
BRANCH   4   5
ATOM      5  C   UNL     1       5.331  -4.795   0.166  1.00  0.00     0.261 C 
BRANCH   5   6
ATOM      6  O   UNL     1       4.561  -3.599   0.225  1.00  0.00    -0.460 OA
BRANCH   6   7
ATOM      7  C   UNL     1       4.839  -2.734   1.216  1.00  0.00     0.331 C 
ATOM      8  O   UNL     1       5.704  -2.852   2.069  1.00  0.00    -0.247 OA
BRANCH   7   9
ATOM      9  C   UNL     1       4.065  -1.487   1.042  1.00  0.00     0.099 C 
ATOM     10  C   UNL     1       2.952  -1.395   0.298  1.00  0.00     0.078 C 
BRANCH  10  11
ATOM     11  C   UNL     1       2.196  -0.133   0.125  1.00  0.00     0.244 C 
ATOM     12  O   UNL     1       0.982  -0.158  -0.025  1.00  0.00    -0.270 OA
ATOM     13  N   UNL     1       2.950   1.011   0.125  1.00  0.00    -0.348 N 
ATOM     14  H   UNL     1       3.925   0.946   0.011  1.00  0.00     0.164 HD
BRANCH  13  15
ATOM     15  C   UNL     1       2.342   2.312   0.288  1.00  0.00     0.163 C 
BRANCH  15  16
ATOM     16  C   UNL     1       2.652   2.873   1.654  1.00  0.00     0.024 A 
ATOM     17  C   UNL     1       2.576   4.195   2.056  1.00  0.00     0.018 A 
ATOM     18  S   UNL     1       3.116   1.871   2.967  1.00  0.00    -0.138 S 
ATOM     19  C   UNL     1       2.884   4.368   3.442  1.00  0.00     0.022 A 
ATOM     20  C   UNL     1       3.204   3.177   4.060  1.00  0.00     0.045 A 
BRANCH  20  21
ATOM     21  C   UNL     1       3.546   2.944   5.437  1.00  0.00     0.044 A 
ATOM     22  C   UNL     1       4.635   2.242   5.920  1.00  0.00     0.021 A 
ATOM     23  S   UNL     1       2.543   3.494   6.712  1.00  0.00    -0.143 S 
ATOM     24  C   UNL     1       4.621   2.124   7.340  1.00  0.00     0.012 A 
ATOM     25  C   UNL     1       3.523   2.742   7.895  1.00  0.00     0.065 A 
ENDBRANCH  20  21
ENDBRANCH  15  16
ENDBRANCH  13  15
ENDBRANCH  10  11
ENDBRANCH   7   9
ENDBRANCH   6   7
ENDBRANCH   5   6
ENDBRANCH   4   5
ENDBRANCH   3   4
ENDBRANCH   2   3
ENDBRANCH   1   2
BRANCH   1  26
ATOM     26  O   UNL     1       4.551  -3.533  -2.512  1.00  0.00    -0.377 OA
BRANCH  26  27
ATOM     27  C   UNL     1       4.949  -4.417  -3.560  1.00  0.00     0.188 C 
BRANCH  27  28
ATOM     28  C   UNL     1       6.352  -4.337  -4.207  1.00  0.00     0.188 C 
BRANCH  28  29
ATOM     29  O   UNL     1       6.858  -3.018  -4.368  1.00  0.00    -0.376 OA
BRANCH  29  30
ATOM     30  C   UNL     1       6.872  -2.462  -5.672  1.00  0.00     0.202 C 
BRANCH  30  31
ATOM     31  C   UNL     1       5.504  -2.134  -6.287  1.00  0.00     0.261 C 
BRANCH  31  32
ATOM     32  O   UNL     1       4.580  -3.227  -6.379  1.00  0.00    -0.460 OA
BRANCH  32  33
ATOM     33  C   UNL     1       4.926  -4.258  -7.181  1.00  0.00     0.338 C 
ATOM     34  O   UNL     1       5.943  -4.351  -7.850  1.00  0.00    -0.246 OA
BRANCH  33  35
ATOM     35  C   UNL     1       3.950  -5.344  -6.963  1.00  0.00     0.060 A 
ATOM     36  C   UNL     1       4.402  -6.586  -6.500  1.00  0.00     0.016 A 
ATOM     37  C   UNL     1       2.590  -5.131  -7.206  1.00  0.00     0.016 A 
ATOM     38  C   UNL     1       3.498  -7.633  -6.314  1.00  0.00     0.010 A 
ATOM     39  C   UNL     1       1.689  -6.186  -7.035  1.00  0.00     0.010 A 
ATOM     40  C   UNL     1       2.142  -7.451  -6.621  1.00  0.00    -0.014 A 
BRANCH  40  41
ATOM     41  C   UNL     1       1.237  -8.625  -6.708  1.00  0.00     0.031 A 
ATOM     42  C   UNL     1       0.948  -9.199  -8.070  1.00  0.00     0.074 A 
ATOM     43  C   UNL     1       0.694  -9.182  -5.611  1.00  0.00     0.049 A 
ATOM     44  N   UNL     1       0.137 -10.165  -8.414  1.00  0.00    -0.248 NA
ATOM     45  C   UNL     1       1.671  -8.588  -9.197  1.00  0.00     0.031 C 
ATOM     46  C   UNL     1       0.940  -8.751  -4.236  1.00  0.00     0.029 A 
ATOM     47  N   UNL     1      -0.187 -10.228  -5.483  1.00  0.00    -0.354 N 
ATOM     48  C   UNL     1       0.245 -10.275  -9.796  1.00  0.00     0.074 A 
ATOM     49  C   UNL     1       1.169  -9.248 -10.229  1.00  0.00     0.031 C 
ATOM     50  C   UNL     1       0.218  -9.522  -3.403  1.00  0.00     0.029 A 
ATOM     51  C   UNL     1      -0.577 -10.469  -4.186  1.00  0.00     0.049 A 
ATOM     52  H   UNL     1      -0.509 -10.757  -6.248  1.00  0.00     0.167 HD
ATOM     53  C   UNL     1      -0.364 -11.155 -10.627  1.00  0.00     0.034 A 
ATOM     54  C   UNL     1      -1.492 -11.330  -3.693  1.00  0.00     0.034 A 
ATOM     55  C   UNL     1      -1.295 -12.162 -10.181  1.00  0.00     0.049 A 
ATOM     56  C   UNL     1      -2.239 -12.233  -4.650  1.00  0.00     0.074 A 
ATOM     57  C   UNL     1      -1.963 -13.112 -10.935  1.00  0.00     0.029 A 
ATOM     58  N   UNL     1      -1.705 -12.342  -8.866  1.00  0.00    -0.354 N 
ATOM     59  N   UNL     1      -2.126 -12.332  -5.956  1.00  0.00    -0.248 NA
ATOM     60  C   UNL     1      -3.232 -13.144  -4.065  1.00  0.00     0.031 C 
ATOM     61  C   UNL     1      -2.838 -13.805 -10.092  1.00  0.00     0.029 A 
ATOM     62  C   UNL     1      -2.645 -13.359  -8.794  1.00  0.00     0.049 A 
ATOM     63  H   UNL     1      -1.376 -11.823  -8.097  1.00  0.00     0.167 HD
ATOM     64  C   UNL     1      -3.006 -13.344  -6.339  1.00  0.00     0.074 A 
ATOM     65  C   UNL     1      -3.631 -13.829  -5.127  1.00  0.00     0.031 C 
ATOM     66  C   UNL     1      -3.267 -13.833  -7.579  1.00  0.00     0.034 A 
BRANCH  53  67
ATOM     67  C   UNL     1      -0.084 -11.024 -12.106  1.00  0.00     0.023 A 
ATOM     68  C   UNL     1       1.204 -11.207 -12.638  1.00  0.00     0.031 A 
ATOM     69  C   UNL     1      -1.119 -10.678 -12.994  1.00  0.00     0.131 A 
ATOM     70  C   UNL     1       1.439 -10.973 -14.001  1.00  0.00     0.055 A 
ATOM     71  C   UNL     1      -0.896 -10.533 -14.364  1.00  0.00     0.041 A 
ATOM     72  F   UNL     1      -2.364 -10.462 -12.542  1.00  0.00    -0.206 F 
ATOM     73  C   UNL     1       0.392 -10.665 -14.873  1.00  0.00     0.022 A 
BRANCH  70  74
ATOM     74  S   UNL     1       3.154 -10.925 -14.589  1.00  0.00     0.124 S 
ATOM     75  O   UNL     1       3.724  -9.872 -13.752  1.00  0.00    -0.237 OA
ATOM     76  O   UNL     1       3.619 -12.280 -14.318  1.00  0.00    -0.237 OA
ATOM     77  O   UNL     1       3.022 -10.581 -16.004  1.00  0.00    -0.744 OA
ENDBRANCH  70  74
ENDBRANCH  53  67
BRANCH  54  78
ATOM     78  C   UNL     1      -1.799 -11.360  -2.232  1.00  0.00     0.023 A 
ATOM     79  C   UNL     1      -1.593 -12.519  -1.468  1.00  0.00     0.031 A 
ATOM     80  C   UNL     1      -2.373 -10.245  -1.592  1.00  0.00     0.131 A 
ATOM     81  C   UNL     1      -2.002 -12.556  -0.125  1.00  0.00     0.055 A 
ATOM     82  C   UNL     1      -2.721 -10.266  -0.240  1.00  0.00     0.041 A 
ATOM     83  F   UNL     1      -2.603  -9.113  -2.276  1.00  0.00    -0.206 F 
ATOM     84  C   UNL     1      -2.550 -11.432   0.498  1.00  0.00     0.022 A 
BRANCH  81  85
ATOM     85  S   UNL     1      -1.905 -14.131   0.771  1.00  0.00     0.124 S 
ATOM     86  O   UNL     1      -2.736 -14.995  -0.060  1.00  0.00    -0.237 OA
ATOM     87  O   UNL     1      -0.472 -14.404   0.749  1.00  0.00    -0.237 OA
ATOM     88  O   UNL     1      -2.457 -13.810   2.085  1.00  0.00    -0.744 OA
ENDBRANCH  81  85
ENDBRANCH  54  78
BRANCH  66  89
ATOM     89  C   UNL     1      -4.228 -14.995  -7.681  1.00  0.00     0.023 A 
ATOM     90  C   UNL     1      -5.588 -14.873  -7.343  1.00  0.00     0.031 A 
ATOM     91  C   UNL     1      -3.771 -16.250  -8.126  1.00  0.00     0.131 A 
ATOM     92  C   UNL     1      -6.426 -15.998  -7.400  1.00  0.00     0.055 A 
ATOM     93  C   UNL     1      -4.625 -17.346  -8.248  1.00  0.00     0.041 A 
ATOM     94  F   UNL     1      -2.482 -16.429  -8.459  1.00  0.00    -0.206 F 
ATOM     95  C   UNL     1      -5.959 -17.227  -7.871  1.00  0.00     0.022 A 
BRANCH  92  96
ATOM     96  S   UNL     1      -8.115 -15.861  -6.752  1.00  0.00     0.124 S 
ATOM     97  O   UNL     1      -7.878 -15.440  -5.375  1.00  0.00    -0.237 OA
ATOM     98  O   UNL     1      -8.707 -14.858  -7.632  1.00  0.00    -0.237 OA
ATOM     99  O   UNL     1      -8.652 -17.212  -6.903  1.00  0.00    -0.744 OA
ENDBRANCH  92  96
ENDBRANCH  66  89
ENDBRANCH  40  41
ENDBRANCH  33  35
ENDBRANCH  32  33
ENDBRANCH  31  32
ENDBRANCH  30  31
ENDBRANCH  29  30
ENDBRANCH  28  29
ENDBRANCH  27  28
ENDBRANCH  26  27
ENDBRANCH   1  26
TORSDOF 27
