REMARK SMILES O=C(Nc1ccccc1C(=O)OCCOCCOCCOCCOC(=O)c1ccc(-c2c3nc(c(-c4cc(S(=O)(=O)[O-])ccc4F)c4ccc([nH]4)c(-c4cc(S(=O)(=O)[O-])ccc4F)c4nc(c(-c5cc(S(=O)(=O)[O-])ccc5F)c5ccc2[nH]5)C=C4)C=C3)cc1)c1ccc2c(c1)C(=O)N(Cc1ccccc1)C2=O
REMARK SMILES IDX 17 1 16 2 15 3 14 4 13 5 12 6 10 7 11 8 9 9 4 10 5 11 6 12
REMARK SMILES IDX 8 13 7 14 3 15 1 16 2 17 90 19 91 20 95 21 92 22 94 23 93 24
REMARK SMILES IDX 96 25 106 26 97 27 98 28 107 29 99 30 100 31 101 32 105 33
REMARK SMILES IDX 102 34 104 35 103 36 18 37 19 38 20 39 21 40 22 41 23 42
REMARK SMILES IDX 24 43 25 44 26 45 27 46 28 47 89 48 29 49 88 50 30 51 31 52
REMARK SMILES IDX 32 53 82 54 33 55 87 56 81 57 83 58 34 59 86 60 80 61 79 62
REMARK SMILES IDX 35 64 67 65 47 66 66 67 48 68 51 69 65 70 84 71 49 72 50 73
REMARK SMILES IDX 64 75 85 76 52 77 36 78 37 79 45 80 38 81 44 82 46 83 43 84
REMARK SMILES IDX 39 85 40 86 41 87 42 88 68 89 69 90 77 91 70 92 76 93 78 94
REMARK SMILES IDX 75 95 71 96 72 97 73 98 74 99 53 100 54 101 62 102 55 103
REMARK SMILES IDX 61 104 63 105 60 106 56 107 57 108 58 109 59 110
REMARK H PARENT 3 18 83 63 51 74
REMARK Flexibility Score: inf
ROOT
ATOM      1  C   UNL     1       4.275   0.327  -3.917  1.00  0.00     0.188 C 
ENDROOT
BRANCH   1   2
ATOM      2  C   UNL     1       4.855  -1.098  -3.947  1.00  0.00     0.188 C 
BRANCH   2   3
ATOM      3  O   UNL     1       3.938  -2.143  -4.196  1.00  0.00    -0.376 OA
BRANCH   3   4
ATOM      4  C   UNL     1       3.031  -2.599  -3.204  1.00  0.00     0.202 C 
BRANCH   4   5
ATOM      5  C   UNL     1       2.461  -1.715  -2.100  1.00  0.00     0.261 C 
BRANCH   5   6
ATOM      6  O   UNL     1       3.357  -0.917  -1.314  1.00  0.00    -0.460 OA
BRANCH   6   7
ATOM      7  C   UNL     1       4.487  -1.412  -0.779  1.00  0.00     0.340 C 
ATOM      8  O   UNL     1       4.953  -2.529  -0.907  1.00  0.00    -0.246 OA
BRANCH   7   9
ATOM      9  C   UNL     1       5.170  -0.265  -0.140  1.00  0.00     0.083 A 
ATOM     10  C   UNL     1       4.500   0.693   0.639  1.00  0.00     0.056 A 
ATOM     11  C   UNL     1       5.109   1.954   0.780  1.00  0.00     0.027 A 
ATOM     12  C   UNL     1       6.388   2.214   0.276  1.00  0.00     0.002 A 
ATOM     13  C   UNL     1       6.484  -0.025  -0.593  1.00  0.00     0.018 A 
ATOM     14  C   UNL     1       7.093   1.210  -0.377  1.00  0.00     0.001 A 
BRANCH  10  15
ATOM     15  N   UNL     1       3.252   0.569   1.292  1.00  0.00    -0.321 N 
ATOM     16  O   UNL     1       1.330  -0.223   2.137  1.00  0.00    -0.269 OA
ATOM     17  C   UNL     1       2.456  -0.474   1.707  1.00  0.00     0.255 C 
ATOM     18  H   UNL     1       2.854   1.445   1.501  1.00  0.00     0.170 HD
BRANCH  17  19
ATOM     19  C   UNL     1       2.872  -1.891   1.682  1.00  0.00     0.041 A 
ATOM     20  C   UNL     1       4.073  -2.358   2.257  1.00  0.00     0.015 A 
ATOM     21  C   UNL     1       2.038  -2.761   0.971  1.00  0.00     0.028 A 
ATOM     22  C   UNL     1       4.503  -3.681   2.025  1.00  0.00     0.015 A 
ATOM     23  C   UNL     1       2.549  -4.005   0.656  1.00  0.00     0.054 A 
ATOM     24  C   UNL     1       3.743  -4.466   1.170  1.00  0.00     0.053 A 
ATOM     25  C   UNL     1       2.105  -4.951  -0.367  1.00  0.00     0.261 C 
ATOM     26  C   UNL     1       3.996  -5.777   0.553  1.00  0.00     0.261 C 
ATOM     27  O   UNL     1       1.122  -4.785  -1.059  1.00  0.00    -0.269 OA
ATOM     28  N   UNL     1       3.022  -5.965  -0.392  1.00  0.00    -0.270 N 
ATOM     29  O   UNL     1       4.888  -6.530   0.903  1.00  0.00    -0.269 OA
BRANCH  28  30
ATOM     30  C   UNL     1       2.837  -7.163  -1.192  1.00  0.00     0.164 C 
BRANCH  30  31
ATOM     31  C   UNL     1       3.517  -7.250  -2.548  1.00  0.00    -0.028 A 
ATOM     32  C   UNL     1       3.361  -8.449  -3.272  1.00  0.00     0.005 A 
ATOM     33  C   UNL     1       4.236  -6.215  -3.154  1.00  0.00     0.005 A 
ATOM     34  C   UNL     1       3.887  -8.601  -4.558  1.00  0.00     0.000 A 
ATOM     35  C   UNL     1       4.739  -6.354  -4.456  1.00  0.00     0.000 A 
ATOM     36  C   UNL     1       4.567  -7.546  -5.157  1.00  0.00     0.000 A 
ENDBRANCH  30  31
ENDBRANCH  28  30
ENDBRANCH  17  19
ENDBRANCH  10  15
ENDBRANCH   7   9
ENDBRANCH   6   7
ENDBRANCH   5   6
ENDBRANCH   4   5
ENDBRANCH   3   4
ENDBRANCH   2   3
ENDBRANCH   1   2
BRANCH   1  37
ATOM     37  O   UNL     1       2.875   0.383  -3.737  1.00  0.00    -0.377 OA
BRANCH  37  38
ATOM     38  C   UNL     1       2.025   0.236  -4.871  1.00  0.00     0.188 C 
BRANCH  38  39
ATOM     39  C   UNL     1       2.478  -0.603  -6.079  1.00  0.00     0.188 C 
BRANCH  39  40
ATOM     40  O   UNL     1       3.743  -0.188  -6.583  1.00  0.00    -0.376 OA
BRANCH  40  41
ATOM     41  C   UNL     1       3.715   0.646  -7.733  1.00  0.00     0.202 C 
BRANCH  41  42
ATOM     42  C   UNL     1       3.147   2.059  -7.518  1.00  0.00     0.261 C 
BRANCH  42  43
ATOM     43  O   UNL     1       1.756   2.169  -7.148  1.00  0.00    -0.460 OA
BRANCH  43  44
ATOM     44  C   UNL     1       0.820   1.489  -7.849  1.00  0.00     0.338 C 
ATOM     45  O   UNL     1       0.998   0.880  -8.888  1.00  0.00    -0.246 OA
BRANCH  44  46
ATOM     46  C   UNL     1      -0.410   1.400  -7.013  1.00  0.00     0.060 A 
ATOM     47  C   UNL     1      -1.038   0.155  -6.851  1.00  0.00     0.016 A 
ATOM     48  C   UNL     1      -0.935   2.529  -6.378  1.00  0.00     0.016 A 
ATOM     49  C   UNL     1      -2.222   0.050  -6.109  1.00  0.00     0.010 A 
ATOM     50  C   UNL     1      -2.131   2.427  -5.656  1.00  0.00     0.010 A 
ATOM     51  C   UNL     1      -2.808   1.197  -5.558  1.00  0.00    -0.014 A 
BRANCH  51  52
ATOM     52  C   UNL     1      -4.243   1.182  -5.156  1.00  0.00     0.031 A 
ATOM     53  C   UNL     1      -5.252   1.608  -6.195  1.00  0.00     0.074 A 
ATOM     54  C   UNL     1      -4.660   0.806  -3.932  1.00  0.00     0.049 A 
ATOM     55  N   UNL     1      -6.542   1.791  -6.084  1.00  0.00    -0.248 NA
ATOM     56  C   UNL     1      -4.721   1.871  -7.543  1.00  0.00     0.031 C 
ATOM     57  C   UNL     1      -3.804   0.314  -2.856  1.00  0.00     0.029 A 
ATOM     58  N   UNL     1      -5.923   0.794  -3.387  1.00  0.00    -0.354 N 
ATOM     59  C   UNL     1      -6.975   2.191  -7.345  1.00  0.00     0.074 A 
ATOM     60  C   UNL     1      -5.806   2.261  -8.192  1.00  0.00     0.031 C 
ATOM     61  C   UNL     1      -4.564   0.065  -1.773  1.00  0.00     0.029 A 
ATOM     62  C   UNL     1      -5.955   0.419  -2.062  1.00  0.00     0.049 A 
ATOM     63  H   UNL     1      -6.731   1.031  -3.897  1.00  0.00     0.167 HD
ATOM     64  C   UNL     1      -8.234   2.467  -7.765  1.00  0.00     0.034 A 
ATOM     65  C   UNL     1      -6.980   0.396  -1.182  1.00  0.00     0.034 A 
ATOM     66  C   UNL     1      -9.394   2.414  -6.914  1.00  0.00     0.049 A 
ATOM     67  C   UNL     1      -8.362   0.815  -1.646  1.00  0.00     0.074 A 
ATOM     68  C   UNL     1     -10.711   2.689  -7.236  1.00  0.00     0.029 A 
ATOM     69  N   UNL     1      -9.377   2.070  -5.569  1.00  0.00    -0.354 N 
ATOM     70  N   UNL     1      -8.756   1.201  -2.838  1.00  0.00    -0.248 NA
ATOM     71  C   UNL     1      -9.438   0.791  -0.643  1.00  0.00     0.031 C 
ATOM     72  C   UNL     1     -11.479   2.578  -6.073  1.00  0.00     0.029 A 
ATOM     73  C   UNL     1     -10.656   2.152  -5.043  1.00  0.00     0.049 A 
ATOM     74  H   UNL     1      -8.574   1.806  -5.064  1.00  0.00     0.167 HD
ATOM     75  C   UNL     1     -10.130   1.423  -2.733  1.00  0.00     0.074 A 
ATOM     76  C   UNL     1     -10.497   1.116  -1.368  1.00  0.00     0.031 C 
ATOM     77  C   UNL     1     -11.011   1.838  -3.680  1.00  0.00     0.034 A 
BRANCH  64  78
ATOM     78  C   UNL     1      -8.404   2.903  -9.199  1.00  0.00     0.023 A 
ATOM     79  C   UNL     1      -8.134   2.034 -10.271  1.00  0.00     0.031 A 
ATOM     80  C   UNL     1      -8.821   4.212  -9.497  1.00  0.00     0.131 A 
ATOM     81  C   UNL     1      -8.229   2.503 -11.590  1.00  0.00     0.055 A 
ATOM     82  C   UNL     1      -8.987   4.649 -10.812  1.00  0.00     0.041 A 
ATOM     83  F   UNL     1      -9.065   5.092  -8.513  1.00  0.00    -0.206 F 
ATOM     84  C   UNL     1      -8.679   3.796 -11.868  1.00  0.00     0.022 A 
BRANCH  81  85
ATOM     85  S   UNL     1      -7.636   1.440 -12.934  1.00  0.00     0.124 S 
ATOM     86  O   UNL     1      -6.230   1.268 -12.576  1.00  0.00    -0.237 OA
ATOM     87  O   UNL     1      -8.479   0.258 -12.798  1.00  0.00    -0.237 OA
ATOM     88  O   UNL     1      -7.873   2.240 -14.134  1.00  0.00    -0.744 OA
ENDBRANCH  81  85
ENDBRANCH  64  78
BRANCH  65  89
ATOM     89  C   UNL     1      -6.759   0.027   0.251  1.00  0.00     0.023 A 
ATOM     90  C   UNL     1      -7.433  -1.057   0.839  1.00  0.00     0.031 A 
ATOM     91  C   UNL     1      -5.954   0.825   1.084  1.00  0.00     0.131 A 
ATOM     92  C   UNL     1      -7.342  -1.274   2.225  1.00  0.00     0.055 A 
ATOM     93  C   UNL     1      -5.814   0.565   2.450  1.00  0.00     0.041 A 
ATOM     94  F   UNL     1      -5.298   1.884   0.584  1.00  0.00    -0.206 F 
ATOM     95  C   UNL     1      -6.526  -0.479   3.031  1.00  0.00     0.022 A 
BRANCH  92  96
ATOM     96  S   UNL     1      -8.411  -2.532   2.982  1.00  0.00     0.124 S 
ATOM     97  O   UNL     1      -9.736  -2.083   2.568  1.00  0.00    -0.237 OA
ATOM     98  O   UNL     1      -7.926  -3.758   2.358  1.00  0.00    -0.237 OA
ATOM     99  O   UNL     1      -8.128  -2.405   4.410  1.00  0.00    -0.744 OA
ENDBRANCH  92  96
ENDBRANCH  65  89
BRANCH  77 100
ATOM    100  C   UNL     1     -12.468   1.920  -3.289  1.00  0.00     0.023 A 
ATOM    101  C   UNL     1     -12.937   2.853  -2.348  1.00  0.00     0.031 A 
ATOM    102  C   UNL     1     -13.404   1.048  -3.876  1.00  0.00     0.131 A 
ATOM    103  C   UNL     1     -14.293   2.857  -1.983  1.00  0.00     0.055 A 
ATOM    104  C   UNL     1     -14.761   1.097  -3.554  1.00  0.00     0.041 A 
ATOM    105  F   UNL     1     -13.013   0.136  -4.782  1.00  0.00    -0.206 F 
ATOM    106  C   UNL     1     -15.210   1.997  -2.593  1.00  0.00     0.022 A 
BRANCH 103 107
ATOM    107  S   UNL     1     -14.831   3.945  -0.634  1.00  0.00     0.124 S 
ATOM    108  O   UNL     1     -13.992   3.496   0.472  1.00  0.00    -0.237 OA
ATOM    109  O   UNL     1     -14.532   5.271  -1.164  1.00  0.00    -0.237 OA
ATOM    110  O   UNL     1     -16.255   3.641  -0.495  1.00  0.00    -0.744 OA
ENDBRANCH 103 107
ENDBRANCH  77 100
ENDBRANCH  51  52
ENDBRANCH  44  46
ENDBRANCH  43  44
ENDBRANCH  42  43
ENDBRANCH  41  42
ENDBRANCH  40  41
ENDBRANCH  39  40
ENDBRANCH  38  39
ENDBRANCH  37  38
ENDBRANCH   1  37
TORSDOF 27
