REMARK SMILES O=C(Cn1c2ccccc2c(=O)c2cc(F)ccc21)OCCOCCOCCOCCOC(=O)c1ccc(-c2c3nc(c(-c4cc(S(=O)(=O)[O-])ccc4F)c4ccc([nH]4)c(-c4cc(S(=O)(=O)[O-])ccc4F)c4nc(c(-c5cc(S(=O)(=O)[O-])ccc5F)c5ccc2[nH]5)C=C4)C=C3)cc1
REMARK SMILES IDX 27 1 26 2 25 3 24 4 23 5 22 6 21 7 20 8 2 9 1 10 3 11 4 12
REMARK SMILES IDX 5 13 19 14 6 15 10 16 13 17 18 18 7 19 9 20 11 21 14 22
REMARK SMILES IDX 17 23 8 24 12 25 15 26 16 27 28 28 29 29 30 30 31 31 32 32
REMARK SMILES IDX 33 33 34 34 35 35 36 36 97 37 37 38 96 39 38 40 39 41 40 42
REMARK SMILES IDX 90 43 41 44 95 45 89 46 91 47 42 48 94 49 88 50 87 51 43 53
REMARK SMILES IDX 75 54 55 55 74 56 56 57 59 58 73 59 92 60 57 61 58 62 72 64
REMARK SMILES IDX 93 65 60 66 44 67 45 68 53 69 46 70 52 71 54 72 51 73 47 74
REMARK SMILES IDX 48 75 49 76 50 77 76 78 77 79 85 80 78 81 84 82 86 83 83 84
REMARK SMILES IDX 79 85 80 86 81 87 82 88 61 89 62 90 70 91 63 92 69 93 71 94
REMARK SMILES IDX 68 95 64 96 65 97 66 98 67 99
REMARK H PARENT 91 52 59 63
REMARK Flexibility Score: inf
ROOT
ATOM      1  C   UNL     1       3.879   2.469   2.977  1.00  0.00     0.188 C 
ENDROOT
BRANCH   1   2
ATOM      2  O   UNL     1       2.544   2.032   3.186  1.00  0.00    -0.377 OA
BRANCH   2   3
ATOM      3  C   UNL     1       2.068   1.115   2.211  1.00  0.00     0.188 C 
BRANCH   3   4
ATOM      4  C   UNL     1       2.814  -0.226   2.202  1.00  0.00     0.188 C 
BRANCH   4   5
ATOM      5  O   UNL     1       4.216  -0.120   2.017  1.00  0.00    -0.376 OA
BRANCH   5   6
ATOM      6  C   UNL     1       4.826  -0.257   0.749  1.00  0.00     0.202 C 
BRANCH   6   7
ATOM      7  C   UNL     1       4.508   0.798  -0.301  1.00  0.00     0.261 C 
BRANCH   7   8
ATOM      8  O   UNL     1       3.123   0.984  -0.654  1.00  0.00    -0.462 OA
BRANCH   8   9
ATOM      9  C   UNL     1       2.230   0.123  -1.175  1.00  0.00     0.326 C 
ATOM     10  O   UNL     1       1.107   0.534  -1.476  1.00  0.00    -0.250 OA
BRANCH   9  11
ATOM     11  C   UNL     1       2.537  -1.345  -1.270  1.00  0.00     0.245 C 
BRANCH  11  12
ATOM     12  N   UNL     1       3.526  -1.899  -2.220  1.00  0.00    -0.329 N 
ATOM     13  C   UNL     1       4.301  -1.113  -3.093  1.00  0.00     0.053 A 
ATOM     14  C   UNL     1       3.792  -3.292  -2.011  1.00  0.00     0.053 A 
ATOM     15  C   UNL     1       3.978   0.189  -3.505  1.00  0.00     0.027 A 
ATOM     16  C   UNL     1       5.521  -1.619  -3.579  1.00  0.00     0.046 A 
ATOM     17  C   UNL     1       4.865  -3.904  -2.682  1.00  0.00     0.049 A 
ATOM     18  C   UNL     1       3.027  -4.120  -1.159  1.00  0.00     0.030 A 
ATOM     19  C   UNL     1       4.926   1.026  -4.111  1.00  0.00     0.002 A 
ATOM     20  C   UNL     1       6.475  -0.796  -4.195  1.00  0.00     0.014 A 
ATOM     21  C   UNL     1       5.803  -3.063  -3.448  1.00  0.00     0.197 A 
ATOM     22  C   UNL     1       5.111  -5.282  -2.589  1.00  0.00     0.053 A 
ATOM     23  C   UNL     1       3.296  -5.487  -1.025  1.00  0.00     0.041 A 
ATOM     24  C   UNL     1       6.193   0.546  -4.411  1.00  0.00     0.001 A 
ATOM     25  O   UNL     1       6.796  -3.564  -3.964  1.00  0.00    -0.288 OA
ATOM     26  C   UNL     1       4.318  -6.059  -1.764  1.00  0.00     0.124 A 
ATOM     27  F   UNL     1       4.548  -7.374  -1.661  1.00  0.00    -0.207 F 
ENDBRANCH  11  12
ENDBRANCH   9  11
ENDBRANCH   8   9
ENDBRANCH   7   8
ENDBRANCH   6   7
ENDBRANCH   5   6
ENDBRANCH   4   5
ENDBRANCH   3   4
ENDBRANCH   2   3
ENDBRANCH   1   2
BRANCH   1  28
ATOM     28  C   UNL     1       4.958   1.821   3.878  1.00  0.00     0.188 C 
BRANCH  28  29
ATOM     29  O   UNL     1       4.614   0.919   4.923  1.00  0.00    -0.376 OA
BRANCH  29  30
ATOM     30  C   UNL     1       3.419   1.115   5.660  1.00  0.00     0.202 C 
BRANCH  30  31
ATOM     31  C   UNL     1       3.220   2.430   6.425  1.00  0.00     0.261 C 
BRANCH  31  32
ATOM     32  O   UNL     1       3.412   3.625   5.653  1.00  0.00    -0.460 OA
BRANCH  32  33
ATOM     33  C   UNL     1       4.590   4.277   5.856  1.00  0.00     0.338 C 
ATOM     34  O   UNL     1       5.462   3.977   6.641  1.00  0.00    -0.246 OA
BRANCH  33  35
ATOM     35  C   UNL     1       4.751   5.308   4.796  1.00  0.00     0.060 A 
ATOM     36  C   UNL     1       3.726   6.206   4.492  1.00  0.00     0.016 A 
ATOM     37  C   UNL     1       5.947   5.330   4.063  1.00  0.00     0.016 A 
ATOM     38  C   UNL     1       3.919   7.156   3.483  1.00  0.00     0.010 A 
ATOM     39  C   UNL     1       6.127   6.261   3.036  1.00  0.00     0.010 A 
ATOM     40  C   UNL     1       5.127   7.205   2.763  1.00  0.00    -0.014 A 
BRANCH  40  41
ATOM     41  C   UNL     1       5.443   8.391   1.928  1.00  0.00     0.031 A 
ATOM     42  C   UNL     1       5.305   8.398   0.437  1.00  0.00     0.074 A 
ATOM     43  C   UNL     1       5.898   9.484   2.572  1.00  0.00     0.049 A 
ATOM     44  N   UNL     1       5.488   9.395  -0.390  1.00  0.00    -0.248 NA
ATOM     45  C   UNL     1       4.921   7.138  -0.215  1.00  0.00     0.031 C 
ATOM     46  C   UNL     1       6.111   9.561   4.019  1.00  0.00     0.029 A 
ATOM     47  N   UNL     1       6.268  10.723   2.114  1.00  0.00    -0.354 N 
ATOM     48  C   UNL     1       5.220   8.897  -1.659  1.00  0.00     0.074 A 
ATOM     49  C   UNL     1       4.902   7.493  -1.496  1.00  0.00     0.031 C 
ATOM     50  C   UNL     1       6.568  10.780   4.330  1.00  0.00     0.029 A 
ATOM     51  C   UNL     1       6.710  11.566   3.107  1.00  0.00     0.049 A 
ATOM     52  H   UNL     1       6.223  10.983   1.166  1.00  0.00     0.167 HD
ATOM     53  C   UNL     1       5.224   9.566  -2.838  1.00  0.00     0.034 A 
ATOM     54  C   UNL     1       7.181  12.829   3.049  1.00  0.00     0.034 A 
ATOM     55  C   UNL     1       5.547  10.967  -2.970  1.00  0.00     0.049 A 
ATOM     56  C   UNL     1       7.191  13.538   1.721  1.00  0.00     0.074 A 
ATOM     57  C   UNL     1       5.503  11.745  -4.115  1.00  0.00     0.029 A 
ATOM     58  N   UNL     1       5.984  11.796  -1.947  1.00  0.00    -0.354 N 
ATOM     59  N   UNL     1       6.798  13.094   0.551  1.00  0.00    -0.248 NA
ATOM     60  C   UNL     1       7.687  14.921   1.698  1.00  0.00     0.031 C 
ATOM     61  C   UNL     1       5.986  13.014  -3.804  1.00  0.00     0.029 A 
ATOM     62  C   UNL     1       6.254  13.061  -2.445  1.00  0.00     0.049 A 
ATOM     63  H   UNL     1       6.087  11.525  -1.006  1.00  0.00     0.167 HD
ATOM     64  C   UNL     1       6.976  14.147  -0.340  1.00  0.00     0.074 A 
ATOM     65  C   UNL     1       7.488  15.261   0.430  1.00  0.00     0.031 C 
ATOM     66  C   UNL     1       6.743  14.180  -1.675  1.00  0.00     0.034 A 
BRANCH  53  67
ATOM     67  C   UNL     1       4.830   8.845  -4.105  1.00  0.00     0.023 A 
ATOM     68  C   UNL     1       5.746   8.741  -5.171  1.00  0.00     0.031 A 
ATOM     69  C   UNL     1       3.494   8.476  -4.337  1.00  0.00     0.131 A 
ATOM     70  C   UNL     1       5.298   8.338  -6.436  1.00  0.00     0.055 A 
ATOM     71  C   UNL     1       3.062   8.037  -5.590  1.00  0.00     0.041 A 
ATOM     72  F   UNL     1       2.582   8.567  -3.356  1.00  0.00    -0.206 F 
ATOM     73  C   UNL     1       3.962   7.984  -6.650  1.00  0.00     0.022 A 
BRANCH  70  74
ATOM     74  S   UNL     1       6.409   8.341  -7.870  1.00  0.00     0.124 S 
ATOM     75  O   UNL     1       6.305   6.958  -8.331  1.00  0.00    -0.237 OA
ATOM     76  O   UNL     1       5.786   9.336  -8.738  1.00  0.00    -0.237 OA
ATOM     77  O   UNL     1       7.704   8.710  -7.309  1.00  0.00    -0.744 OA
ENDBRANCH  70  74
ENDBRANCH  53  67
BRANCH  54  78
ATOM     78  C   UNL     1       7.625  13.493   4.308  1.00  0.00     0.023 A 
ATOM     79  C   UNL     1       8.680  12.954   5.069  1.00  0.00     0.031 A 
ATOM     80  C   UNL     1       6.939  14.603   4.826  1.00  0.00     0.131 A 
ATOM     81  C   UNL     1       8.972  13.483   6.332  1.00  0.00     0.055 A 
ATOM     82  C   UNL     1       7.284  15.175   6.051  1.00  0.00     0.041 A 
ATOM     83  F   UNL     1       5.913  15.140   4.148  1.00  0.00    -0.206 F 
ATOM     84  C   UNL     1       8.294  14.604   6.819  1.00  0.00     0.022 A 
BRANCH  81  85
ATOM     85  S   UNL     1      10.138  12.645   7.441  1.00  0.00     0.124 S 
ATOM     86  O   UNL     1      11.191  13.645   7.585  1.00  0.00    -0.237 OA
ATOM     87  O   UNL     1       9.315  12.419   8.627  1.00  0.00    -0.237 OA
ATOM     88  O   UNL     1      10.506  11.439   6.706  1.00  0.00    -0.744 OA
ENDBRANCH  81  85
ENDBRANCH  54  78
BRANCH  66  89
ATOM     89  C   UNL     1       7.029  15.453  -2.437  1.00  0.00     0.023 A 
ATOM     90  C   UNL     1       5.987  16.116  -3.115  1.00  0.00     0.031 A 
ATOM     91  C   UNL     1       8.347  15.894  -2.650  1.00  0.00     0.131 A 
ATOM     92  C   UNL     1       6.286  17.140  -4.022  1.00  0.00     0.055 A 
ATOM     93  C   UNL     1       8.634  16.952  -3.513  1.00  0.00     0.041 A 
ATOM     94  F   UNL     1       9.375  15.289  -2.034  1.00  0.00    -0.206 F 
ATOM     95  C   UNL     1       7.603  17.567  -4.219  1.00  0.00     0.022 A 
BRANCH  92  96
ATOM     96  S   UNL     1       4.992  17.884  -5.054  1.00  0.00     0.124 S 
ATOM     97  O   UNL     1       5.109  19.300  -4.714  1.00  0.00    -0.237 OA
ATOM     98  O   UNL     1       5.432  17.528  -6.400  1.00  0.00    -0.237 OA
ATOM     99  O   UNL     1       3.765  17.237  -4.601  1.00  0.00    -0.744 OA
ENDBRANCH  92  96
ENDBRANCH  66  89
ENDBRANCH  40  41
ENDBRANCH  33  35
ENDBRANCH  32  33
ENDBRANCH  31  32
ENDBRANCH  30  31
ENDBRANCH  29  30
ENDBRANCH  28  29
ENDBRANCH   1  28
TORSDOF 24
