REMARK SMILES CC(=O)Nc1cccc(-c2ccc(F)c(C(=O)OCCOCCOCCOCCOC(=O)c3ccc(-c4c5nc(c(-c6cc(S(=O)(=O)[O-])ccc6F)c6ccc([nH]6)c(-c6cc(S(=O)(=O)[O-])ccc6F)c6nc(c(-c7cc(S(=O)(=O)[O-])ccc7F)c7ccc4[nH]7)C=C6)C=C5)cc3)c2)c1
REMARK SMILES IDX 25 1 24 2 23 3 22 4 21 5 20 6 19 7 18 8 16 9 17 10 15 11
REMARK SMILES IDX 10 12 11 13 96 14 12 15 13 16 14 17 9 18 5 19 6 20 97 21
REMARK SMILES IDX 7 22 8 23 4 24 1 25 2 26 3 27 26 29 27 30 28 31 29 32 30 33
REMARK SMILES IDX 31 34 32 35 33 36 34 37 95 38 35 39 94 40 36 41 37 42 38 43
REMARK SMILES IDX 88 44 39 45 93 46 87 47 89 48 40 49 92 50 86 51 85 52 41 54
REMARK SMILES IDX 73 55 53 56 72 57 54 58 57 59 71 60 90 61 55 62 56 63 70 65
REMARK SMILES IDX 91 66 58 67 42 68 43 69 51 70 44 71 50 72 52 73 49 74 45 75
REMARK SMILES IDX 46 76 47 77 48 78 74 79 75 80 83 81 76 82 82 83 84 84 81 85
REMARK SMILES IDX 77 86 78 87 79 88 80 89 59 90 60 91 68 92 61 93 67 94 69 95
REMARK SMILES IDX 66 96 62 97 63 98 64 99 65 100
REMARK H PARENT 4 28 89 53 57 64
REMARK Flexibility Score: inf
ROOT
ATOM      1  C   UNL     1       9.591  -0.521   4.459  1.00  0.00     0.188 C 
ENDROOT
BRANCH   1   2
ATOM      2  O   UNL     1       8.681  -0.647   3.366  1.00  0.00    -0.377 OA
BRANCH   2   3
ATOM      3  C   UNL     1       9.037  -1.523   2.310  1.00  0.00     0.188 C 
BRANCH   3   4
ATOM      4  C   UNL     1       9.997  -0.882   1.290  1.00  0.00     0.188 C 
BRANCH   4   5
ATOM      5  O   UNL     1      10.489   0.390   1.708  1.00  0.00    -0.376 OA
BRANCH   5   6
ATOM      6  C   UNL     1       9.895   1.537   1.109  1.00  0.00     0.202 C 
BRANCH   6   7
ATOM      7  C   UNL     1       8.424   1.816   1.443  1.00  0.00     0.261 C 
BRANCH   7   8
ATOM      8  O   UNL     1       7.516   0.761   1.090  1.00  0.00    -0.460 OA
BRANCH   8   9
ATOM      9  C   UNL     1       7.342   0.457  -0.213  1.00  0.00     0.341 C 
ATOM     10  O   UNL     1       7.800   1.046  -1.175  1.00  0.00    -0.246 OA
BRANCH   9  11
ATOM     11  C   UNL     1       6.611  -0.828  -0.248  1.00  0.00     0.096 A 
ATOM     12  C   UNL     1       4.899  -2.314   0.686  1.00  0.00    -0.017 A 
ATOM     13  C   UNL     1       5.369  -3.334  -0.156  1.00  0.00     0.012 A 
ATOM     14  C   UNL     1       5.553  -1.068   0.641  1.00  0.00     0.027 A 
ATOM     15  C   UNL     1       6.434  -3.103  -1.035  1.00  0.00     0.041 A 
ATOM     16  C   UNL     1       7.041  -1.849  -1.086  1.00  0.00     0.137 A 
ATOM     17  F   UNL     1       8.086  -1.681  -1.906  1.00  0.00    -0.206 F 
BRANCH  12  18
ATOM     18  C   UNL     1       3.720  -2.499   1.553  1.00  0.00    -0.016 A 
ATOM     19  C   UNL     1       1.585  -1.603   2.366  1.00  0.00     0.041 A 
ATOM     20  C   UNL     1       1.447  -2.711   3.202  1.00  0.00     0.026 A 
ATOM     21  C   UNL     1       2.729  -1.500   1.579  1.00  0.00     0.034 A 
ATOM     22  C   UNL     1       2.407  -3.727   3.187  1.00  0.00     0.003 A 
ATOM     23  C   UNL     1       3.532  -3.626   2.362  1.00  0.00     0.009 A 
BRANCH  19  24
ATOM     24  N   UNL     1       0.587  -0.615   2.400  1.00  0.00    -0.326 N 
ATOM     25  C   UNL     1       0.744   0.277   0.070  1.00  0.00     0.114 C 
ATOM     26  C   UNL     1       0.237   0.342   1.488  1.00  0.00     0.221 C 
ATOM     27  O   UNL     1      -0.561   1.221   1.821  1.00  0.00    -0.275 OA
ATOM     28  H   UNL     1       0.046  -0.611   3.222  1.00  0.00     0.169 HD
ENDBRANCH  19  24
ENDBRANCH  12  18
ENDBRANCH   9  11
ENDBRANCH   8   9
ENDBRANCH   7   8
ENDBRANCH   6   7
ENDBRANCH   5   6
ENDBRANCH   4   5
ENDBRANCH   3   4
ENDBRANCH   2   3
ENDBRANCH   1   2
BRANCH   1  29
ATOM     29  C   UNL     1      11.091  -0.852   4.299  1.00  0.00     0.188 C 
BRANCH  29  30
ATOM     30  O   UNL     1      11.353  -2.100   3.656  1.00  0.00    -0.376 OA
BRANCH  30  31
ATOM     31  C   UNL     1      11.798  -3.164   4.487  1.00  0.00     0.202 C 
BRANCH  31  32
ATOM     32  C   UNL     1      10.675  -3.826   5.296  1.00  0.00     0.261 C 
BRANCH  32  33
ATOM     33  O   UNL     1      10.087  -2.985   6.300  1.00  0.00    -0.460 OA
BRANCH  33  34
ATOM     34  C   UNL     1      10.924  -2.524   7.257  1.00  0.00     0.338 C 
ATOM     35  O   UNL     1      12.095  -2.821   7.405  1.00  0.00    -0.246 OA
BRANCH  34  36
ATOM     36  C   UNL     1      10.237  -1.441   7.986  1.00  0.00     0.060 A 
ATOM     37  C   UNL     1      10.882  -0.205   8.101  1.00  0.00     0.016 A 
ATOM     38  C   UNL     1       8.982  -1.649   8.565  1.00  0.00     0.016 A 
ATOM     39  C   UNL     1      10.297   0.811   8.852  1.00  0.00     0.010 A 
ATOM     40  C   UNL     1       8.401  -0.631   9.326  1.00  0.00     0.010 A 
ATOM     41  C   UNL     1       9.079   0.586   9.508  1.00  0.00    -0.014 A 
BRANCH  41  42
ATOM     42  C   UNL     1       8.636   1.551  10.543  1.00  0.00     0.031 A 
ATOM     43  C   UNL     1       8.995   1.275  11.978  1.00  0.00     0.074 A 
ATOM     44  C   UNL     1       7.992   2.681  10.209  1.00  0.00     0.049 A 
ATOM     45  N   UNL     1       8.812   2.014  13.041  1.00  0.00    -0.248 NA
ATOM     46  C   UNL     1       9.649  -0.015  12.243  1.00  0.00     0.031 C 
ATOM     47  C   UNL     1       7.614   3.068   8.851  1.00  0.00     0.029 A 
ATOM     48  N   UNL     1       7.558   3.720  10.991  1.00  0.00    -0.354 N 
ATOM     49  C   UNL     1       9.351   1.290  14.100  1.00  0.00     0.074 A 
ATOM     50  C   UNL     1       9.799   0.025  13.556  1.00  0.00     0.031 C 
ATOM     51  C   UNL     1       7.019   4.273   8.893  1.00  0.00     0.029 A 
ATOM     52  C   UNL     1       6.959   4.732  10.280  1.00  0.00     0.049 A 
ATOM     53  H   UNL     1       7.665   3.739  11.969  1.00  0.00     0.167 HD
ATOM     54  C   UNL     1       9.483   1.655  15.400  1.00  0.00     0.034 A 
ATOM     55  C   UNL     1       6.432   5.898  10.703  1.00  0.00     0.034 A 
ATOM     56  C   UNL     1       8.989   2.901  15.935  1.00  0.00     0.049 A 
ATOM     57  C   UNL     1       6.498   6.243  12.171  1.00  0.00     0.074 A 
ATOM     58  C   UNL     1       9.050   3.370  17.235  1.00  0.00     0.029 A 
ATOM     59  N   UNL     1       8.320   3.871  15.197  1.00  0.00    -0.354 N 
ATOM     60  N   UNL     1       7.030   5.564  13.162  1.00  0.00    -0.248 NA
ATOM     61  C   UNL     1       5.904   7.525  12.570  1.00  0.00     0.031 C 
ATOM     62  C   UNL     1       8.358   4.586  17.297  1.00  0.00     0.029 A 
ATOM     63  C   UNL     1       7.935   4.920  16.020  1.00  0.00     0.049 A 
ATOM     64  H   UNL     1       8.145   3.821  14.229  1.00  0.00     0.167 HD
ATOM     65  C   UNL     1       6.867   6.356  14.296  1.00  0.00     0.074 A 
ATOM     66  C   UNL     1       6.198   7.566  13.861  1.00  0.00     0.031 C 
ATOM     67  C   UNL     1       7.245   6.112  15.579  1.00  0.00     0.034 A 
BRANCH  54  68
ATOM     68  C   UNL     1      10.144   0.653  16.320  1.00  0.00     0.023 A 
ATOM     69  C   UNL     1      11.469   0.225  16.111  1.00  0.00     0.031 A 
ATOM     70  C   UNL     1       9.419   0.053  17.364  1.00  0.00     0.131 A 
ATOM     71  C   UNL     1      11.989  -0.841  16.860  1.00  0.00     0.055 A 
ATOM     72  C   UNL     1       9.976  -0.943  18.169  1.00  0.00     0.041 A 
ATOM     73  F   UNL     1       8.144   0.400  17.599  1.00  0.00    -0.206 F 
ATOM     74  C   UNL     1      11.260  -1.412  17.905  1.00  0.00     0.022 A 
BRANCH  71  75
ATOM     75  S   UNL     1      13.547  -1.599  16.320  1.00  0.00     0.124 S 
ATOM     76  O   UNL     1      13.240  -1.952  14.936  1.00  0.00    -0.237 OA
ATOM     77  O   UNL     1      14.505  -0.517  16.508  1.00  0.00    -0.237 OA
ATOM     78  O   UNL     1      13.704  -2.738  17.223  1.00  0.00    -0.744 OA
ENDBRANCH  71  75
ENDBRANCH  54  68
BRANCH  55  79
ATOM     79  C   UNL     1       5.803   6.834   9.731  1.00  0.00     0.023 A 
ATOM     80  C   UNL     1       6.365   8.094   9.472  1.00  0.00     0.031 A 
ATOM     81  C   UNL     1       4.606   6.495   9.075  1.00  0.00     0.131 A 
ATOM     82  C   UNL     1       5.712   8.986   8.607  1.00  0.00     0.055 A 
ATOM     83  C   UNL     1       3.984   7.368   8.182  1.00  0.00     0.041 A 
ATOM     84  F   UNL     1       4.031   5.301   9.288  1.00  0.00    -0.206 F 
ATOM     85  C   UNL     1       4.532   8.627   7.951  1.00  0.00     0.022 A 
BRANCH  82  86
ATOM     86  S   UNL     1       6.401  10.650   8.391  1.00  0.00     0.124 S 
ATOM     87  O   UNL     1       6.324  11.182   9.746  1.00  0.00    -0.237 OA
ATOM     88  O   UNL     1       7.741  10.361   7.890  1.00  0.00    -0.237 OA
ATOM     89  O   UNL     1       5.498  11.269   7.423  1.00  0.00    -0.744 OA
ENDBRANCH  82  86
ENDBRANCH  55  79
BRANCH  67  90
ATOM     90  C   UNL     1       6.976   7.204  16.590  1.00  0.00     0.023 A 
ATOM     91  C   UNL     1       5.668   7.600  16.926  1.00  0.00     0.031 A 
ATOM     92  C   UNL     1       8.046   7.887  17.195  1.00  0.00     0.131 A 
ATOM     93  C   UNL     1       5.466   8.695  17.780  1.00  0.00     0.055 A 
ATOM     94  C   UNL     1       7.838   8.931  18.098  1.00  0.00     0.041 A 
ATOM     95  F   UNL     1       9.316   7.555  16.913  1.00  0.00    -0.206 F 
ATOM     96  C   UNL     1       6.542   9.353  18.381  1.00  0.00     0.022 A 
BRANCH  93  97
ATOM     97  S   UNL     1       3.780   9.330  17.997  1.00  0.00     0.124 S 
ATOM     98  O   UNL     1       3.368   9.576  16.619  1.00  0.00    -0.237 OA
ATOM     99  O   UNL     1       3.115   8.222  18.674  1.00  0.00    -0.237 OA
ATOM    100  O   UNL     1       3.967  10.530  18.811  1.00  0.00    -0.744 OA
ENDBRANCH  93  97
ENDBRANCH  67  90
ENDBRANCH  41  42
ENDBRANCH  34  36
ENDBRANCH  33  34
ENDBRANCH  32  33
ENDBRANCH  31  32
ENDBRANCH  30  31
ENDBRANCH  29  30
ENDBRANCH   1  29
TORSDOF 25
