REMARK SMILES COc1ccc(-c2cc(CC3(C(=O)NCCCCCCNC(=O)c4ccc(-c5c6nc(c(-c7cccc(S(=O)(=O)[O-])c7F)c7ccc([nH]7)c(-c7cccc(S(=O)(=O)[O-])c7F)c7nc(c(-c8cccc(S(=O)(=O)[O-])c8F)c8ccc5[nH]8)C=C7)C=C6)cc4)CCN(C(=O)C4CCCC4)CC3)on2)cc1
REMARK SMILES IDX 17 1 16 2 15 3 14 4 12 5 13 6 11 8 87 9 98 10 88 11 97 12
REMARK SMILES IDX 89 13 90 14 91 15 10 16 9 17 7 18 8 19 100 20 99 21 6 22
REMARK SMILES IDX 3 23 4 24 102 25 5 26 101 27 2 28 1 29 92 30 93 31 96 32
REMARK SMILES IDX 94 33 95 34 18 35 19 36 20 37 21 38 22 39 23 41 24 42 25 43
REMARK SMILES IDX 86 44 26 45 85 46 27 47 28 48 29 49 79 50 30 51 84 52 78 53
REMARK SMILES IDX 80 54 31 55 83 56 77 57 76 58 32 60 64 61 44 62 63 63 45 64
REMARK SMILES IDX 48 65 62 66 81 67 46 68 47 69 61 71 82 72 49 73 33 74 34 75
REMARK SMILES IDX 42 76 35 77 37 78 43 79 36 80 38 81 39 82 40 83 41 84 65 85
REMARK SMILES IDX 66 86 74 87 67 88 69 89 75 90 68 91 70 92 71 93 72 94 73 95
REMARK SMILES IDX 50 96 51 97 59 98 52 99 54 100 60 101 53 102 55 103 56 104
REMARK SMILES IDX 57 105 58 106
REMARK H PARENT 14 7 21 40 80 59 48 70
REMARK Flexibility Score: inf
ROOT
ATOM      1  C   UNL     1       2.119   9.893  12.222  1.00  0.00     0.002 C 
ENDROOT
BRANCH   1   2
ATOM      2  C   UNL     1       1.584   8.587  11.624  1.00  0.00     0.021 C 
BRANCH   2   3
ATOM      3  C   UNL     1       1.911   8.406  10.145  1.00  0.00     0.116 C 
BRANCH   3   4
ATOM      4  N   UNL     1       3.323   8.100   9.950  1.00  0.00    -0.356 N 
ATOM      5  C   UNL     1       3.950   7.096   9.273  1.00  0.00     0.226 C 
ATOM      6  O   UNL     1       5.185   7.107   9.295  1.00  0.00    -0.274 OA
ATOM      7  H   UNL     1       3.936   8.734  10.387  1.00  0.00     0.163 HD
BRANCH   5   8
ATOM      8  C   UNL     1       3.162   6.016   8.489  1.00  0.00     0.060 C 
ATOM      9  C   UNL     1       2.296   5.213   9.493  1.00  0.00     0.039 C 
ATOM     10  C   UNL     1       2.360   6.753   7.387  1.00  0.00     0.039 C 
ATOM     11  C   UNL     1       0.978   4.665   8.957  1.00  0.00     0.120 C 
ATOM     12  C   UNL     1       1.072   6.079   6.947  1.00  0.00     0.120 C 
ATOM     13  N   UNL     1       0.277   5.562   8.046  1.00  0.00    -0.342 N 
ATOM     14  C   UNL     1      -1.116   5.482   8.043  1.00  0.00     0.225 C 
ATOM     15  O   UNL     1      -1.706   4.707   8.804  1.00  0.00    -0.275 OA
BRANCH   8  16
ATOM     16  C   UNL     1       4.232   5.070   7.838  1.00  0.00     0.095 C 
BRANCH  16  17
ATOM     17  C   UNL     1       3.670   4.033   6.936  1.00  0.00     0.138 A 
ATOM     18  C   UNL     1       2.677   2.788   5.416  1.00  0.00     0.114 A 
ATOM     19  C   UNL     1       3.424   3.979   5.587  1.00  0.00     0.077 A 
ATOM     20  N   UNL     1       2.600   2.103   6.564  1.00  0.00    -0.080 NA
ATOM     21  O   UNL     1       3.246   2.878   7.511  1.00  0.00    -0.361 OA
BRANCH  18  22
ATOM     22  C   UNL     1       2.048   2.323   4.197  1.00  0.00     0.004 A 
ATOM     23  C   UNL     1       0.884   1.471   1.796  1.00  0.00     0.118 A 
ATOM     24  C   UNL     1       0.120   2.160   2.742  1.00  0.00     0.047 A 
ATOM     25  C   UNL     1       2.235   1.226   2.047  1.00  0.00     0.047 A 
ATOM     26  C   UNL     1       0.694   2.577   3.947  1.00  0.00     0.014 A 
ATOM     27  C   UNL     1       2.816   1.652   3.244  1.00  0.00     0.014 A 
BRANCH  23  28
ATOM     28  O   UNL     1       0.226   1.121   0.649  1.00  0.00    -0.497 OA
ATOM     29  C   UNL     1       0.734  -0.029  -0.020  1.00  0.00     0.278 C 
ENDBRANCH  23  28
ENDBRANCH  18  22
ENDBRANCH  16  17
ENDBRANCH   8  16
BRANCH  14  30
ATOM     30  C   UNL     1      -1.958   6.357   7.116  1.00  0.00     0.078 C 
ATOM     31  C   UNL     1      -1.696   7.852   7.260  1.00  0.00     0.013 C 
ATOM     32  C   UNL     1      -1.858   6.026   5.628  1.00  0.00     0.013 C 
ATOM     33  C   UNL     1      -2.125   8.452   5.932  1.00  0.00     0.001 C 
ATOM     34  C   UNL     1      -1.989   7.352   4.885  1.00  0.00     0.001 C 
ENDBRANCH  14  30
ENDBRANCH   5   8
ENDBRANCH   3   4
ENDBRANCH   2   3
ENDBRANCH   1   2
BRANCH   1  35
ATOM     35  C   UNL     1       1.603  11.172  11.552  1.00  0.00     0.002 C 
BRANCH  35  36
ATOM     36  C   UNL     1       0.080  11.294  11.468  1.00  0.00     0.021 C 
BRANCH  36  37
ATOM     37  C   UNL     1      -0.643  11.204  12.808  1.00  0.00     0.116 C 
BRANCH  37  38
ATOM     38  N   UNL     1      -0.242  12.264  13.720  1.00  0.00    -0.352 N 
ATOM     39  C   UNL     1      -1.022  13.155  14.412  1.00  0.00     0.251 C 
ATOM     40  H   UNL     1       0.729  12.355  13.860  1.00  0.00     0.163 HD
ATOM     41  O   UNL     1      -0.500  14.106  14.992  1.00  0.00    -0.269 OA
BRANCH  39  42
ATOM     42  C   UNL     1      -2.489  12.981  14.444  1.00  0.00     0.039 A 
ATOM     43  C   UNL     1      -3.307  14.097  14.250  1.00  0.00     0.014 A 
ATOM     44  C   UNL     1      -3.058  11.723  14.664  1.00  0.00     0.014 A 
ATOM     45  C   UNL     1      -4.695  13.940  14.220  1.00  0.00     0.010 A 
ATOM     46  C   UNL     1      -4.435  11.557  14.556  1.00  0.00     0.010 A 
ATOM     47  C   UNL     1      -5.270  12.664  14.340  1.00  0.00    -0.014 A 
BRANCH  47  48
ATOM     48  C   UNL     1      -6.739  12.468  14.229  1.00  0.00     0.031 A 
ATOM     49  C   UNL     1      -7.523  11.916  15.389  1.00  0.00     0.074 A 
ATOM     50  C   UNL     1      -7.354  12.713  13.055  1.00  0.00     0.049 A 
ATOM     51  N   UNL     1      -8.798  11.632  15.460  1.00  0.00    -0.248 NA
ATOM     52  C   UNL     1      -6.774  11.620  16.621  1.00  0.00     0.031 C 
ATOM     53  C   UNL     1      -6.692  13.176  11.834  1.00  0.00     0.029 A 
ATOM     54  N   UNL     1      -8.671  12.580  12.688  1.00  0.00    -0.354 N 
ATOM     55  C   UNL     1      -8.998  11.097  16.727  1.00  0.00     0.074 A 
ATOM     56  C   UNL     1      -7.707  11.059  17.377  1.00  0.00     0.031 C 
ATOM     57  C   UNL     1      -7.604  13.290  10.855  1.00  0.00     0.029 A 
ATOM     58  C   UNL     1      -8.907  12.877  11.366  1.00  0.00     0.049 A 
ATOM     59  H   UNL     1      -9.378  12.299  13.312  1.00  0.00     0.167 HD
ATOM     60  C   UNL     1     -10.155  10.698  17.309  1.00  0.00     0.034 A 
ATOM     61  C   UNL     1     -10.041  12.810  10.641  1.00  0.00     0.034 A 
ATOM     62  C   UNL     1     -11.441  10.763  16.669  1.00  0.00     0.049 A 
ATOM     63  C   UNL     1     -11.317  12.389  11.317  1.00  0.00     0.074 A 
ATOM     64  C   UNL     1     -12.682  10.459  17.200  1.00  0.00     0.029 A 
ATOM     65  N   UNL     1     -11.653  11.143  15.353  1.00  0.00    -0.354 N 
ATOM     66  N   UNL     1     -11.512  12.034  12.563  1.00  0.00    -0.248 NA
ATOM     67  C   UNL     1     -12.537  12.394  10.497  1.00  0.00     0.031 C 
ATOM     68  C   UNL     1     -13.641  10.623  16.195  1.00  0.00     0.029 A 
ATOM     69  C   UNL     1     -13.002  11.070  15.049  1.00  0.00     0.049 A 
ATOM     70  H   UNL     1     -10.948  11.424  14.726  1.00  0.00     0.167 HD
ATOM     71  C   UNL     1     -12.878  11.808  12.687  1.00  0.00     0.074 A 
ATOM     72  C   UNL     1     -13.465  12.088  11.393  1.00  0.00     0.031 C 
ATOM     73  C   UNL     1     -13.582  11.395  13.771  1.00  0.00     0.034 A 
BRANCH  60  74
ATOM     74  C   UNL     1     -10.087  10.196  18.729  1.00  0.00     0.023 A 
ATOM     75  C   UNL     1      -9.798  11.098  19.775  1.00  0.00     0.012 A 
ATOM     76  C   UNL     1     -10.358   8.849  19.037  1.00  0.00     0.148 A 
ATOM     77  C   UNL     1      -9.739  10.660  21.097  1.00  0.00     0.002 A 
ATOM     78  C   UNL     1     -10.346   8.430  20.362  1.00  0.00     0.091 A 
ATOM     79  F   UNL     1     -10.613   8.001  18.030  1.00  0.00    -0.205 F 
ATOM     80  C   UNL     1     -10.023   9.329  21.391  1.00  0.00     0.022 A 
BRANCH  78  81
ATOM     81  S   UNL     1     -10.780   6.758  20.856  1.00  0.00     0.127 S 
ATOM     82  O   UNL     1      -9.487   6.237  21.299  1.00  0.00    -0.237 OA
ATOM     83  O   UNL     1     -11.742   6.995  21.932  1.00  0.00    -0.237 OA
ATOM     84  O   UNL     1     -11.337   6.120  19.672  1.00  0.00    -0.744 OA
ENDBRANCH  78  81
ENDBRANCH  60  74
BRANCH  61  85
ATOM     85  C   UNL     1     -10.027  13.202   9.203  1.00  0.00     0.023 A 
ATOM     86  C   UNL     1     -10.682  14.380   8.796  1.00  0.00     0.012 A 
ATOM     87  C   UNL     1      -9.346  12.429   8.242  1.00  0.00     0.148 A 
ATOM     88  C   UNL     1     -10.689  14.764   7.455  1.00  0.00     0.002 A 
ATOM     89  C   UNL     1      -9.306  12.847   6.918  1.00  0.00     0.091 A 
ATOM     90  F   UNL     1      -8.735  11.307   8.648  1.00  0.00    -0.205 F 
ATOM     91  C   UNL     1      -9.993  14.004   6.518  1.00  0.00     0.022 A 
BRANCH  89  92
ATOM     92  S   UNL     1      -8.323  12.008   5.670  1.00  0.00     0.127 S 
ATOM     93  O   UNL     1      -9.356  11.441   4.806  1.00  0.00    -0.237 OA
ATOM     94  O   UNL     1      -7.570  13.117   5.085  1.00  0.00    -0.237 OA
ATOM     95  O   UNL     1      -7.505  11.043   6.393  1.00  0.00    -0.744 OA
ENDBRANCH  89  92
ENDBRANCH  61  85
BRANCH  73  96
ATOM     96  C   UNL     1     -15.076  11.260  13.626  1.00  0.00     0.023 A 
ATOM     97  C   UNL     1     -15.619  10.212  12.857  1.00  0.00     0.012 A 
ATOM     98  C   UNL     1     -15.942  12.133  14.313  1.00  0.00     0.148 A 
ATOM     99  C   UNL     1     -17.000  10.057  12.745  1.00  0.00     0.002 A 
ATOM    100  C   UNL     1     -17.316  11.941  14.241  1.00  0.00     0.091 A 
ATOM    101  F   UNL     1     -15.407  13.135  15.026  1.00  0.00    -0.205 F 
ATOM    102  C   UNL     1     -17.848  10.912  13.446  1.00  0.00     0.022 A 
BRANCH 100 103
ATOM    103  S   UNL     1     -18.480  12.930  15.186  1.00  0.00     0.127 S 
ATOM    104  O   UNL     1     -19.123  13.717  14.135  1.00  0.00    -0.237 OA
ATOM    105  O   UNL     1     -19.334  11.907  15.791  1.00  0.00    -0.237 OA
ATOM    106  O   UNL     1     -17.683  13.693  16.137  1.00  0.00    -0.744 OA
ENDBRANCH 100 103
ENDBRANCH  73  96
ENDBRANCH  47  48
ENDBRANCH  39  42
ENDBRANCH  37  38
ENDBRANCH  36  37
ENDBRANCH  35  36
ENDBRANCH   1  35
TORSDOF 21
