REMARK SMILES CCc1cc(OC(F)(F)F)cc2c1O[C@@H](C(F)(F)F)C(C(=O)NCCCCCCNC(=O)c1ccc(-c3c4nc(c(-c5cccc(S(=O)(=O)[O-])c5F)c5ccc([nH]5)c(-c5cccc(S(=O)(=O)[O-])c5F)c5nc(c(-c6cccc(S(=O)(=O)[O-])c6F)c6ccc3[nH]6)C=C5)C=C4)cc1)=C2
REMARK SMILES IDX 27 1 26 2 25 3 24 4 23 5 21 6 22 7 20 9 3 10 4 11 13 12 5 13
REMARK SMILES IDX 12 14 14 15 11 16 96 17 15 18 2 19 1 20 6 21 7 22 8 23 9 24
REMARK SMILES IDX 10 25 16 26 17 27 18 28 19 29 28 30 29 31 30 32 31 33 32 35
REMARK SMILES IDX 33 36 34 37 95 38 35 39 94 40 36 41 37 42 38 43 88 44 39 45
REMARK SMILES IDX 93 46 87 47 89 48 40 49 92 50 86 51 85 52 41 54 73 55 53 56
REMARK SMILES IDX 72 57 54 58 57 59 71 60 90 61 55 62 56 63 70 65 91 66 58 67
REMARK SMILES IDX 42 68 43 69 51 70 44 71 46 72 52 73 45 74 47 75 48 76 49 77
REMARK SMILES IDX 50 78 74 79 75 80 83 81 76 82 78 83 84 84 77 85 79 86 80 87
REMARK SMILES IDX 81 88 82 89 59 90 60 91 68 92 61 93 63 94 69 95 62 96 64 97
REMARK SMILES IDX 65 98 66 99 67 100
REMARK H PARENT 23 8 30 34 89 53 57 64
REMARK Flexibility Score: inf
ROOT
ATOM      1  C   UNL     1       1.561  11.649  -2.223  1.00  0.00     0.002 C 
ENDROOT
BRANCH   1   2
ATOM      2  C   UNL     1       0.300  10.780  -2.294  1.00  0.00     0.002 C 
BRANCH   2   3
ATOM      3  C   UNL     1       0.572   9.270  -2.340  1.00  0.00     0.021 C 
BRANCH   3   4
ATOM      4  C   UNL     1       1.260   8.751  -1.071  1.00  0.00     0.116 C 
BRANCH   4   5
ATOM      5  N   UNL     1       0.265   8.592  -0.022  1.00  0.00    -0.352 N 
ATOM      6  C   UNL     1      -0.508   7.546   0.365  1.00  0.00     0.251 C 
ATOM      7  O   UNL     1      -1.446   7.780   1.125  1.00  0.00    -0.270 OA
ATOM      8  H   UNL     1       0.124   9.405   0.514  1.00  0.00     0.163 HD
BRANCH   6   9
ATOM      9  C   UNL     1      -0.216   6.136  -0.009  1.00  0.00     0.067 C 
ATOM     10  C   UNL     1       0.886   2.113  -0.634  1.00  0.00    -0.002 A 
ATOM     11  C   UNL     1       1.550   1.782  -1.831  1.00  0.00     0.054 A 
ATOM     12  C   UNL     1       0.476   3.446  -0.438  1.00  0.00     0.131 A 
ATOM     13  C   UNL     1       1.789   2.745  -2.814  1.00  0.00     0.130 A 
ATOM     14  C   UNL     1       0.688   4.405  -1.425  1.00  0.00     0.021 A 
ATOM     15  O   UNL     1      -0.071   3.757   0.774  1.00  0.00    -0.475 OA
ATOM     16  C   UNL     1       1.347   4.052  -2.606  1.00  0.00     0.058 A 
ATOM     17  C   UNL     1       0.309   5.789  -1.192  1.00  0.00     0.025 C 
ATOM     18  C   UNL     1      -0.686   5.063   0.969  1.00  0.00     0.314 C 
BRANCH  10  19
ATOM     19  C   UNL     1       0.595   1.091   0.448  1.00  0.00     0.036 C 
ATOM     20  C   UNL     1       1.021  -0.347   0.180  1.00  0.00     0.009 C 
ENDBRANCH  10  19
BRANCH  13  21
ATOM     21  O   UNL     1       2.440   2.558  -3.999  1.00  0.00    -0.406 OA
BRANCH  21  22
ATOM     22  C   UNL     1       2.869   1.248  -4.327  1.00  0.00     0.573 C 
ATOM     23  F   UNL     1       3.767   0.787  -3.430  1.00  0.00    -0.132 F 
ATOM     24  F   UNL     1       1.817   0.400  -4.378  1.00  0.00    -0.132 F 
ATOM     25  F   UNL     1       3.450   1.266  -5.544  1.00  0.00    -0.132 F 
ENDBRANCH  21  22
ENDBRANCH  13  21
BRANCH  18  26
ATOM     26  C   UNL     1      -0.588   5.389   2.478  1.00  0.00     0.429 C 
ATOM     27  F   UNL     1      -1.655   6.084   2.936  1.00  0.00    -0.167 F 
ATOM     28  F   UNL     1      -0.570   4.246   3.220  1.00  0.00    -0.167 F 
ATOM     29  F   UNL     1       0.534   6.073   2.796  1.00  0.00    -0.167 F 
ENDBRANCH  18  26
ENDBRANCH   6   9
ENDBRANCH   4   5
ENDBRANCH   3   4
ENDBRANCH   2   3
ENDBRANCH   1   2
BRANCH   1  30
ATOM     30  C   UNL     1       2.571  11.400  -3.345  1.00  0.00     0.021 C 
BRANCH  30  31
ATOM     31  C   UNL     1       2.029  11.693  -4.741  1.00  0.00     0.116 C 
BRANCH  31  32
ATOM     32  N   UNL     1       1.710  13.105  -4.900  1.00  0.00    -0.352 N 
ATOM     33  C   UNL     1       2.238  14.015  -5.782  1.00  0.00     0.251 C 
ATOM     34  H   UNL     1       1.020  13.455  -4.291  1.00  0.00     0.163 HD
ATOM     35  O   UNL     1       2.054  15.215  -5.617  1.00  0.00    -0.269 OA
BRANCH  33  36
ATOM     36  C   UNL     1       3.037  13.530  -6.926  1.00  0.00     0.039 A 
ATOM     37  C   UNL     1       4.257  14.144  -7.215  1.00  0.00     0.014 A 
ATOM     38  C   UNL     1       2.581  12.458  -7.699  1.00  0.00     0.014 A 
ATOM     39  C   UNL     1       5.055  13.635  -8.242  1.00  0.00     0.010 A 
ATOM     40  C   UNL     1       3.410  11.909  -8.672  1.00  0.00     0.010 A 
ATOM     41  C   UNL     1       4.656  12.490  -8.951  1.00  0.00    -0.014 A 
BRANCH  41  42
ATOM     42  C   UNL     1       5.542  11.859  -9.962  1.00  0.00     0.031 A 
ATOM     43  C   UNL     1       5.108  11.764 -11.399  1.00  0.00     0.074 A 
ATOM     44  C   UNL     1       6.694  11.284  -9.563  1.00  0.00     0.049 A 
ATOM     45  N   UNL     1       5.709  11.179 -12.402  1.00  0.00    -0.248 NA
ATOM     46  C   UNL     1       3.820  12.384 -11.751  1.00  0.00     0.031 C 
ATOM     47  C   UNL     1       7.187  11.248  -8.184  1.00  0.00     0.029 A 
ATOM     48  N   UNL     1       7.644  10.592 -10.272  1.00  0.00    -0.354 N 
ATOM     49  C   UNL     1       4.863  11.332 -13.493  1.00  0.00     0.074 A 
ATOM     50  C   UNL     1       3.690  12.037 -13.023  1.00  0.00     0.031 C 
ATOM     51  C   UNL     1       8.345  10.571  -8.148  1.00  0.00     0.029 A 
ATOM     52  C   UNL     1       8.658  10.090  -9.489  1.00  0.00     0.049 A 
ATOM     53  H   UNL     1       7.604  10.468 -11.248  1.00  0.00     0.167 HD
ATOM     54  C   UNL     1       5.056  10.942 -14.776  1.00  0.00     0.034 A 
ATOM     55  C   UNL     1       9.710   9.311  -9.811  1.00  0.00     0.034 A 
ATOM     56  C   UNL     1       6.236  10.268 -15.244  1.00  0.00     0.049 A 
ATOM     57  C   UNL     1       9.902   8.898 -11.245  1.00  0.00     0.074 A 
ATOM     58  C   UNL     1       6.564   9.910 -16.540  1.00  0.00     0.029 A 
ATOM     59  N   UNL     1       7.274   9.834 -14.434  1.00  0.00    -0.354 N 
ATOM     60  N   UNL     1       9.170   9.192 -12.292  1.00  0.00    -0.248 NA
ATOM     61  C   UNL     1      11.078   8.070 -11.547  1.00  0.00     0.031 C 
ATOM     62  C   UNL     1       7.783   9.226 -16.509  1.00  0.00     0.029 A 
ATOM     63  C   UNL     1       8.233   9.191 -15.199  1.00  0.00     0.049 A 
ATOM     64  H   UNL     1       7.323   9.963 -13.460  1.00  0.00     0.167 HD
ATOM     65  C   UNL     1       9.813   8.612 -13.380  1.00  0.00     0.074 A 
ATOM     66  C   UNL     1      11.007   7.972 -12.868  1.00  0.00     0.031 C 
ATOM     67  C   UNL     1       9.440   8.597 -14.683  1.00  0.00     0.034 A 
BRANCH  54  68
ATOM     68  C   UNL     1       3.982  11.273 -15.781  1.00  0.00     0.023 A 
ATOM     69  C   UNL     1       3.790  12.611 -16.180  1.00  0.00     0.012 A 
ATOM     70  C   UNL     1       3.216  10.256 -16.382  1.00  0.00     0.148 A 
ATOM     71  C   UNL     1       2.830  12.937 -17.138  1.00  0.00     0.002 A 
ATOM     72  C   UNL     1       2.293  10.582 -17.369  1.00  0.00     0.091 A 
ATOM     73  F   UNL     1       3.400   8.992 -15.976  1.00  0.00    -0.205 F 
ATOM     74  C   UNL     1       2.091  11.922 -17.740  1.00  0.00     0.022 A 
BRANCH  72  75
ATOM     75  S   UNL     1       1.348   9.344 -18.263  1.00  0.00     0.127 S 
ATOM     76  O   UNL     1      -0.008   9.606 -17.782  1.00  0.00    -0.237 OA
ATOM     77  O   UNL     1       1.585   9.724 -19.655  1.00  0.00    -0.237 OA
ATOM     78  O   UNL     1       1.905   8.055 -17.878  1.00  0.00    -0.744 OA
ENDBRANCH  72  75
ENDBRANCH  54  68
BRANCH  55  79
ATOM     79  C   UNL     1      10.684   8.900  -8.760  1.00  0.00     0.023 A 
ATOM     80  C   UNL     1      11.995   9.413  -8.790  1.00  0.00     0.012 A 
ATOM     81  C   UNL     1      10.316   8.017  -7.727  1.00  0.00     0.148 A 
ATOM     82  C   UNL     1      12.933   9.026  -7.832  1.00  0.00     0.002 A 
ATOM     83  C   UNL     1      11.237   7.681  -6.742  1.00  0.00     0.091 A 
ATOM     84  F   UNL     1       9.067   7.530  -7.721  1.00  0.00    -0.205 F 
ATOM     85  C   UNL     1      12.552   8.168  -6.803  1.00  0.00     0.022 A 
BRANCH  83  86
ATOM     86  S   UNL     1      10.796   6.692  -5.309  1.00  0.00     0.127 S 
ATOM     87  O   UNL     1      11.519   5.450  -5.568  1.00  0.00    -0.237 OA
ATOM     88  O   UNL     1      11.328   7.499  -4.210  1.00  0.00    -0.237 OA
ATOM     89  O   UNL     1       9.342   6.594  -5.330  1.00  0.00    -0.744 OA
ENDBRANCH  83  86
ENDBRANCH  55  79
BRANCH  67  90
ATOM     90  C   UNL     1      10.341   7.890 -15.662  1.00  0.00     0.023 A 
ATOM     91  C   UNL     1      10.410   6.483 -15.662  1.00  0.00     0.012 A 
ATOM     92  C   UNL     1      11.054   8.618 -16.635  1.00  0.00     0.148 A 
ATOM     93  C   UNL     1      11.198   5.812 -16.596  1.00  0.00     0.002 A 
ATOM     94  C   UNL     1      11.796   7.941 -17.595  1.00  0.00     0.091 A 
ATOM     95  F   UNL     1      10.986   9.957 -16.608  1.00  0.00    -0.205 F 
ATOM     96  C   UNL     1      11.879   6.539 -17.569  1.00  0.00     0.022 A 
BRANCH  94  97
ATOM     97  S   UNL     1      12.629   8.782 -18.946  1.00  0.00     0.127 S 
ATOM     98  O   UNL     1      14.035   8.551 -18.618  1.00  0.00    -0.237 OA
ATOM     99  O   UNL     1      12.145   8.045 -20.113  1.00  0.00    -0.237 OA
ATOM    100  O   UNL     1      12.198  10.172 -18.884  1.00  0.00    -0.744 OA
ENDBRANCH  94  97
ENDBRANCH  67  90
ENDBRANCH  41  42
ENDBRANCH  33  36
ENDBRANCH  31  32
ENDBRANCH  30  31
ENDBRANCH   1  30
TORSDOF 20
