REMARK SMILES COc1ccc([C@@H](C(=O)NCCCCCCNC(=O)c2ccc(-c3c4nc(c(-c5cccc(S(=O)(=O)[O-])c5F)c5ccc([nH]5)c(-c5cccc(S(=O)(=O)[O-])c5F)c5nc(c(-c6cccc(S(=O)(=O)[O-])c6F)c6ccc3[nH]6)C=C5)C=C4)cc2)[NH+]2CCC(C(N)=O)CC2)c(C)c1
REMARK SMILES IDX 14 1 13 2 12 3 11 4 10 5 8 6 9 7 7 9 6 10 3 11 4 12 94 13
REMARK SMILES IDX 5 14 92 15 93 16 2 17 1 18 83 19 84 20 91 21 85 23 90 24
REMARK SMILES IDX 86 25 87 26 88 27 89 28 15 31 16 32 17 33 18 34 19 36 20 37
REMARK SMILES IDX 21 38 82 39 22 40 81 41 23 42 24 43 25 44 75 45 26 46 80 47
REMARK SMILES IDX 74 48 76 49 27 50 79 51 73 52 72 53 28 55 60 56 40 57 59 58
REMARK SMILES IDX 41 59 44 60 58 61 77 62 42 63 43 64 57 66 78 67 45 68 29 69
REMARK SMILES IDX 30 70 38 71 31 72 33 73 39 74 32 75 34 76 35 77 36 78 37 79
REMARK SMILES IDX 61 80 62 81 70 82 63 83 65 84 71 85 64 86 66 87 67 88 68 89
REMARK SMILES IDX 69 90 46 91 47 92 55 93 48 94 50 95 56 96 49 97 51 98 52 99
REMARK SMILES IDX 53 100 54 101
REMARK H PARENT 10 8 83 22 88 29 88 30 17 35 76 54 44 65
REMARK Flexibility Score: inf
ROOT
ATOM      1  C   UNL     1       4.023  -0.536   8.576  1.00  0.00     0.002 C 
ENDROOT
BRANCH   1   2
ATOM      2  C   UNL     1       2.808  -0.322   7.662  1.00  0.00     0.002 C 
BRANCH   2   3
ATOM      3  C   UNL     1       2.904  -0.914   6.250  1.00  0.00     0.021 C 
BRANCH   3   4
ATOM      4  C   UNL     1       3.324  -2.382   6.191  1.00  0.00     0.116 C 
BRANCH   4   5
ATOM      5  N   UNL     1       2.370  -3.249   6.846  1.00  0.00    -0.351 N 
ATOM      6  C   UNL     1       1.528  -4.186   6.314  1.00  0.00     0.283 C 
ATOM      7  O   UNL     1       0.857  -4.828   7.128  1.00  0.00    -0.268 OA
ATOM      8  H   UNL     1       2.319  -3.150   7.824  1.00  0.00     0.163 HD
BRANCH   6   9
ATOM      9  C   UNL     1       1.517  -4.441   4.774  1.00  0.00     0.305 C 
BRANCH   9  10
ATOM     10  C   UNL     1       1.201  -3.219   3.890  1.00  0.00     0.022 A 
ATOM     11  C   UNL     1       0.832  -1.070   2.062  1.00  0.00     0.119 A 
ATOM     12  C   UNL     1       1.927  -1.908   1.926  1.00  0.00     0.047 A 
ATOM     13  C   UNL     1      -0.052  -1.281   3.119  1.00  0.00     0.050 A 
ATOM     14  C   UNL     1       2.097  -2.971   2.818  1.00  0.00     0.014 A 
ATOM     15  C   UNL     1       0.116  -2.330   4.051  1.00  0.00    -0.038 A 
ATOM     16  C   UNL     1      -0.932  -2.412   5.126  1.00  0.00     0.045 C 
BRANCH  11  17
ATOM     17  O   UNL     1       0.521  -0.014   1.255  1.00  0.00    -0.497 OA
ATOM     18  C   UNL     1       1.205   0.069   0.011  1.00  0.00     0.278 C 
ENDBRANCH  11  17
ENDBRANCH   9  10
BRANCH   9  19
ATOM     19  N   UNL     1       0.782  -5.699   4.419  1.00  0.00    -0.321 N 
ATOM     20  C   UNL     1      -0.670  -5.611   4.600  1.00  0.00     0.263 C 
ATOM     21  C   UNL     1       1.151  -6.208   3.092  1.00  0.00     0.263 C 
ATOM     22  H   UNL     1       1.094  -6.391   5.100  1.00  0.00     0.349 HD
ATOM     23  C   UNL     1      -1.355  -6.952   4.349  1.00  0.00     0.075 C 
ATOM     24  C   UNL     1       0.484  -7.552   2.788  1.00  0.00     0.075 C 
ATOM     25  C   UNL     1      -1.030  -7.432   2.939  1.00  0.00     0.089 C 
BRANCH  25  26
ATOM     26  C   UNL     1      -1.732  -8.744   2.660  1.00  0.00     0.220 C 
ATOM     27  N   UNL     1      -2.839  -8.634   1.869  1.00  0.00    -0.369 N 
ATOM     28  O   UNL     1      -1.386  -9.829   3.109  1.00  0.00    -0.275 OA
ATOM     29  H   UNL     1      -3.106  -7.755   1.514  1.00  0.00     0.159 HD
ATOM     30  H   UNL     1      -3.371  -9.434   1.652  1.00  0.00     0.159 HD
ENDBRANCH  25  26
ENDBRANCH   9  19
ENDBRANCH   6   9
ENDBRANCH   4   5
ENDBRANCH   3   4
ENDBRANCH   2   3
ENDBRANCH   1   2
BRANCH   1  31
ATOM     31  C   UNL     1       5.394  -0.277   7.951  1.00  0.00     0.021 C 
BRANCH  31  32
ATOM     32  C   UNL     1       5.620   1.158   7.512  1.00  0.00     0.116 C 
BRANCH  32  33
ATOM     33  N   UNL     1       6.344   1.947   8.488  1.00  0.00    -0.352 N 
ATOM     34  C   UNL     1       6.809   3.244   8.406  1.00  0.00     0.251 C 
ATOM     35  H   UNL     1       6.534   1.488   9.339  1.00  0.00     0.163 HD
ATOM     36  O   UNL     1       7.604   3.629   9.261  1.00  0.00    -0.269 OA
BRANCH  34  37
ATOM     37  C   UNL     1       6.237   4.189   7.412  1.00  0.00     0.039 A 
ATOM     38  C   UNL     1       5.967   5.494   7.850  1.00  0.00     0.014 A 
ATOM     39  C   UNL     1       5.748   3.764   6.180  1.00  0.00     0.014 A 
ATOM     40  C   UNL     1       4.991   6.251   7.207  1.00  0.00     0.010 A 
ATOM     41  C   UNL     1       4.724   4.468   5.590  1.00  0.00     0.010 A 
ATOM     42  C   UNL     1       4.290   5.665   6.160  1.00  0.00    -0.014 A 
BRANCH  42  43
ATOM     43  C   UNL     1       3.052   6.174   5.600  1.00  0.00     0.031 A 
ATOM     44  C   UNL     1       3.096   7.046   4.414  1.00  0.00     0.074 A 
ATOM     45  C   UNL     1       1.896   5.637   6.052  1.00  0.00     0.049 A 
ATOM     46  N   UNL     1       2.084   7.684   3.940  1.00  0.00    -0.248 NA
ATOM     47  C   UNL     1       4.328   7.281   3.673  1.00  0.00     0.031 C 
ATOM     48  C   UNL     1       0.589   5.661   5.407  1.00  0.00     0.029 A 
ATOM     49  N   UNL     1       1.625   5.110   7.322  1.00  0.00    -0.354 N 
ATOM     50  C   UNL     1       2.443   8.175   2.701  1.00  0.00     0.074 A 
ATOM     51  C   UNL     1       3.871   7.983   2.632  1.00  0.00     0.031 C 
ATOM     52  C   UNL     1      -0.355   5.469   6.344  1.00  0.00     0.029 A 
ATOM     53  C   UNL     1       0.324   5.547   7.627  1.00  0.00     0.049 A 
ATOM     54  H   UNL     1       2.218   4.554   7.879  1.00  0.00     0.167 HD
ATOM     55  C   UNL     1       1.454   8.543   1.837  1.00  0.00     0.034 A 
ATOM     56  C   UNL     1       0.047   6.468   8.604  1.00  0.00     0.034 A 
ATOM     57  C   UNL     1       0.148   8.511   2.514  1.00  0.00     0.049 A 
ATOM     58  C   UNL     1      -0.719   7.680   8.086  1.00  0.00     0.074 A 
ATOM     59  C   UNL     1      -0.871   7.572   2.564  1.00  0.00     0.029 A 
ATOM     60  N   UNL     1      -0.112   9.424   3.529  1.00  0.00    -0.354 N 
ATOM     61  N   UNL     1      -0.854   7.972   6.822  1.00  0.00    -0.248 NA
ATOM     62  C   UNL     1      -1.377   8.665   8.944  1.00  0.00     0.031 C 
ATOM     63  C   UNL     1      -1.683   7.869   3.694  1.00  0.00     0.029 A 
ATOM     64  C   UNL     1      -1.185   9.009   4.302  1.00  0.00     0.049 A 
ATOM     65  H   UNL     1       0.397  10.254   3.678  1.00  0.00     0.167 HD
ATOM     66  C   UNL     1      -1.487   9.177   6.677  1.00  0.00     0.074 A 
ATOM     67  C   UNL     1      -1.859   9.536   8.036  1.00  0.00     0.031 C 
ATOM     68  C   UNL     1      -1.595   9.797   5.461  1.00  0.00     0.034 A 
BRANCH  55  69
ATOM     69  C   UNL     1       1.587   8.656   0.320  1.00  0.00     0.023 A 
ATOM     70  C   UNL     1       0.389   8.630  -0.433  1.00  0.00     0.012 A 
ATOM     71  C   UNL     1       2.780   8.696  -0.439  1.00  0.00     0.148 A 
ATOM     72  C   UNL     1       0.374   8.550  -1.832  1.00  0.00     0.002 A 
ATOM     73  C   UNL     1       2.771   8.567  -1.833  1.00  0.00     0.091 A 
ATOM     74  F   UNL     1       3.946   8.928   0.159  1.00  0.00    -0.205 F 
ATOM     75  C   UNL     1       1.567   8.487  -2.534  1.00  0.00     0.022 A 
BRANCH  73  76
ATOM     76  S   UNL     1       4.287   8.431  -2.804  1.00  0.00     0.127 S 
ATOM     77  O   UNL     1       4.072   7.178  -3.532  1.00  0.00    -0.237 OA
ATOM     78  O   UNL     1       4.237   9.633  -3.635  1.00  0.00    -0.237 OA
ATOM     79  O   UNL     1       5.386   8.382  -1.847  1.00  0.00    -0.744 OA
ENDBRANCH  73  76
ENDBRANCH  55  69
BRANCH  56  80
ATOM     80  C   UNL     1       1.057   6.500   9.710  1.00  0.00     0.023 A 
ATOM     81  C   UNL     1       1.278   5.289  10.413  1.00  0.00     0.012 A 
ATOM     82  C   UNL     1       2.023   7.517   9.804  1.00  0.00     0.148 A 
ATOM     83  C   UNL     1       2.503   5.030  11.030  1.00  0.00     0.002 A 
ATOM     84  C   UNL     1       3.236   7.260  10.447  1.00  0.00     0.091 A 
ATOM     85  F   UNL     1       1.776   8.699   9.224  1.00  0.00    -0.205 F 
ATOM     86  C   UNL     1       3.498   6.001  11.009  1.00  0.00     0.022 A 
BRANCH  84  87
ATOM     87  S   UNL     1       4.553   8.486  10.473  1.00  0.00     0.127 S 
ATOM     88  O   UNL     1       4.253   9.212  11.703  1.00  0.00    -0.237 OA
ATOM     89  O   UNL     1       5.760   7.661  10.526  1.00  0.00    -0.237 OA
ATOM     90  O   UNL     1       4.392   9.220   9.227  1.00  0.00    -0.744 OA
ENDBRANCH  84  87
ENDBRANCH  56  80
BRANCH  68  91
ATOM     91  C   UNL     1      -2.059  11.224   5.231  1.00  0.00     0.023 A 
ATOM     92  C   UNL     1      -1.976  12.214   6.227  1.00  0.00     0.012 A 
ATOM     93  C   UNL     1      -2.429  11.658   3.929  1.00  0.00     0.148 A 
ATOM     94  C   UNL     1      -2.284  13.555   5.963  1.00  0.00     0.002 A 
ATOM     95  C   UNL     1      -2.617  13.007   3.646  1.00  0.00     0.091 A 
ATOM     96  F   UNL     1      -2.616  10.758   2.952  1.00  0.00    -0.205 F 
ATOM     97  C   UNL     1      -2.576  13.957   4.666  1.00  0.00     0.022 A 
BRANCH  95  98
ATOM     98  S   UNL     1      -2.739  13.578   1.943  1.00  0.00     0.127 S 
ATOM     99  O   UNL     1      -4.182  13.558   1.715  1.00  0.00    -0.237 OA
ATOM    100  O   UNL     1      -2.153  14.918   2.015  1.00  0.00    -0.237 OA
ATOM    101  O   UNL     1      -1.950  12.626   1.173  1.00  0.00    -0.744 OA
ENDBRANCH  95  98
ENDBRANCH  68  91
ENDBRANCH  42  43
ENDBRANCH  34  37
ENDBRANCH  32  33
ENDBRANCH  31  32
ENDBRANCH   1  31
TORSDOF 20
