REMARK SMILES COc1ccc(OC)c(S(=O)(=O)Nc2ccc(N3CCC(C)CC3)c(C(=O)NCCCCCCNC(=O)c3ccc(-c4c5nc(c(-c6cccc(S(=O)(=O)[O-])c6F)c6ccc([nH]6)c(-c6cccc(S(=O)(=O)[O-])c6F)c6nc(c(-c7cccc(S(=O)(=O)[O-])c7F)c7ccc4[nH]7)C=C6)C=C5)cc3)c2)c1
REMARK SMILES IDX 31 1 30 2 29 3 28 4 26 5 27 6 25 8 14 9 15 10 101 11 16 12
REMARK SMILES IDX 17 13 13 14 10 16 11 17 12 18 9 19 3 20 4 21 102 22 5 23
REMARK SMILES IDX 6 24 2 25 1 26 7 27 8 28 18 29 19 30 24 31 20 32 23 33 21 34
REMARK SMILES IDX 22 35 32 36 33 37 34 38 35 39 36 40 37 42 38 43 39 44 100 45
REMARK SMILES IDX 40 46 99 47 41 48 42 49 43 50 93 51 44 52 98 53 92 54 94 55
REMARK SMILES IDX 45 56 97 57 91 58 90 59 46 61 78 62 58 63 77 64 59 65 62 66
REMARK SMILES IDX 76 67 95 68 60 69 61 70 75 72 96 73 63 74 47 75 48 76 56 77
REMARK SMILES IDX 49 78 51 79 57 80 50 81 52 82 53 83 54 84 55 85 79 86 80 87
REMARK SMILES IDX 88 88 81 89 83 90 89 91 82 92 84 93 85 94 86 95 87 96 64 97
REMARK SMILES IDX 65 98 73 99 66 100 68 101 74 102 67 103 69 104 70 105 71 106
REMARK SMILES IDX 72 107
REMARK H PARENT 28 7 13 15 35 41 94 60 62 71
REMARK Flexibility Score: inf
ROOT
ATOM      1  C   UNL     1       2.059  -1.667  -6.428  1.00  0.00     0.002 C 
ENDROOT
BRANCH   1   2
ATOM      2  C   UNL     1       2.821  -0.904  -5.336  1.00  0.00     0.021 C 
BRANCH   2   3
ATOM      3  C   UNL     1       2.005  -0.717  -4.053  1.00  0.00     0.116 C 
BRANCH   3   4
ATOM      4  N   UNL     1       1.960  -1.968  -3.320  1.00  0.00    -0.352 N 
ATOM      5  C   UNL     1       2.726  -2.473  -2.296  1.00  0.00     0.253 C 
ATOM      6  O   UNL     1       2.735  -3.699  -2.203  1.00  0.00    -0.269 OA
ATOM      7  H   UNL     1       1.241  -2.573  -3.612  1.00  0.00     0.163 HD
BRANCH   5   8
ATOM      8  C   UNL     1       3.498  -1.605  -1.344  1.00  0.00     0.065 A 
ATOM      9  C   UNL     1       4.798   0.436  -1.052  1.00  0.00     0.050 A 
ATOM     10  C   UNL     1       4.824   0.229   0.319  1.00  0.00     0.029 A 
ATOM     11  C   UNL     1       4.267  -0.551  -1.878  1.00  0.00     0.042 A 
ATOM     12  C   UNL     1       4.160  -0.865   0.863  1.00  0.00     0.029 A 
ATOM     13  C   UNL     1       3.410  -1.761   0.071  1.00  0.00     0.050 A 
BRANCH   9  14
ATOM     14  N   UNL     1       5.258   1.698  -1.507  1.00  0.00    -0.279 N 
ATOM     15  H   UNL     1       5.941   2.148  -0.960  1.00  0.00     0.180 HD
BRANCH  14  16
ATOM     16  S   UNL     1       4.743   2.496  -2.893  1.00  0.00     0.265 S 
ATOM     17  O   UNL     1       5.056   1.627  -4.015  1.00  0.00    -0.201 OA
ATOM     18  O   UNL     1       5.303   3.818  -2.763  1.00  0.00    -0.201 OA
BRANCH  16  19
ATOM     19  C   UNL     1       2.972   2.673  -2.827  1.00  0.00     0.133 A 
ATOM     20  C   UNL     1       0.819   2.205  -1.808  1.00  0.00     0.120 A 
ATOM     21  C   UNL     1       0.181   2.612  -2.983  1.00  0.00     0.050 A 
ATOM     22  C   UNL     1       2.214   2.275  -1.714  1.00  0.00     0.072 A 
ATOM     23  C   UNL     1       0.924   3.081  -4.063  1.00  0.00     0.052 A 
ATOM     24  C   UNL     1       2.316   3.121  -3.981  1.00  0.00     0.139 A 
BRANCH  20  25
ATOM     25  O   UNL     1      -0.031   1.745  -0.840  1.00  0.00    -0.497 OA
ATOM     26  C   UNL     1       0.551   1.005   0.225  1.00  0.00     0.278 C 
ENDBRANCH  20  25
BRANCH  24  27
ATOM     27  O   UNL     1       2.992   3.534  -5.094  1.00  0.00    -0.495 OA
ATOM     28  C   UNL     1       3.300   4.934  -5.024  1.00  0.00     0.278 C 
ENDBRANCH  24  27
ENDBRANCH  16  19
ENDBRANCH  14  16
ENDBRANCH   9  14
BRANCH  13  29
ATOM     29  N   UNL     1       2.572  -2.647   0.734  1.00  0.00    -0.371 N 
ATOM     30  C   UNL     1       2.704  -4.096   0.581  1.00  0.00     0.117 C 
ATOM     31  C   UNL     1       1.832  -2.230   1.925  1.00  0.00     0.117 C 
ATOM     32  C   UNL     1       1.299  -4.684   0.414  1.00  0.00     0.025 C 
ATOM     33  C   UNL     1       0.414  -2.791   1.852  1.00  0.00     0.025 C 
ATOM     34  C   UNL     1       0.402  -4.309   1.609  1.00  0.00    -0.011 C 
ATOM     35  C   UNL     1      -1.030  -4.793   1.392  1.00  0.00     0.008 C 
ENDBRANCH  13  29
ENDBRANCH   5   8
ENDBRANCH   3   4
ENDBRANCH   2   3
ENDBRANCH   1   2
BRANCH   1  36
ATOM     36  C   UNL     1       0.838  -0.929  -6.988  1.00  0.00     0.002 C 
BRANCH  36  37
ATOM     37  C   UNL     1       1.126   0.467  -7.550  1.00  0.00     0.021 C 
BRANCH  37  38
ATOM     38  C   UNL     1       2.163   0.501  -8.669  1.00  0.00     0.116 C 
BRANCH  38  39
ATOM     39  N   UNL     1       1.718  -0.235  -9.844  1.00  0.00    -0.352 N 
ATOM     40  C   UNL     1       1.770   0.139 -11.163  1.00  0.00     0.251 C 
ATOM     41  H   UNL     1       1.327  -1.121  -9.668  1.00  0.00     0.163 HD
ATOM     42  O   UNL     1       1.185  -0.522 -12.016  1.00  0.00    -0.269 OA
BRANCH  40  43
ATOM     43  C   UNL     1       2.521   1.353 -11.548  1.00  0.00     0.039 A 
ATOM     44  C   UNL     1       1.921   2.277 -12.408  1.00  0.00     0.014 A 
ATOM     45  C   UNL     1       3.817   1.568 -11.072  1.00  0.00     0.014 A 
ATOM     46  C   UNL     1       2.605   3.443 -12.757  1.00  0.00     0.010 A 
ATOM     47  C   UNL     1       4.477   2.754 -11.379  1.00  0.00     0.010 A 
ATOM     48  C   UNL     1       3.882   3.697 -12.230  1.00  0.00    -0.014 A 
BRANCH  48  49
ATOM     49  C   UNL     1       4.625   4.936 -12.567  1.00  0.00     0.031 A 
ATOM     50  C   UNL     1       5.886   4.853 -13.383  1.00  0.00     0.074 A 
ATOM     51  C   UNL     1       4.215   6.118 -12.067  1.00  0.00     0.049 A 
ATOM     52  N   UNL     1       6.723   5.803 -13.706  1.00  0.00    -0.248 NA
ATOM     53  C   UNL     1       6.268   3.520 -13.881  1.00  0.00     0.031 C 
ATOM     54  C   UNL     1       3.044   6.314 -11.210  1.00  0.00     0.029 A 
ATOM     55  N   UNL     1       4.756   7.373 -12.183  1.00  0.00    -0.354 N 
ATOM     56  C   UNL     1       7.747   5.181 -14.411  1.00  0.00     0.074 A 
ATOM     57  C   UNL     1       7.439   3.768 -14.449  1.00  0.00     0.031 C 
ATOM     58  C   UNL     1       2.957   7.612 -10.876  1.00  0.00     0.029 A 
ATOM     59  C   UNL     1       4.074   8.336 -11.475  1.00  0.00     0.049 A 
ATOM     60  H   UNL     1       5.557   7.567 -12.722  1.00  0.00     0.167 HD
ATOM     61  C   UNL     1       8.829   5.740 -15.002  1.00  0.00     0.034 A 
ATOM     62  C   UNL     1       4.324   9.652 -11.328  1.00  0.00     0.034 A 
ATOM     63  C   UNL     1       9.102   7.152 -15.011  1.00  0.00     0.049 A 
ATOM     64  C   UNL     1       5.502  10.255 -12.044  1.00  0.00     0.074 A 
ATOM     65  C   UNL     1      10.140   7.825 -15.631  1.00  0.00     0.029 A 
ATOM     66  N   UNL     1       8.325   8.109 -14.377  1.00  0.00    -0.354 N 
ATOM     67  N   UNL     1       6.383   9.672 -12.820  1.00  0.00    -0.248 NA
ATOM     68  C   UNL     1       5.701  11.705 -11.896  1.00  0.00     0.031 C 
ATOM     69  C   UNL     1       9.985   9.192 -15.379  1.00  0.00     0.029 A 
ATOM     70  C   UNL     1       8.851   9.369 -14.602  1.00  0.00     0.049 A 
ATOM     71  H   UNL     1       7.518   7.920 -13.847  1.00  0.00     0.167 HD
ATOM     72  C   UNL     1       7.215  10.684 -13.283  1.00  0.00     0.074 A 
ATOM     73  C   UNL     1       6.723  11.922 -12.714  1.00  0.00     0.031 C 
ATOM     74  C   UNL     1       8.300  10.596 -14.090  1.00  0.00     0.034 A 
BRANCH  61  75
ATOM     75  C   UNL     1       9.758   4.830 -15.759  1.00  0.00     0.023 A 
ATOM     76  C   UNL     1       9.353   4.329 -17.013  1.00  0.00     0.012 A 
ATOM     77  C   UNL     1      11.040   4.514 -15.268  1.00  0.00     0.148 A 
ATOM     78  C   UNL     1      10.197   3.506 -17.756  1.00  0.00     0.002 A 
ATOM     79  C   UNL     1      11.890   3.721 -16.032  1.00  0.00     0.091 A 
ATOM     80  F   UNL     1      11.398   4.979 -14.063  1.00  0.00    -0.205 F 
ATOM     81  C   UNL     1      11.468   3.210 -17.270  1.00  0.00     0.022 A 
BRANCH  79  82
ATOM     82  S   UNL     1      13.572   3.341 -15.525  1.00  0.00     0.127 S 
ATOM     83  O   UNL     1      13.446   1.947 -15.104  1.00  0.00    -0.237 OA
ATOM     84  O   UNL     1      14.323   3.537 -16.765  1.00  0.00    -0.237 OA
ATOM     85  O   UNL     1      13.893   4.291 -14.468  1.00  0.00    -0.744 OA
ENDBRANCH  79  82
ENDBRANCH  61  75
BRANCH  62  86
ATOM     86  C   UNL     1       3.384  10.504 -10.546  1.00  0.00     0.023 A 
ATOM     87  C   UNL     1       2.555  11.412 -11.232  1.00  0.00     0.012 A 
ATOM     88  C   UNL     1       3.280  10.404  -9.146  1.00  0.00     0.148 A 
ATOM     89  C   UNL     1       1.660  12.226 -10.537  1.00  0.00     0.002 A 
ATOM     90  C   UNL     1       2.350  11.182  -8.463  1.00  0.00     0.091 A 
ATOM     91  F   UNL     1       4.088   9.549  -8.503  1.00  0.00    -0.205 F 
ATOM     92  C   UNL     1       1.550  12.104  -9.154  1.00  0.00     0.022 A 
BRANCH  90  93
ATOM     93  S   UNL     1       2.064  10.976  -6.701  1.00  0.00     0.127 S 
ATOM     94  O   UNL     1       2.897  12.032  -6.134  1.00  0.00    -0.237 OA
ATOM     95  O   UNL     1       0.622  11.202  -6.587  1.00  0.00    -0.237 OA
ATOM     96  O   UNL     1       2.470   9.607  -6.410  1.00  0.00    -0.744 OA
ENDBRANCH  90  93
ENDBRANCH  62  86
BRANCH  74  97
ATOM     97  C   UNL     1       9.014  11.873 -14.443  1.00  0.00     0.023 A 
ATOM     98  C   UNL     1       9.857  12.480 -13.492  1.00  0.00     0.012 A 
ATOM     99  C   UNL     1       8.921  12.417 -15.738  1.00  0.00     0.148 A 
ATOM    100  C   UNL     1      10.582  13.625 -13.820  1.00  0.00     0.002 A 
ATOM    101  C   UNL     1       9.677  13.536 -16.069  1.00  0.00     0.091 A 
ATOM    102  F   UNL     1       8.095  11.837 -16.621  1.00  0.00    -0.205 F 
ATOM    103  C   UNL     1      10.502  14.145 -15.110  1.00  0.00     0.022 A 
BRANCH 101 104
ATOM    104  S   UNL     1       9.695  14.215 -17.733  1.00  0.00     0.127 S 
ATOM    105  O   UNL     1       8.801  15.363 -17.597  1.00  0.00    -0.237 OA
ATOM    106  O   UNL     1      11.106  14.560 -17.918  1.00  0.00    -0.237 OA
ATOM    107  O   UNL     1       9.221  13.146 -18.601  1.00  0.00    -0.744 OA
ENDBRANCH 101 104
ENDBRANCH  74  97
ENDBRANCH  48  49
ENDBRANCH  40  43
ENDBRANCH  38  39
ENDBRANCH  37  38
ENDBRANCH  36  37
ENDBRANCH   1  36
TORSDOF 22
