REMARK SMILES O=C1C[C@H](C(=O)NCCCCCCNC(=O)c2ccc(-c3c4nc(c(-c5cccc(S(=O)(=O)[O-])c5F)c5ccc([nH]5)c(-c5cccc(S(=O)(=O)[O-])c5F)c5nc(c(-c6cccc(S(=O)(=O)[O-])c6F)c6ccc3[nH]6)C=C5)C=C4)cc2)c2c(nc(Nc3ccc(Oc4ccccc4)cc3)[nH]c2=O)N1
REMARK SMILES IDX 10 1 9 2 8 3 7 4 5 5 6 6 4 8 1 9 2 10 3 11 101 12 81 13
REMARK SMILES IDX 80 15 82 16 99 17 83 18 98 19 100 20 84 22 85 24 86 25 97 26
REMARK SMILES IDX 87 27 96 28 88 29 89 30 90 31 91 32 95 33 92 34 94 35 93 36
REMARK SMILES IDX 11 37 12 38 13 39 14 40 15 41 16 43 17 44 18 45 79 46 19 47
REMARK SMILES IDX 78 48 20 49 21 50 22 51 72 52 23 53 77 54 71 55 73 56 24 57
REMARK SMILES IDX 76 58 70 59 69 60 25 62 57 63 37 64 56 65 38 66 41 67 55 68
REMARK SMILES IDX 74 69 39 70 40 71 54 73 75 74 42 75 26 76 27 77 35 78 28 79
REMARK SMILES IDX 30 80 36 81 29 82 31 83 32 84 33 85 34 86 58 87 59 88 67 89
REMARK SMILES IDX 60 90 62 91 68 92 61 93 63 94 64 95 65 96 66 97 43 98 44 99
REMARK SMILES IDX 52 100 45 101 47 102 53 103 46 104 48 105 49 106 50 107
REMARK SMILES IDX 51 108
REMARK H PARENT 7 7 101 14 98 21 84 23 14 42 73 61 41 72
REMARK Flexibility Score: inf
ROOT
ATOM      1  C   UNL     1       7.446  -2.347   2.538  1.00  0.00     0.002 C 
ENDROOT
BRANCH   1   2
ATOM      2  C   UNL     1       6.237  -1.484   2.160  1.00  0.00     0.021 C 
BRANCH   2   3
ATOM      3  C   UNL     1       6.137  -1.149   0.674  1.00  0.00     0.116 C 
BRANCH   3   4
ATOM      4  N   UNL     1       5.876  -2.341  -0.114  1.00  0.00    -0.356 N 
ATOM      5  C   UNL     1       4.887  -2.629  -1.004  1.00  0.00     0.228 C 
ATOM      6  O   UNL     1       4.821  -3.786  -1.428  1.00  0.00    -0.274 OA
ATOM      7  H   UNL     1       6.528  -3.066   0.018  1.00  0.00     0.163 HD
BRANCH   5   8
ATOM      8  C   UNL     1       3.845  -1.590  -1.423  1.00  0.00     0.127 C 
ATOM      9  O   UNL     1       1.467   0.343   0.666  1.00  0.00    -0.275 OA
ATOM     10  C   UNL     1       2.411   0.069  -0.073  1.00  0.00     0.226 C 
ATOM     11  C   UNL     1       2.863  -1.359  -0.269  1.00  0.00     0.119 C 
ATOM     12  N   UNL     1       3.124   1.046  -0.697  1.00  0.00    -0.310 N 
ATOM     13  C   UNL     1       4.131   0.869  -1.589  1.00  0.00     0.146 A 
ATOM     14  H   UNL     1       2.884   1.976  -0.479  1.00  0.00     0.171 HD
ATOM     15  C   UNL     1       4.486  -0.357  -1.975  1.00  0.00     0.073 A 
ATOM     16  N   UNL     1       4.686   2.023  -2.030  1.00  0.00    -0.196 NA
ATOM     17  C   UNL     1       5.546  -0.431  -2.997  1.00  0.00     0.258 A 
ATOM     18  C   UNL     1       5.645   1.969  -2.903  1.00  0.00     0.209 A 
ATOM     19  N   UNL     1       6.083   0.763  -3.379  1.00  0.00    -0.292 N 
ATOM     20  O   UNL     1       5.915  -1.489  -3.492  1.00  0.00    -0.269 OA
ATOM     21  H   UNL     1       6.822   0.758  -4.030  1.00  0.00     0.173 HD
BRANCH  18  22
ATOM     22  N   UNL     1       6.248   3.083  -3.427  1.00  0.00    -0.326 N 
ATOM     23  H   UNL     1       6.918   2.969  -4.139  1.00  0.00     0.170 HD
BRANCH  22  24
ATOM     24  C   UNL     1       5.943   4.381  -2.985  1.00  0.00     0.041 A 
ATOM     25  C   UNL     1       5.305   5.281  -3.843  1.00  0.00     0.030 A 
ATOM     26  C   UNL     1       6.154   4.750  -1.652  1.00  0.00     0.030 A 
ATOM     27  C   UNL     1       4.831   6.503  -3.355  1.00  0.00     0.049 A 
ATOM     28  C   UNL     1       5.709   5.982  -1.171  1.00  0.00     0.049 A 
ATOM     29  C   UNL     1       5.011   6.850  -2.014  1.00  0.00     0.127 A 
BRANCH  29  30
ATOM     30  O   UNL     1       4.431   8.043  -1.631  1.00  0.00    -0.457 OA
BRANCH  30  31
ATOM     31  C   UNL     1       4.604   8.436  -0.327  1.00  0.00     0.127 A 
ATOM     32  C   UNL     1       3.642   8.113   0.631  1.00  0.00     0.047 A 
ATOM     33  C   UNL     1       5.732   9.172   0.019  1.00  0.00     0.047 A 
ATOM     34  C   UNL     1       3.844   8.489   1.961  1.00  0.00     0.004 A 
ATOM     35  C   UNL     1       5.930   9.543   1.347  1.00  0.00     0.004 A 
ATOM     36  C   UNL     1       4.992   9.198   2.319  1.00  0.00     0.000 A 
ENDBRANCH  30  31
ENDBRANCH  29  30
ENDBRANCH  22  24
ENDBRANCH  18  22
ENDBRANCH   5   8
ENDBRANCH   3   4
ENDBRANCH   2   3
ENDBRANCH   1   2
BRANCH   1  37
ATOM     37  C   UNL     1       8.813  -1.740   2.209  1.00  0.00     0.002 C 
BRANCH  37  38
ATOM     38  C   UNL     1       9.053  -0.333   2.763  1.00  0.00     0.021 C 
BRANCH  38  39
ATOM     39  C   UNL     1       8.859  -0.199   4.270  1.00  0.00     0.116 C 
BRANCH  39  40
ATOM     40  N   UNL     1       9.833  -0.980   5.016  1.00  0.00    -0.352 N 
ATOM     41  C   UNL     1      10.744  -0.545   5.950  1.00  0.00     0.251 C 
ATOM     42  H   UNL     1       9.841  -1.946   4.828  1.00  0.00     0.163 HD
ATOM     43  O   UNL     1      11.620  -1.290   6.362  1.00  0.00    -0.269 OA
BRANCH  41  44
ATOM     44  C   UNL     1      10.655   0.848   6.435  1.00  0.00     0.039 A 
ATOM     45  C   UNL     1      11.782   1.667   6.351  1.00  0.00     0.014 A 
ATOM     46  C   UNL     1       9.448   1.340   6.943  1.00  0.00     0.014 A 
ATOM     47  C   UNL     1      11.684   3.006   6.734  1.00  0.00     0.010 A 
ATOM     48  C   UNL     1       9.341   2.687   7.277  1.00  0.00     0.010 A 
ATOM     49  C   UNL     1      10.459   3.529   7.180  1.00  0.00    -0.014 A 
BRANCH  49  50
ATOM     50  C   UNL     1      10.336   4.956   7.564  1.00  0.00     0.031 A 
ATOM     51  C   UNL     1      10.166   5.325   9.009  1.00  0.00     0.074 A 
ATOM     52  C   UNL     1      10.362   5.908   6.610  1.00  0.00     0.049 A 
ATOM     53  N   UNL     1      10.084   6.513   9.547  1.00  0.00    -0.248 NA
ATOM     54  C   UNL     1      10.074   4.219   9.979  1.00  0.00     0.031 C 
ATOM     55  C   UNL     1      10.520   5.657   5.177  1.00  0.00     0.029 A 
ATOM     56  N   UNL     1      10.275   7.276   6.700  1.00  0.00    -0.354 N 
ATOM     57  C   UNL     1       9.916   6.299  10.909  1.00  0.00     0.074 A 
ATOM     58  C   UNL     1       9.878   4.869  11.117  1.00  0.00     0.031 C 
ATOM     59  C   UNL     1      10.589   6.832   4.531  1.00  0.00     0.029 A 
ATOM     60  C   UNL     1      10.440   7.920   5.494  1.00  0.00     0.049 A 
ATOM     61  H   UNL     1      10.110   7.750   7.547  1.00  0.00     0.167 HD
ATOM     62  C   UNL     1       9.842   7.214  11.902  1.00  0.00     0.034 A 
ATOM     63  C   UNL     1      10.498   9.238   5.211  1.00  0.00     0.034 A 
ATOM     64  C   UNL     1       9.945   8.630  11.698  1.00  0.00     0.049 A 
ATOM     65  C   UNL     1      10.343  10.227   6.339  1.00  0.00     0.074 A 
ATOM     66  C   UNL     1       9.960   9.633  12.650  1.00  0.00     0.029 A 
ATOM     67  N   UNL     1      10.054   9.243  10.461  1.00  0.00    -0.354 N 
ATOM     68  N   UNL     1      10.301  10.006   7.630  1.00  0.00    -0.248 NA
ATOM     69  C   UNL     1      10.253  11.649   5.971  1.00  0.00     0.031 C 
ATOM     70  C   UNL     1      10.071  10.858  11.986  1.00  0.00     0.029 A 
ATOM     71  C   UNL     1      10.124  10.614  10.623  1.00  0.00     0.049 A 
ATOM     72  H   UNL     1      10.079   8.773   9.597  1.00  0.00     0.167 HD
ATOM     73  C   UNL     1      10.246  11.258   8.231  1.00  0.00     0.074 A 
ATOM     74  C   UNL     1      10.244  12.236   7.162  1.00  0.00     0.031 C 
ATOM     75  C   UNL     1      10.199  11.569   9.549  1.00  0.00     0.034 A 
BRANCH  62  76
ATOM     76  C   UNL     1       9.718   6.715  13.313  1.00  0.00     0.023 A 
ATOM     77  C   UNL     1      10.874   6.265  13.981  1.00  0.00     0.012 A 
ATOM     78  C   UNL     1       8.494   6.784  14.004  1.00  0.00     0.148 A 
ATOM     79  C   UNL     1      10.812   5.883  15.319  1.00  0.00     0.002 A 
ATOM     80  C   UNL     1       8.446   6.426  15.345  1.00  0.00     0.091 A 
ATOM     81  F   UNL     1       7.409   7.205  13.338  1.00  0.00    -0.205 F 
ATOM     82  C   UNL     1       9.603   5.973  16.003  1.00  0.00     0.022 A 
BRANCH  80  83
ATOM     83  S   UNL     1       6.952   6.548  16.334  1.00  0.00     0.127 S 
ATOM     84  O   UNL     1       6.726   5.149  16.700  1.00  0.00    -0.237 OA
ATOM     85  O   UNL     1       7.385   7.405  17.437  1.00  0.00    -0.237 OA
ATOM     86  O   UNL     1       5.937   7.127  15.465  1.00  0.00    -0.744 OA
ENDBRANCH  80  83
ENDBRANCH  62  76
BRANCH  63  87
ATOM     87  C   UNL     1      10.876   9.700   3.841  1.00  0.00     0.023 A 
ATOM     88  C   UNL     1      12.105  10.372   3.680  1.00  0.00     0.012 A 
ATOM     89  C   UNL     1      10.095   9.440   2.700  1.00  0.00     0.148 A 
ATOM     90  C   UNL     1      12.540  10.786   2.420  1.00  0.00     0.002 A 
ATOM     91  C   UNL     1      10.569   9.794   1.438  1.00  0.00     0.091 A 
ATOM     92  F   UNL     1       8.906   8.840   2.857  1.00  0.00    -0.205 F 
ATOM     93  C   UNL     1      11.781  10.482   1.296  1.00  0.00     0.022 A 
BRANCH  91  94
ATOM     94  S   UNL     1       9.718   9.274  -0.055  1.00  0.00     0.127 S 
ATOM     95  O   UNL     1       8.836  10.409  -0.306  1.00  0.00    -0.237 OA
ATOM     96  O   UNL     1      10.809   9.122  -1.018  1.00  0.00    -0.237 OA
ATOM     97  O   UNL     1       9.076   8.017   0.311  1.00  0.00    -0.744 OA
ENDBRANCH  91  94
ENDBRANCH  63  87
BRANCH  75  98
ATOM     98  C   UNL     1      10.186  13.021   9.939  1.00  0.00     0.023 A 
ATOM     99  C   UNL     1       8.976  13.737   9.889  1.00  0.00     0.012 A 
ATOM    100  C   UNL     1      11.332  13.622  10.495  1.00  0.00     0.148 A 
ATOM    101  C   UNL     1       8.906  15.037  10.387  1.00  0.00     0.002 A 
ATOM    102  C   UNL     1      11.246  14.905  11.021  1.00  0.00     0.091 A 
ATOM    103  F   UNL     1      12.473  12.918  10.523  1.00  0.00    -0.205 F 
ATOM    104  C   UNL     1      10.035  15.615  10.964  1.00  0.00     0.022 A 
BRANCH 102 105
ATOM    105  S   UNL     1      12.620  15.701  11.863  1.00  0.00     0.127 S 
ATOM    106  O   UNL     1      12.957  16.775  10.930  1.00  0.00    -0.237 OA
ATOM    107  O   UNL     1      12.001  16.147  13.111  1.00  0.00    -0.237 OA
ATOM    108  O   UNL     1      13.642  14.676  12.024  1.00  0.00    -0.744 OA
ENDBRANCH 102 105
ENDBRANCH  75  98
ENDBRANCH  49  50
ENDBRANCH  41  44
ENDBRANCH  39  40
ENDBRANCH  38  39
ENDBRANCH  37  38
ENDBRANCH   1  37
TORSDOF 20
