REMARK SMILES O=C(NCCCCCCNC(=O)[C@@H]1[C@H](C(=O)Nc2ccccc2OC(F)F)[C@@H]2C=C[C@H]1C2)c1ccc(-c2c3nc(c(-c4cccc(S(=O)(=O)[O-])c4F)c4ccc([nH]4)c(-c4cccc(S(=O)(=O)[O-])c4F)c4nc(c(-c5cccc(S(=O)(=O)[O-])c5F)c5ccc2[nH]5)C=C4)C=C3)cc1
REMARK SMILES IDX 7 1 6 2 5 3 4 4 3 5 1 6 2 7 33 9 34 10 95 11 35 12 94 13
REMARK SMILES IDX 36 14 37 15 38 16 88 17 39 18 93 19 87 20 89 21 40 22 92 23
REMARK SMILES IDX 86 24 85 25 41 27 73 28 53 29 72 30 54 31 57 32 71 33 90 34
REMARK SMILES IDX 55 35 56 36 70 38 91 39 58 40 42 41 43 42 51 43 44 44 46 45
REMARK SMILES IDX 52 46 45 47 47 48 48 49 49 50 50 51 74 52 75 53 83 54 76 55
REMARK SMILES IDX 78 56 84 57 77 58 79 59 80 60 81 61 82 62 59 63 60 64 68 65
REMARK SMILES IDX 61 66 63 67 69 68 62 69 64 70 65 71 66 72 67 73 8 74 9 75
REMARK SMILES IDX 10 76 11 77 12 79 13 80 14 81 31 82 28 83 30 84 32 85 29 86
REMARK SMILES IDX 15 87 16 88 17 89 18 91 19 92 23 93 20 94 22 95 21 96 24 97
REMARK SMILES IDX 25 98 26 99 27 100
REMARK H PARENT 3 8 89 26 57 37 10 78 17 90
REMARK Flexibility Score: inf
ROOT
ATOM      1  C   UNL     1       3.545   0.845   4.511  1.00  0.00     0.002 C 
ENDROOT
BRANCH   1   2
ATOM      2  C   UNL     1       3.348   1.855   3.384  1.00  0.00     0.002 C 
BRANCH   2   3
ATOM      3  C   UNL     1       4.206   1.689   2.121  1.00  0.00     0.021 C 
BRANCH   3   4
ATOM      4  C   UNL     1       4.134   0.340   1.400  1.00  0.00     0.116 C 
BRANCH   4   5
ATOM      5  N   UNL     1       2.771  -0.058   1.080  1.00  0.00    -0.352 N 
ATOM      6  O   UNL     1       0.904  -0.238  -0.164  1.00  0.00    -0.269 OA
ATOM      7  C   UNL     1       2.119  -0.116  -0.132  1.00  0.00     0.251 C 
ATOM      8  H   UNL     1       2.227  -0.329   1.855  1.00  0.00     0.163 HD
BRANCH   7   9
ATOM      9  C   UNL     1       2.895  -0.035  -1.391  1.00  0.00     0.039 A 
ATOM     10  C   UNL     1       4.059  -0.789  -1.548  1.00  0.00     0.014 A 
ATOM     11  C   UNL     1       2.425   0.757  -2.444  1.00  0.00     0.014 A 
ATOM     12  C   UNL     1       4.821  -0.655  -2.703  1.00  0.00     0.010 A 
ATOM     13  C   UNL     1       3.151   0.828  -3.638  1.00  0.00     0.010 A 
ATOM     14  C   UNL     1       4.365   0.136  -3.770  1.00  0.00    -0.014 A 
BRANCH  14  15
ATOM     15  C   UNL     1       5.125   0.138  -5.046  1.00  0.00     0.031 A 
ATOM     16  C   UNL     1       5.759   1.391  -5.581  1.00  0.00     0.074 A 
ATOM     17  C   UNL     1       5.232  -1.021  -5.727  1.00  0.00     0.049 A 
ATOM     18  N   UNL     1       6.459   1.554  -6.674  1.00  0.00    -0.248 NA
ATOM     19  C   UNL     1       5.582   2.622  -4.795  1.00  0.00     0.031 C 
ATOM     20  C   UNL     1       4.623  -2.291  -5.322  1.00  0.00     0.029 A 
ATOM     21  N   UNL     1       5.880  -1.324  -6.896  1.00  0.00    -0.354 N 
ATOM     22  C   UNL     1       6.774   2.907  -6.731  1.00  0.00     0.074 A 
ATOM     23  C   UNL     1       6.183   3.523  -5.562  1.00  0.00     0.031 C 
ATOM     24  C   UNL     1       4.946  -3.240  -6.210  1.00  0.00     0.029 A 
ATOM     25  C   UNL     1       5.727  -2.636  -7.282  1.00  0.00     0.049 A 
ATOM     26  H   UNL     1       6.404  -0.668  -7.410  1.00  0.00     0.167 HD
ATOM     27  C   UNL     1       7.499   3.568  -7.666  1.00  0.00     0.034 A 
ATOM     28  C   UNL     1       6.144  -3.279  -8.388  1.00  0.00     0.034 A 
ATOM     29  C   UNL     1       8.097   2.938  -8.815  1.00  0.00     0.049 A 
ATOM     30  C   UNL     1       6.942  -2.518  -9.406  1.00  0.00     0.074 A 
ATOM     31  C   UNL     1       8.897   3.509  -9.790  1.00  0.00     0.029 A 
ATOM     32  N   UNL     1       7.948   1.601  -9.156  1.00  0.00    -0.354 N 
ATOM     33  N   UNL     1       7.331  -1.267  -9.381  1.00  0.00    -0.248 NA
ATOM     34  C   UNL     1       7.383  -3.263 -10.592  1.00  0.00     0.031 C 
ATOM     35  C   UNL     1       9.200   2.527 -10.739  1.00  0.00     0.029 A 
ATOM     36  C   UNL     1       8.626   1.333 -10.334  1.00  0.00     0.049 A 
ATOM     37  H   UNL     1       7.435   0.941  -8.637  1.00  0.00     0.167 HD
ATOM     38  C   UNL     1       8.088  -1.081 -10.530  1.00  0.00     0.074 A 
ATOM     39  C   UNL     1       8.123  -2.357 -11.216  1.00  0.00     0.031 C 
ATOM     40  C   UNL     1       8.688   0.047 -10.983  1.00  0.00     0.034 A 
BRANCH  27  41
ATOM     41  C   UNL     1       7.705   5.051  -7.483  1.00  0.00     0.023 A 
ATOM     42  C   UNL     1       8.558   5.521  -6.463  1.00  0.00     0.012 A 
ATOM     43  C   UNL     1       7.113   5.977  -8.365  1.00  0.00     0.148 A 
ATOM     44  C   UNL     1       8.790   6.887  -6.302  1.00  0.00     0.002 A 
ATOM     45  C   UNL     1       7.386   7.334  -8.228  1.00  0.00     0.091 A 
ATOM     46  F   UNL     1       6.293   5.516  -9.320  1.00  0.00    -0.205 F 
ATOM     47  C   UNL     1       8.213   7.791  -7.190  1.00  0.00     0.022 A 
BRANCH  45  48
ATOM     48  S   UNL     1       6.757   8.572  -9.368  1.00  0.00     0.127 S 
ATOM     49  O   UNL     1       5.809   9.297  -8.523  1.00  0.00    -0.237 OA
ATOM     50  O   UNL     1       7.968   9.322  -9.705  1.00  0.00    -0.237 OA
ATOM     51  O   UNL     1       6.168   7.837 -10.478  1.00  0.00    -0.744 OA
ENDBRANCH  45  48
ENDBRANCH  27  41
BRANCH  28  52
ATOM     52  C   UNL     1       5.833  -4.724  -8.569  1.00  0.00     0.023 A 
ATOM     53  C   UNL     1       6.873  -5.672  -8.523  1.00  0.00     0.012 A 
ATOM     54  C   UNL     1       4.507  -5.166  -8.750  1.00  0.00     0.148 A 
ATOM     55  C   UNL     1       6.603  -7.031  -8.687  1.00  0.00     0.002 A 
ATOM     56  C   UNL     1       4.238  -6.525  -8.850  1.00  0.00     0.091 A 
ATOM     57  F   UNL     1       3.533  -4.247  -8.799  1.00  0.00    -0.205 F 
ATOM     58  C   UNL     1       5.286  -7.458  -8.839  1.00  0.00     0.022 A 
BRANCH  56  59
ATOM     59  S   UNL     1       2.564  -7.173  -8.910  1.00  0.00     0.127 S 
ATOM     60  O   UNL     1       2.487  -7.674 -10.280  1.00  0.00    -0.237 OA
ATOM     61  O   UNL     1       2.606  -8.208  -7.876  1.00  0.00    -0.237 OA
ATOM     62  O   UNL     1       1.694  -6.048  -8.598  1.00  0.00    -0.744 OA
ENDBRANCH  56  59
ENDBRANCH  28  52
BRANCH  40  63
ATOM     63  C   UNL     1       9.475  -0.055 -12.263  1.00  0.00     0.023 A 
ATOM     64  C   UNL     1       8.806  -0.219 -13.492  1.00  0.00     0.012 A 
ATOM     65  C   UNL     1      10.878   0.068 -12.250  1.00  0.00     0.148 A 
ATOM     66  C   UNL     1       9.525  -0.298 -14.684  1.00  0.00     0.002 A 
ATOM     67  C   UNL     1      11.583   0.044 -13.446  1.00  0.00     0.091 A 
ATOM     68  F   UNL     1      11.497   0.203 -11.068  1.00  0.00    -0.205 F 
ATOM     69  C   UNL     1      10.910  -0.154 -14.663  1.00  0.00     0.022 A 
BRANCH  67  70
ATOM     70  S   UNL     1      13.356   0.319 -13.525  1.00  0.00     0.127 S 
ATOM     71  O   UNL     1      13.847  -1.010 -13.888  1.00  0.00    -0.237 OA
ATOM     72  O   UNL     1      13.466   1.320 -14.586  1.00  0.00    -0.237 OA
ATOM     73  O   UNL     1      13.751   0.790 -12.205  1.00  0.00    -0.744 OA
ENDBRANCH  67  70
ENDBRANCH  40  63
ENDBRANCH  14  15
ENDBRANCH   7   9
ENDBRANCH   4   5
ENDBRANCH   3   4
ENDBRANCH   2   3
ENDBRANCH   1   2
BRANCH   1  74
ATOM     74  C   UNL     1       4.897   0.848   5.243  1.00  0.00     0.021 C 
BRANCH  74  75
ATOM     75  C   UNL     1       5.383   2.089   6.097  1.00  0.00     0.116 C 
BRANCH  75  76
ATOM     76  N   UNL     1       6.533   2.056   7.239  1.00  0.00    -0.356 N 
ATOM     77  C   UNL     1       7.796   1.736   7.728  1.00  0.00     0.224 C 
ATOM     78  H   UNL     1       6.105   2.508   8.002  1.00  0.00     0.163 HD
ATOM     79  O   UNL     1       7.872   2.167   8.908  1.00  0.00    -0.275 OA
BRANCH  77  80
ATOM     80  C   UNL     1       9.271   0.981   7.227  1.00  0.00     0.098 C 
ATOM     81  C   UNL     1      10.118   0.190   6.013  1.00  0.00     0.099 C 
ATOM     82  C   UNL     1       9.943   0.219   8.459  1.00  0.00     0.025 C 
ATOM     83  C   UNL     1      11.110  -0.727   6.781  1.00  0.00     0.025 C 
ATOM     84  C   UNL     1       9.640  -1.270   8.439  1.00  0.00    -0.027 C 
ATOM     85  C   UNL     1      11.417   0.116   8.011  1.00  0.00     0.017 C 
ATOM     86  C   UNL     1      10.347  -1.831   7.448  1.00  0.00    -0.027 C 
BRANCH  81  87
ATOM     87  C   UNL     1       9.832  -0.575   4.651  1.00  0.00     0.229 C 
ATOM     88  O   UNL     1      10.549  -0.323   3.674  1.00  0.00    -0.274 OA
ATOM     89  N   UNL     1       8.892  -1.549   4.490  1.00  0.00    -0.323 N 
ATOM     90  H   UNL     1       8.967  -2.138   3.704  1.00  0.00     0.170 HD
BRANCH  89  91
ATOM     91  C   UNL     1       7.843  -1.759   5.359  1.00  0.00     0.084 A 
ATOM     92  C   UNL     1       7.432  -3.055   5.706  1.00  0.00     0.030 A 
ATOM     93  C   UNL     1       7.312  -0.671   5.984  1.00  0.00     0.149 A 
ATOM     94  C   UNL     1       6.668  -3.272   6.862  1.00  0.00     0.002 A 
ATOM     95  C   UNL     1       6.588  -0.922   7.182  1.00  0.00     0.049 A 
ATOM     96  C   UNL     1       6.295  -2.198   7.644  1.00  0.00     0.004 A 
BRANCH  93  97
ATOM     97  O   UNL     1       7.453   0.615   5.555  1.00  0.00    -0.433 OA
BRANCH  97  98
ATOM     98  C   UNL     1       8.001   1.442   4.505  1.00  0.00     0.542 C 
ATOM     99  F   UNL     1       7.600   1.026   3.293  1.00  0.00    -0.167 F 
ATOM    100  F   UNL     1       7.514   2.706   4.672  1.00  0.00    -0.167 F 
ENDBRANCH  97  98
ENDBRANCH  93  97
ENDBRANCH  89  91
ENDBRANCH  81  87
ENDBRANCH  77  80
ENDBRANCH  75  76
ENDBRANCH  74  75
ENDBRANCH   1  74
TORSDOF 20
