REMARK SMILES CCCc1cc(S(F)(F)(F)(F)F)cc2c1O[C@@H](C(F)(F)F)C(C(=O)NCCCCCCNC(=O)c1ccc(-c3c4nc(c(-c5cccc(S(=O)(=O)[O-])c5F)c5ccc([nH]5)c(-c5cccc(S(=O)(=O)[O-])c5F)c5nc(c(-c6cccc(S(=O)(=O)[O-])c6F)c6ccc3[nH]6)C=C5)C=C4)cc1)=C2
REMARK SMILES IDX 29 1 28 2 27 3 26 4 25 5 23 6 24 7 22 9 4 10 5 11 15 12 6 13
REMARK SMILES IDX 14 14 16 15 13 16 98 17 17 18 3 19 2 20 1 21 7 22 8 23 9 24
REMARK SMILES IDX 10 25 11 26 12 27 18 28 19 29 20 30 21 31 30 32 31 33 32 34
REMARK SMILES IDX 33 35 34 37 35 38 36 39 97 40 37 41 96 42 38 43 39 44 40 45
REMARK SMILES IDX 90 46 41 47 95 48 89 49 91 50 42 51 94 52 88 53 87 54 43 56
REMARK SMILES IDX 75 57 55 58 74 59 56 60 59 61 73 62 92 63 57 64 58 65 72 67
REMARK SMILES IDX 93 68 60 69 44 70 45 71 53 72 46 73 48 74 54 75 47 76 49 77
REMARK SMILES IDX 50 78 51 79 52 80 76 81 77 82 85 83 78 84 80 85 86 86 79 87
REMARK SMILES IDX 81 88 82 89 83 90 84 91 61 92 62 93 70 94 63 95 65 96 71 97
REMARK SMILES IDX 64 98 66 99 67 100 68 101 69 102
REMARK H PARENT 25 8 32 36 91 55 59 66
REMARK Flexibility Score: inf
ROOT
ATOM      1  C   UNL     1       1.612 -10.633   4.615  1.00  0.00     0.002 C 
ENDROOT
BRANCH   1   2
ATOM      2  C   UNL     1       0.456 -10.631   3.627  1.00  0.00     0.002 C 
BRANCH   2   3
ATOM      3  C   UNL     1       0.079  -9.198   3.291  1.00  0.00     0.021 C 
BRANCH   3   4
ATOM      4  C   UNL     1       1.274  -8.491   2.673  1.00  0.00     0.116 C 
BRANCH   4   5
ATOM      5  N   UNL     1       1.677  -9.192   1.446  1.00  0.00    -0.352 N 
ATOM      6  C   UNL     1       1.667  -8.484   0.157  1.00  0.00     0.251 C 
ATOM      7  O   UNL     1       2.016  -9.091  -0.904  1.00  0.00    -0.270 OA
ATOM      8  H   UNL     1       1.954 -10.136   1.486  1.00  0.00     0.163 HD
BRANCH   6   9
ATOM      9  C   UNL     1       1.240  -7.027   0.094  1.00  0.00     0.067 C 
ATOM     10  C   UNL     1       0.565  -2.909  -0.084  1.00  0.00    -0.004 A 
ATOM     11  C   UNL     1      -0.002  -2.255   0.995  1.00  0.00     0.032 A 
ATOM     12  C   UNL     1       0.825  -4.253   0.022  1.00  0.00     0.131 A 
ATOM     13  C   UNL     1      -0.297  -2.928   2.151  1.00  0.00     0.108 A 
ATOM     14  C   UNL     1       0.524  -4.970   1.166  1.00  0.00     0.019 A 
ATOM     15  O   UNL     1       1.491  -4.864  -1.013  1.00  0.00    -0.475 OA
ATOM     16  C   UNL     1      -0.042  -4.281   2.233  1.00  0.00     0.036 A 
ATOM     17  C   UNL     1       0.873  -6.380   1.194  1.00  0.00     0.025 C 
ATOM     18  C   UNL     1       1.224  -6.278  -1.231  1.00  0.00     0.314 C 
BRANCH  10  19
ATOM     19  C   UNL     1       1.072  -2.180  -1.318  1.00  0.00     0.039 C 
BRANCH  19  20
ATOM     20  C   UNL     1       0.565  -0.747  -1.303  1.00  0.00     0.001 C 
ATOM     21  C   UNL     1       1.072  -0.043  -0.055  1.00  0.00     0.004 C 
ENDBRANCH  19  20
ENDBRANCH  10  19
BRANCH  13  22
ATOM     22  S   UNL     1      -1.018  -2.049   3.560  1.00  0.00     0.310 S 
ATOM     23  F   UNL     1       0.354  -2.336   4.303  1.00  0.00    -0.094 F 
ATOM     24  F   UNL     1      -1.553  -3.397   4.176  1.00  0.00    -0.094 F 
ATOM     25  F   UNL     1      -1.466  -1.261   4.822  1.00  0.00    -0.094 F 
ATOM     26  F   UNL     1      -0.350  -0.737   2.988  1.00  0.00    -0.094 F 
ATOM     27  F   UNL     1      -0.456  -2.857   2.322  1.00  0.00    -0.094 F 
ENDBRANCH  13  22
BRANCH  18  28
ATOM     28  C   UNL     1       2.299  -6.852  -2.139  1.00  0.00     0.429 C 
ATOM     29  F   UNL     1       2.061  -8.143  -2.348  1.00  0.00    -0.167 F 
ATOM     30  F   UNL     1       2.289  -6.206  -3.301  1.00  0.00    -0.167 F 
ATOM     31  F   UNL     1       3.489  -6.708  -1.562  1.00  0.00    -0.167 F 
ENDBRANCH  18  28
ENDBRANCH   6   9
ENDBRANCH   4   5
ENDBRANCH   3   4
ENDBRANCH   2   3
ENDBRANCH   1   2
BRANCH   1  32
ATOM     32  C   UNL     1       1.195  -9.907   5.884  1.00  0.00     0.021 C 
BRANCH  32  33
ATOM     33  C   UNL     1      -0.001 -10.614   6.502  1.00  0.00     0.116 C 
BRANCH  33  34
ATOM     34  N   UNL     1       0.364 -12.001   6.827  1.00  0.00    -0.352 N 
ATOM     35  C   UNL     1       0.288 -12.474   8.217  1.00  0.00     0.251 C 
ATOM     36  H   UNL     1       0.660 -12.612   6.114  1.00  0.00     0.163 HD
ATOM     37  O   UNL     1       0.604 -13.672   8.498  1.00  0.00    -0.269 OA
BRANCH  35  38
ATOM     38  C   UNL     1      -0.168 -11.530   9.317  1.00  0.00     0.039 A 
ATOM     39  C   UNL     1       0.433 -11.632  10.561  1.00  0.00     0.014 A 
ATOM     40  C   UNL     1      -1.230 -10.755   9.127  1.00  0.00     0.014 A 
ATOM     41  C   UNL     1      -0.340 -11.097  11.618  1.00  0.00     0.010 A 
ATOM     42  C   UNL     1      -1.856 -10.153  10.192  1.00  0.00     0.010 A 
ATOM     43  C   UNL     1      -1.350 -10.261  11.458  1.00  0.00    -0.014 A 
BRANCH  43  44
ATOM     44  C   UNL     1      -1.919  -9.461  12.618  1.00  0.00     0.031 A 
ATOM     45  C   UNL     1      -3.256  -9.607  12.992  1.00  0.00     0.074 A 
ATOM     46  C   UNL     1      -0.990  -8.729  13.337  1.00  0.00     0.049 A 
ATOM     47  N   UNL     1      -3.855  -9.119  14.080  1.00  0.00    -0.248 NA
ATOM     48  C   UNL     1      -4.253 -10.356  12.213  1.00  0.00     0.031 C 
ATOM     49  C   UNL     1       0.362  -8.584  12.971  1.00  0.00     0.029 A 
ATOM     50  N   UNL     1      -1.189  -8.023  14.503  1.00  0.00    -0.354 N 
ATOM     51  C   UNL     1      -5.138  -9.485  14.103  1.00  0.00     0.074 A 
ATOM     52  C   UNL     1      -5.414 -10.281  12.899  1.00  0.00     0.031 C 
ATOM     53  C   UNL     1       0.967  -7.793  13.896  1.00  0.00     0.029 A 
ATOM     54  C   UNL     1       0.003  -7.431  14.857  1.00  0.00     0.049 A 
ATOM     55  H   UNL     1      -2.037  -7.954  14.998  1.00  0.00     0.167 HD
ATOM     56  C   UNL     1      -6.088  -9.188  15.082  1.00  0.00     0.034 A 
ATOM     57  C   UNL     1       0.256  -6.617  15.949  1.00  0.00     0.034 A 
ATOM     58  C   UNL     1      -5.825  -8.409  16.197  1.00  0.00     0.049 A 
ATOM     59  C   UNL     1      -0.710  -6.271  16.898  1.00  0.00     0.074 A 
ATOM     60  C   UNL     1      -6.769  -8.107  17.197  1.00  0.00     0.029 A 
ATOM     61  N   UNL     1      -4.639  -7.797  16.538  1.00  0.00    -0.354 N 
ATOM     62  N   UNL     1      -1.982  -6.670  16.941  1.00  0.00    -0.248 NA
ATOM     63  C   UNL     1      -0.463  -5.383  18.041  1.00  0.00     0.031 C 
ATOM     64  C   UNL     1      -6.164  -7.315  18.123  1.00  0.00     0.029 A 
ATOM     65  C   UNL     1      -4.832  -7.110  17.716  1.00  0.00     0.049 A 
ATOM     66  H   UNL     1      -3.798  -7.843  16.027  1.00  0.00     0.167 HD
ATOM     67  C   UNL     1      -2.591  -6.147  18.008  1.00  0.00     0.074 A 
ATOM     68  C   UNL     1      -1.624  -5.306  18.727  1.00  0.00     0.031 C 
ATOM     69  C   UNL     1      -3.913  -6.341  18.412  1.00  0.00     0.034 A 
BRANCH  56  70
ATOM     70  C   UNL     1      -7.490  -9.751  14.914  1.00  0.00     0.023 A 
ATOM     71  C   UNL     1      -7.670 -11.123  14.855  1.00  0.00     0.012 A 
ATOM     72  C   UNL     1      -8.520  -8.917  14.827  1.00  0.00     0.148 A 
ATOM     73  C   UNL     1      -8.954 -11.514  14.410  1.00  0.00     0.002 A 
ATOM     74  C   UNL     1      -9.775  -9.386  14.522  1.00  0.00     0.091 A 
ATOM     75  F   UNL     1      -8.335  -7.617  15.037  1.00  0.00    -0.205 F 
ATOM     76  C   UNL     1     -10.013 -10.726  14.391  1.00  0.00     0.022 A 
BRANCH  74  77
ATOM     77  S   UNL     1     -11.134  -8.212  14.291  1.00  0.00     0.127 S 
ATOM     78  O   UNL     1     -11.698  -8.357  12.875  1.00  0.00    -0.237 OA
ATOM     79  O   UNL     1     -12.237  -8.500  15.312  1.00  0.00    -0.237 OA
ATOM     80  O   UNL     1     -10.554  -6.618  14.512  1.00  0.00    -0.744 OA
ENDBRANCH  74  77
ENDBRANCH  56  70
BRANCH  57  81
ATOM     81  C   UNL     1       1.662  -6.068  16.125  1.00  0.00     0.023 A 
ATOM     82  C   UNL     1       2.373  -6.377  17.273  1.00  0.00     0.012 A 
ATOM     83  C   UNL     1       2.186  -5.302  15.175  1.00  0.00     0.148 A 
ATOM     84  C   UNL     1       3.532  -5.586  17.459  1.00  0.00     0.002 A 
ATOM     85  C   UNL     1       3.388  -4.667  15.373  1.00  0.00     0.091 A 
ATOM     86  F   UNL     1       1.540  -5.148  14.023  1.00  0.00    -0.205 F 
ATOM     87  C   UNL     1       4.117  -4.880  16.509  1.00  0.00     0.022 A 
BRANCH  85  88
ATOM     88  S   UNL     1       4.016  -3.534  14.109  1.00  0.00     0.127 S 
ATOM     89  O   UNL     1       4.185  -2.138  14.714  1.00  0.00    -0.237 OA
ATOM     90  O   UNL     1       5.369  -4.036  13.600  1.00  0.00    -0.237 OA
ATOM     91  O   UNL     1       2.909  -3.461  12.808  1.00  0.00    -0.744 OA
ENDBRANCH  85  88
ENDBRANCH  57  81
BRANCH  69  92
ATOM     92  C   UNL     1      -4.373  -5.667  19.695  1.00  0.00     0.023 A 
ATOM     93  C   UNL     1      -4.171  -4.304  19.835  1.00  0.00     0.012 A 
ATOM     94  C   UNL     1      -4.820  -6.404  20.705  1.00  0.00     0.148 A 
ATOM     95  C   UNL     1      -4.196  -3.856  21.177  1.00  0.00     0.002 A 
ATOM     96  C   UNL     1      -4.949  -5.865  21.962  1.00  0.00     0.091 A 
ATOM     97  F   UNL     1      -5.147  -7.677  20.497  1.00  0.00    -0.205 F 
ATOM     98  C   UNL     1      -4.709  -4.537  22.185  1.00  0.00     0.022 A 
BRANCH  96  99
ATOM     99  S   UNL     1      -5.445  -6.926  23.341  1.00  0.00     0.127 S 
ATOM    100  O   UNL     1      -4.350  -6.917  24.411  1.00  0.00    -0.237 OA
ATOM    101  O   UNL     1      -6.751  -6.403  23.944  1.00  0.00    -0.237 OA
ATOM    102  O   UNL     1      -5.677  -8.524  22.777  1.00  0.00    -0.744 OA
ENDBRANCH  96  99
ENDBRANCH  69  92
ENDBRANCH  43  44
ENDBRANCH  35  38
ENDBRANCH  33  34
ENDBRANCH  32  33
ENDBRANCH   1  32
TORSDOF 20
