REMARK SMILES CC[NH+](CC)[C@@H](C(=O)NCCCCCCNC(=O)c1ccc(-c2c3nc(c(-c4cccc(S(=O)(=O)[O-])c4F)c4ccc([nH]4)c(-c4cccc(S(=O)(=O)[O-])c4F)c4nc(c(-c5cccc(S(=O)(=O)[O-])c5F)c5ccc2[nH]5)C=C4)C=C3)cc1)c1ccc(C2CC2)cc1
REMARK SMILES IDX 13 1 12 2 11 3 10 4 9 5 7 6 8 7 6 9 3 10 2 12 1 13 4 14 5 15
REMARK SMILES IDX 82 16 83 17 90 18 84 19 89 20 85 21 86 22 87 23 88 24 14 25
REMARK SMILES IDX 15 26 16 27 17 28 18 30 19 31 20 32 81 33 21 34 80 35 22 36
REMARK SMILES IDX 23 37 24 38 74 39 25 40 79 41 73 42 75 43 26 44 78 45 72 46
REMARK SMILES IDX 71 47 27 49 59 50 39 51 58 52 40 53 43 54 57 55 76 56 41 57
REMARK SMILES IDX 42 58 56 60 77 61 44 62 28 63 29 64 37 65 30 66 32 67 38 68
REMARK SMILES IDX 31 69 33 70 34 71 35 72 36 73 60 74 61 75 69 76 62 77 64 78
REMARK SMILES IDX 70 79 63 80 65 81 66 82 67 83 68 84 45 85 46 86 54 87 47 88
REMARK SMILES IDX 49 89 55 90 48 91 50 92 51 93 52 94 53 95
REMARK H PARENT 9 8 3 11 16 29 75 48 43 59
REMARK Flexibility Score: inf
ROOT
ATOM      1  C   UNL     1       1.996   5.339  -5.994  1.00  0.00     0.002 C 
ENDROOT
BRANCH   1   2
ATOM      2  C   UNL     1       1.313   4.573  -4.864  1.00  0.00     0.002 C 
BRANCH   2   3
ATOM      3  C   UNL     1       1.081   3.083  -5.161  1.00  0.00     0.021 C 
BRANCH   3   4
ATOM      4  C   UNL     1       2.250   2.137  -4.829  1.00  0.00     0.116 C 
BRANCH   4   5
ATOM      5  N   UNL     1       2.851   2.402  -3.529  1.00  0.00    -0.351 N 
ATOM      6  C   UNL     1       2.809   1.798  -2.303  1.00  0.00     0.283 C 
ATOM      7  O   UNL     1       3.333   2.470  -1.404  1.00  0.00    -0.268 OA
ATOM      8  H   UNL     1       3.422   3.205  -3.535  1.00  0.00     0.163 HD
BRANCH   6   9
ATOM      9  C   UNL     1       2.154   0.392  -2.058  1.00  0.00     0.305 C 
BRANCH   9  10
ATOM     10  N   UNL     1       0.713   0.448  -1.610  1.00  0.00    -0.321 N 
ATOM     11  H   UNL     1       0.468  -0.526  -1.790  1.00  0.00     0.349 HD
BRANCH  10  12
ATOM     12  C   UNL     1       0.419   0.615  -0.181  1.00  0.00     0.259 C 
ATOM     13  C   UNL     1       0.364  -0.679   0.625  1.00  0.00     0.071 C 
ENDBRANCH  10  12
BRANCH  10  14
ATOM     14  C   UNL     1      -0.144   1.317  -2.418  1.00  0.00     0.259 C 
ATOM     15  C   UNL     1      -0.208   2.783  -1.965  1.00  0.00     0.071 C 
ENDBRANCH  10  14
ENDBRANCH   9  10
BRANCH   9  16
ATOM     16  C   UNL     1       2.977  -0.538  -1.136  1.00  0.00     0.019 A 
ATOM     17  C   UNL     1       2.833  -1.930  -1.256  1.00  0.00     0.011 A 
ATOM     18  C   UNL     1       3.681  -0.064  -0.019  1.00  0.00     0.011 A 
ATOM     19  C   UNL     1       3.234  -2.785  -0.215  1.00  0.00     0.004 A 
ATOM     20  C   UNL     1       4.096  -0.926   1.004  1.00  0.00     0.004 A 
ATOM     21  C   UNL     1       3.807  -2.294   0.971  1.00  0.00    -0.045 A 
BRANCH  21  22
ATOM     22  C   UNL     1       3.984  -3.201   2.175  1.00  0.00     0.019 C 
ATOM     23  C   UNL     1       4.352  -2.705   3.555  1.00  0.00     0.009 C 
ATOM     24  C   UNL     1       2.938  -3.104   3.273  1.00  0.00     0.009 C 
ENDBRANCH  21  22
ENDBRANCH   9  16
ENDBRANCH   6   9
ENDBRANCH   4   5
ENDBRANCH   3   4
ENDBRANCH   2   3
ENDBRANCH   1   2
BRANCH   1  25
ATOM     25  C   UNL     1       1.262   5.277  -7.336  1.00  0.00     0.021 C 
BRANCH  25  26
ATOM     26  C   UNL     1      -0.204   5.691  -7.269  1.00  0.00     0.116 C 
BRANCH  26  27
ATOM     27  N   UNL     1      -0.338   7.132  -7.105  1.00  0.00    -0.352 N 
ATOM     28  C   UNL     1      -0.949   8.007  -7.970  1.00  0.00     0.251 C 
ATOM     29  H   UNL     1       0.051   7.519  -6.288  1.00  0.00     0.163 HD
ATOM     30  O   UNL     1      -0.770   9.218  -7.884  1.00  0.00    -0.269 OA
BRANCH  28  31
ATOM     31  C   UNL     1      -1.827   7.444  -9.013  1.00  0.00     0.039 A 
ATOM     32  C   UNL     1      -1.589   7.739 -10.356  1.00  0.00     0.014 A 
ATOM     33  C   UNL     1      -2.838   6.552  -8.642  1.00  0.00     0.014 A 
ATOM     34  C   UNL     1      -2.347   7.101 -11.340  1.00  0.00     0.010 A 
ATOM     35  C   UNL     1      -3.538   5.866  -9.624  1.00  0.00     0.010 A 
ATOM     36  C   UNL     1      -3.312   6.144 -10.982  1.00  0.00    -0.014 A 
BRANCH  36  37
ATOM     37  C   UNL     1      -4.126   5.433 -12.000  1.00  0.00     0.031 A 
ATOM     38  C   UNL     1      -5.620   5.614 -12.006  1.00  0.00     0.074 A 
ATOM     39  C   UNL     1      -3.544   4.557 -12.842  1.00  0.00     0.049 A 
ATOM     40  N   UNL     1      -6.523   5.001 -12.723  1.00  0.00    -0.248 NA
ATOM     41  C   UNL     1      -6.173   6.594 -11.054  1.00  0.00     0.031 C 
ATOM     42  C   UNL     1      -2.113   4.253 -12.895  1.00  0.00     0.029 A 
ATOM     43  N   UNL     1      -4.093   3.736 -13.796  1.00  0.00    -0.354 N 
ATOM     44  C   UNL     1      -7.749   5.487 -12.282  1.00  0.00     0.074 A 
ATOM     45  C   UNL     1      -7.476   6.416 -11.210  1.00  0.00     0.031 C 
ATOM     46  C   UNL     1      -1.897   3.313 -13.829  1.00  0.00     0.029 A 
ATOM     47  C   UNL     1      -3.175   2.918 -14.414  1.00  0.00     0.049 A 
ATOM     48  H   UNL     1      -5.052   3.732 -14.017  1.00  0.00     0.167 HD
ATOM     49  C   UNL     1      -8.989   5.205 -12.746  1.00  0.00     0.034 A 
ATOM     50  C   UNL     1      -3.348   1.948 -15.334  1.00  0.00     0.034 A 
ATOM     51  C   UNL     1      -9.251   4.308 -13.837  1.00  0.00     0.049 A 
ATOM     52  C   UNL     1      -4.736   1.660 -15.841  1.00  0.00     0.074 A 
ATOM     53  C   UNL     1     -10.462   4.011 -14.433  1.00  0.00     0.029 A 
ATOM     54  N   UNL     1      -8.286   3.555 -14.489  1.00  0.00    -0.354 N 
ATOM     55  N   UNL     1      -5.871   2.225 -15.505  1.00  0.00    -0.248 NA
ATOM     56  C   UNL     1      -4.867   0.626 -16.878  1.00  0.00     0.031 C 
ATOM     57  C   UNL     1     -10.235   3.052 -15.425  1.00  0.00     0.029 A 
ATOM     58  C   UNL     1      -8.876   2.786 -15.475  1.00  0.00     0.049 A 
ATOM     59  H   UNL     1      -7.324   3.567 -14.281  1.00  0.00     0.167 HD
ATOM     60  C   UNL     1      -6.840   1.651 -16.320  1.00  0.00     0.074 A 
ATOM     61  C   UNL     1      -6.158   0.698 -17.172  1.00  0.00     0.031 C 
ATOM     62  C   UNL     1      -8.174   1.888 -16.357  1.00  0.00     0.034 A 
BRANCH  49  63
ATOM     63  C   UNL     1     -10.154   5.906 -12.096  1.00  0.00     0.023 A 
ATOM     64  C   UNL     1     -10.329   7.293 -12.282  1.00  0.00     0.012 A 
ATOM     65  C   UNL     1     -11.099   5.187 -11.339  1.00  0.00     0.148 A 
ATOM     66  C   UNL     1     -11.400   7.961 -11.690  1.00  0.00     0.002 A 
ATOM     67  C   UNL     1     -12.192   5.851 -10.794  1.00  0.00     0.091 A 
ATOM     68  F   UNL     1     -10.906   3.873 -11.155  1.00  0.00    -0.205 F 
ATOM     69  C   UNL     1     -12.336   7.238 -10.955  1.00  0.00     0.022 A 
BRANCH  67  70
ATOM     70  S   UNL     1     -13.497   4.997  -9.903  1.00  0.00     0.127 S 
ATOM     71  O   UNL     1     -13.276   5.467  -8.536  1.00  0.00    -0.237 OA
ATOM     72  O   UNL     1     -14.702   5.527 -10.543  1.00  0.00    -0.237 OA
ATOM     73  O   UNL     1     -13.269   3.575 -10.119  1.00  0.00    -0.744 OA
ENDBRANCH  67  70
ENDBRANCH  49  63
BRANCH  50  74
ATOM     74  C   UNL     1      -2.169   1.213 -15.876  1.00  0.00     0.023 A 
ATOM     75  C   UNL     1      -1.779   1.422 -17.213  1.00  0.00     0.012 A 
ATOM     76  C   UNL     1      -1.423   0.327 -15.074  1.00  0.00     0.148 A 
ATOM     77  C   UNL     1      -0.690   0.737 -17.752  1.00  0.00     0.002 A 
ATOM     78  C   UNL     1      -0.306  -0.310 -15.601  1.00  0.00     0.091 A 
ATOM     79  F   UNL     1      -1.815   0.137 -13.806  1.00  0.00    -0.205 F 
ATOM     80  C   UNL     1       0.052  -0.121 -16.945  1.00  0.00     0.022 A 
BRANCH  78  81
ATOM     81  S   UNL     1       0.783  -1.333 -14.603  1.00  0.00     0.127 S 
ATOM     82  O   UNL     1       0.551  -2.659 -15.171  1.00  0.00    -0.237 OA
ATOM     83  O   UNL     1       2.094  -0.755 -14.901  1.00  0.00    -0.237 OA
ATOM     84  O   UNL     1       0.345  -1.151 -13.226  1.00  0.00    -0.744 OA
ENDBRANCH  78  81
ENDBRANCH  50  74
BRANCH  62  85
ATOM     85  C   UNL     1      -8.994   1.163 -17.391  1.00  0.00     0.023 A 
ATOM     86  C   UNL     1      -9.276  -0.208 -17.240  1.00  0.00     0.012 A 
ATOM     87  C   UNL     1      -9.576   1.878 -18.457  1.00  0.00     0.148 A 
ATOM     88  C   UNL     1     -10.108  -0.862 -18.148  1.00  0.00     0.002 A 
ATOM     89  C   UNL     1     -10.446   1.233 -19.326  1.00  0.00     0.091 A 
ATOM     90  F   UNL     1      -9.280   3.180 -18.590  1.00  0.00    -0.205 F 
ATOM     91  C   UNL     1     -10.704  -0.139 -19.181  1.00  0.00     0.022 A 
BRANCH  89  92
ATOM     92  S   UNL     1     -11.340   2.102 -20.619  1.00  0.00     0.127 S 
ATOM     93  O   UNL     1     -10.731   1.547 -21.827  1.00  0.00    -0.237 OA
ATOM     94  O   UNL     1     -12.719   1.676 -20.378  1.00  0.00    -0.237 OA
ATOM     95  O   UNL     1     -11.095   3.521 -20.397  1.00  0.00    -0.744 OA
ENDBRANCH  89  92
ENDBRANCH  62  85
ENDBRANCH  36  37
ENDBRANCH  28  31
ENDBRANCH  26  27
ENDBRANCH  25  26
ENDBRANCH   1  25
TORSDOF 21
