REMARK SMILES Cc1nc2cc(S(=O)(=O)N3CCC(C(=O)NCCCCCCNC(=O)c4ccc(-c5c6nc(c(-c7cccc(S(=O)(=O)[O-])c7F)c7ccc([nH]7)c(-c7cccc(S(=O)(=O)[O-])c7F)c7nc(c(-c8cccc(S(=O)(=O)[O-])c8F)c8ccc5[nH]8)C=C7)C=C6)cc4)CC3)ccc2n1C1CCCC1
REMARK SMILES IDX 19 1 18 2 17 3 16 4 14 5 15 6 13 8 10 9 11 10 90 11 12 12
REMARK SMILES IDX 89 13 7 14 8 15 9 16 6 17 1 18 2 19 3 20 94 21 4 22 93 23
REMARK SMILES IDX 5 24 92 25 91 26 95 27 96 28 99 29 97 30 98 31 20 32 21 33
REMARK SMILES IDX 22 34 23 35 24 36 25 38 26 39 27 40 88 41 28 42 87 43 29 44
REMARK SMILES IDX 30 45 31 46 81 47 32 48 86 49 80 50 82 51 33 52 85 53 79 54
REMARK SMILES IDX 78 55 34 57 66 58 46 59 65 60 47 61 50 62 64 63 83 64 48 65
REMARK SMILES IDX 49 66 63 68 84 69 51 70 35 71 36 72 44 73 37 74 39 75 45 76
REMARK SMILES IDX 38 77 40 78 41 79 42 80 43 81 67 82 68 83 76 84 69 85 71 86
REMARK SMILES IDX 77 87 70 88 72 89 73 90 74 91 75 92 52 93 53 94 61 95 54 96
REMARK SMILES IDX 56 97 62 98 55 99 57 100 58 101 59 102 60 103
REMARK H PARENT 16 7 23 37 82 56 50 67
REMARK Flexibility Score: inf
ROOT
ATOM      1  C   UNL     1      -5.141 -13.395  -3.536  1.00  0.00     0.002 C 
ENDROOT
BRANCH   1   2
ATOM      2  C   UNL     1      -4.348 -12.293  -2.836  1.00  0.00     0.021 C 
BRANCH   2   3
ATOM      3  C   UNL     1      -3.561 -11.422  -3.805  1.00  0.00     0.116 C 
BRANCH   3   4
ATOM      4  N   UNL     1      -4.448 -10.520  -4.525  1.00  0.00    -0.356 N 
ATOM      5  C   UNL     1      -4.546  -9.163  -4.484  1.00  0.00     0.223 C 
ATOM      6  O   UNL     1      -5.442  -8.610  -5.125  1.00  0.00    -0.275 OA
ATOM      7  H   UNL     1      -5.077 -10.962  -5.141  1.00  0.00     0.163 HD
BRANCH   5   8
ATOM      8  C   UNL     1      -3.560  -8.341  -3.669  1.00  0.00     0.081 C 
ATOM      9  N   UNL     1      -1.263  -8.158  -1.897  1.00  0.00    -0.198 NA
ATOM     10  C   UNL     1      -2.619  -8.085  -1.305  1.00  0.00     0.103 C 
ATOM     11  C   UNL     1      -1.056  -7.967  -3.353  1.00  0.00     0.103 C 
ATOM     12  C   UNL     1      -3.725  -8.621  -2.181  1.00  0.00     0.030 C 
ATOM     13  C   UNL     1      -2.153  -8.530  -4.223  1.00  0.00     0.030 C 
BRANCH   9  14
ATOM     14  S   UNL     1      -0.043  -7.423  -0.921  1.00  0.00     0.243 S 
ATOM     15  O   UNL     1       1.240  -7.690  -1.549  1.00  0.00    -0.207 OA
ATOM     16  O   UNL     1      -0.308  -7.772   0.452  1.00  0.00    -0.207 OA
BRANCH  14  17
ATOM     17  C   UNL     1      -0.313  -5.663  -1.060  1.00  0.00     0.085 A 
ATOM     18  C   UNL     1       0.976   0.068   0.029  1.00  0.00     0.088 C 
ATOM     19  C   UNL     1       0.513  -1.292  -0.341  1.00  0.00     0.106 A 
ATOM     20  N   UNL     1       1.107  -2.405   0.048  1.00  0.00    -0.233 NA
ATOM     21  N   UNL     1      -0.596  -1.568  -1.115  1.00  0.00    -0.325 N 
ATOM     22  C   UNL     1       0.385  -3.433  -0.492  1.00  0.00     0.090 A 
ATOM     23  C   UNL     1      -0.689  -2.939  -1.224  1.00  0.00     0.068 A 
ATOM     24  C   UNL     1       0.588  -4.819  -0.396  1.00  0.00     0.052 A 
ATOM     25  C   UNL     1      -1.593  -3.768  -1.882  1.00  0.00     0.030 A 
ATOM     26  C   UNL     1      -1.377  -5.133  -1.794  1.00  0.00     0.024 A 
BRANCH  21  27
ATOM     27  C   UNL     1      -1.513  -0.617  -1.716  1.00  0.00     0.089 C 
ATOM     28  C   UNL     1      -1.603  -0.705  -3.243  1.00  0.00     0.025 C 
ATOM     29  C   UNL     1      -2.963  -0.751  -1.234  1.00  0.00     0.025 C 
ATOM     30  C   UNL     1      -2.928  -0.041  -3.586  1.00  0.00     0.002 C 
ATOM     31  C   UNL     1      -3.830  -0.215  -2.368  1.00  0.00     0.002 C 
ENDBRANCH  21  27
ENDBRANCH  14  17
ENDBRANCH   9  14
ENDBRANCH   5   8
ENDBRANCH   3   4
ENDBRANCH   2   3
ENDBRANCH   1   2
BRANCH   1  32
ATOM     32  C   UNL     1      -4.279 -14.389  -4.321  1.00  0.00     0.002 C 
BRANCH  32  33
ATOM     33  C   UNL     1      -3.137 -15.025  -3.517  1.00  0.00     0.021 C 
BRANCH  33  34
ATOM     34  C   UNL     1      -3.581 -15.615  -2.177  1.00  0.00     0.116 C 
BRANCH  34  35
ATOM     35  N   UNL     1      -4.630 -16.602  -2.306  1.00  0.00    -0.352 N 
ATOM     36  C   UNL     1      -4.657 -17.940  -2.573  1.00  0.00     0.251 C 
ATOM     37  H   UNL     1      -5.528 -16.222  -2.170  1.00  0.00     0.163 HD
ATOM     38  O   UNL     1      -5.768 -18.474  -2.537  1.00  0.00    -0.269 OA
BRANCH  36  39
ATOM     39  C   UNL     1      -3.473 -18.744  -2.973  1.00  0.00     0.039 A 
ATOM     40  C   UNL     1      -2.151 -18.296  -2.966  1.00  0.00     0.014 A 
ATOM     41  C   UNL     1      -3.750 -20.030  -3.468  1.00  0.00     0.014 A 
ATOM     42  C   UNL     1      -1.156 -19.039  -3.578  1.00  0.00     0.010 A 
ATOM     43  C   UNL     1      -2.751 -20.796  -4.050  1.00  0.00     0.010 A 
ATOM     44  C   UNL     1      -1.474 -20.260  -4.166  1.00  0.00    -0.014 A 
BRANCH  44  45
ATOM     45  C   UNL     1      -0.416 -20.953  -4.881  1.00  0.00     0.031 A 
ATOM     46  C   UNL     1       0.757 -21.354  -4.058  1.00  0.00     0.074 A 
ATOM     47  C   UNL     1      -0.525 -21.254  -6.189  1.00  0.00     0.049 A 
ATOM     48  N   UNL     1       1.984 -20.957  -4.176  1.00  0.00    -0.248 NA
ATOM     49  C   UNL     1       0.511 -22.208  -2.888  1.00  0.00     0.031 C 
ATOM     50  C   UNL     1      -1.698 -21.124  -7.058  1.00  0.00     0.029 A 
ATOM     51  N   UNL     1       0.380 -21.880  -6.986  1.00  0.00    -0.354 N 
ATOM     52  C   UNL     1       2.703 -21.658  -3.210  1.00  0.00     0.074 A 
ATOM     53  C   UNL     1       1.733 -22.307  -2.365  1.00  0.00     0.031 C 
ATOM     54  C   UNL     1      -1.519 -21.890  -8.156  1.00  0.00     0.029 A 
ATOM     55  C   UNL     1      -0.178 -22.444  -8.127  1.00  0.00     0.049 A 
ATOM     56  H   UNL     1       1.340 -21.929  -6.775  1.00  0.00     0.167 HD
ATOM     57  C   UNL     1       4.054 -21.813  -3.270  1.00  0.00     0.034 A 
ATOM     58  C   UNL     1       0.408 -23.377  -8.916  1.00  0.00     0.034 A 
ATOM     59  C   UNL     1       4.670 -20.921  -4.209  1.00  0.00     0.049 A 
ATOM     60  C   UNL     1       1.870 -23.265  -8.692  1.00  0.00     0.074 A 
ATOM     61  C   UNL     1       4.801 -19.551  -4.311  1.00  0.00     0.029 A 
ATOM     62  N   UNL     1       4.962 -21.424  -5.453  1.00  0.00    -0.354 N 
ATOM     63  N   UNL     1       2.569 -22.217  -9.028  1.00  0.00    -0.248 NA
ATOM     64  C   UNL     1       2.487 -24.141  -7.708  1.00  0.00     0.031 C 
ATOM     65  C   UNL     1       4.686 -19.277  -5.704  1.00  0.00     0.029 A 
ATOM     66  C   UNL     1       4.535 -20.497  -6.367  1.00  0.00     0.049 A 
ATOM     67  H   UNL     1       5.395 -22.286  -5.650  1.00  0.00     0.167 HD
ATOM     68  C   UNL     1       3.486 -22.065  -7.997  1.00  0.00     0.074 A 
ATOM     69  C   UNL     1       3.462 -23.336  -7.275  1.00  0.00     0.031 C 
ATOM     70  C   UNL     1       3.960 -20.833  -7.650  1.00  0.00     0.034 A 
BRANCH  57  71
ATOM     71  C   UNL     1       4.797 -22.988  -2.700  1.00  0.00     0.023 A 
ATOM     72  C   UNL     1       6.186 -22.869  -2.488  1.00  0.00     0.012 A 
ATOM     73  C   UNL     1       4.231 -24.279  -2.613  1.00  0.00     0.148 A 
ATOM     74  C   UNL     1       6.978 -23.990  -2.211  1.00  0.00     0.002 A 
ATOM     75  C   UNL     1       5.009 -25.379  -2.275  1.00  0.00     0.091 A 
ATOM     76  F   UNL     1       2.959 -24.466  -2.984  1.00  0.00    -0.205 F 
ATOM     77  C   UNL     1       6.388 -25.244  -2.092  1.00  0.00     0.022 A 
BRANCH  75  78
ATOM     78  S   UNL     1       4.291 -27.014  -2.091  1.00  0.00     0.127 S 
ATOM     79  O   UNL     1       4.726 -27.665  -3.323  1.00  0.00    -0.237 OA
ATOM     80  O   UNL     1       4.942 -27.494  -0.872  1.00  0.00    -0.237 OA
ATOM     81  O   UNL     1       2.857 -26.791  -1.953  1.00  0.00    -0.744 OA
ENDBRANCH  75  78
ENDBRANCH  57  71
BRANCH  58  82
ATOM     82  C   UNL     1      -0.204 -24.535  -9.614  1.00  0.00     0.023 A 
ATOM     83  C   UNL     1       0.561 -25.246 -10.562  1.00  0.00     0.012 A 
ATOM     84  C   UNL     1      -1.409 -25.122  -9.165  1.00  0.00     0.148 A 
ATOM     85  C   UNL     1       0.169 -26.516 -11.005  1.00  0.00     0.002 A 
ATOM     86  C   UNL     1      -1.803 -26.378  -9.620  1.00  0.00     0.091 A 
ATOM     87  F   UNL     1      -2.124 -24.503  -8.218  1.00  0.00    -0.205 F 
ATOM     88  C   UNL     1      -1.008 -27.086 -10.528  1.00  0.00     0.022 A 
BRANCH  86  89
ATOM     89  S   UNL     1      -3.307 -27.171  -9.033  1.00  0.00     0.127 S 
ATOM     90  O   UNL     1      -3.860 -27.733 -10.265  1.00  0.00    -0.237 OA
ATOM     91  O   UNL     1      -2.782 -28.156  -8.092  1.00  0.00    -0.237 OA
ATOM     92  O   UNL     1      -4.113 -26.104  -8.452  1.00  0.00    -0.744 OA
ENDBRANCH  86  89
ENDBRANCH  58  82
BRANCH  70  93
ATOM     93  C   UNL     1       3.597 -19.665  -8.532  1.00  0.00     0.023 A 
ATOM     94  C   UNL     1       2.274 -19.177  -8.598  1.00  0.00     0.012 A 
ATOM     95  C   UNL     1       4.627 -18.923  -9.130  1.00  0.00     0.148 A 
ATOM     96  C   UNL     1       1.982 -17.979  -9.254  1.00  0.00     0.002 A 
ATOM     97  C   UNL     1       4.339 -17.713  -9.751  1.00  0.00     0.091 A 
ATOM     98  F   UNL     1       5.880 -19.393  -9.037  1.00  0.00    -0.205 F 
ATOM     99  C   UNL     1       3.017 -17.240  -9.820  1.00  0.00     0.022 A 
BRANCH  97 100
ATOM    100  S   UNL     1       5.628 -16.648 -10.400  1.00  0.00     0.127 S 
ATOM    101  O   UNL     1       5.381 -16.710 -11.839  1.00  0.00    -0.237 OA
ATOM    102  O   UNL     1       5.308 -15.361  -9.779  1.00  0.00    -0.237 OA
ATOM    103  O   UNL     1       6.892 -17.227  -9.961  1.00  0.00    -0.744 OA
ENDBRANCH  97 100
ENDBRANCH  70  93
ENDBRANCH  44  45
ENDBRANCH  36  39
ENDBRANCH  34  35
ENDBRANCH  33  34
ENDBRANCH  32  33
ENDBRANCH   1  32
TORSDOF 19
