REMARK SMILES CC1(C)[C@@H](C(=O)NCCCCCCNC(=O)c2ccc(-c3c4nc(c(-c5cccc(S(=O)(=O)[O-])c5F)c5ccc([nH]5)c(-c5cccc(S(=O)(=O)[O-])c5F)c5nc(c(-c6cccc(S(=O)(=O)[O-])c6F)c6ccc3[nH]6)C=C5)C=C4)cc2)[C@@H]1C(=O)Nc1ccc(N2CCCCS2(=O)=O)cc1
REMARK SMILES IDX 10 1 9 2 8 3 7 4 5 5 6 6 4 8 1 9 2 10 3 11 80 12 81 13 82 14
REMARK SMILES IDX 83 15 84 17 85 18 97 19 86 20 96 21 87 22 88 23 89 24 93 25
REMARK SMILES IDX 90 26 92 27 94 28 95 29 91 30 11 31 12 32 13 33 14 34 15 35
REMARK SMILES IDX 16 37 17 38 18 39 79 40 19 41 78 42 20 43 21 44 22 45 72 46
REMARK SMILES IDX 23 47 77 48 71 49 73 50 24 51 76 52 70 53 69 54 25 56 57 57
REMARK SMILES IDX 37 58 56 59 38 60 41 61 55 62 74 63 39 64 40 65 54 67 75 68
REMARK SMILES IDX 42 69 26 70 27 71 35 72 28 73 30 74 36 75 29 76 31 77 32 78
REMARK SMILES IDX 33 79 34 80 58 81 59 82 67 83 60 84 62 85 68 86 61 87 63 88
REMARK SMILES IDX 64 89 65 90 66 91 43 92 44 93 52 94 45 95 47 96 53 97 46 98
REMARK SMILES IDX 48 99 49 100 50 101 51 102
REMARK H PARENT 7 7 83 16 14 36 73 55 41 66
REMARK Flexibility Score: inf
ROOT
ATOM      1  C   UNL     1      -5.339  -3.309  -0.764  1.00  0.00     0.002 C 
ENDROOT
BRANCH   1   2
ATOM      2  C   UNL     1      -4.666  -2.181   0.009  1.00  0.00     0.021 C 
BRANCH   2   3
ATOM      3  C   UNL     1      -3.168  -2.361   0.277  1.00  0.00     0.116 C 
BRANCH   3   4
ATOM      4  N   UNL     1      -2.335  -2.276  -0.919  1.00  0.00    -0.356 N 
ATOM      5  C   UNL     1      -1.358  -1.418  -1.363  1.00  0.00     0.224 C 
ATOM      6  O   UNL     1      -0.790  -1.711  -2.415  1.00  0.00    -0.275 OA
ATOM      7  H   UNL     1      -2.516  -3.004  -1.556  1.00  0.00     0.163 HD
BRANCH   5   8
ATOM      8  C   UNL     1      -1.002  -0.112  -0.728  1.00  0.00     0.098 C 
ATOM      9  C   UNL     1       1.114  -1.167   0.277  1.00  0.00     0.013 C 
ATOM     10  C   UNL     1       0.277   0.072   0.066  1.00  0.00    -0.011 C 
ATOM     11  C   UNL     1       1.102   1.312  -0.188  1.00  0.00     0.013 C 
ATOM     12  C   UNL     1      -1.095   0.221   0.744  1.00  0.00     0.098 C 
BRANCH  12  13
ATOM     13  C   UNL     1      -1.546   1.561   1.274  1.00  0.00     0.228 C 
ATOM     14  O   UNL     1      -1.032   1.951   2.321  1.00  0.00    -0.274 OA
ATOM     15  N   UNL     1      -2.444   2.401   0.626  1.00  0.00    -0.326 N 
ATOM     16  H   UNL     1      -2.499   3.306   1.011  1.00  0.00     0.169 HD
BRANCH  15  17
ATOM     17  C   UNL     1      -3.287   2.193  -0.479  1.00  0.00     0.041 A 
ATOM     18  C   UNL     1      -3.787   3.251  -1.236  1.00  0.00     0.028 A 
ATOM     19  C   UNL     1      -3.651   0.922  -0.856  1.00  0.00     0.028 A 
ATOM     20  C   UNL     1      -4.529   2.992  -2.410  1.00  0.00     0.029 A 
ATOM     21  C   UNL     1      -4.289   0.645  -2.061  1.00  0.00     0.029 A 
ATOM     22  C   UNL     1      -4.776   1.679  -2.825  1.00  0.00     0.052 A 
BRANCH  22  23
ATOM     23  N   UNL     1      -5.468   1.398  -4.045  1.00  0.00    -0.270 N 
ATOM     24  C   UNL     1      -4.702   1.393  -5.308  1.00  0.00     0.135 C 
ATOM     25  S   UNL     1      -6.889   0.465  -3.984  1.00  0.00     0.235 S 
ATOM     26  C   UNL     1      -4.359  -0.025  -5.773  1.00  0.00     0.024 C 
ATOM     27  C   UNL     1      -6.329  -1.099  -4.649  1.00  0.00     0.160 C 
ATOM     28  O   UNL     1      -7.287   0.238  -2.608  1.00  0.00    -0.206 OA
ATOM     29  O   UNL     1      -7.812   1.019  -4.949  1.00  0.00    -0.206 OA
ATOM     30  C   UNL     1      -5.595  -0.900  -5.964  1.00  0.00     0.020 C 
ENDBRANCH  22  23
ENDBRANCH  15  17
ENDBRANCH  12  13
ENDBRANCH   5   8
ENDBRANCH   3   4
ENDBRANCH   2   3
ENDBRANCH   1   2
BRANCH   1  31
ATOM     31  C   UNL     1      -5.634  -4.533   0.097  1.00  0.00     0.002 C 
BRANCH  31  32
ATOM     32  C   UNL     1      -6.415  -4.231   1.382  1.00  0.00     0.021 C 
BRANCH  32  33
ATOM     33  C   UNL     1      -7.690  -3.418   1.169  1.00  0.00     0.116 C 
BRANCH  33  34
ATOM     34  N   UNL     1      -8.657  -4.171   0.388  1.00  0.00    -0.352 N 
ATOM     35  C   UNL     1      -9.856  -4.689   0.806  1.00  0.00     0.251 C 
ATOM     36  H   UNL     1      -8.423  -4.328  -0.555  1.00  0.00     0.163 HD
ATOM     37  O   UNL     1     -10.410  -5.574   0.162  1.00  0.00    -0.269 OA
BRANCH  35  38
ATOM     38  C   UNL     1     -10.466  -4.163   2.044  1.00  0.00     0.039 A 
ATOM     39  C   UNL     1     -10.965  -5.054   2.994  1.00  0.00     0.014 A 
ATOM     40  C   UNL     1     -10.535  -2.782   2.259  1.00  0.00     0.014 A 
ATOM     41  C   UNL     1     -11.511  -4.557   4.178  1.00  0.00     0.010 A 
ATOM     42  C   UNL     1     -11.006  -2.295   3.473  1.00  0.00     0.010 A 
ATOM     43  C   UNL     1     -11.520  -3.175   4.436  1.00  0.00    -0.014 A 
BRANCH  43  44
ATOM     44  C   UNL     1     -12.077  -2.638   5.703  1.00  0.00     0.031 A 
ATOM     45  C   UNL     1     -13.275  -1.726   5.677  1.00  0.00     0.074 A 
ATOM     46  C   UNL     1     -11.470  -2.924   6.872  1.00  0.00     0.049 A 
ATOM     47  N   UNL     1     -13.894  -1.151   6.675  1.00  0.00    -0.248 NA
ATOM     48  C   UNL     1     -13.839  -1.398   4.356  1.00  0.00     0.031 C 
ATOM     49  C   UNL     1     -10.257  -3.731   7.019  1.00  0.00     0.029 A 
ATOM     50  N   UNL     1     -11.778  -2.551   8.156  1.00  0.00    -0.354 N 
ATOM     51  C   UNL     1     -14.892  -0.370   6.105  1.00  0.00     0.074 A 
ATOM     52  C   UNL     1     -14.775  -0.515   4.671  1.00  0.00     0.031 C 
ATOM     53  C   UNL     1      -9.931  -3.801   8.320  1.00  0.00     0.029 A 
ATOM     54  C   UNL     1     -10.889  -3.019   9.095  1.00  0.00     0.049 A 
ATOM     55  H   UNL     1     -12.563  -2.001   8.384  1.00  0.00     0.167 HD
ATOM     56  C   UNL     1     -15.839   0.379   6.718  1.00  0.00     0.034 A 
ATOM     57  C   UNL     1     -10.844  -2.831  10.428  1.00  0.00     0.034 A 
ATOM     58  C   UNL     1     -15.971   0.495   8.146  1.00  0.00     0.049 A 
ATOM     59  C   UNL     1     -11.927  -2.020  11.086  1.00  0.00     0.074 A 
ATOM     60  C   UNL     1     -16.946   1.160   8.867  1.00  0.00     0.029 A 
ATOM     61  N   UNL     1     -15.093  -0.053   9.068  1.00  0.00    -0.354 N 
ATOM     62  N   UNL     1     -12.956  -1.418  10.541  1.00  0.00    -0.248 NA
ATOM     63  C   UNL     1     -11.866  -1.896  12.550  1.00  0.00     0.031 C 
ATOM     64  C   UNL     1     -16.636   1.047  10.226  1.00  0.00     0.029 A 
ATOM     65  C   UNL     1     -15.496   0.270  10.353  1.00  0.00     0.049 A 
ATOM     66  H   UNL     1     -14.301  -0.592   8.843  1.00  0.00     0.167 HD
ATOM     67  C   UNL     1     -13.686  -0.880  11.594  1.00  0.00     0.074 A 
ATOM     68  C   UNL     1     -12.992  -1.246  12.812  1.00  0.00     0.031 C 
ATOM     69  C   UNL     1     -14.822  -0.141  11.558  1.00  0.00     0.034 A 
BRANCH  56  70
ATOM     70  C   UNL     1     -16.835   1.104   5.849  1.00  0.00     0.023 A 
ATOM     71  C   UNL     1     -17.805   0.372   5.133  1.00  0.00     0.012 A 
ATOM     72  C   UNL     1     -16.852   2.511   5.792  1.00  0.00     0.148 A 
ATOM     73  C   UNL     1     -18.752   1.026   4.346  1.00  0.00     0.002 A 
ATOM     74  C   UNL     1     -17.831   3.158   5.046  1.00  0.00     0.091 A 
ATOM     75  F   UNL     1     -15.912   3.190   6.464  1.00  0.00    -0.205 F 
ATOM     76  C   UNL     1     -18.772   2.418   4.312  1.00  0.00     0.022 A 
BRANCH  74  77
ATOM     77  S   UNL     1     -17.997   4.946   5.006  1.00  0.00     0.127 S 
ATOM     78  O   UNL     1     -17.636   5.245   3.621  1.00  0.00    -0.237 OA
ATOM     79  O   UNL     1     -19.415   5.128   5.319  1.00  0.00    -0.237 OA
ATOM     80  O   UNL     1     -17.081   5.460   6.013  1.00  0.00    -0.744 OA
ENDBRANCH  74  77
ENDBRANCH  56  70
BRANCH  57  81
ATOM     81  C   UNL     1      -9.764  -3.463  11.237  1.00  0.00     0.023 A 
ATOM     82  C   UNL     1     -10.081  -4.503  12.133  1.00  0.00     0.012 A 
ATOM     83  C   UNL     1      -8.424  -3.047  11.115  1.00  0.00     0.148 A 
ATOM     84  C   UNL     1      -9.091  -5.088  12.922  1.00  0.00     0.002 A 
ATOM     85  C   UNL     1      -7.434  -3.675  11.860  1.00  0.00     0.091 A 
ATOM     86  F   UNL     1      -8.144  -2.052  10.262  1.00  0.00    -0.205 F 
ATOM     87  C   UNL     1      -7.767  -4.681  12.780  1.00  0.00     0.022 A 
BRANCH  85  88
ATOM     88  S   UNL     1      -5.689  -3.308  11.646  1.00  0.00     0.127 S 
ATOM     89  O   UNL     1      -5.364  -2.651  12.909  1.00  0.00    -0.237 OA
ATOM     90  O   UNL     1      -5.119  -4.646  11.482  1.00  0.00    -0.237 OA
ATOM     91  O   UNL     1      -5.605  -2.470  10.457  1.00  0.00    -0.744 OA
ENDBRANCH  85  88
ENDBRANCH  57  81
BRANCH  69  92
ATOM     92  C   UNL     1     -15.424   0.280  12.874  1.00  0.00     0.023 A 
ATOM     93  C   UNL     1     -14.784   1.252  13.669  1.00  0.00     0.012 A 
ATOM     94  C   UNL     1     -16.662  -0.248  13.292  1.00  0.00     0.148 A 
ATOM     95  C   UNL     1     -15.345   1.658  14.879  1.00  0.00     0.002 A 
ATOM     96  C   UNL     1     -17.242   0.202  14.470  1.00  0.00     0.091 A 
ATOM     97  F   UNL     1     -17.248  -1.184  12.530  1.00  0.00    -0.205 F 
ATOM     98  C   UNL     1     -16.578   1.143  15.274  1.00  0.00     0.022 A 
BRANCH  96  99
ATOM     99  S   UNL     1     -18.872  -0.328  15.005  1.00  0.00     0.127 S 
ATOM    100  O   UNL     1     -18.548  -1.177  16.151  1.00  0.00    -0.237 OA
ATOM    101  O   UNL     1     -19.514   0.941  15.348  1.00  0.00    -0.237 OA
ATOM    102  O   UNL     1     -19.465  -1.017  13.867  1.00  0.00    -0.744 OA
ENDBRANCH  96  99
ENDBRANCH  69  92
ENDBRANCH  43  44
ENDBRANCH  35  38
ENDBRANCH  33  34
ENDBRANCH  32  33
ENDBRANCH  31  32
ENDBRANCH   1  31
TORSDOF 19
