REMARK SMILES CC1=C[C@H](C)[C@H](CN2C[C@]34C=C[C@@H](O3)[C@H](C(=O)NCCCCCCNC(=O)c3ccc(-c5c6nc(c(-c7cccc(S(=O)(=O)[O-])c7F)c7ccc([nH]7)c(-c7cccc(S(=O)(=O)[O-])c7F)c7nc(c(-c8cccc(S(=O)(=O)[O-])c8F)c8ccc5[nH]8)C=C7)C=C6)cc3)[C@@H]4C2=O)[C@H](C)C1
REMARK SMILES IDX 22 1 21 2 20 3 19 4 18 5 16 6 17 7 15 9 8 10 9 11 92 12
REMARK SMILES IDX 10 13 91 14 93 15 11 16 14 17 12 18 13 19 7 20 6 21 1 22
REMARK SMILES IDX 2 23 3 24 96 25 4 26 94 27 5 28 95 29 23 30 24 31 25 32
REMARK SMILES IDX 26 33 27 35 28 36 29 37 90 38 30 39 89 40 31 41 32 42 33 43
REMARK SMILES IDX 83 44 34 45 88 46 82 47 84 48 35 49 87 50 81 51 80 52 36 54
REMARK SMILES IDX 68 55 48 56 67 57 49 58 52 59 66 60 85 61 50 62 51 63 65 65
REMARK SMILES IDX 86 66 53 67 37 68 38 69 46 70 39 71 41 72 47 73 40 74 42 75
REMARK SMILES IDX 43 76 44 77 45 78 69 79 70 80 78 81 71 82 73 83 79 84 72 85
REMARK SMILES IDX 74 86 75 87 76 88 77 89 54 90 55 91 63 92 56 93 58 94 64 95
REMARK SMILES IDX 57 96 59 97 60 98 61 99 62 100
REMARK H PARENT 18 8 25 34 84 53 52 64
REMARK Flexibility Score: inf
ROOT
ATOM      1  C   UNL     1      -8.178  -1.375  -9.031  1.00  0.00     0.002 C 
ENDROOT
BRANCH   1   2
ATOM      2  C   UNL     1      -7.262  -2.142  -8.067  1.00  0.00     0.002 C 
BRANCH   2   3
ATOM      3  C   UNL     1      -5.850  -2.431  -8.593  1.00  0.00     0.021 C 
BRANCH   3   4
ATOM      4  C   UNL     1      -4.942  -1.204  -8.653  1.00  0.00     0.116 C 
BRANCH   4   5
ATOM      5  N   UNL     1      -4.317  -0.950  -7.362  1.00  0.00    -0.356 N 
ATOM      6  C   UNL     1      -3.075  -0.437  -7.098  1.00  0.00     0.227 C 
ATOM      7  O   UNL     1      -2.675  -0.438  -5.936  1.00  0.00    -0.275 OA
ATOM      8  H   UNL     1      -4.861  -1.178  -6.573  1.00  0.00     0.163 HD
BRANCH   6   9
ATOM      9  C   UNL     1      -2.268   0.119  -8.252  1.00  0.00     0.127 C 
ATOM     10  N   UNL     1       0.086   1.330  -5.985  1.00  0.00    -0.339 N 
ATOM     11  C   UNL     1      -0.975   2.250  -6.253  1.00  0.00     0.160 C 
ATOM     12  C   UNL     1       0.044   0.315  -6.895  1.00  0.00     0.230 C 
ATOM     13  C   UNL     1      -1.205   2.352  -7.805  1.00  0.00     0.117 C 
ATOM     14  C   UNL     1      -0.910   0.758  -7.962  1.00  0.00     0.132 C 
ATOM     15  O   UNL     1       0.739  -0.688  -6.937  1.00  0.00    -0.274 OA
ATOM     16  C   UNL     1      -2.596   3.002  -7.460  1.00  0.00     0.009 C 
ATOM     17  O   UNL     1      -1.775   2.180  -9.124  1.00  0.00    -0.360 OA
ATOM     18  C   UNL     1      -3.603   2.299  -7.987  1.00  0.00     0.004 C 
ATOM     19  C   UNL     1      -2.941   1.334  -8.886  1.00  0.00     0.155 C 
BRANCH  10  20
ATOM     20  C   UNL     1       1.023   1.522  -4.885  1.00  0.00     0.124 C 
BRANCH  20  21
ATOM     21  C   UNL     1       0.361   1.479  -3.481  1.00  0.00     0.018 C 
ATOM     22  C   UNL     1       0.792   0.307   0.838  1.00  0.00     0.039 C 
ATOM     23  C   UNL     1       0.665   0.665  -0.615  1.00  0.00    -0.077 C 
ATOM     24  C   UNL     1       0.059  -0.150  -1.484  1.00  0.00    -0.025 C 
ATOM     25  C   UNL     1       1.333   1.928  -1.045  1.00  0.00     0.034 C 
ATOM     26  C   UNL     1       0.046   0.034  -2.975  1.00  0.00     0.014 C 
ATOM     27  C   UNL     1       0.933   2.490  -2.421  1.00  0.00    -0.005 C 
ATOM     28  C   UNL     1       0.921  -1.081  -3.561  1.00  0.00     0.012 C 
ATOM     29  C   UNL     1       2.052   3.427  -2.897  1.00  0.00     0.008 C 
ENDBRANCH  20  21
ENDBRANCH  10  20
ENDBRANCH   6   9
ENDBRANCH   4   5
ENDBRANCH   3   4
ENDBRANCH   2   3
ENDBRANCH   1   2
BRANCH   1  30
ATOM     30  C   UNL     1      -8.335  -1.981 -10.429  1.00  0.00     0.021 C 
BRANCH  30  31
ATOM     31  C   UNL     1      -8.777  -3.441 -10.464  1.00  0.00     0.116 C 
BRANCH  31  32
ATOM     32  N   UNL     1     -10.129  -3.632  -9.963  1.00  0.00    -0.352 N 
ATOM     33  C   UNL     1     -11.148  -4.375 -10.514  1.00  0.00     0.251 C 
ATOM     34  H   UNL     1     -10.343  -3.170  -9.120  1.00  0.00     0.163 HD
ATOM     35  O   UNL     1     -12.281  -4.317 -10.045  1.00  0.00    -0.269 OA
BRANCH  33  36
ATOM     36  C   UNL     1     -10.872  -5.224 -11.694  1.00  0.00     0.039 A 
ATOM     37  C   UNL     1     -11.714  -5.142 -12.806  1.00  0.00     0.014 A 
ATOM     38  C   UNL     1      -9.769  -6.082 -11.707  1.00  0.00     0.014 A 
ATOM     39  C   UNL     1     -11.412  -5.874 -13.959  1.00  0.00     0.010 A 
ATOM     40  C   UNL     1      -9.434  -6.758 -12.877  1.00  0.00     0.010 A 
ATOM     41  C   UNL     1     -10.253  -6.664 -14.014  1.00  0.00    -0.014 A 
BRANCH  41  42
ATOM     42  C   UNL     1      -9.870  -7.413 -15.240  1.00  0.00     0.031 A 
ATOM     43  C   UNL     1      -9.789  -8.916 -15.201  1.00  0.00     0.074 A 
ATOM     44  C   UNL     1      -9.490  -6.745 -16.348  1.00  0.00     0.049 A 
ATOM     45  N   UNL     1      -9.336  -9.743 -16.107  1.00  0.00    -0.248 NA
ATOM     46  C   UNL     1     -10.248  -9.573 -13.965  1.00  0.00     0.031 C 
ATOM     47  C   UNL     1      -9.459  -5.288 -16.491  1.00  0.00     0.029 A 
ATOM     48  N   UNL     1      -9.016  -7.205 -17.552  1.00  0.00    -0.354 N 
ATOM     49  C   UNL     1      -9.420 -11.009 -15.540  1.00  0.00     0.074 A 
ATOM     50  C   UNL     1      -9.935 -10.839 -14.199  1.00  0.00     0.031 C 
ATOM     51  C   UNL     1      -8.976  -4.974 -17.704  1.00  0.00     0.029 A 
ATOM     52  C   UNL     1      -8.633  -6.202 -18.414  1.00  0.00     0.049 A 
ATOM     53  H   UNL     1      -8.957  -8.162 -17.778  1.00  0.00     0.167 HD
ATOM     54  C   UNL     1      -9.125 -12.209 -16.094  1.00  0.00     0.034 A 
ATOM     55  C   UNL     1      -8.053  -6.265 -19.630  1.00  0.00     0.034 A 
ATOM     56  C   UNL     1      -8.660 -12.380 -17.443  1.00  0.00     0.049 A 
ATOM     57  C   UNL     1      -7.777  -7.614 -20.241  1.00  0.00     0.074 A 
ATOM     58  C   UNL     1      -8.391 -13.557 -18.117  1.00  0.00     0.029 A 
ATOM     59  N   UNL     1      -8.402 -11.344 -18.327  1.00  0.00    -0.354 N 
ATOM     60  N   UNL     1      -7.987  -8.806 -19.736  1.00  0.00    -0.248 NA
ATOM     61  C   UNL     1      -7.223  -7.631 -21.603  1.00  0.00     0.031 C 
ATOM     62  C   UNL     1      -7.964 -13.233 -19.409  1.00  0.00     0.029 A 
ATOM     63  C   UNL     1      -7.987 -11.854 -19.544  1.00  0.00     0.049 A 
ATOM     64  H   UNL     1      -8.500 -10.386 -18.119  1.00  0.00     0.167 HD
ATOM     65  C   UNL     1      -7.634  -9.710 -20.732  1.00  0.00     0.074 A 
ATOM     66  C   UNL     1      -7.210  -8.929 -21.875  1.00  0.00     0.031 C 
ATOM     67  C   UNL     1      -7.645 -11.065 -20.697  1.00  0.00     0.034 A 
BRANCH  54  68
ATOM     68  C   UNL     1      -9.362 -13.442 -15.262  1.00  0.00     0.023 A 
ATOM     69  C   UNL     1     -10.685 -13.857 -15.007  1.00  0.00     0.012 A 
ATOM     70  C   UNL     1      -8.289 -14.225 -14.794  1.00  0.00     0.148 A 
ATOM     71  C   UNL     1     -10.938 -15.013 -14.270  1.00  0.00     0.002 A 
ATOM     72  C   UNL     1      -8.550 -15.401 -14.098  1.00  0.00     0.091 A 
ATOM     73  F   UNL     1      -7.038 -13.806 -15.031  1.00  0.00    -0.205 F 
ATOM     74  C   UNL     1      -9.872 -15.790 -13.826  1.00  0.00     0.022 A 
BRANCH  72  75
ATOM     75  S   UNL     1      -7.251 -16.515 -13.551  1.00  0.00     0.127 S 
ATOM     76  O   UNL     1      -7.309 -16.345 -12.099  1.00  0.00    -0.237 OA
ATOM     77  O   UNL     1      -7.732 -17.809 -14.033  1.00  0.00    -0.237 OA
ATOM     78  O   UNL     1      -6.026 -16.047 -14.184  1.00  0.00    -0.744 OA
ENDBRANCH  72  75
ENDBRANCH  54  68
BRANCH  55  79
ATOM     79  C   UNL     1      -7.741  -5.013 -20.377  1.00  0.00     0.023 A 
ATOM     80  C   UNL     1      -8.481  -4.693 -21.532  1.00  0.00     0.012 A 
ATOM     81  C   UNL     1      -6.729  -4.134 -19.946  1.00  0.00     0.148 A 
ATOM     82  C   UNL     1      -8.192  -3.542 -22.267  1.00  0.00     0.002 A 
ATOM     83  C   UNL     1      -6.485  -2.960 -20.651  1.00  0.00     0.091 A 
ATOM     84  F   UNL     1      -6.026  -4.460 -18.852  1.00  0.00    -0.205 F 
ATOM     85  C   UNL     1      -7.201  -2.672 -21.822  1.00  0.00     0.022 A 
BRANCH  83  86
ATOM     86  S   UNL     1      -5.321  -1.721 -20.069  1.00  0.00     0.127 S 
ATOM     87  O   UNL     1      -4.186  -1.931 -20.963  1.00  0.00    -0.237 OA
ATOM     88  O   UNL     1      -6.060  -0.478 -20.291  1.00  0.00    -0.237 OA
ATOM     89  O   UNL     1      -5.093  -2.034 -18.664  1.00  0.00    -0.744 OA
ENDBRANCH  83  86
ENDBRANCH  55  79
BRANCH  67  90
ATOM     90  C   UNL     1      -7.248 -11.806 -21.946  1.00  0.00     0.023 A 
ATOM     91  C   UNL     1      -5.894 -11.871 -22.325  1.00  0.00     0.012 A 
ATOM     92  C   UNL     1      -8.212 -12.521 -22.685  1.00  0.00     0.148 A 
ATOM     93  C   UNL     1      -5.506 -12.620 -23.436  1.00  0.00     0.002 A 
ATOM     94  C   UNL     1      -7.812 -13.303 -23.762  1.00  0.00     0.091 A 
ATOM     95  F   UNL     1      -9.498 -12.430 -22.317  1.00  0.00    -0.205 F 
ATOM     96  C   UNL     1      -6.462 -13.346 -24.145  1.00  0.00     0.022 A 
BRANCH  94  97
ATOM     97  S   UNL     1      -8.957 -14.346 -24.672  1.00  0.00     0.127 S 
ATOM     98  O   UNL     1      -9.056 -13.637 -25.947  1.00  0.00    -0.237 OA
ATOM     99  O   UNL     1      -8.234 -15.617 -24.736  1.00  0.00    -0.237 OA
ATOM    100  O   UNL     1     -10.180 -14.386 -23.883  1.00  0.00    -0.744 OA
ENDBRANCH  94  97
ENDBRANCH  67  90
ENDBRANCH  41  42
ENDBRANCH  33  36
ENDBRANCH  31  32
ENDBRANCH  30  31
ENDBRANCH   1  30
TORSDOF 18
