REMARK SMILES O=C(Cc1ccc(CBr)cc1)NCCCCCCNC(=O)c1ccc(-c2c3nc(c(-c4cccc(S(=O)(=O)[O-])c4F)c4ccc([nH]4)c(-c4cccc(S(=O)(=O)[O-])c4F)c4nc(c(-c5cccc(S(=O)(=O)[O-])c5F)c5ccc2[nH]5)C=C4)C=C3)cc1
REMARK SMILES IDX 16 1 15 2 14 3 13 4 12 5 1 6 2 7 3 9 4 10 5 11 11 12 6 13
REMARK SMILES IDX 10 14 7 15 8 16 9 17 17 18 18 19 19 20 20 21 21 23 22 24
REMARK SMILES IDX 23 25 84 26 24 27 83 28 25 29 26 30 27 31 77 32 28 33 82 34
REMARK SMILES IDX 76 35 78 36 29 37 81 38 75 39 74 40 30 42 62 43 42 44 61 45
REMARK SMILES IDX 43 46 46 47 60 48 79 49 44 50 45 51 59 53 80 54 47 55 31 56
REMARK SMILES IDX 32 57 40 58 33 59 35 60 41 61 34 62 36 63 37 64 38 65 39 66
REMARK SMILES IDX 63 67 64 68 72 69 65 70 67 71 73 72 66 73 68 74 69 75 70 76
REMARK SMILES IDX 71 77 48 78 49 79 57 80 50 81 52 82 58 83 51 84 53 85 54 86
REMARK SMILES IDX 55 87 56 88
REMARK H PARENT 12 8 19 22 78 41 46 52
REMARK Flexibility Score: inf
ROOT
ATOM      1  C   UNL     1       4.583  -2.235   3.684  1.00  0.00     0.002 C 
ENDROOT
BRANCH   1   2
ATOM      2  C   UNL     1       4.115  -2.883   2.377  1.00  0.00     0.002 C 
BRANCH   2   3
ATOM      3  C   UNL     1       2.607  -2.793   2.096  1.00  0.00     0.021 C 
BRANCH   3   4
ATOM      4  C   UNL     1       2.047  -1.370   2.031  1.00  0.00     0.116 C 
BRANCH   4   5
ATOM      5  N   UNL     1       2.755  -0.583   1.044  1.00  0.00    -0.356 N 
ATOM      6  O   UNL     1       0.949   0.055  -0.227  1.00  0.00    -0.275 OA
ATOM      7  C   UNL     1       2.158   0.056  -0.019  1.00  0.00     0.224 C 
ATOM      8  H   UNL     1       3.731  -0.498   1.140  1.00  0.00     0.163 HD
BRANCH   7   9
ATOM      9  C   UNL     1       3.145   0.698  -0.984  1.00  0.00     0.135 C 
BRANCH   9  10
ATOM     10  C   UNL     1       3.917   1.856  -0.394  1.00  0.00    -0.039 A 
ATOM     11  C   UNL     1       5.083   1.640   0.352  1.00  0.00     0.004 A 
ATOM     12  C   UNL     1       3.456   3.167  -0.559  1.00  0.00     0.004 A 
ATOM     13  C   UNL     1       5.750   2.707   0.955  1.00  0.00     0.005 A 
ATOM     14  C   UNL     1       4.137   4.238   0.026  1.00  0.00     0.005 A 
ATOM     15  C   UNL     1       5.284   4.019   0.800  1.00  0.00    -0.037 A 
BRANCH  15  16
ATOM     16  C   UNL     1       5.995   5.163   1.456  1.00  0.00     0.116 C 
ATOM     17  Br  UNL     1       5.589   5.193   3.357  1.00  0.00    -0.088 Br
ENDBRANCH  15  16
ENDBRANCH   9  10
ENDBRANCH   7   9
ENDBRANCH   4   5
ENDBRANCH   3   4
ENDBRANCH   2   3
ENDBRANCH   1   2
BRANCH   1  18
ATOM     18  C   UNL     1       3.927  -2.783   4.952  1.00  0.00     0.021 C 
BRANCH  18  19
ATOM     19  C   UNL     1       4.086  -4.285   5.163  1.00  0.00     0.116 C 
BRANCH  19  20
ATOM     20  N   UNL     1       5.475  -4.680   5.341  1.00  0.00    -0.352 N 
ATOM     21  C   UNL     1       6.028  -5.485   6.306  1.00  0.00     0.251 C 
ATOM     22  H   UNL     1       6.106  -4.320   4.677  1.00  0.00     0.163 HD
ATOM     23  O   UNL     1       7.253  -5.577   6.396  1.00  0.00    -0.269 OA
BRANCH  21  24
ATOM     24  C   UNL     1       5.158  -6.226   7.246  1.00  0.00     0.039 A 
ATOM     25  C   UNL     1       5.502  -6.264   8.600  1.00  0.00     0.014 A 
ATOM     26  C   UNL     1       4.013  -6.891   6.798  1.00  0.00     0.014 A 
ATOM     27  C   UNL     1       4.674  -6.928   9.508  1.00  0.00     0.010 A 
ATOM     28  C   UNL     1       3.148  -7.482   7.716  1.00  0.00     0.010 A 
ATOM     29  C   UNL     1       3.476  -7.523   9.079  1.00  0.00    -0.014 A 
BRANCH  29  30
ATOM     30  C   UNL     1       2.569  -8.209  10.039  1.00  0.00     0.031 A 
ATOM     31  C   UNL     1       2.284  -9.682   9.890  1.00  0.00     0.074 A 
ATOM     32  C   UNL     1       1.956  -7.500  11.008  1.00  0.00     0.049 A 
ATOM     33  N   UNL     1       1.486 -10.443  10.594  1.00  0.00    -0.248 NA
ATOM     34  C   UNL     1       2.964 -10.387   8.790  1.00  0.00     0.031 C 
ATOM     35  C   UNL     1       2.087  -6.055  11.213  1.00  0.00     0.029 A 
ATOM     36  N   UNL     1       1.079  -7.894  11.988  1.00  0.00    -0.354 N 
ATOM     37  C   UNL     1       1.553 -11.705  10.014  1.00  0.00     0.074 A 
ATOM     38  C   UNL     1       2.428 -11.596   8.867  1.00  0.00     0.031 C 
ATOM     39  C   UNL     1       1.320  -5.686  12.252  1.00  0.00     0.029 A 
ATOM     40  C   UNL     1       0.620  -6.858  12.768  1.00  0.00     0.049 A 
ATOM     41  H   UNL     1       0.805  -8.830  12.120  1.00  0.00     0.167 HD
ATOM     42  C   UNL     1       0.973 -12.861  10.417  1.00  0.00     0.034 A 
ATOM     43  C   UNL     1      -0.272  -6.851  13.779  1.00  0.00     0.034 A 
ATOM     44  C   UNL     1       0.126 -12.976  11.574  1.00  0.00     0.049 A 
ATOM     45  C   UNL     1      -0.882  -8.154  14.224  1.00  0.00     0.074 A 
ATOM     46  C   UNL     1      -0.475 -14.110  12.092  1.00  0.00     0.029 A 
ATOM     47  N   UNL     1      -0.239 -11.920  12.395  1.00  0.00    -0.354 N 
ATOM     48  N   UNL     1      -0.703  -9.359  13.739  1.00  0.00    -0.248 NA
ATOM     49  C   UNL     1      -1.782  -8.104  15.385  1.00  0.00     0.031 C 
ATOM     50  C   UNL     1      -1.217 -13.736  13.217  1.00  0.00     0.029 A 
ATOM     51  C   UNL     1      -1.048 -12.377  13.421  1.00  0.00     0.049 A 
ATOM     52  H   UNL     1       0.037 -10.984  12.267  1.00  0.00     0.167 HD
ATOM     53  C   UNL     1      -1.425 -10.213  14.564  1.00  0.00     0.074 A 
ATOM     54  C   UNL     1      -2.028  -9.390  15.591  1.00  0.00     0.031 C 
ATOM     55  C   UNL     1      -1.586 -11.556  14.474  1.00  0.00     0.034 A 
BRANCH  42  56
ATOM     56  C   UNL     1       1.289 -14.112   9.638  1.00  0.00     0.023 A 
ATOM     57  C   UNL     1       2.583 -14.667   9.719  1.00  0.00     0.012 A 
ATOM     58  C   UNL     1       0.301 -14.775   8.884  1.00  0.00     0.148 A 
ATOM     59  C   UNL     1       2.901 -15.839   9.035  1.00  0.00     0.002 A 
ATOM     60  C   UNL     1       0.611 -15.969   8.243  1.00  0.00     0.091 A 
ATOM     61  F   UNL     1      -0.919 -14.226   8.805  1.00  0.00    -0.205 F 
ATOM     62  C   UNL     1       1.913 -16.495   8.307  1.00  0.00     0.022 A 
BRANCH  60  63
ATOM     63  S   UNL     1      -0.606 -16.938   7.346  1.00  0.00     0.127 S 
ATOM     64  O   UNL     1      -0.119 -16.824   5.971  1.00  0.00    -0.237 OA
ATOM     65  O   UNL     1      -0.442 -18.264   7.942  1.00  0.00    -0.237 OA
ATOM     66  O   UNL     1      -1.893 -16.308   7.602  1.00  0.00    -0.744 OA
ENDBRANCH  60  63
ENDBRANCH  42  56
BRANCH  43  67
ATOM     67  C   UNL     1      -0.611  -5.577  14.477  1.00  0.00     0.023 A 
ATOM     68  C   UNL     1      -0.222  -5.389  15.818  1.00  0.00     0.012 A 
ATOM     69  C   UNL     1      -1.329  -4.558  13.823  1.00  0.00     0.148 A 
ATOM     70  C   UNL     1      -0.587  -4.234  16.511  1.00  0.00     0.002 A 
ATOM     71  C   UNL     1      -1.637  -3.384  14.500  1.00  0.00     0.091 A 
ATOM     72  F   UNL     1      -1.700  -4.757  12.551  1.00  0.00    -0.205 F 
ATOM     73  C   UNL     1      -1.288  -3.229  15.850  1.00  0.00     0.022 A 
BRANCH  71  74
ATOM     74  S   UNL     1      -2.421  -1.987  13.688  1.00  0.00     0.127 S 
ATOM     75  O   UNL     1      -3.770  -2.035  14.246  1.00  0.00    -0.237 OA
ATOM     76  O   UNL     1      -1.601  -0.867  14.153  1.00  0.00    -0.237 OA
ATOM     77  O   UNL     1      -2.313  -2.255  12.260  1.00  0.00    -0.744 OA
ENDBRANCH  71  74
ENDBRANCH  43  67
BRANCH  55  78
ATOM     78  C   UNL     1      -2.387 -12.238  15.554  1.00  0.00     0.023 A 
ATOM     79  C   UNL     1      -3.781 -12.054  15.629  1.00  0.00     0.012 A 
ATOM     80  C   UNL     1      -1.754 -13.108  16.464  1.00  0.00     0.148 A 
ATOM     81  C   UNL     1      -4.527 -12.690  16.622  1.00  0.00     0.002 A 
ATOM     82  C   UNL     1      -2.511 -13.781  17.415  1.00  0.00     0.091 A 
ATOM     83  F   UNL     1      -0.423 -13.257  16.389  1.00  0.00    -0.205 F 
ATOM     84  C   UNL     1      -3.894 -13.561  17.506  1.00  0.00     0.022 A 
BRANCH  82  85
ATOM     85  S   UNL     1      -1.796 -14.996  18.528  1.00  0.00     0.127 S 
ATOM     86  O   UNL     1      -1.802 -14.275  19.799  1.00  0.00    -0.237 OA
ATOM     87  O   UNL     1      -2.758 -16.096  18.445  1.00  0.00    -0.237 OA
ATOM     88  O   UNL     1      -0.478 -15.307  17.989  1.00  0.00    -0.744 OA
ENDBRANCH  82  85
ENDBRANCH  55  78
ENDBRANCH  29  30
ENDBRANCH  21  24
ENDBRANCH  19  20
ENDBRANCH  18  19
ENDBRANCH   1  18
TORSDOF 18
