REMARK SMILES CC(C)[C@@H]1C(=O)Nc2ccccc2N1C(=O)N[C@H](Cc1ccccc1)C(=O)NCCCCCCNC(=O)c1ccc(-c2c3nc(c(-c4cccc(S(=O)(=O)[O-])c4F)c4ccc([nH]4)c(-c4cccc(S(=O)(=O)[O-])c4F)c4nc(c(-c5cccc(S(=O)(=O)[O-])c5F)c5ccc2[nH]5)C=C4)C=C3)cc1
REMARK SMILES IDX 31 1 30 2 29 3 28 4 26 5 27 6 18 8 17 9 15 10 16 11 14 13
REMARK SMILES IDX 4 14 5 15 6 16 7 17 13 18 8 19 12 21 9 22 11 23 10 24 2 25
REMARK SMILES IDX 1 26 3 27 19 28 20 29 21 30 25 31 22 32 24 33 23 34 32 35
REMARK SMILES IDX 33 36 34 37 35 38 36 39 37 41 38 42 39 43 100 44 40 45 99 46
REMARK SMILES IDX 41 47 42 48 43 49 93 50 44 51 98 52 92 53 94 54 45 55 97 56
REMARK SMILES IDX 91 57 90 58 46 60 78 61 58 62 77 63 59 64 62 65 76 66 95 67
REMARK SMILES IDX 60 68 61 69 75 71 96 72 63 73 47 74 48 75 56 76 49 77 51 78
REMARK SMILES IDX 57 79 50 80 52 81 53 82 54 83 55 84 79 85 80 86 88 87 81 88
REMARK SMILES IDX 83 89 89 90 82 91 84 92 85 93 86 94 87 95 64 96 65 97 73 98
REMARK SMILES IDX 66 99 68 100 74 101 67 102 69 103 70 104 71 105 72 106
REMARK H PARENT 28 7 17 12 7 20 35 40 94 59 62 70
REMARK Flexibility Score: inf
ROOT
ATOM      1  C   UNL     1       5.140   6.060   1.890  1.00  0.00     0.002 C 
ENDROOT
BRANCH   1   2
ATOM      2  C   UNL     1       5.309   4.652   1.286  1.00  0.00     0.021 C 
BRANCH   2   3
ATOM      3  C   UNL     1       4.386   3.459   1.687  1.00  0.00     0.116 C 
BRANCH   3   4
ATOM      4  N   UNL     1       2.947   3.702   1.844  1.00  0.00    -0.354 N 
ATOM      5  C   UNL     1       1.830   2.930   1.622  1.00  0.00     0.242 C 
ATOM      6  O   UNL     1       0.935   3.079   2.472  1.00  0.00    -0.273 OA
ATOM      7  H   UNL     1       2.738   4.604   2.178  1.00  0.00     0.163 HD
BRANCH   5   8
ATOM      8  C   UNL     1       1.517   1.998   0.382  1.00  0.00     0.177 C 
BRANCH   8   9
ATOM      9  N   UNL     1       2.632   1.785  -0.570  1.00  0.00    -0.326 N 
ATOM     10  C   UNL     1       3.467   2.351  -1.450  1.00  0.00     0.323 C 
ATOM     11  O   UNL     1       4.035   1.457  -2.102  1.00  0.00    -0.248 OA
ATOM     12  H   UNL     1       2.851   0.826  -0.544  1.00  0.00     0.166 HD
BRANCH  10  13
ATOM     13  N   UNL     1       3.787   3.679  -1.624  1.00  0.00    -0.280 N 
ATOM     14  C   UNL     1       3.035   4.968  -1.308  1.00  0.00     0.184 C 
ATOM     15  C   UNL     1       3.484   6.258  -2.014  1.00  0.00     0.247 C 
ATOM     16  O   UNL     1       2.931   7.348  -1.858  1.00  0.00    -0.272 OA
ATOM     17  N   UNL     1       4.608   6.215  -2.760  1.00  0.00    -0.322 N 
ATOM     18  C   UNL     1       5.167   3.949  -2.069  1.00  0.00     0.070 A 
ATOM     19  C   UNL     1       5.513   5.170  -2.667  1.00  0.00     0.065 A 
ATOM     20  H   UNL     1       4.790   6.950  -3.389  1.00  0.00     0.170 HD
ATOM     21  C   UNL     1       6.234   3.079  -1.762  1.00  0.00     0.028 A 
ATOM     22  C   UNL     1       6.831   5.476  -3.031  1.00  0.00     0.028 A 
ATOM     23  C   UNL     1       7.565   3.424  -2.033  1.00  0.00     0.002 A 
ATOM     24  C   UNL     1       7.861   4.615  -2.681  1.00  0.00     0.002 A 
BRANCH  14  25
ATOM     25  C   UNL     1       1.528   4.913  -1.484  1.00  0.00     0.015 C 
ATOM     26  C   UNL     1       0.714   6.032  -0.823  1.00  0.00     0.010 C 
ATOM     27  C   UNL     1       1.075   4.587  -2.900  1.00  0.00     0.010 C 
ENDBRANCH  14  25
ENDBRANCH  10  13
ENDBRANCH   8   9
BRANCH   8  28
ATOM     28  C   UNL     1       0.177   2.415  -0.348  1.00  0.00     0.070 C 
BRANCH  28  29
ATOM     29  C   UNL     1      -1.223   1.988  -0.751  1.00  0.00    -0.045 A 
ATOM     30  C   UNL     1      -2.030   3.081  -1.192  1.00  0.00     0.004 A 
ATOM     31  C   UNL     1      -1.718   0.712  -0.986  1.00  0.00     0.004 A 
ATOM     32  C   UNL     1      -3.254   2.930  -1.835  1.00  0.00     0.000 A 
ATOM     33  C   UNL     1      -2.973   0.555  -1.623  1.00  0.00     0.000 A 
ATOM     34  C   UNL     1      -3.732   1.653  -2.051  1.00  0.00     0.000 A 
ENDBRANCH  28  29
ENDBRANCH   8  28
ENDBRANCH   5   8
ENDBRANCH   3   4
ENDBRANCH   2   3
ENDBRANCH   1   2
BRANCH   1  35
ATOM     35  C   UNL     1       6.348   7.006   1.589  1.00  0.00     0.002 C 
BRANCH  35  36
ATOM     36  C   UNL     1       6.629   7.326   0.106  1.00  0.00     0.021 C 
BRANCH  36  37
ATOM     37  C   UNL     1       6.213   8.721  -0.380  1.00  0.00     0.116 C 
BRANCH  37  38
ATOM     38  N   UNL     1       7.166   9.743   0.029  1.00  0.00    -0.352 N 
ATOM     39  C   UNL     1       8.252  10.288  -0.616  1.00  0.00     0.251 C 
ATOM     40  H   UNL     1       7.004  10.110   0.927  1.00  0.00     0.163 HD
ATOM     41  O   UNL     1       9.089  10.881   0.067  1.00  0.00    -0.269 OA
BRANCH  39  42
ATOM     42  C   UNL     1       8.455  10.212  -2.089  1.00  0.00     0.039 A 
ATOM     43  C   UNL     1       9.771  10.174  -2.576  1.00  0.00     0.014 A 
ATOM     44  C   UNL     1       7.406  10.336  -3.004  1.00  0.00     0.014 A 
ATOM     45  C   UNL     1      10.030  10.253  -3.952  1.00  0.00     0.010 A 
ATOM     46  C   UNL     1       7.663  10.348  -4.384  1.00  0.00     0.010 A 
ATOM     47  C   UNL     1       8.979  10.334  -4.878  1.00  0.00    -0.014 A 
BRANCH  47  48
ATOM     48  C   UNL     1       9.249  10.440  -6.344  1.00  0.00     0.031 A 
ATOM     49  C   UNL     1       8.812  11.657  -7.127  1.00  0.00     0.074 A 
ATOM     50  C   UNL     1       9.856   9.426  -6.997  1.00  0.00     0.049 A 
ATOM     51  N   UNL     1       8.925  11.903  -8.409  1.00  0.00    -0.248 NA
ATOM     52  C   UNL     1       8.142  12.731  -6.375  1.00  0.00     0.031 C 
ATOM     53  C   UNL     1      10.292   8.171  -6.384  1.00  0.00     0.029 A 
ATOM     54  N   UNL     1      10.190   9.279  -8.323  1.00  0.00    -0.354 N 
ATOM     55  C   UNL     1       8.306  13.131  -8.624  1.00  0.00     0.074 A 
ATOM     56  C   UNL     1       7.797  13.569  -7.342  1.00  0.00     0.031 C 
ATOM     57  C   UNL     1      10.835   7.385  -7.327  1.00  0.00     0.029 A 
ATOM     58  C   UNL     1      10.753   8.059  -8.619  1.00  0.00     0.049 A 
ATOM     59  H   UNL     1      10.041   9.982  -8.996  1.00  0.00     0.167 HD
ATOM     60  C   UNL     1       8.187  13.842  -9.772  1.00  0.00     0.034 A 
ATOM     61  C   UNL     1      11.144   7.528  -9.796  1.00  0.00     0.034 A 
ATOM     62  C   UNL     1       8.728  13.430 -11.041  1.00  0.00     0.049 A 
ATOM     63  C   UNL     1      11.017   8.344 -11.055  1.00  0.00     0.074 A 
ATOM     64  C   UNL     1       8.734  14.124 -12.239  1.00  0.00     0.029 A 
ATOM     65  N   UNL     1       9.344  12.213 -11.285  1.00  0.00    -0.354 N 
ATOM     66  N   UNL     1      10.555   9.561 -11.206  1.00  0.00    -0.248 NA
ATOM     67  C   UNL     1      11.496   7.726 -12.302  1.00  0.00     0.031 C 
ATOM     68  C   UNL     1       9.314  13.309 -13.216  1.00  0.00     0.029 A 
ATOM     69  C   UNL     1       9.715  12.127 -12.616  1.00  0.00     0.049 A 
ATOM     70  H   UNL     1       9.495  11.511 -10.610  1.00  0.00     0.167 HD
ATOM     71  C   UNL     1      10.721   9.868 -12.553  1.00  0.00     0.074 A 
ATOM     72  C   UNL     1      11.344   8.716 -13.171  1.00  0.00     0.031 C 
ATOM     73  C   UNL     1      10.378  10.998 -13.217  1.00  0.00     0.034 A 
BRANCH  60  74
ATOM     74  C   UNL     1       7.467  15.167  -9.713  1.00  0.00     0.023 A 
ATOM     75  C   UNL     1       8.061  16.262  -9.053  1.00  0.00     0.012 A 
ATOM     76  C   UNL     1       6.234  15.349 -10.374  1.00  0.00     0.148 A 
ATOM     77  C   UNL     1       7.424  17.503  -9.016  1.00  0.00     0.002 A 
ATOM     78  C   UNL     1       5.629  16.601 -10.374  1.00  0.00     0.091 A 
ATOM     79  F   UNL     1       5.676  14.295 -10.987  1.00  0.00    -0.205 F 
ATOM     80  C   UNL     1       6.215  17.674  -9.684  1.00  0.00     0.022 A 
BRANCH  78  81
ATOM     81  S   UNL     1       4.115  16.948 -11.277  1.00  0.00     0.127 S 
ATOM     82  O   UNL     1       3.165  17.164 -10.186  1.00  0.00    -0.237 OA
ATOM     83  O   UNL     1       4.472  18.156 -12.021  1.00  0.00    -0.237 OA
ATOM     84  O   UNL     1       3.859  15.777 -12.102  1.00  0.00    -0.744 OA
ENDBRANCH  78  81
ENDBRANCH  60  74
BRANCH  61  85
ATOM     85  C   UNL     1      11.728   6.156  -9.838  1.00  0.00     0.023 A 
ATOM     86  C   UNL     1      13.092   5.985 -10.146  1.00  0.00     0.012 A 
ATOM     87  C   UNL     1      10.941   5.023  -9.556  1.00  0.00     0.148 A 
ATOM     88  C   UNL     1      13.653   4.709 -10.206  1.00  0.00     0.002 A 
ATOM     89  C   UNL     1      11.521   3.760  -9.557  1.00  0.00     0.091 A 
ATOM     90  F   UNL     1       9.643   5.206  -9.276  1.00  0.00    -0.205 F 
ATOM     91  C   UNL     1      12.871   3.598  -9.901  1.00  0.00     0.022 A 
BRANCH  89  92
ATOM     92  S   UNL     1      10.624   2.291  -9.045  1.00  0.00     0.127 S 
ATOM     93  O   UNL     1      10.535   1.544 -10.301  1.00  0.00    -0.237 OA
ATOM     94  O   UNL     1      11.537   1.716  -8.053  1.00  0.00    -0.237 OA
ATOM     95  O   UNL     1       9.365   2.765  -8.502  1.00  0.00    -0.744 OA
ENDBRANCH  89  92
ENDBRANCH  61  85
BRANCH  73  96
ATOM     96  C   UNL     1      10.709  11.082 -14.686  1.00  0.00     0.023 A 
ATOM     97  C   UNL     1       9.992  10.307 -15.619  1.00  0.00     0.012 A 
ATOM     98  C   UNL     1      11.683  11.990 -15.147  1.00  0.00     0.148 A 
ATOM     99  C   UNL     1      10.263  10.410 -16.984  1.00  0.00     0.002 A 
ATOM    100  C   UNL     1      11.910  12.128 -16.511  1.00  0.00     0.091 A 
ATOM    101  F   UNL     1      12.367  12.707 -14.242  1.00  0.00    -0.205 F 
ATOM    102  C   UNL     1      11.211  11.328 -17.430  1.00  0.00     0.022 A 
BRANCH 100 103
ATOM    103  S   UNL     1      13.039  13.352 -17.184  1.00  0.00     0.127 S 
ATOM    104  O   UNL     1      14.113  12.511 -17.708  1.00  0.00    -0.237 OA
ATOM    105  O   UNL     1      12.217  14.000 -18.206  1.00  0.00    -0.237 OA
ATOM    106  O   UNL     1      13.411  14.214 -16.070  1.00  0.00    -0.744 OA
ENDBRANCH 100 103
ENDBRANCH  73  96
ENDBRANCH  47  48
ENDBRANCH  39  42
ENDBRANCH  37  38
ENDBRANCH  36  37
ENDBRANCH  35  36
ENDBRANCH   1  35
TORSDOF 21
