REMARK SMILES C/C(=N\Nc1ccccc1C(=O)NCCCCCCNC(=O)c1ccc(-c2c3nc(c(-c4cccc(S(=O)(=O)[O-])c4F)c4ccc([nH]4)c(-c4cccc(S(=O)(=O)[O-])c4F)c4nc(c(-c5cccc(S(=O)(=O)[O-])c5F)c5ccc2[nH]5)C=C4)C=C3)cc1)c1ccc(S(C)(=O)=O)cc1
REMARK SMILES IDX 16 1 15 2 14 3 13 4 11 5 12 6 10 8 5 9 6 10 7 11 9 12 8 13
REMARK SMILES IDX 4 14 3 16 1 17 2 18 86 19 87 20 95 21 88 22 94 23 89 24
REMARK SMILES IDX 90 25 91 26 92 27 93 28 17 29 18 30 19 31 20 32 21 33 22 35
REMARK SMILES IDX 23 36 24 37 85 38 25 39 84 40 26 41 27 42 28 43 78 44 29 45
REMARK SMILES IDX 83 46 77 47 79 48 30 49 82 50 76 51 75 52 31 54 63 55 43 56
REMARK SMILES IDX 62 57 44 58 47 59 61 60 80 61 45 62 46 63 60 65 81 66 48 67
REMARK SMILES IDX 32 68 33 69 41 70 34 71 36 72 42 73 35 74 37 75 38 76 39 77
REMARK SMILES IDX 40 78 64 79 65 80 73 81 66 82 68 83 74 84 67 85 69 86 70 87
REMARK SMILES IDX 71 88 72 89 49 90 50 91 58 92 51 93 53 94 59 95 52 96 54 97
REMARK SMILES IDX 55 98 56 99 57 100
REMARK H PARENT 13 7 4 15 20 34 79 53 47 64
REMARK Flexibility Score: inf
ROOT
ATOM      1  C   UNL     1      -3.674   1.829   2.311  1.00  0.00     0.002 C 
ENDROOT
BRANCH   1   2
ATOM      2  C   UNL     1      -3.579   1.910   0.781  1.00  0.00     0.021 C 
BRANCH   2   3
ATOM      3  C   UNL     1      -2.227   1.533   0.180  1.00  0.00     0.116 C 
BRANCH   3   4
ATOM      4  N   UNL     1      -1.867   0.144   0.394  1.00  0.00    -0.352 N 
ATOM      5  C   UNL     1      -0.950  -0.635  -0.271  1.00  0.00     0.253 C 
ATOM      6  O   UNL     1      -0.768  -1.786   0.136  1.00  0.00    -0.269 OA
ATOM      7  H   UNL     1      -2.350  -0.307   1.123  1.00  0.00     0.163 HD
BRANCH   5   8
ATOM      8  C   UNL     1      -0.261  -0.199  -1.520  1.00  0.00     0.064 A 
ATOM      9  C   UNL     1       0.357   1.042  -1.740  1.00  0.00     0.069 A 
ATOM     10  C   UNL     1       0.843   1.320  -3.041  1.00  0.00     0.028 A 
ATOM     11  C   UNL     1       0.845   0.359  -4.051  1.00  0.00     0.002 A 
ATOM     12  C   UNL     1      -0.214  -1.178  -2.538  1.00  0.00     0.016 A 
ATOM     13  C   UNL     1       0.353  -0.909  -3.785  1.00  0.00     0.001 A 
BRANCH   9  14
ATOM     14  N   UNL     1       0.738   1.982  -0.762  1.00  0.00    -0.277 N 
ATOM     15  H   UNL     1       0.924   2.894  -1.082  1.00  0.00     0.190 HD
BRANCH  14  16
ATOM     16  N   UNL     1       0.876   1.773   0.561  1.00  0.00    -0.180 NA
ATOM     17  C   UNL     1       2.483  -0.145   0.259  1.00  0.00     0.069 C 
ATOM     18  C   UNL     1       1.679   0.867   1.038  1.00  0.00     0.065 C 
BRANCH  18  19
ATOM     19  C   UNL     1       1.816   0.820   2.517  1.00  0.00    -0.002 A 
ATOM     20  C   UNL     1       0.666   0.733   3.306  1.00  0.00     0.011 A 
ATOM     21  C   UNL     1       3.072   0.948   3.113  1.00  0.00     0.011 A 
ATOM     22  C   UNL     1       0.760   0.805   4.696  1.00  0.00     0.021 A 
ATOM     23  C   UNL     1       3.176   0.994   4.505  1.00  0.00     0.021 A 
ATOM     24  C   UNL     1       2.018   0.943   5.287  1.00  0.00     0.067 A 
BRANCH  24  25
ATOM     25  S   UNL     1       2.155   0.980   7.059  1.00  0.00     0.175 S 
ATOM     26  C   UNL     1       1.838   2.673   7.480  1.00  0.00     0.163 C 
ATOM     27  O   UNL     1       1.071   0.168   7.592  1.00  0.00    -0.224 OA
ATOM     28  O   UNL     1       3.530   0.679   7.397  1.00  0.00    -0.224 OA
ENDBRANCH  24  25
ENDBRANCH  18  19
ENDBRANCH  14  16
ENDBRANCH   9  14
ENDBRANCH   5   8
ENDBRANCH   3   4
ENDBRANCH   2   3
ENDBRANCH   1   2
BRANCH   1  29
ATOM     29  C   UNL     1      -2.630   2.611   3.114  1.00  0.00     0.002 C 
BRANCH  29  30
ATOM     30  C   UNL     1      -2.459   4.087   2.777  1.00  0.00     0.021 C 
BRANCH  30  31
ATOM     31  C   UNL     1      -3.738   4.903   2.814  1.00  0.00     0.116 C 
BRANCH  31  32
ATOM     32  N   UNL     1      -4.411   4.839   4.104  1.00  0.00    -0.352 N 
ATOM     33  C   UNL     1      -4.882   5.867   4.883  1.00  0.00     0.251 C 
ATOM     34  H   UNL     1      -4.548   3.934   4.467  1.00  0.00     0.163 HD
ATOM     35  O   UNL     1      -5.294   5.649   6.019  1.00  0.00    -0.269 OA
BRANCH  33  36
ATOM     36  C   UNL     1      -4.859   7.243   4.346  1.00  0.00     0.039 A 
ATOM     37  C   UNL     1      -4.364   8.279   5.141  1.00  0.00     0.014 A 
ATOM     38  C   UNL     1      -5.279   7.493   3.038  1.00  0.00     0.014 A 
ATOM     39  C   UNL     1      -4.226   9.557   4.596  1.00  0.00     0.010 A 
ATOM     40  C   UNL     1      -5.045   8.736   2.469  1.00  0.00     0.010 A 
ATOM     41  C   UNL     1      -4.529   9.785   3.244  1.00  0.00    -0.014 A 
BRANCH  41  42
ATOM     42  C   UNL     1      -4.339  11.112   2.607  1.00  0.00     0.031 A 
ATOM     43  C   UNL     1      -5.523  11.818   2.004  1.00  0.00     0.074 A 
ATOM     44  C   UNL     1      -3.099  11.621   2.468  1.00  0.00     0.049 A 
ATOM     45  N   UNL     1      -5.556  12.908   1.283  1.00  0.00    -0.248 NA
ATOM     46  C   UNL     1      -6.843  11.194   2.205  1.00  0.00     0.031 C 
ATOM     47  C   UNL     1      -1.865  10.995   2.949  1.00  0.00     0.029 A 
ATOM     48  N   UNL     1      -2.667  12.767   1.848  1.00  0.00    -0.354 N 
ATOM     49  C   UNL     1      -6.883  13.071   0.906  1.00  0.00     0.074 A 
ATOM     50  C   UNL     1      -7.620  11.950   1.444  1.00  0.00     0.031 C 
ATOM     51  C   UNL     1      -0.818  11.763   2.607  1.00  0.00     0.029 A 
ATOM     52  C   UNL     1      -1.298  12.911   1.846  1.00  0.00     0.049 A 
ATOM     53  H   UNL     1      -3.279  13.423   1.442  1.00  0.00     0.167 HD
ATOM     54  C   UNL     1      -7.445  14.079   0.198  1.00  0.00     0.034 A 
ATOM     55  C   UNL     1      -0.519  13.853   1.278  1.00  0.00     0.034 A 
ATOM     56  C   UNL     1      -6.713  15.213  -0.293  1.00  0.00     0.049 A 
ATOM     57  C   UNL     1      -1.171  14.980   0.525  1.00  0.00     0.074 A 
ATOM     58  C   UNL     1      -7.199  16.331  -0.946  1.00  0.00     0.029 A 
ATOM     59  N   UNL     1      -5.340  15.371  -0.192  1.00  0.00    -0.354 N 
ATOM     60  N   UNL     1      -2.445  15.190   0.294  1.00  0.00    -0.248 NA
ATOM     61  C   UNL     1      -0.285  16.020  -0.018  1.00  0.00     0.031 C 
ATOM     62  C   UNL     1      -6.114  17.151  -1.269  1.00  0.00     0.029 A 
ATOM     63  C   UNL     1      -4.958  16.564  -0.777  1.00  0.00     0.049 A 
ATOM     64  H   UNL     1      -4.727  14.729   0.234  1.00  0.00     0.167 HD
ATOM     65  C   UNL     1      -2.517  16.406  -0.375  1.00  0.00     0.074 A 
ATOM     66  C   UNL     1      -1.158  16.891  -0.507  1.00  0.00     0.031 C 
ATOM     67  C   UNL     1      -3.608  17.060  -0.844  1.00  0.00     0.034 A 
BRANCH  54  68
ATOM     68  C   UNL     1      -8.929  14.019  -0.052  1.00  0.00     0.023 A 
ATOM     69  C   UNL     1      -9.829  14.190   1.020  1.00  0.00     0.012 A 
ATOM     70  C   UNL     1      -9.434  13.845  -1.355  1.00  0.00     0.148 A 
ATOM     71  C   UNL     1     -11.206  14.149   0.806  1.00  0.00     0.002 A 
ATOM     72  C   UNL     1     -10.807  13.857  -1.568  1.00  0.00     0.091 A 
ATOM     73  F   UNL     1      -8.565  13.662  -2.359  1.00  0.00    -0.205 F 
ATOM     74  C   UNL     1     -11.694  13.994  -0.488  1.00  0.00     0.022 A 
BRANCH  72  75
ATOM     75  S   UNL     1     -11.535  13.750  -3.207  1.00  0.00     0.127 S 
ATOM     76  O   UNL     1     -12.163  12.430  -3.165  1.00  0.00    -0.237 OA
ATOM     77  O   UNL     1     -12.473  14.873  -3.199  1.00  0.00    -0.237 OA
ATOM     78  O   UNL     1     -10.432  13.885  -4.147  1.00  0.00    -0.744 OA
ENDBRANCH  72  75
ENDBRANCH  54  68
BRANCH  55  79
ATOM     79  C   UNL     1       0.962  13.798   1.446  1.00  0.00     0.023 A 
ATOM     80  C   UNL     1       1.604  14.765   2.244  1.00  0.00     0.012 A 
ATOM     81  C   UNL     1       1.732  12.787   0.839  1.00  0.00     0.148 A 
ATOM     82  C   UNL     1       2.990  14.748   2.405  1.00  0.00     0.002 A 
ATOM     83  C   UNL     1       3.105  12.743   1.050  1.00  0.00     0.091 A 
ATOM     84  F   UNL     1       1.103  11.880   0.079  1.00  0.00    -0.205 F 
ATOM     85  C   UNL     1       3.739  13.733   1.816  1.00  0.00     0.022 A 
BRANCH  83  86
ATOM     86  S   UNL     1       4.132  11.401   0.440  1.00  0.00     0.127 S 
ATOM     87  O   UNL     1       4.940  12.078  -0.571  1.00  0.00    -0.237 OA
ATOM     88  O   UNL     1       4.858  11.005   1.647  1.00  0.00    -0.237 OA
ATOM     89  O   UNL     1       3.208  10.393  -0.063  1.00  0.00    -0.744 OA
ENDBRANCH  83  86
ENDBRANCH  55  79
BRANCH  67  90
ATOM     90  C   UNL     1      -3.402  18.407  -1.482  1.00  0.00     0.023 A 
ATOM     91  C   UNL     1      -2.824  18.506  -2.762  1.00  0.00     0.012 A 
ATOM     92  C   UNL     1      -3.880  19.570  -0.844  1.00  0.00     0.148 A 
ATOM     93  C   UNL     1      -2.700  19.747  -3.387  1.00  0.00     0.002 A 
ATOM     94  C   UNL     1      -3.803  20.794  -1.495  1.00  0.00     0.091 A 
ATOM     95  F   UNL     1      -4.411  19.453   0.382  1.00  0.00    -0.205 F 
ATOM     96  C   UNL     1      -3.202  20.887  -2.760  1.00  0.00     0.022 A 
BRANCH  94  97
ATOM     97  S   UNL     1      -4.517  22.294  -0.812  1.00  0.00     0.127 S 
ATOM     98  O   UNL     1      -3.321  23.074  -0.497  1.00  0.00    -0.237 OA
ATOM     99  O   UNL     1      -5.299  22.803  -1.939  1.00  0.00    -0.237 OA
ATOM    100  O   UNL     1      -5.309  21.878   0.337  1.00  0.00    -0.744 OA
ENDBRANCH  94  97
ENDBRANCH  67  90
ENDBRANCH  41  42
ENDBRANCH  33  36
ENDBRANCH  31  32
ENDBRANCH  30  31
ENDBRANCH  29  30
ENDBRANCH   1  29
TORSDOF 20
