REMARK SMILES CN(C)S(=O)(=O)c1ccc(-n2c(CCC(=O)NCCCCCCNC(=O)c3ccc(-c4c5nc(c(-c6cccc(S(=O)(=O)[O-])c6F)c6ccc([nH]6)c(-c6cccc(S(=O)(=O)[O-])c6F)c6nc(c(-c7cccc(S(=O)(=O)[O-])c7F)c7ccc4[nH]7)C=C6)C=C5)cc3)ccc2-c2ccc(F)cc2)cc1
REMARK SMILES IDX 19 1 18 2 17 3 15 4 16 5 14 7 13 8 12 9 11 10 92 11 90 12
REMARK SMILES IDX 91 13 10 14 7 15 8 16 101 17 9 18 100 19 4 20 5 21 6 22 2 23
REMARK SMILES IDX 1 24 3 25 93 26 94 27 99 28 95 29 98 30 96 31 97 32 20 33
REMARK SMILES IDX 21 34 22 35 23 36 24 37 25 38 26 40 27 41 28 42 89 43 29 44
REMARK SMILES IDX 88 45 30 46 31 47 32 48 82 49 33 50 87 51 81 52 83 53 34 54
REMARK SMILES IDX 86 55 80 56 79 57 35 59 67 60 47 61 66 62 48 63 51 64 65 65
REMARK SMILES IDX 84 66 49 67 50 68 64 70 85 71 52 72 36 73 37 74 45 75 38 76
REMARK SMILES IDX 40 77 46 78 39 79 41 80 42 81 43 82 44 83 68 84 69 85 77 86
REMARK SMILES IDX 70 87 72 88 78 89 71 90 73 91 74 92 75 93 76 94 53 95 54 96
REMARK SMILES IDX 62 97 55 98 57 99 63 100 56 101 58 102 59 103 60 104 61 105
REMARK H PARENT 17 6 24 39 83 58 51 69
REMARK Flexibility Score: inf
ROOT
ATOM      1  C   UNL     1       0.187   5.560  -5.821  1.00  0.00     0.021 C 
ENDROOT
BRANCH   1   2
ATOM      2  C   UNL     1      -1.174   5.046  -6.301  1.00  0.00     0.116 C 
BRANCH   2   3
ATOM      3  N   UNL     1      -1.974   4.423  -5.255  1.00  0.00    -0.356 N 
ATOM      4  C   UNL     1      -2.997   4.931  -4.504  1.00  0.00     0.220 C 
ATOM      5  O   UNL     1      -3.568   4.163  -3.722  1.00  0.00    -0.275 OA
ATOM      6  H   UNL     1      -1.741   3.487  -5.058  1.00  0.00     0.163 HD
BRANCH   4   7
ATOM      7  C   UNL     1      -3.376   6.401  -4.564  1.00  0.00     0.106 C 
BRANCH   7   8
ATOM      8  C   UNL     1      -2.886   7.237  -3.364  1.00  0.00     0.064 C 
BRANCH   8   9
ATOM      9  C   UNL     1      -1.547   7.907  -3.581  1.00  0.00     0.024 A 
ATOM     10  N   UNL     1      -0.341   7.671  -2.885  1.00  0.00    -0.314 N 
ATOM     11  C   UNL     1       0.630   8.546  -3.414  1.00  0.00     0.053 A 
ATOM     12  C   UNL     1      -1.331   8.969  -4.446  1.00  0.00     0.024 A 
ATOM     13  C   UNL     1       0.010   9.372  -4.334  1.00  0.00     0.029 A 
BRANCH  10  14
ATOM     14  C   UNL     1      -0.054   6.600  -1.958  1.00  0.00     0.046 A 
ATOM     15  C   UNL     1       0.744   4.290  -0.534  1.00  0.00     0.082 A 
ATOM     16  C   UNL     1       1.359   5.524  -0.288  1.00  0.00     0.024 A 
ATOM     17  C   UNL     1      -0.259   4.216  -1.479  1.00  0.00     0.024 A 
ATOM     18  C   UNL     1       0.954   6.676  -0.990  1.00  0.00     0.028 A 
ATOM     19  C   UNL     1      -0.664   5.366  -2.146  1.00  0.00     0.028 A 
BRANCH  15  20
ATOM     20  S   UNL     1       1.339   2.847   0.307  1.00  0.00     0.242 S 
ATOM     21  O   UNL     1       0.854   2.909   1.679  1.00  0.00    -0.207 OA
ATOM     22  O   UNL     1       2.748   2.765   0.021  1.00  0.00    -0.207 OA
BRANCH  20  23
ATOM     23  N   UNL     1       0.594   1.459  -0.423  1.00  0.00    -0.204 NA
ATOM     24  C   UNL     1       1.367   0.221  -0.127  1.00  0.00     0.124 C 
ATOM     25  C   UNL     1      -0.845   1.237  -0.108  1.00  0.00     0.124 C 
ENDBRANCH  20  23
ENDBRANCH  15  20
ENDBRANCH  10  14
BRANCH  11  26
ATOM     26  C   UNL     1       2.077   8.432  -3.190  1.00  0.00    -0.001 A 
ATOM     27  C   UNL     1       2.820   9.446  -2.581  1.00  0.00     0.013 A 
ATOM     28  C   UNL     1       2.733   7.253  -3.576  1.00  0.00     0.013 A 
ATOM     29  C   UNL     1       4.176   9.238  -2.296  1.00  0.00     0.040 A 
ATOM     30  C   UNL     1       4.081   7.044  -3.304  1.00  0.00     0.040 A 
ATOM     31  C   UNL     1       4.790   8.037  -2.648  1.00  0.00     0.123 A 
ATOM     32  F   UNL     1       6.094   7.852  -2.406  1.00  0.00    -0.207 F 
ENDBRANCH  11  26
ENDBRANCH   8   9
ENDBRANCH   7   8
ENDBRANCH   4   7
ENDBRANCH   2   3
ENDBRANCH   1   2
BRANCH   1  33
ATOM     33  C   UNL     1       1.262   4.482  -5.624  1.00  0.00     0.002 C 
BRANCH  33  34
ATOM     34  C   UNL     1       2.575   4.542  -6.449  1.00  0.00     0.002 C 
BRANCH  34  35
ATOM     35  C   UNL     1       2.815   5.627  -7.520  1.00  0.00     0.021 C 
BRANCH  35  36
ATOM     36  C   UNL     1       3.648   6.862  -7.096  1.00  0.00     0.116 C 
BRANCH  36  37
ATOM     37  N   UNL     1       5.048   6.517  -6.865  1.00  0.00    -0.352 N 
ATOM     38  C   UNL     1       6.194   7.271  -6.733  1.00  0.00     0.251 C 
ATOM     39  H   UNL     1       5.205   5.549  -6.787  1.00  0.00     0.163 HD
ATOM     40  O   UNL     1       7.259   6.669  -6.907  1.00  0.00    -0.269 OA
BRANCH  38  41
ATOM     41  C   UNL     1       6.253   8.721  -6.380  1.00  0.00     0.039 A 
ATOM     42  C   UNL     1       7.416   9.437  -6.723  1.00  0.00     0.014 A 
ATOM     43  C   UNL     1       5.293   9.374  -5.613  1.00  0.00     0.014 A 
ATOM     44  C   UNL     1       7.587  10.779  -6.345  1.00  0.00     0.010 A 
ATOM     45  C   UNL     1       5.497  10.691  -5.162  1.00  0.00     0.010 A 
ATOM     46  C   UNL     1       6.616  11.425  -5.572  1.00  0.00    -0.014 A 
BRANCH  46  47
ATOM     47  C   UNL     1       6.624  12.921  -5.476  1.00  0.00     0.031 A 
ATOM     48  C   UNL     1       5.816  13.553  -6.640  1.00  0.00     0.074 A 
ATOM     49  C   UNL     1       7.348  13.545  -4.491  1.00  0.00     0.049 A 
ATOM     50  N   UNL     1       6.056  14.625  -7.342  1.00  0.00    -0.248 NA
ATOM     51  C   UNL     1       4.653  12.810  -7.201  1.00  0.00     0.031 C 
ATOM     52  C   UNL     1       8.049  12.849  -3.392  1.00  0.00     0.029 A 
ATOM     53  N   UNL     1       7.644  14.872  -4.197  1.00  0.00    -0.354 N 
ATOM     54  C   UNL     1       4.981  14.771  -8.257  1.00  0.00     0.074 A 
ATOM     55  C   UNL     1       4.255  13.545  -8.238  1.00  0.00     0.031 C 
ATOM     56  C   UNL     1       8.729  13.725  -2.616  1.00  0.00     0.029 A 
ATOM     57  C   UNL     1       8.532  15.081  -3.106  1.00  0.00     0.049 A 
ATOM     58  H   UNL     1       7.262  15.620  -4.712  1.00  0.00     0.167 HD
ATOM     59  C   UNL     1       4.642  15.952  -8.853  1.00  0.00     0.034 A 
ATOM     60  C   UNL     1       9.100  16.244  -2.640  1.00  0.00     0.034 A 
ATOM     61  C   UNL     1       5.492  16.984  -8.369  1.00  0.00     0.049 A 
ATOM     62  C   UNL     1       8.488  17.340  -3.402  1.00  0.00     0.074 A 
ATOM     63  C   UNL     1       6.790  17.337  -8.609  1.00  0.00     0.029 A 
ATOM     64  N   UNL     1       5.032  17.631  -7.248  1.00  0.00    -0.354 N 
ATOM     65  N   UNL     1       7.290  17.802  -3.202  1.00  0.00    -0.248 NA
ATOM     66  C   UNL     1       9.249  17.950  -4.501  1.00  0.00     0.031 C 
ATOM     67  C   UNL     1       7.209  17.919  -7.396  1.00  0.00     0.029 A 
ATOM     68  C   UNL     1       6.123  18.004  -6.514  1.00  0.00     0.049 A 
ATOM     69  H   UNL     1       4.090  17.797  -7.016  1.00  0.00     0.167 HD
ATOM     70  C   UNL     1       7.053  18.475  -4.375  1.00  0.00     0.074 A 
ATOM     71  C   UNL     1       8.344  18.833  -4.913  1.00  0.00     0.031 C 
ATOM     72  C   UNL     1       5.942  18.170  -5.092  1.00  0.00     0.034 A 
BRANCH  59  73
ATOM     73  C   UNL     1       3.446  16.417  -9.658  1.00  0.00     0.023 A 
ATOM     74  C   UNL     1       3.636  17.636 -10.373  1.00  0.00     0.012 A 
ATOM     75  C   UNL     1       2.128  15.944  -9.546  1.00  0.00     0.148 A 
ATOM     76  C   UNL     1       2.575  18.409 -10.840  1.00  0.00     0.002 A 
ATOM     77  C   UNL     1       1.069  16.695 -10.070  1.00  0.00     0.091 A 
ATOM     78  F   UNL     1       1.880  14.826  -8.857  1.00  0.00    -0.205 F 
ATOM     79  C   UNL     1       1.286  17.941 -10.677  1.00  0.00     0.022 A 
BRANCH  77  80
ATOM     80  S   UNL     1      -0.638  16.132 -10.010  1.00  0.00     0.127 S 
ATOM     81  O   UNL     1      -1.182  16.921  -8.909  1.00  0.00    -0.237 OA
ATOM     82  O   UNL     1      -1.133  16.518 -11.335  1.00  0.00    -0.237 OA
ATOM     83  O   UNL     1      -0.566  14.691  -9.808  1.00  0.00    -0.744 OA
ENDBRANCH  77  80
ENDBRANCH  59  73
BRANCH  60  84
ATOM     84  C   UNL     1      10.188  16.659  -1.655  1.00  0.00     0.023 A 
ATOM     85  C   UNL     1      10.688  15.834  -0.640  1.00  0.00     0.012 A 
ATOM     86  C   UNL     1      10.812  17.948  -1.754  1.00  0.00     0.148 A 
ATOM     87  C   UNL     1      11.796  16.223   0.147  1.00  0.00     0.002 A 
ATOM     88  C   UNL     1      11.975  18.282  -1.066  1.00  0.00     0.091 A 
ATOM     89  F   UNL     1      10.250  18.910  -2.491  1.00  0.00    -0.205 F 
ATOM     90  C   UNL     1      12.469  17.420  -0.096  1.00  0.00     0.022 A 
BRANCH  88  91
ATOM     91  S   UNL     1      12.950  19.745  -1.489  1.00  0.00     0.127 S 
ATOM     92  O   UNL     1      13.107  20.404  -0.194  1.00  0.00    -0.237 OA
ATOM     93  O   UNL     1      14.170  19.137  -2.020  1.00  0.00    -0.237 OA
ATOM     94  O   UNL     1      12.173  20.492  -2.470  1.00  0.00    -0.744 OA
ENDBRANCH  88  91
ENDBRANCH  60  84
BRANCH  72  95
ATOM     95  C   UNL     1       4.773  17.675  -4.247  1.00  0.00     0.023 A 
ATOM     96  C   UNL     1       4.230  18.578  -3.312  1.00  0.00     0.012 A 
ATOM     97  C   UNL     1       4.283  16.347  -4.231  1.00  0.00     0.148 A 
ATOM     98  C   UNL     1       3.254  18.181  -2.394  1.00  0.00     0.002 A 
ATOM     99  C   UNL     1       3.312  15.945  -3.308  1.00  0.00     0.091 A 
ATOM    100  F   UNL     1       4.776  15.477  -5.110  1.00  0.00    -0.205 F 
ATOM    101  C   UNL     1       2.797  16.868  -2.389  1.00  0.00     0.022 A 
BRANCH  99 102
ATOM    102  S   UNL     1       2.696  14.252  -3.169  1.00  0.00     0.127 S 
ATOM    103  O   UNL     1       2.871  13.961  -1.744  1.00  0.00    -0.237 OA
ATOM    104  O   UNL     1       1.301  14.396  -3.579  1.00  0.00    -0.237 OA
ATOM    105  O   UNL     1       3.518  13.427  -4.046  1.00  0.00    -0.744 OA
ENDBRANCH  99 102
ENDBRANCH  72  95
ENDBRANCH  46  47
ENDBRANCH  38  41
ENDBRANCH  36  37
ENDBRANCH  35  36
ENDBRANCH  34  35
ENDBRANCH  33  34
ENDBRANCH   1  33
TORSDOF 22
