REMARK SMILES N#CCNC(=O)Cn1ccc(C(=O)NCCCCCCNC(=O)c2ccc(-c3c4nc(c(-c5cccc(S(=O)(=O)[O-])c5F)c5ccc([nH]5)c(-c5cccc(S(=O)(=O)[O-])c5F)c5nc(c(-c6cccc(S(=O)(=O)[O-])c6F)c6ccc3[nH]6)C=C5)C=C4)cc2)c1
REMARK SMILES IDX 17 1 16 2 15 3 14 4 12 5 13 6 11 8 8 9 9 10 87 11 10 12 7 13
REMARK SMILES IDX 5 14 4 15 6 17 3 18 2 19 1 20 18 21 19 22 20 23 21 24 22 25
REMARK SMILES IDX 23 27 24 28 25 29 86 30 26 31 85 32 27 33 28 34 29 35 79 36
REMARK SMILES IDX 30 37 84 38 78 39 80 40 31 41 83 42 77 43 76 44 32 46 64 47
REMARK SMILES IDX 44 48 63 49 45 50 48 51 62 52 81 53 46 54 47 55 61 57 82 58
REMARK SMILES IDX 49 59 33 60 34 61 42 62 35 63 37 64 43 65 36 66 38 67 39 68
REMARK SMILES IDX 40 69 41 70 65 71 66 72 74 73 67 74 69 75 75 76 68 77 70 78
REMARK SMILES IDX 71 79 72 80 73 81 50 82 51 83 59 84 52 85 54 86 60 87 53 88
REMARK SMILES IDX 55 89 56 90 57 91 58 92
REMARK H PARENT 14 7 4 16 21 26 80 45 48 56
REMARK Flexibility Score: inf
ROOT
ATOM      1  C   UNL     1       0.590   1.857  -4.050  1.00  0.00     0.002 C 
ENDROOT
BRANCH   1   2
ATOM      2  C   UNL     1       1.845   0.975  -4.035  1.00  0.00     0.021 C 
BRANCH   2   3
ATOM      3  C   UNL     1       1.763  -0.248  -3.128  1.00  0.00     0.116 C 
BRANCH   3   4
ATOM      4  N   UNL     1       1.289  -1.481  -3.716  1.00  0.00    -0.352 N 
ATOM      5  C   UNL     1       1.399  -2.765  -3.206  1.00  0.00     0.252 C 
ATOM      6  O   UNL     1       0.548  -3.586  -3.545  1.00  0.00    -0.269 OA
ATOM      7  H   UNL     1       0.832  -1.399  -4.584  1.00  0.00     0.163 HD
BRANCH   5   8
ATOM      8  C   UNL     1       2.464  -3.136  -2.261  1.00  0.00     0.057 A 
ATOM      9  N   UNL     1       4.294  -3.134  -0.967  1.00  0.00    -0.344 N 
ATOM     10  C   UNL     1       3.601  -4.261  -0.624  1.00  0.00     0.087 A 
ATOM     11  C   UNL     1       3.721  -2.582  -2.086  1.00  0.00     0.100 A 
ATOM     12  C   UNL     1       2.450  -4.274  -1.385  1.00  0.00     0.033 A 
BRANCH   9  13
ATOM     13  C   UNL     1       5.440  -2.591  -0.255  1.00  0.00     0.221 C 
BRANCH  13  14
ATOM     14  C   UNL     1       5.032  -1.937   1.055  1.00  0.00     0.240 C 
ATOM     15  N   UNL     1       4.376  -0.741   1.074  1.00  0.00    -0.341 N 
ATOM     16  H   UNL     1       4.232  -0.360   1.970  1.00  0.00     0.164 HD
ATOM     17  O   UNL     1       5.306  -2.455   2.141  1.00  0.00    -0.273 OA
BRANCH  15  18
ATOM     18  C   UNL     1       3.856   0.061  -0.026  1.00  0.00     0.236 C 
BRANCH  18  19
ATOM     19  C   UNL     1       2.336   0.061  -0.026  1.00  0.00     0.084 C 
ATOM     20  N   UNL     1       1.075   0.061  -0.026  1.00  0.00    -0.196 NA
ENDBRANCH  18  19
ENDBRANCH  15  18
ENDBRANCH  13  14
ENDBRANCH   9  13
ENDBRANCH   5   8
ENDBRANCH   3   4
ENDBRANCH   2   3
ENDBRANCH   1   2
BRANCH   1  21
ATOM     21  C   UNL     1       0.094   2.409  -2.701  1.00  0.00     0.002 C 
BRANCH  21  22
ATOM     22  C   UNL     1       1.096   3.200  -1.846  1.00  0.00     0.021 C 
BRANCH  22  23
ATOM     23  C   UNL     1       1.661   4.458  -2.506  1.00  0.00     0.116 C 
BRANCH  23  24
ATOM     24  N   UNL     1       0.609   5.406  -2.838  1.00  0.00    -0.352 N 
ATOM     25  C   UNL     1       0.674   6.601  -3.510  1.00  0.00     0.251 C 
ATOM     26  H   UNL     1      -0.292   5.151  -2.533  1.00  0.00     0.163 HD
ATOM     27  O   UNL     1      -0.261   7.393  -3.399  1.00  0.00    -0.269 OA
BRANCH  25  28
ATOM     28  C   UNL     1       1.841   6.966  -4.344  1.00  0.00     0.039 A 
ATOM     29  C   UNL     1       2.246   8.310  -4.359  1.00  0.00     0.014 A 
ATOM     30  C   UNL     1       2.486   6.035  -5.162  1.00  0.00     0.014 A 
ATOM     31  C   UNL     1       3.338   8.700  -5.130  1.00  0.00     0.010 A 
ATOM     32  C   UNL     1       3.593   6.415  -5.912  1.00  0.00     0.010 A 
ATOM     33  C   UNL     1       4.032   7.742  -5.881  1.00  0.00    -0.014 A 
BRANCH  33  34
ATOM     34  C   UNL     1       5.339   8.093  -6.482  1.00  0.00     0.031 A 
ATOM     35  C   UNL     1       6.451   8.118  -5.406  1.00  0.00     0.074 A 
ATOM     36  C   UNL     1       5.363   8.334  -7.832  1.00  0.00     0.049 A 
ATOM     37  N   UNL     1       7.501   8.877  -5.314  1.00  0.00    -0.248 NA
ATOM     38  C   UNL     1       6.314   7.272  -4.186  1.00  0.00     0.031 C 
ATOM     39  C   UNL     1       4.181   8.244  -8.721  1.00  0.00     0.029 A 
ATOM     40  N   UNL     1       6.347   8.685  -8.741  1.00  0.00    -0.354 N 
ATOM     41  C   UNL     1       8.254   8.426  -4.197  1.00  0.00     0.074 A 
ATOM     42  C   UNL     1       7.390   7.570  -3.450  1.00  0.00     0.031 C 
ATOM     43  C   UNL     1       4.492   8.599  -9.988  1.00  0.00     0.029 A 
ATOM     44  C   UNL     1       5.905   8.920 -10.073  1.00  0.00     0.049 A 
ATOM     45  H   UNL     1       7.293   8.768  -8.481  1.00  0.00     0.167 HD
ATOM     46  C   UNL     1       9.604   8.630  -4.081  1.00  0.00     0.034 A 
ATOM     47  C   UNL     1       6.614   9.364 -11.163  1.00  0.00     0.034 A 
ATOM     48  C   UNL     1      10.066   9.248  -5.279  1.00  0.00     0.049 A 
ATOM     49  C   UNL     1       8.027   9.323 -10.764  1.00  0.00     0.074 A 
ATOM     50  C   UNL     1       9.897  10.500  -5.807  1.00  0.00     0.029 A 
ATOM     51  N   UNL     1      10.453   8.366  -6.263  1.00  0.00    -0.354 N 
ATOM     52  N   UNL     1       8.714   8.231 -10.604  1.00  0.00    -0.248 NA
ATOM     53  C   UNL     1       8.703  10.580 -10.420  1.00  0.00     0.031 C 
ATOM     54  C   UNL     1       9.713  10.229  -7.175  1.00  0.00     0.029 A 
ATOM     55  C   UNL     1      10.052   8.897  -7.454  1.00  0.00     0.049 A 
ATOM     56  H   UNL     1      10.928   7.514  -6.132  1.00  0.00     0.167 HD
ATOM     57  C   UNL     1       9.722   8.661  -9.778  1.00  0.00     0.074 A 
ATOM     58  C   UNL     1       9.864  10.084 -10.002  1.00  0.00     0.031 C 
ATOM     59  C   UNL     1       9.901   8.022  -8.590  1.00  0.00     0.034 A 
BRANCH  46  60
ATOM     60  C   UNL     1      10.704   8.102  -3.185  1.00  0.00     0.023 A 
ATOM     61  C   UNL     1      11.937   8.821  -3.260  1.00  0.00     0.012 A 
ATOM     62  C   UNL     1      10.736   6.842  -2.568  1.00  0.00     0.148 A 
ATOM     63  C   UNL     1      13.157   8.265  -2.885  1.00  0.00     0.002 A 
ATOM     64  C   UNL     1      11.959   6.310  -2.140  1.00  0.00     0.091 A 
ATOM     65  F   UNL     1       9.611   6.128  -2.471  1.00  0.00    -0.205 F 
ATOM     66  C   UNL     1      13.169   6.997  -2.338  1.00  0.00     0.022 A 
BRANCH  64  67
ATOM     67  S   UNL     1      12.099   4.712  -1.329  1.00  0.00     0.127 S 
ATOM     68  O   UNL     1      12.716   3.895  -2.370  1.00  0.00    -0.237 OA
ATOM     69  O   UNL     1      12.980   5.025  -0.201  1.00  0.00    -0.237 OA
ATOM     70  O   UNL     1      10.744   4.347  -0.938  1.00  0.00    -0.744 OA
ENDBRANCH  64  67
ENDBRANCH  46  60
BRANCH  47  71
ATOM     71  C   UNL     1       6.324   9.925 -12.544  1.00  0.00     0.023 A 
ATOM     72  C   UNL     1       5.076   9.876 -13.177  1.00  0.00     0.012 A 
ATOM     73  C   UNL     1       7.336  10.662 -13.243  1.00  0.00     0.148 A 
ATOM     74  C   UNL     1       4.825  10.598 -14.364  1.00  0.00     0.002 A 
ATOM     75  C   UNL     1       7.054  11.481 -14.330  1.00  0.00     0.091 A 
ATOM     76  F   UNL     1       8.616  10.549 -12.876  1.00  0.00    -0.205 F 
ATOM     77  C   UNL     1       5.793  11.441 -14.911  1.00  0.00     0.022 A 
BRANCH  75  78
ATOM     78  S   UNL     1       8.232  12.719 -14.916  1.00  0.00     0.127 S 
ATOM     79  O   UNL     1       8.234  12.492 -16.360  1.00  0.00    -0.237 OA
ATOM     80  O   UNL     1       7.583  13.959 -14.490  1.00  0.00    -0.237 OA
ATOM     81  O   UNL     1       9.496  12.435 -14.248  1.00  0.00    -0.744 OA
ENDBRANCH  75  78
ENDBRANCH  47  71
BRANCH  59  82
ATOM     82  C   UNL     1       9.582   6.526  -8.594  1.00  0.00     0.023 A 
ATOM     83  C   UNL     1      10.230   5.746  -9.578  1.00  0.00     0.012 A 
ATOM     84  C   UNL     1       8.643   5.860  -7.769  1.00  0.00     0.148 A 
ATOM     85  C   UNL     1       9.950   4.387  -9.755  1.00  0.00     0.002 A 
ATOM     86  C   UNL     1       8.354   4.498  -7.950  1.00  0.00     0.091 A 
ATOM     87  F   UNL     1       8.029   6.552  -6.811  1.00  0.00    -0.205 F 
ATOM     88  C   UNL     1       9.013   3.764  -8.944  1.00  0.00     0.022 A 
BRANCH  86  89
ATOM     89  S   UNL     1       7.109   3.589  -7.005  1.00  0.00     0.127 S 
ATOM     90  O   UNL     1       6.262   3.020  -8.056  1.00  0.00    -0.237 OA
ATOM     91  O   UNL     1       7.913   2.600  -6.291  1.00  0.00    -0.237 OA
ATOM     92  O   UNL     1       6.427   4.562  -6.160  1.00  0.00    -0.744 OA
ENDBRANCH  86  89
ENDBRANCH  59  82
ENDBRANCH  33  34
ENDBRANCH  25  28
ENDBRANCH  23  24
ENDBRANCH  22  23
ENDBRANCH  21  22
ENDBRANCH   1  21
TORSDOF 20
