REMARK SMILES O=C(NCCCCCCNC(=O)c1cc(-c2cccc(F)c2)nc2c(F)cccc12)c1ccc(-c2c3nc(c(-c4cccc(S(=O)(=O)[O-])c4F)c4ccc([nH]4)c(-c4cccc(S(=O)(=O)[O-])c4F)c4nc(c(-c5cccc(S(=O)(=O)[O-])c5F)c5ccc2[nH]5)C=C4)C=C3)cc1
REMARK SMILES IDX 5 1 4 2 3 3 1 4 2 5 31 7 32 8 93 9 33 10 92 11 34 12 35 13
REMARK SMILES IDX 36 14 86 15 37 16 91 17 85 18 87 19 38 20 90 21 84 22 83 23
REMARK SMILES IDX 39 25 71 26 51 27 70 28 52 29 55 30 69 31 88 32 53 33 54 34
REMARK SMILES IDX 68 36 89 37 56 38 40 39 41 40 49 41 42 42 44 43 50 44 43 45
REMARK SMILES IDX 45 46 46 47 47 48 48 49 72 50 73 51 81 52 74 53 76 54 82 55
REMARK SMILES IDX 75 56 77 57 78 58 79 59 80 60 57 61 58 62 66 63 59 64 61 65
REMARK SMILES IDX 67 66 60 67 62 68 63 69 64 70 65 71 6 72 7 73 8 74 9 75
REMARK SMILES IDX 10 76 11 77 12 79 13 80 14 81 30 82 15 83 24 84 29 85 23 86
REMARK SMILES IDX 25 87 28 88 26 89 27 90 16 91 17 92 22 93 18 94 20 95 19 96
REMARK SMILES IDX 21 97
REMARK H PARENT 3 6 87 24 55 35 10 78
REMARK Flexibility Score: inf
ROOT
ATOM      1  C   UNL     1       4.603  -2.642   0.213  1.00  0.00     0.021 C 
ENDROOT
BRANCH   1   2
ATOM      2  C   UNL     1       4.362  -1.247  -0.352  1.00  0.00     0.116 C 
BRANCH   2   3
ATOM      3  N   UNL     1       2.954  -0.933  -0.522  1.00  0.00    -0.352 N 
ATOM      4  O   UNL     1       1.031   0.206  -0.250  1.00  0.00    -0.269 OA
ATOM      5  C   UNL     1       2.252   0.176  -0.112  1.00  0.00     0.251 C 
ATOM      6  H   UNL     1       2.426  -1.613  -1.001  1.00  0.00     0.163 HD
BRANCH   5   7
ATOM      7  C   UNL     1       2.959   1.309   0.530  1.00  0.00     0.039 A 
ATOM      8  C   UNL     1       4.157   1.801   0.008  1.00  0.00     0.014 A 
ATOM      9  C   UNL     1       2.414   1.881   1.684  1.00  0.00     0.014 A 
ATOM     10  C   UNL     1       4.885   2.750   0.722  1.00  0.00     0.010 A 
ATOM     11  C   UNL     1       3.110   2.892   2.357  1.00  0.00     0.010 A 
ATOM     12  C   UNL     1       4.374   3.303   1.907  1.00  0.00    -0.014 A 
BRANCH  12  13
ATOM     13  C   UNL     1       5.165   4.329   2.639  1.00  0.00     0.031 A 
ATOM     14  C   UNL     1       5.697   4.063   4.022  1.00  0.00     0.074 A 
ATOM     15  C   UNL     1       5.425   5.506   2.035  1.00  0.00     0.049 A 
ATOM     16  N   UNL     1       6.449   4.828   4.772  1.00  0.00    -0.248 NA
ATOM     17  C   UNL     1       5.341   2.780   4.651  1.00  0.00     0.031 C 
ATOM     18  C   UNL     1       4.930   5.898   0.714  1.00  0.00     0.029 A 
ATOM     19  N   UNL     1       6.170   6.583   2.444  1.00  0.00    -0.354 N 
ATOM     20  C   UNL     1       6.626   4.142   5.967  1.00  0.00     0.074 A 
ATOM     21  C   UNL     1       5.896   2.898   5.851  1.00  0.00     0.031 C 
ATOM     22  C   UNL     1       5.410   7.112   0.407  1.00  0.00     0.029 A 
ATOM     23  C   UNL     1       6.210   7.605   1.524  1.00  0.00     0.049 A 
ATOM     24  H   UNL     1       6.631   6.622   3.313  1.00  0.00     0.167 HD
ATOM     25  C   UNL     1       7.353   4.503   7.051  1.00  0.00     0.034 A 
ATOM     26  C   UNL     1       6.818   8.807   1.569  1.00  0.00     0.034 A 
ATOM     27  C   UNL     1       8.125   5.713   7.143  1.00  0.00     0.049 A 
ATOM     28  C   UNL     1       7.633   9.170   2.778  1.00  0.00     0.074 A 
ATOM     29  C   UNL     1       8.959   6.120   8.171  1.00  0.00     0.029 A 
ATOM     30  N   UNL     1       8.158   6.710   6.182  1.00  0.00    -0.354 N 
ATOM     31  N   UNL     1       7.901   8.445   3.837  1.00  0.00    -0.248 NA
ATOM     32  C   UNL     1       8.245  10.507   2.794  1.00  0.00     0.031 C 
ATOM     33  C   UNL     1       9.486   7.370   7.837  1.00  0.00     0.029 A 
ATOM     34  C   UNL     1       8.987   7.738   6.598  1.00  0.00     0.049 A 
ATOM     35  H   UNL     1       7.666   6.690   5.330  1.00  0.00     0.167 HD
ATOM     36  C   UNL     1       8.719   9.231   4.639  1.00  0.00     0.074 A 
ATOM     37  C   UNL     1       8.931  10.476   3.930  1.00  0.00     0.031 C 
ATOM     38  C   UNL     1       9.226   8.954   5.865  1.00  0.00     0.034 A 
BRANCH  25  39
ATOM     39  C   UNL     1       7.415   3.554   8.219  1.00  0.00     0.023 A 
ATOM     40  C   UNL     1       8.254   2.424   8.140  1.00  0.00     0.012 A 
ATOM     41  C   UNL     1       6.751   3.842   9.427  1.00  0.00     0.148 A 
ATOM     42  C   UNL     1       8.424   1.589   9.243  1.00  0.00     0.002 A 
ATOM     43  C   UNL     1       6.951   3.024  10.533  1.00  0.00     0.091 A 
ATOM     44  F   UNL     1       5.948   4.915   9.474  1.00  0.00    -0.205 F 
ATOM     45  C   UNL     1       7.783   1.895  10.441  1.00  0.00     0.022 A 
BRANCH  43  46
ATOM     46  S   UNL     1       6.230   3.367  12.143  1.00  0.00     0.127 S 
ATOM     47  O   UNL     1       5.279   2.265  12.279  1.00  0.00    -0.237 OA
ATOM     48  O   UNL     1       7.394   3.279  13.026  1.00  0.00    -0.237 OA
ATOM     49  O   UNL     1       5.636   4.692  12.045  1.00  0.00    -0.744 OA
ENDBRANCH  43  46
ENDBRANCH  25  39
BRANCH  26  50
ATOM     50  C   UNL     1       6.718   9.723   0.399  1.00  0.00     0.023 A 
ATOM     51  C   UNL     1       7.855   9.949  -0.400  1.00  0.00     0.012 A 
ATOM     52  C   UNL     1       5.492  10.312   0.032  1.00  0.00     0.148 A 
ATOM     53  C   UNL     1       7.774  10.752  -1.538  1.00  0.00     0.002 A 
ATOM     54  C   UNL     1       5.406  11.062  -1.135  1.00  0.00     0.091 A 
ATOM     55  F   UNL     1       4.426  10.107   0.819  1.00  0.00    -0.205 F 
ATOM     56  C   UNL     1       6.548  11.295  -1.915  1.00  0.00     0.022 A 
BRANCH  54  57
ATOM     57  S   UNL     1       3.833  11.660  -1.765  1.00  0.00     0.127 S 
ATOM     58  O   UNL     1       3.875  13.069  -1.387  1.00  0.00    -0.237 OA
ATOM     59  O   UNL     1       3.957  11.402  -3.200  1.00  0.00    -0.237 OA
ATOM     60  O   UNL     1       2.821  10.849  -1.101  1.00  0.00    -0.744 OA
ENDBRANCH  54  57
ENDBRANCH  26  50
BRANCH  38  61
ATOM     61  C   UNL     1      10.054  10.013   6.541  1.00  0.00     0.023 A 
ATOM     62  C   UNL     1       9.407  11.119   7.124  1.00  0.00     0.012 A 
ATOM     63  C   UNL     1      11.444   9.855   6.706  1.00  0.00     0.148 A 
ATOM     64  C   UNL     1      10.132  12.061   7.852  1.00  0.00     0.002 A 
ATOM     65  C   UNL     1      12.155  10.775   7.467  1.00  0.00     0.091 A 
ATOM     66  F   UNL     1      12.041   8.801   6.129  1.00  0.00    -0.205 F 
ATOM     67  C   UNL     1      11.502  11.882   8.035  1.00  0.00     0.022 A 
BRANCH  65  68
ATOM     68  S   UNL     1      13.902  10.581   7.837  1.00  0.00     0.127 S 
ATOM     69  O   UNL     1      14.496  11.651   7.038  1.00  0.00    -0.237 OA
ATOM     70  O   UNL     1      13.941  10.804   9.282  1.00  0.00    -0.237 OA
ATOM     71  O   UNL     1      14.252   9.228   7.424  1.00  0.00    -0.744 OA
ENDBRANCH  65  68
ENDBRANCH  38  61
ENDBRANCH  12  13
ENDBRANCH   5   7
ENDBRANCH   2   3
ENDBRANCH   1   2
BRANCH   1  72
ATOM     72  C   UNL     1       4.116  -3.805  -0.651  1.00  0.00     0.002 C 
BRANCH  72  73
ATOM     73  C   UNL     1       4.600  -3.818  -2.104  1.00  0.00     0.002 C 
BRANCH  73  74
ATOM     74  C   UNL     1       6.112  -3.710  -2.321  1.00  0.00     0.021 C 
BRANCH  74  75
ATOM     75  C   UNL     1       6.968  -4.706  -1.545  1.00  0.00     0.116 C 
BRANCH  75  76
ATOM     76  N   UNL     1       6.664  -6.090  -1.865  1.00  0.00    -0.352 N 
ATOM     77  C   UNL     1       7.532  -7.138  -2.042  1.00  0.00     0.252 C 
ATOM     78  H   UNL     1       5.709  -6.305  -1.969  1.00  0.00     0.163 HD
ATOM     79  O   UNL     1       7.120  -8.257  -2.330  1.00  0.00    -0.269 OA
BRANCH  77  80
ATOM     80  C   UNL     1       8.985  -6.904  -1.947  1.00  0.00     0.051 A 
ATOM     81  C   UNL     1       9.703  -7.074  -3.130  1.00  0.00     0.043 A 
ATOM     82  C   UNL     1       9.620  -6.516  -0.748  1.00  0.00     0.016 A 
ATOM     83  C   UNL     1      11.059  -6.818  -3.108  1.00  0.00     0.072 A 
ATOM     84  C   UNL     1      10.995  -6.232  -0.838  1.00  0.00     0.107 A 
ATOM     85  C   UNL     1       8.962  -6.390   0.504  1.00  0.00     0.011 A 
ATOM     86  N   UNL     1      11.689  -6.398  -1.987  1.00  0.00    -0.245 NA
ATOM     87  C   UNL     1      11.633  -5.759   0.311  1.00  0.00     0.149 A 
ATOM     88  C   UNL     1       9.631  -5.917   1.630  1.00  0.00     0.004 A 
ATOM     89  F   UNL     1      12.939  -5.443   0.263  1.00  0.00    -0.205 F 
ATOM     90  C   UNL     1      10.973  -5.585   1.527  1.00  0.00     0.041 A 
BRANCH  83  91
ATOM     91  C   UNL     1      11.909  -6.990  -4.292  1.00  0.00     0.003 A 
ATOM     92  C   UNL     1      13.073  -7.779  -4.225  1.00  0.00     0.010 A 
ATOM     93  C   UNL     1      11.595  -6.381  -5.517  1.00  0.00     0.049 A 
ATOM     94  C   UNL     1      13.886  -7.971  -5.347  1.00  0.00     0.004 A 
ATOM     95  C   UNL     1      12.415  -6.569  -6.625  1.00  0.00     0.123 A 
ATOM     96  C   UNL     1      13.553  -7.362  -6.553  1.00  0.00     0.039 A 
ATOM     97  F   UNL     1      12.101  -5.974  -7.784  1.00  0.00    -0.207 F 
ENDBRANCH  83  91
ENDBRANCH  77  80
ENDBRANCH  75  76
ENDBRANCH  74  75
ENDBRANCH  73  74
ENDBRANCH  72  73
ENDBRANCH   1  72
TORSDOF 17
