REMARK SMILES CC[C@H](C(=O)NCCCCCCNC(=O)c1ccc(-c2c3nc(c(-c4cccc(S(=O)(=O)[O-])c4F)c4ccc([nH]4)c(-c4cccc(S(=O)(=O)[O-])c4F)c4nc(c(-c5cccc(S(=O)(=O)[O-])c5F)c5ccc2[nH]5)C=C4)C=C3)cc1)N1C(=O)/C(=C\c2cccs2)SC1=S
REMARK SMILES IDX 10 1 9 2 8 3 7 4 6 5 4 6 5 7 3 9 2 10 1 11 79 12 80 13 90 14
REMARK SMILES IDX 81 15 82 16 89 17 91 18 83 19 84 20 85 21 88 22 86 23 87 24
REMARK SMILES IDX 11 25 12 26 13 27 14 28 15 30 16 31 17 32 78 33 18 34 77 35
REMARK SMILES IDX 19 36 20 37 21 38 71 39 22 40 76 41 70 42 72 43 23 44 75 45
REMARK SMILES IDX 69 46 68 47 24 49 56 50 36 51 55 52 37 53 40 54 54 55 73 56
REMARK SMILES IDX 38 57 39 58 53 60 74 61 41 62 25 63 26 64 34 65 27 66 29 67
REMARK SMILES IDX 35 68 28 69 30 70 31 71 32 72 33 73 57 74 58 75 66 76 59 77
REMARK SMILES IDX 61 78 67 79 60 80 62 81 63 82 64 83 65 84 42 85 43 86 51 87
REMARK SMILES IDX 44 88 46 89 52 90 45 91 47 92 48 93 49 94 50 95
REMARK H PARENT 6 8 13 29 72 48 40 59
REMARK Flexibility Score: inf
ROOT
ATOM      1  C   UNL     1      -4.175  -0.774  -0.915  1.00  0.00     0.002 C 
ENDROOT
BRANCH   1   2
ATOM      2  C   UNL     1      -2.746  -1.271  -1.172  1.00  0.00     0.002 C 
BRANCH   2   3
ATOM      3  C   UNL     1      -1.806  -0.210  -1.749  1.00  0.00     0.021 C 
BRANCH   3   4
ATOM      4  C   UNL     1      -1.567   0.935  -0.775  1.00  0.00     0.116 C 
BRANCH   4   5
ATOM      5  N   UNL     1      -0.469   0.646   0.133  1.00  0.00    -0.354 N 
ATOM      6  C   UNL     1       0.651   1.376   0.407  1.00  0.00     0.243 C 
ATOM      7  O   UNL     1       1.274   1.095   1.439  1.00  0.00    -0.273 OA
ATOM      8  H   UNL     1      -0.544  -0.203   0.624  1.00  0.00     0.163 HD
BRANCH   6   9
ATOM      9  C   UNL     1       1.101   2.582  -0.462  1.00  0.00     0.181 C 
BRANCH   9  10
ATOM     10  C   UNL     1       1.004   2.436  -1.996  1.00  0.00     0.032 C 
ATOM     11  C   UNL     1       1.570   1.116  -2.517  1.00  0.00     0.006 C 
ENDBRANCH   9  10
BRANCH   9  12
ATOM     12  N   UNL     1       0.657   3.897   0.085  1.00  0.00    -0.280 N 
ATOM     13  C   UNL     1      -0.558   4.024   0.743  1.00  0.00     0.266 C 
ATOM     14  C   UNL     1       1.366   5.075  -0.067  1.00  0.00     0.149 C 
ATOM     15  O   UNL     1      -1.424   3.176   0.847  1.00  0.00    -0.268 OA
ATOM     16  C   UNL     1      -0.715   5.387   1.323  1.00  0.00     0.081 C 
ATOM     17  S   UNL     1       0.483   6.421   0.653  1.00  0.00    -0.054 SA
ATOM     18  S   UNL     1       2.852   5.321  -0.789  1.00  0.00    -0.052 S 
ATOM     19  C   UNL     1      -1.602   5.789   2.246  1.00  0.00     0.040 C 
BRANCH  19  20
ATOM     20  C   UNL     1      -2.486   4.907   2.930  1.00  0.00     0.028 A 
ATOM     21  C   UNL     1      -2.191   3.827   3.748  1.00  0.00     0.020 A 
ATOM     22  S   UNL     1      -4.185   5.153   2.847  1.00  0.00    -0.144 S 
ATOM     23  C   UNL     1      -3.353   3.177   4.255  1.00  0.00     0.012 A 
ATOM     24  C   UNL     1      -4.508   3.787   3.825  1.00  0.00     0.065 A 
ENDBRANCH  19  20
ENDBRANCH   9  12
ENDBRANCH   6   9
ENDBRANCH   4   5
ENDBRANCH   3   4
ENDBRANCH   2   3
ENDBRANCH   1   2
BRANCH   1  25
ATOM     25  C   UNL     1      -4.878  -0.173  -2.136  1.00  0.00     0.021 C 
BRANCH  25  26
ATOM     26  C   UNL     1      -4.948  -1.107  -3.339  1.00  0.00     0.116 C 
BRANCH  26  27
ATOM     27  N   UNL     1      -5.627  -2.350  -3.005  1.00  0.00    -0.352 N 
ATOM     28  C   UNL     1      -6.745  -2.908  -3.564  1.00  0.00     0.251 C 
ATOM     29  H   UNL     1      -5.223  -2.864  -2.269  1.00  0.00     0.163 HD
ATOM     30  O   UNL     1      -7.333  -3.813  -2.978  1.00  0.00    -0.269 OA
BRANCH  28  31
ATOM     31  C   UNL     1      -7.238  -2.422  -4.868  1.00  0.00     0.039 A 
ATOM     32  C   UNL     1      -8.614  -2.279  -5.056  1.00  0.00     0.014 A 
ATOM     33  C   UNL     1      -6.351  -2.136  -5.911  1.00  0.00     0.014 A 
ATOM     34  C   UNL     1      -9.096  -1.813  -6.278  1.00  0.00     0.010 A 
ATOM     35  C   UNL     1      -6.829  -1.594  -7.101  1.00  0.00     0.010 A 
ATOM     36  C   UNL     1      -8.207  -1.440  -7.302  1.00  0.00    -0.014 A 
BRANCH  36  37
ATOM     37  C   UNL     1      -8.724  -0.862  -8.568  1.00  0.00     0.031 A 
ATOM     38  C   UNL     1      -8.511  -1.561  -9.883  1.00  0.00     0.074 A 
ATOM     39  C   UNL     1      -9.355   0.327  -8.531  1.00  0.00     0.049 A 
ATOM     40  N   UNL     1      -8.944  -1.224 -11.070  1.00  0.00    -0.248 NA
ATOM     41  C   UNL     1      -7.688  -2.781  -9.871  1.00  0.00     0.031 C 
ATOM     42  C   UNL     1      -9.536   1.149  -7.332  1.00  0.00     0.029 A 
ATOM     43  N   UNL     1      -9.953   1.058  -9.526  1.00  0.00    -0.354 N 
ATOM     44  C   UNL     1      -8.428  -2.169 -11.948  1.00  0.00     0.074 A 
ATOM     45  C   UNL     1      -7.617  -3.074 -11.162  1.00  0.00     0.031 C 
ATOM     46  C   UNL     1     -10.219   2.257  -7.656  1.00  0.00     0.029 A 
ATOM     47  C   UNL     1     -10.498   2.241  -9.088  1.00  0.00     0.049 A 
ATOM     48  H   UNL     1      -9.988   0.762 -10.465  1.00  0.00     0.167 HD
ATOM     49  C   UNL     1      -8.632  -2.290 -13.282  1.00  0.00     0.034 A 
ATOM     50  C   UNL     1     -11.150   3.208  -9.763  1.00  0.00     0.034 A 
ATOM     51  C   UNL     1      -9.460  -1.401 -14.053  1.00  0.00     0.049 A 
ATOM     52  C   UNL     1     -11.404   3.024 -11.233  1.00  0.00     0.074 A 
ATOM     53  C   UNL     1      -9.808  -1.492 -15.389  1.00  0.00     0.029 A 
ATOM     54  N   UNL     1     -10.052  -0.246 -13.564  1.00  0.00    -0.354 N 
ATOM     55  N   UNL     1     -11.060   2.027 -12.011  1.00  0.00    -0.248 NA
ATOM     56  C   UNL     1     -12.170   4.080 -11.908  1.00  0.00     0.031 C 
ATOM     57  C   UNL     1     -10.576  -0.369 -15.718  1.00  0.00     0.029 A 
ATOM     58  C   UNL     1     -10.745   0.397 -14.577  1.00  0.00     0.049 A 
ATOM     59  H   UNL     1      -9.990   0.070 -12.634  1.00  0.00     0.167 HD
ATOM     60  C   UNL     1     -11.588   2.322 -13.263  1.00  0.00     0.074 A 
ATOM     61  C   UNL     1     -12.306   3.574 -13.126  1.00  0.00     0.031 C 
ATOM     62  C   UNL     1     -11.478   1.629 -14.423  1.00  0.00     0.034 A 
BRANCH  49  63
ATOM     63  C   UNL     1      -7.976  -3.449 -13.990  1.00  0.00     0.023 A 
ATOM     64  C   UNL     1      -8.424  -4.764 -13.747  1.00  0.00     0.012 A 
ATOM     65  C   UNL     1      -6.959  -3.233 -14.941  1.00  0.00     0.148 A 
ATOM     66  C   UNL     1      -7.846  -5.847 -14.409  1.00  0.00     0.002 A 
ATOM     67  C   UNL     1      -6.422  -4.312 -15.633  1.00  0.00     0.091 A 
ATOM     68  F   UNL     1      -6.531  -1.979 -15.145  1.00  0.00    -0.205 F 
ATOM     69  C   UNL     1      -6.854  -5.620 -15.359  1.00  0.00     0.022 A 
BRANCH  67  70
ATOM     70  S   UNL     1      -5.199  -4.119 -16.934  1.00  0.00     0.127 S 
ATOM     71  O   UNL     1      -4.011  -4.703 -16.311  1.00  0.00    -0.237 OA
ATOM     72  O   UNL     1      -5.774  -4.918 -18.016  1.00  0.00    -0.237 OA
ATOM     73  O   UNL     1      -5.121  -2.691 -17.206  1.00  0.00    -0.744 OA
ENDBRANCH  67  70
ENDBRANCH  49  63
BRANCH  50  74
ATOM     74  C   UNL     1     -11.652   4.408  -9.038  1.00  0.00     0.023 A 
ATOM     75  C   UNL     1     -13.038   4.593  -8.866  1.00  0.00     0.012 A 
ATOM     76  C   UNL     1     -10.760   5.349  -8.489  1.00  0.00     0.148 A 
ATOM     77  C   UNL     1     -13.527   5.712  -8.191  1.00  0.00     0.002 A 
ATOM     78  C   UNL     1     -11.251   6.428  -7.766  1.00  0.00     0.091 A 
ATOM     79  F   UNL     1      -9.446   5.158  -8.671  1.00  0.00    -0.205 F 
ATOM     80  C   UNL     1     -12.634   6.623  -7.632  1.00  0.00     0.022 A 
BRANCH  78  81
ATOM     81  S   UNL     1     -10.174   7.572  -6.896  1.00  0.00     0.127 S 
ATOM     82  O   UNL     1     -10.357   8.800  -7.666  1.00  0.00    -0.237 OA
ATOM     83  O   UNL     1     -10.770   7.587  -5.559  1.00  0.00    -0.237 OA
ATOM     84  O   UNL     1      -8.843   6.983  -6.953  1.00  0.00    -0.744 OA
ENDBRANCH  78  81
ENDBRANCH  50  74
BRANCH  62  85
ATOM     85  C   UNL     1     -12.166   2.199 -15.637  1.00  0.00     0.023 A 
ATOM     86  C   UNL     1     -11.681   3.383 -16.230  1.00  0.00     0.012 A 
ATOM     87  C   UNL     1     -13.270   1.542 -16.214  1.00  0.00     0.148 A 
ATOM     88  C   UNL     1     -12.315   3.930 -17.345  1.00  0.00     0.002 A 
ATOM     89  C   UNL     1     -13.862   2.062 -17.358  1.00  0.00     0.091 A 
ATOM     90  F   UNL     1     -13.729   0.426 -15.628  1.00  0.00    -0.205 F 
ATOM     91  C   UNL     1     -13.398   3.264 -17.915  1.00  0.00     0.022 A 
BRANCH  89  92
ATOM     92  S   UNL     1     -15.197   1.223 -18.218  1.00  0.00     0.127 S 
ATOM     93  O   UNL     1     -16.341   2.075 -17.895  1.00  0.00    -0.237 OA
ATOM     94  O   UNL     1     -14.760   1.291 -19.612  1.00  0.00    -0.237 OA
ATOM     95  O   UNL     1     -15.246  -0.124 -17.666  1.00  0.00    -0.744 OA
ENDBRANCH  89  92
ENDBRANCH  62  85
ENDBRANCH  36  37
ENDBRANCH  28  31
ENDBRANCH  26  27
ENDBRANCH  25  26
ENDBRANCH   1  25
TORSDOF 19
