REMARK SMILES COc1ncccc1C[N@@H+](CC(=O)NCCCCCCNC(=O)c1ccc(-c2c3nc(c(-c4cccc(S(=O)(=O)[O-])c4F)c4ccc([nH]4)c(-c4cccc(S(=O)(=O)[O-])c4F)c4nc(c(-c5cccc(S(=O)(=O)[O-])c5F)c5ccc2[nH]5)C=C4)C=C3)cc1)C1CCCC1
REMARK SMILES IDX 17 1 16 2 15 3 14 4 12 5 13 6 11 8 10 9 9 11 8 12 3 13 4 14
REMARK SMILES IDX 5 15 7 16 6 17 2 18 1 19 87 20 88 21 91 22 89 23 90 24 18 25
REMARK SMILES IDX 19 26 20 27 21 28 22 29 23 31 24 32 25 33 86 34 26 35 85 36
REMARK SMILES IDX 27 37 28 38 29 39 79 40 30 41 84 42 78 43 80 44 31 45 83 46
REMARK SMILES IDX 77 47 76 48 32 50 64 51 44 52 63 53 45 54 48 55 62 56 81 57
REMARK SMILES IDX 46 58 47 59 61 61 82 62 49 63 33 64 34 65 42 66 35 67 37 68
REMARK SMILES IDX 43 69 36 70 38 71 39 72 40 73 41 74 65 75 66 76 74 77 67 78
REMARK SMILES IDX 69 79 75 80 68 81 70 82 71 83 72 84 73 85 50 86 51 87 59 88
REMARK SMILES IDX 52 89 54 90 60 91 53 92 55 93 56 94 57 95 58 96
REMARK H PARENT 14 7 10 10 21 30 80 49 48 60
REMARK Flexibility Score: inf
ROOT
ATOM      1  C   UNL     1       7.045   2.706  -2.655  1.00  0.00     0.002 C 
ENDROOT
BRANCH   1   2
ATOM      2  C   UNL     1       5.755   2.070  -2.150  1.00  0.00     0.021 C 
BRANCH   2   3
ATOM      3  C   UNL     1       5.934   0.809  -1.293  1.00  0.00     0.116 C 
BRANCH   3   4
ATOM      4  N   UNL     1       6.118   1.163   0.102  1.00  0.00    -0.351 N 
ATOM      5  C   UNL     1       5.259   1.117   1.161  1.00  0.00     0.275 C 
ATOM      6  O   UNL     1       5.677   1.565   2.236  1.00  0.00    -0.269 OA
ATOM      7  H   UNL     1       7.018   1.495   0.322  1.00  0.00     0.163 HD
BRANCH   5   8
ATOM      8  C   UNL     1       3.854   0.501   1.066  1.00  0.00     0.364 C 
BRANCH   8   9
ATOM      9  N   UNL     1       2.755   1.387   0.576  1.00  0.00    -0.321 N 
ATOM     10  H   UNL     1       1.844   1.032   0.865  1.00  0.00     0.349 HD
BRANCH   9  11
ATOM     11  C   UNL     1       2.670   1.328  -0.889  1.00  0.00     0.305 C 
BRANCH  11  12
ATOM     12  C   UNL     1       1.524   1.971  -1.614  1.00  0.00     0.068 A 
ATOM     13  C   UNL     1       0.286   1.365  -1.826  1.00  0.00     0.221 A 
ATOM     14  N   UNL     1      -0.698   1.940  -2.556  1.00  0.00    -0.222 NA
ATOM     15  C   UNL     1      -0.448   3.138  -3.127  1.00  0.00     0.115 A 
ATOM     16  C   UNL     1       1.743   3.212  -2.243  1.00  0.00     0.017 A 
ATOM     17  C   UNL     1       0.752   3.807  -3.009  1.00  0.00     0.021 A 
BRANCH  13  18
ATOM     18  O   UNL     1       0.020   0.061  -1.517  1.00  0.00    -0.481 OA
ATOM     19  C   UNL     1       0.105  -0.258  -0.137  1.00  0.00     0.280 C 
ENDBRANCH  13  18
ENDBRANCH  11  12
ENDBRANCH   9  11
BRANCH   9  20
ATOM     20  C   UNL     1       2.709   2.689   1.259  1.00  0.00     0.184 C 
ATOM     21  C   UNL     1       3.648   3.811   0.797  1.00  0.00     0.065 C 
ATOM     22  C   UNL     1       1.314   3.348   1.313  1.00  0.00     0.065 C 
ATOM     23  C   UNL     1       3.037   5.068   1.395  1.00  0.00     0.006 C 
ATOM     24  C   UNL     1       1.540   4.859   1.251  1.00  0.00     0.006 C 
ENDBRANCH   9  20
ENDBRANCH   8   9
ENDBRANCH   5   8
ENDBRANCH   3   4
ENDBRANCH   2   3
ENDBRANCH   1   2
BRANCH   1  25
ATOM     25  C   UNL     1       7.802   1.874  -3.689  1.00  0.00     0.002 C 
BRANCH  25  26
ATOM     26  C   UNL     1       6.976   1.432  -4.901  1.00  0.00     0.021 C 
BRANCH  26  27
ATOM     27  C   UNL     1       6.274   2.565  -5.645  1.00  0.00     0.116 C 
BRANCH  27  28
ATOM     28  N   UNL     1       7.225   3.541  -6.159  1.00  0.00    -0.352 N 
ATOM     29  C   UNL     1       7.557   3.813  -7.461  1.00  0.00     0.251 C 
ATOM     30  H   UNL     1       7.694   4.077  -5.479  1.00  0.00     0.163 HD
ATOM     31  O   UNL     1       8.563   4.473  -7.721  1.00  0.00    -0.269 OA
BRANCH  29  32
ATOM     32  C   UNL     1       6.698   3.304  -8.548  1.00  0.00     0.039 A 
ATOM     33  C   UNL     1       7.279   2.654  -9.639  1.00  0.00     0.014 A 
ATOM     34  C   UNL     1       5.312   3.466  -8.474  1.00  0.00     0.014 A 
ATOM     35  C   UNL     1       6.460   2.113 -10.633  1.00  0.00     0.010 A 
ATOM     36  C   UNL     1       4.497   2.861  -9.424  1.00  0.00     0.010 A 
ATOM     37  C   UNL     1       5.062   2.186 -10.517  1.00  0.00    -0.014 A 
BRANCH  37  38
ATOM     38  C   UNL     1       4.160   1.576 -11.527  1.00  0.00     0.031 A 
ATOM     39  C   UNL     1       3.221   2.450 -12.314  1.00  0.00     0.074 A 
ATOM     40  C   UNL     1       4.115   0.236 -11.663  1.00  0.00     0.049 A 
ATOM     41  N   UNL     1       2.279   2.106 -13.152  1.00  0.00    -0.248 NA
ATOM     42  C   UNL     1       3.340   3.905 -12.111  1.00  0.00     0.031 C 
ATOM     43  C   UNL     1       4.933  -0.720 -10.914  1.00  0.00     0.029 A 
ATOM     44  N   UNL     1       3.322  -0.557 -12.456  1.00  0.00    -0.354 N 
ATOM     45  C   UNL     1       1.671   3.291 -13.547  1.00  0.00     0.074 A 
ATOM     46  C   UNL     1       2.324   4.362 -12.828  1.00  0.00     0.031 C 
ATOM     47  C   UNL     1       4.599  -1.968 -11.281  1.00  0.00     0.029 A 
ATOM     48  C   UNL     1       3.518  -1.905 -12.258  1.00  0.00     0.049 A 
ATOM     49  H   UNL     1       2.676  -0.195 -13.104  1.00  0.00     0.167 HD
ATOM     50  C   UNL     1       0.678   3.476 -14.449  1.00  0.00     0.034 A 
ATOM     51  C   UNL     1       2.884  -2.967 -12.791  1.00  0.00     0.034 A 
ATOM     52  C   UNL     1       0.054   2.411 -15.185  1.00  0.00     0.049 A 
ATOM     53  C   UNL     1       1.785  -2.733 -13.795  1.00  0.00     0.074 A 
ATOM     54  C   UNL     1      -0.915   2.497 -16.168  1.00  0.00     0.029 A 
ATOM     55  N   UNL     1       0.334   1.064 -15.014  1.00  0.00    -0.354 N 
ATOM     56  N   UNL     1       1.315  -1.599 -14.256  1.00  0.00    -0.248 NA
ATOM     57  C   UNL     1       1.151  -3.925 -14.378  1.00  0.00     0.031 C 
ATOM     58  C   UNL     1      -1.241   1.199 -16.573  1.00  0.00     0.029 A 
ATOM     59  C   UNL     1      -0.447   0.307 -15.870  1.00  0.00     0.049 A 
ATOM     60  H   UNL     1       0.991   0.699 -14.379  1.00  0.00     0.167 HD
ATOM     61  C   UNL     1       0.368  -1.940 -15.214  1.00  0.00     0.074 A 
ATOM     62  C   UNL     1       0.339  -3.386 -15.277  1.00  0.00     0.031 C 
ATOM     63  C   UNL     1      -0.416  -1.129 -15.967  1.00  0.00     0.034 A 
BRANCH  50  64
ATOM     64  C   UNL     1       0.239   4.891 -14.727  1.00  0.00     0.023 A 
ATOM     65  C   UNL     1       1.104   5.764 -15.418  1.00  0.00     0.012 A 
ATOM     66  C   UNL     1      -1.044   5.340 -14.358  1.00  0.00     0.148 A 
ATOM     67  C   UNL     1       0.717   7.072 -15.703  1.00  0.00     0.002 A 
ATOM     68  C   UNL     1      -1.442   6.631 -14.689  1.00  0.00     0.091 A 
ATOM     69  F   UNL     1      -1.847   4.503 -13.687  1.00  0.00    -0.205 F 
ATOM     70  C   UNL     1      -0.558   7.502 -15.348  1.00  0.00     0.022 A 
BRANCH  68  71
ATOM     71  S   UNL     1      -3.091   7.257 -14.349  1.00  0.00     0.127 S 
ATOM     72  O   UNL     1      -2.819   8.257 -13.318  1.00  0.00    -0.237 OA
ATOM     73  O   UNL     1      -3.482   7.809 -15.646  1.00  0.00    -0.237 OA
ATOM     74  O   UNL     1      -3.875   6.110 -13.913  1.00  0.00    -0.744 OA
ENDBRANCH  68  71
ENDBRANCH  50  64
BRANCH  51  75
ATOM     75  C   UNL     1       3.301  -4.353 -12.430  1.00  0.00     0.023 A 
ATOM     76  C   UNL     1       3.920  -5.163 -13.403  1.00  0.00     0.012 A 
ATOM     77  C   UNL     1       3.096  -4.870 -11.137  1.00  0.00     0.148 A 
ATOM     78  C   UNL     1       4.285  -6.477 -13.108  1.00  0.00     0.002 A 
ATOM     79  C   UNL     1       3.516  -6.161 -10.833  1.00  0.00     0.091 A 
ATOM     80  F   UNL     1       2.500  -4.088 -10.226  1.00  0.00    -0.205 F 
ATOM     81  C   UNL     1       4.091  -6.973 -11.822  1.00  0.00     0.022 A 
BRANCH  79  82
ATOM     82  S   UNL     1       3.426  -6.837  -9.171  1.00  0.00     0.127 S 
ATOM     83  O   UNL     1       2.374  -7.840  -9.313  1.00  0.00    -0.237 OA
ATOM     84  O   UNL     1       4.774  -7.378  -8.992  1.00  0.00    -0.237 OA
ATOM     85  O   UNL     1       3.114  -5.709  -8.304  1.00  0.00    -0.744 OA
ENDBRANCH  79  82
ENDBRANCH  51  75
BRANCH  63  86
ATOM     86  C   UNL     1      -1.329  -1.773 -16.977  1.00  0.00     0.023 A 
ATOM     87  C   UNL     1      -2.481  -2.462 -16.552  1.00  0.00     0.012 A 
ATOM     88  C   UNL     1      -1.089  -1.609 -18.356  1.00  0.00     0.148 A 
ATOM     89  C   UNL     1      -3.366  -3.003 -17.485  1.00  0.00     0.002 A 
ATOM     90  C   UNL     1      -2.001  -2.103 -19.279  1.00  0.00     0.091 A 
ATOM     91  F   UNL     1       0.023  -0.963 -18.738  1.00  0.00    -0.205 F 
ATOM     92  C   UNL     1      -3.134  -2.812 -18.846  1.00  0.00     0.022 A 
BRANCH  90  93
ATOM     93  S   UNL     1      -1.840  -1.818 -21.045  1.00  0.00     0.127 S 
ATOM     94  O   UNL     1      -1.550  -3.163 -21.538  1.00  0.00    -0.237 OA
ATOM     95  O   UNL     1      -3.167  -1.311 -21.397  1.00  0.00    -0.237 OA
ATOM     96  O   UNL     1      -0.761  -0.853 -21.202  1.00  0.00    -0.744 OA
ENDBRANCH  90  93
ENDBRANCH  63  86
ENDBRANCH  37  38
ENDBRANCH  29  32
ENDBRANCH  27  28
ENDBRANCH  26  27
ENDBRANCH  25  26
ENDBRANCH   1  25
TORSDOF 21
