REMARK SMILES Cc1cc(F)c(C(=O)NCCCCCCNC(=O)c2ccc(-c3c4nc(c(-c5cccc(S(=O)(=O)[O-])c5F)c5ccc([nH]5)c(-c5cccc(S(=O)(=O)[O-])c5F)c5nc(c(-c6cccc(S(=O)(=O)[O-])c6F)c6ccc3[nH]6)C=C5)C=C4)cc2)cc1F
REMARK SMILES IDX 14 1 13 2 12 3 11 4 10 5 9 6 7 7 8 8 6 10 1 11 2 12 3 13
REMARK SMILES IDX 83 14 4 15 82 16 84 17 5 18 15 19 16 20 17 21 18 23 19 24
REMARK SMILES IDX 20 25 81 26 21 27 80 28 22 29 23 30 24 31 74 32 25 33 79 34
REMARK SMILES IDX 73 35 75 36 26 37 78 38 72 39 71 40 27 42 59 43 39 44 58 45
REMARK SMILES IDX 40 46 43 47 57 48 76 49 41 50 42 51 56 53 77 54 44 55 28 56
REMARK SMILES IDX 29 57 37 58 30 59 32 60 38 61 31 62 33 63 34 64 35 65 36 66
REMARK SMILES IDX 60 67 61 68 69 69 62 70 64 71 70 72 63 73 65 74 66 75 67 76
REMARK SMILES IDX 68 77 45 78 46 79 54 80 47 81 49 82 55 83 48 84 50 85 51 86
REMARK SMILES IDX 52 87 53 88
REMARK H PARENT 9 9 16 22 75 41 43 52
REMARK Flexibility Score: inf
ROOT
ATOM      1  C   UNL     1      -3.864   0.261   8.209  1.00  0.00     0.021 C 
ENDROOT
BRANCH   1   2
ATOM      2  C   UNL     1      -3.728  -1.257   8.094  1.00  0.00     0.002 C 
BRANCH   2   3
ATOM      3  C   UNL     1      -4.317  -1.911   6.842  1.00  0.00     0.002 C 
BRANCH   3   4
ATOM      4  C   UNL     1      -3.916  -1.323   5.487  1.00  0.00     0.021 C 
BRANCH   4   5
ATOM      5  C   UNL     1      -2.424  -1.154   5.213  1.00  0.00     0.116 C 
BRANCH   5   6
ATOM      6  N   UNL     1      -1.669  -2.391   5.293  1.00  0.00    -0.352 N 
ATOM      7  C   UNL     1      -0.643  -2.868   4.511  1.00  0.00     0.254 C 
ATOM      8  O   UNL     1      -0.131  -3.947   4.802  1.00  0.00    -0.269 OA
ATOM      9  H   UNL     1      -1.935  -2.987   6.030  1.00  0.00     0.163 HD
BRANCH   7  10
ATOM     10  C   UNL     1      -0.153  -2.119   3.333  1.00  0.00     0.078 A 
ATOM     11  C   UNL     1       1.183  -0.035  -0.204  1.00  0.00     0.047 C 
ATOM     12  C   UNL     1       0.730  -0.768   1.023  1.00  0.00    -0.012 A 
ATOM     13  C   UNL     1       0.574  -2.157   1.012  1.00  0.00     0.046 A 
ATOM     14  C   UNL     1       0.505  -0.083   2.220  1.00  0.00     0.127 A 
ATOM     15  C   UNL     1       0.128  -2.821   2.157  1.00  0.00     0.136 A 
ATOM     16  C   UNL     1       0.088  -0.744   3.373  1.00  0.00     0.056 A 
ATOM     17  F   UNL     1       0.682   1.245   2.269  1.00  0.00    -0.207 F 
ATOM     18  F   UNL     1      -0.047  -4.149   2.081  1.00  0.00    -0.206 F 
ENDBRANCH   7  10
ENDBRANCH   5   6
ENDBRANCH   4   5
ENDBRANCH   3   4
ENDBRANCH   2   3
ENDBRANCH   1   2
BRANCH   1  19
ATOM     19  C   UNL     1      -5.264   0.834   8.023  1.00  0.00     0.116 C 
BRANCH  19  20
ATOM     20  N   UNL     1      -6.212   0.413   9.040  1.00  0.00    -0.352 N 
ATOM     21  C   UNL     1      -7.085   1.177   9.785  1.00  0.00     0.251 C 
ATOM     22  H   UNL     1      -6.233  -0.554   9.224  1.00  0.00     0.163 HD
ATOM     23  O   UNL     1      -7.766   0.652  10.658  1.00  0.00    -0.269 OA
BRANCH  21  24
ATOM     24  C   UNL     1      -7.157   2.641   9.560  1.00  0.00     0.039 A 
ATOM     25  C   UNL     1      -7.255   3.169   8.271  1.00  0.00     0.014 A 
ATOM     26  C   UNL     1      -7.074   3.498  10.661  1.00  0.00     0.014 A 
ATOM     27  C   UNL     1      -7.087   4.537   8.070  1.00  0.00     0.010 A 
ATOM     28  C   UNL     1      -6.981   4.879  10.462  1.00  0.00     0.010 A 
ATOM     29  C   UNL     1      -6.925   5.406   9.162  1.00  0.00    -0.014 A 
BRANCH  29  30
ATOM     30  C   UNL     1      -6.667   6.852   8.928  1.00  0.00     0.031 A 
ATOM     31  C   UNL     1      -5.355   7.474   9.336  1.00  0.00     0.074 A 
ATOM     32  C   UNL     1      -7.601   7.606   8.316  1.00  0.00     0.049 A 
ATOM     33  N   UNL     1      -4.962   8.717   9.214  1.00  0.00    -0.248 NA
ATOM     34  C   UNL     1      -4.355   6.593   9.961  1.00  0.00     0.031 C 
ATOM     35  C   UNL     1      -8.914   7.130   7.879  1.00  0.00     0.029 A 
ATOM     36  N   UNL     1      -7.587   8.929   7.950  1.00  0.00    -0.354 N 
ATOM     37  C   UNL     1      -3.696   8.776   9.784  1.00  0.00     0.074 A 
ATOM     38  C   UNL     1      -3.381   7.445  10.253  1.00  0.00     0.031 C 
ATOM     39  C   UNL     1      -9.567   8.135   7.276  1.00  0.00     0.029 A 
ATOM     40  C   UNL     1      -8.741   9.338   7.324  1.00  0.00     0.049 A 
ATOM     41  H   UNL     1      -6.824   9.528   8.119  1.00  0.00     0.167 HD
ATOM     42  C   UNL     1      -2.861   9.837   9.888  1.00  0.00     0.034 A 
ATOM     43  C   UNL     1      -9.102  10.546   6.848  1.00  0.00     0.034 A 
ATOM     44  C   UNL     1      -3.141  11.147   9.367  1.00  0.00     0.049 A 
ATOM     45  C   UNL     1      -8.154  11.703   6.968  1.00  0.00     0.074 A 
ATOM     46  C   UNL     1      -2.328  12.267   9.385  1.00  0.00     0.029 A 
ATOM     47  N   UNL     1      -4.315  11.513   8.731  1.00  0.00    -0.354 N 
ATOM     48  N   UNL     1      -6.934  11.717   7.446  1.00  0.00    -0.248 NA
ATOM     49  C   UNL     1      -8.624  13.006   6.474  1.00  0.00     0.031 C 
ATOM     50  C   UNL     1      -3.011  13.312   8.757  1.00  0.00     0.029 A 
ATOM     51  C   UNL     1      -4.249  12.841   8.350  1.00  0.00     0.049 A 
ATOM     52  H   UNL     1      -5.082  10.916   8.573  1.00  0.00     0.167 HD
ATOM     53  C   UNL     1      -6.486  13.025   7.304  1.00  0.00     0.074 A 
ATOM     54  C   UNL     1      -7.557  13.770   6.674  1.00  0.00     0.031 C 
ATOM     55  C   UNL     1      -5.301  13.561   7.683  1.00  0.00     0.034 A 
BRANCH  42  56
ATOM     56  C   UNL     1      -1.524   9.624  10.543  1.00  0.00     0.023 A 
ATOM     57  C   UNL     1      -0.476   9.058   9.792  1.00  0.00     0.012 A 
ATOM     58  C   UNL     1      -1.277  10.077  11.853  1.00  0.00     0.148 A 
ATOM     59  C   UNL     1       0.801   8.938  10.338  1.00  0.00     0.002 A 
ATOM     60  C   UNL     1       0.005   9.978  12.382  1.00  0.00     0.091 A 
ATOM     61  F   UNL     1      -2.295  10.600  12.550  1.00  0.00    -0.205 F 
ATOM     62  C   UNL     1       1.043   9.406  11.627  1.00  0.00     0.022 A 
BRANCH  60  63
ATOM     63  S   UNL     1       0.438  10.597  14.012  1.00  0.00     0.127 S 
ATOM     64  O   UNL     1       0.756   9.358  14.722  1.00  0.00    -0.237 OA
ATOM     65  O   UNL     1       1.593  11.447  13.720  1.00  0.00    -0.237 OA
ATOM     66  O   UNL     1      -0.736  11.307  14.499  1.00  0.00    -0.744 OA
ENDBRANCH  60  63
ENDBRANCH  42  56
BRANCH  43  67
ATOM     67  C   UNL     1     -10.418  10.694   6.170  1.00  0.00     0.023 A 
ATOM     68  C   UNL     1     -10.457  10.803   4.767  1.00  0.00     0.012 A 
ATOM     69  C   UNL     1     -11.623  10.643   6.895  1.00  0.00     0.148 A 
ATOM     70  C   UNL     1     -11.678  10.863   4.096  1.00  0.00     0.002 A 
ATOM     71  C   UNL     1     -12.836  10.659   6.218  1.00  0.00     0.091 A 
ATOM     72  F   UNL     1     -11.555  10.548   8.230  1.00  0.00    -0.205 F 
ATOM     73  C   UNL     1     -12.866  10.779   4.819  1.00  0.00     0.022 A 
BRANCH  71  74
ATOM     74  S   UNL     1     -14.412  10.439   7.049  1.00  0.00     0.127 S 
ATOM     75  O   UNL     1     -15.050  11.735   6.827  1.00  0.00    -0.237 OA
ATOM     76  O   UNL     1     -14.994   9.328   6.296  1.00  0.00    -0.237 OA
ATOM     77  O   UNL     1     -14.090  10.127   8.435  1.00  0.00    -0.744 OA
ENDBRANCH  71  74
ENDBRANCH  43  67
BRANCH  55  78
ATOM     78  C   UNL     1      -5.078  15.026   7.436  1.00  0.00     0.023 A 
ATOM     79  C   UNL     1      -5.627  15.962   8.334  1.00  0.00     0.012 A 
ATOM     80  C   UNL     1      -4.229  15.465   6.402  1.00  0.00     0.148 A 
ATOM     81  C   UNL     1      -5.338  17.319   8.202  1.00  0.00     0.002 A 
ATOM     82  C   UNL     1      -3.921  16.816   6.296  1.00  0.00     0.091 A 
ATOM     83  F   UNL     1      -3.729  14.552   5.557  1.00  0.00    -0.205 F 
ATOM     84  C   UNL     1      -4.477  17.744   7.192  1.00  0.00     0.022 A 
BRANCH  82  85
ATOM     85  S   UNL     1      -2.766  17.453   5.076  1.00  0.00     0.127 S 
ATOM     86  O   UNL     1      -3.649  18.230   4.207  1.00  0.00    -0.237 OA
ATOM     87  O   UNL     1      -1.858  18.253   5.897  1.00  0.00    -0.237 OA
ATOM     88  O   UNL     1      -2.153  16.287   4.453  1.00  0.00    -0.744 OA
ENDBRANCH  82  85
ENDBRANCH  55  78
ENDBRANCH  29  30
ENDBRANCH  21  24
ENDBRANCH  19  20
ENDBRANCH   1  19
TORSDOF 16
