REMARK SMILES CC(C)(CC(=O)NCCCCCCNC(=O)c1ccc(-c2c3nc(c(-c4cccc(S(=O)(=O)[O-])c4F)c4ccc([nH]4)c(-c4cccc(S(=O)(=O)[O-])c4F)c4nc(c(-c5cccc(S(=O)(=O)[O-])c5F)c5ccc2[nH]5)C=C4)C=C3)cc1)CC(=O)Nc1cccc(C(=O)NC2CC2)c1
REMARK SMILES IDX 9 1 8 2 7 3 5 4 6 5 4 7 2 8 1 9 3 10 80 11 81 12 82 13 83 14
REMARK SMILES IDX 84 16 85 17 95 18 86 19 88 20 87 21 89 22 90 23 91 24 92 26
REMARK SMILES IDX 93 27 94 28 10 29 11 30 12 31 13 32 14 33 15 34 16 36 17 37
REMARK SMILES IDX 18 38 79 39 19 40 78 41 20 42 21 43 22 44 72 45 23 46 77 47
REMARK SMILES IDX 71 48 73 49 24 50 76 51 70 52 69 53 25 55 57 56 37 57 56 58
REMARK SMILES IDX 38 59 41 60 55 61 74 62 39 63 40 64 54 66 75 67 42 68 26 69
REMARK SMILES IDX 27 70 35 71 28 72 30 73 36 74 29 75 31 76 32 77 33 78 34 79
REMARK SMILES IDX 58 80 59 81 67 82 60 83 62 84 68 85 61 86 63 87 64 88 65 89
REMARK SMILES IDX 66 90 43 91 44 92 52 93 45 94 47 95 53 96 46 97 48 98 49 99
REMARK SMILES IDX 50 100 51 101
REMARK H PARENT 7 6 83 15 91 25 14 35 73 54 41 65
REMARK Flexibility Score: inf
ROOT
ATOM      1  C   UNL     1       1.131  -3.363  -0.257  1.00  0.00     0.021 C 
ENDROOT
BRANCH   1   2
ATOM      2  C   UNL     1       0.236  -2.236  -0.720  1.00  0.00     0.116 C 
BRANCH   2   3
ATOM      3  N   UNL     1      -0.750  -1.989   0.283  1.00  0.00    -0.356 N 
ATOM      4  C   UNL     1      -0.909  -0.890   1.039  1.00  0.00     0.220 C 
ATOM      5  O   UNL     1      -1.869  -0.910   1.804  1.00  0.00    -0.275 OA
ATOM      6  H   UNL     1      -1.395  -2.716   0.440  1.00  0.00     0.163 HD
BRANCH   4   7
ATOM      7  C   UNL     1      -0.027   0.327   0.798  1.00  0.00     0.107 C 
BRANCH   7   8
ATOM      8  C   UNL     1       1.208   0.722   1.636  1.00  0.00    -0.018 C 
ATOM      9  C   UNL     1       2.355  -0.251   1.311  1.00  0.00     0.012 C 
ATOM     10  C   UNL     1       1.722   2.117   1.160  1.00  0.00     0.012 C 
BRANCH   8  11
ATOM     11  C   UNL     1       1.002   0.898   3.154  1.00  0.00     0.107 C 
BRANCH  11  12
ATOM     12  C   UNL     1       0.009   0.040   3.871  1.00  0.00     0.224 C 
ATOM     13  O   UNL     1       0.366  -1.054   4.325  1.00  0.00    -0.275 OA
ATOM     14  N   UNL     1      -1.266   0.452   4.119  1.00  0.00    -0.326 N 
ATOM     15  H   UNL     1      -1.630   0.066   4.948  1.00  0.00     0.169 HD
BRANCH  14  16
ATOM     16  C   UNL     1      -2.198   1.307   3.465  1.00  0.00     0.041 A 
ATOM     17  C   UNL     1      -3.529   1.015   3.807  1.00  0.00     0.026 A 
ATOM     18  C   UNL     1      -1.959   2.208   2.401  1.00  0.00     0.040 A 
ATOM     19  C   UNL     1      -4.583   1.462   3.023  1.00  0.00     0.003 A 
ATOM     20  C   UNL     1      -3.005   2.575   1.526  1.00  0.00     0.041 A 
ATOM     21  C   UNL     1      -4.316   2.195   1.872  1.00  0.00     0.014 A 
BRANCH  20  22
ATOM     22  C   UNL     1      -2.947   3.454   0.310  1.00  0.00     0.251 C 
ATOM     23  O   UNL     1      -3.790   4.361   0.265  1.00  0.00    -0.269 OA
ATOM     24  N   UNL     1      -2.164   3.321  -0.823  1.00  0.00    -0.349 N 
ATOM     25  H   UNL     1      -2.487   3.888  -1.560  1.00  0.00     0.164 HD
BRANCH  24  26
ATOM     26  C   UNL     1      -1.013   2.574  -1.195  1.00  0.00     0.082 C 
ATOM     27  C   UNL     1      -1.032   1.496  -2.257  1.00  0.00     0.027 C 
ATOM     28  C   UNL     1      -0.375   2.803  -2.553  1.00  0.00     0.027 C 
ENDBRANCH  24  26
ENDBRANCH  20  22
ENDBRANCH  14  16
ENDBRANCH  11  12
ENDBRANCH   8  11
ENDBRANCH   7   8
ENDBRANCH   4   7
ENDBRANCH   2   3
ENDBRANCH   1   2
BRANCH   1  29
ATOM     29  C   UNL     1       0.440  -4.725  -0.263  1.00  0.00     0.002 C 
BRANCH  29  30
ATOM     30  C   UNL     1      -0.365  -5.049  -1.526  1.00  0.00     0.002 C 
BRANCH  30  31
ATOM     31  C   UNL     1       0.339  -4.765  -2.855  1.00  0.00     0.021 C 
BRANCH  31  32
ATOM     32  C   UNL     1       1.763  -5.276  -2.939  1.00  0.00     0.116 C 
BRANCH  32  33
ATOM     33  N   UNL     1       1.841  -6.694  -2.653  1.00  0.00    -0.352 N 
ATOM     34  C   UNL     1       2.465  -7.659  -3.399  1.00  0.00     0.251 C 
ATOM     35  H   UNL     1       1.395  -6.999  -1.830  1.00  0.00     0.163 HD
ATOM     36  O   UNL     1       2.299  -8.845  -3.167  1.00  0.00    -0.269 OA
BRANCH  34  37
ATOM     37  C   UNL     1       3.325  -7.206  -4.507  1.00  0.00     0.039 A 
ATOM     38  C   UNL     1       3.078  -7.690  -5.790  1.00  0.00     0.014 A 
ATOM     39  C   UNL     1       4.307  -6.237  -4.272  1.00  0.00     0.014 A 
ATOM     40  C   UNL     1       3.815  -7.182  -6.857  1.00  0.00     0.010 A 
ATOM     41  C   UNL     1       4.976  -5.673  -5.347  1.00  0.00     0.010 A 
ATOM     42  C   UNL     1       4.755  -6.160  -6.644  1.00  0.00    -0.014 A 
BRANCH  42  43
ATOM     43  C   UNL     1       5.557  -5.611  -7.761  1.00  0.00     0.031 A 
ATOM     44  C   UNL     1       7.050  -5.783  -7.748  1.00  0.00     0.074 A 
ATOM     45  C   UNL     1       4.955  -4.898  -8.731  1.00  0.00     0.049 A 
ATOM     46  N   UNL     1       7.940  -5.316  -8.582  1.00  0.00    -0.248 NA
ATOM     47  C   UNL     1       7.623  -6.556  -6.631  1.00  0.00     0.031 C 
ATOM     48  C   UNL     1       3.520  -4.613  -8.807  1.00  0.00     0.029 A 
ATOM     49  N   UNL     1       5.479  -4.261  -9.826  1.00  0.00    -0.354 N 
ATOM     50  C   UNL     1       9.173  -5.702  -8.072  1.00  0.00     0.074 A 
ATOM     51  C   UNL     1       8.922  -6.405  -6.835  1.00  0.00     0.031 C 
ATOM     52  C   UNL     1       3.279  -3.862  -9.894  1.00  0.00     0.029 A 
ATOM     53  C   UNL     1       4.543  -3.583 -10.570  1.00  0.00     0.049 A 
ATOM     54  H   UNL     1       6.436  -4.286 -10.057  1.00  0.00     0.167 HD
ATOM     55  C   UNL     1      10.404  -5.516  -8.604  1.00  0.00     0.034 A 
ATOM     56  C   UNL     1       4.691  -2.815 -11.666  1.00  0.00     0.034 A 
ATOM     57  C   UNL     1      10.638  -4.854  -9.856  1.00  0.00     0.049 A 
ATOM     58  C   UNL     1       6.067  -2.644 -12.252  1.00  0.00     0.074 A 
ATOM     59  C   UNL     1      11.835  -4.682 -10.527  1.00  0.00     0.029 A 
ATOM     60  N   UNL     1       9.656  -4.247 -10.623  1.00  0.00    -0.354 N 
ATOM     61  N   UNL     1       7.208  -3.137 -11.834  1.00  0.00    -0.248 NA
ATOM     62  C   UNL     1       6.174  -1.838 -13.476  1.00  0.00     0.031 C 
ATOM     63  C   UNL     1      11.580  -3.944 -11.687  1.00  0.00     0.029 A 
ATOM     64  C   UNL     1      10.219  -3.689 -11.756  1.00  0.00     0.049 A 
ATOM     65  H   UNL     1       8.698  -4.218 -10.395  1.00  0.00     0.167 HD
ATOM     66  C   UNL     1       8.160  -2.740 -12.765  1.00  0.00     0.074 A 
ATOM     67  C   UNL     1       7.459  -1.973 -13.775  1.00  0.00     0.031 C 
ATOM     68  C   UNL     1       9.494  -2.979 -12.779  1.00  0.00     0.034 A 
BRANCH  55  69
ATOM     69  C   UNL     1      11.582  -6.076  -7.851  1.00  0.00     0.023 A 
ATOM     70  C   UNL     1      11.762  -7.473  -7.774  1.00  0.00     0.012 A 
ATOM     71  C   UNL     1      12.531  -5.224  -7.256  1.00  0.00     0.148 A 
ATOM     72  C   UNL     1      12.845  -8.013  -7.082  1.00  0.00     0.002 A 
ATOM     73  C   UNL     1      13.635  -5.768  -6.610  1.00  0.00     0.091 A 
ATOM     74  F   UNL     1      12.331  -3.900  -7.318  1.00  0.00    -0.205 F 
ATOM     75  C   UNL     1      13.786  -7.161  -6.510  1.00  0.00     0.022 A 
BRANCH  73  76
ATOM     76  S   UNL     1      14.945  -4.757  -5.913  1.00  0.00     0.127 S 
ATOM     77  O   UNL     1      14.732  -4.946  -4.479  1.00  0.00    -0.237 OA
ATOM     78  O   UNL     1      16.146  -5.402  -6.442  1.00  0.00    -0.237 OA
ATOM     79  O   UNL     1      14.714  -3.406  -6.406  1.00  0.00    -0.744 OA
ENDBRANCH  73  76
ENDBRANCH  55  69
BRANCH  56  80
ATOM     80  C   UNL     1       3.497  -2.204 -12.314  1.00  0.00     0.023 A 
ATOM     81  C   UNL     1       3.069  -2.683 -13.568  1.00  0.00     0.012 A 
ATOM     82  C   UNL     1       2.766  -1.177 -11.685  1.00  0.00     0.148 A 
ATOM     83  C   UNL     1       1.954  -2.128 -14.198  1.00  0.00     0.002 A 
ATOM     84  C   UNL     1       1.625  -0.667 -12.293  1.00  0.00     0.091 A 
ATOM     85  F   UNL     1       3.194  -0.731 -10.496  1.00  0.00    -0.205 F 
ATOM     86  C   UNL     1       1.228  -1.128 -13.558  1.00  0.00     0.022 A 
BRANCH  84  87
ATOM     87  S   UNL     1       0.556   0.529 -11.486  1.00  0.00     0.127 S 
ATOM     88  O   UNL     1       0.775   1.723 -12.299  1.00  0.00    -0.237 OA
ATOM     89  O   UNL     1      -0.760  -0.090 -11.642  1.00  0.00    -0.237 OA
ATOM     90  O   UNL     1       1.022   0.609 -10.108  1.00  0.00    -0.744 OA
ENDBRANCH  84  87
ENDBRANCH  56  80
BRANCH  68  91
ATOM     91  C   UNL     1      10.289  -2.455 -13.945  1.00  0.00     0.023 A 
ATOM     92  C   UNL     1      10.561  -1.078 -14.051  1.00  0.00     0.012 A 
ATOM     93  C   UNL     1      10.852  -3.349 -14.878  1.00  0.00     0.148 A 
ATOM     94  C   UNL     1      11.362  -0.594 -15.085  1.00  0.00     0.002 A 
ATOM     95  C   UNL     1      11.691  -2.865 -15.873  1.00  0.00     0.091 A 
ATOM     96  F   UNL     1      10.566  -4.654 -14.766  1.00  0.00    -0.205 F 
ATOM     97  C   UNL     1      11.938  -1.488 -15.986  1.00  0.00     0.022 A 
BRANCH  95  98
ATOM     98  S   UNL     1      12.559  -3.949 -17.014  1.00  0.00     0.127 S 
ATOM     99  O   UNL     1      11.892  -3.643 -18.279  1.00  0.00    -0.237 OA
ATOM    100  O   UNL     1      13.935  -3.461 -16.915  1.00  0.00    -0.237 OA
ATOM    101  O   UNL     1      12.358  -5.303 -16.517  1.00  0.00    -0.744 OA
ENDBRANCH  95  98
ENDBRANCH  68  91
ENDBRANCH  42  43
ENDBRANCH  34  37
ENDBRANCH  32  33
ENDBRANCH  31  32
ENDBRANCH  30  31
ENDBRANCH  29  30
ENDBRANCH   1  29
TORSDOF 22
