REMARK SMILES Cc1ccc(C(C)C)c(OCC(=O)Nc2nc(CC(=O)NCCCCCCNC(=O)c3ccc(-c4c5nc(c(-c6cccc(S(=O)(=O)[O-])c6F)c6ccc([nH]6)c(-c6cccc(S(=O)(=O)[O-])c6F)c6nc(c(-c7cccc(S(=O)(=O)[O-])c7F)c7ccc4[nH]7)C=C6)C=C5)cc3)cs2)c1
REMARK SMILES IDX 23 1 22 2 21 3 19 4 20 5 18 7 17 8 15 9 16 10 95 11 94 12
REMARK SMILES IDX 14 13 12 14 13 15 11 17 10 18 9 19 1 20 2 21 3 22 96 23 4 24
REMARK SMILES IDX 5 25 6 26 7 27 8 28 24 29 25 30 26 31 27 32 28 33 29 34
REMARK SMILES IDX 30 36 31 37 32 38 93 39 33 40 92 41 34 42 35 43 36 44 86 45
REMARK SMILES IDX 37 46 91 47 85 48 87 49 38 50 90 51 84 52 83 53 39 55 71 56
REMARK SMILES IDX 51 57 70 58 52 59 55 60 69 61 88 62 53 63 54 64 68 66 89 67
REMARK SMILES IDX 56 68 40 69 41 70 49 71 42 72 44 73 50 74 43 75 45 76 46 77
REMARK SMILES IDX 47 78 48 79 72 80 73 81 81 82 74 83 76 84 82 85 75 86 77 87
REMARK SMILES IDX 78 88 79 89 80 90 57 91 58 92 66 93 59 94 61 95 67 96 60 97
REMARK SMILES IDX 62 98 63 99 64 100 65 101
REMARK H PARENT 21 6 14 16 28 35 87 54 55 65
REMARK Flexibility Score: inf
ROOT
ATOM      1  C   UNL     1      -3.531   0.240   5.011  1.00  0.00     0.021 C 
ENDROOT
BRANCH   1   2
ATOM      2  C   UNL     1      -4.243   0.185   3.663  1.00  0.00     0.116 C 
BRANCH   2   3
ATOM      3  N   UNL     1      -5.642   0.561   3.731  1.00  0.00    -0.356 N 
ATOM      4  C   UNL     1      -6.335   1.438   2.945  1.00  0.00     0.226 C 
ATOM      5  O   UNL     1      -7.562   1.484   3.067  1.00  0.00    -0.275 OA
ATOM      6  H   UNL     1      -6.165   0.124   4.442  1.00  0.00     0.163 HD
BRANCH   4   7
ATOM      7  C   UNL     1      -5.622   2.300   1.916  1.00  0.00     0.157 C 
BRANCH   7   8
ATOM      8  C   UNL     1      -4.568   3.174   2.510  1.00  0.00     0.063 A 
ATOM      9  C   UNL     1      -2.483   3.875   2.614  1.00  0.00     0.189 A 
ATOM     10  N   UNL     1      -3.351   3.271   1.847  1.00  0.00    -0.224 NA
ATOM     11  S   UNL     1      -3.075   4.491   4.089  1.00  0.00    -0.105 S 
ATOM     12  C   UNL     1      -4.628   3.876   3.701  1.00  0.00     0.093 A 
BRANCH   9  13
ATOM     13  N   UNL     1      -1.152   4.066   2.418  1.00  0.00    -0.299 N 
ATOM     14  C   UNL     1      -0.452   3.809   1.281  1.00  0.00     0.264 C 
ATOM     15  O   UNL     1       0.774   3.972   1.310  1.00  0.00    -0.271 OA
ATOM     16  H   UNL     1      -0.641   4.427   3.179  1.00  0.00     0.172 HD
BRANCH  14  17
ATOM     17  C   UNL     1      -1.148   3.448  -0.044  1.00  0.00     0.329 C 
BRANCH  17  18
ATOM     18  O   UNL     1      -1.728   2.172  -0.231  1.00  0.00    -0.483 OA
BRANCH  18  19
ATOM     19  C   UNL     1      -0.936   1.059  -0.280  1.00  0.00     0.123 A 
ATOM     20  C   UNL     1       2.692  -0.088  -0.022  1.00  0.00     0.044 C 
ATOM     21  C   UNL     1       1.199  -0.115  -0.171  1.00  0.00    -0.047 A 
ATOM     22  C   UNL     1       0.528  -1.335  -0.253  1.00  0.00     0.004 A 
ATOM     23  C   UNL     1       0.461   1.076  -0.208  1.00  0.00     0.050 A 
ATOM     24  C   UNL     1      -0.859  -1.365  -0.380  1.00  0.00     0.008 A 
ATOM     25  C   UNL     1      -1.611  -0.176  -0.390  1.00  0.00    -0.003 A 
BRANCH  25  26
ATOM     26  C   UNL     1      -3.131  -0.246  -0.486  1.00  0.00     0.017 C 
ATOM     27  C   UNL     1      -3.598  -0.662  -1.882  1.00  0.00     0.012 C 
ATOM     28  C   UNL     1      -3.708  -1.198   0.563  1.00  0.00     0.012 C 
ENDBRANCH  25  26
ENDBRANCH  18  19
ENDBRANCH  17  18
ENDBRANCH  14  17
ENDBRANCH   9  13
ENDBRANCH   7   8
ENDBRANCH   4   7
ENDBRANCH   2   3
ENDBRANCH   1   2
BRANCH   1  29
ATOM     29  C   UNL     1      -3.911  -0.883   5.986  1.00  0.00     0.002 C 
BRANCH  29  30
ATOM     30  C   UNL     1      -3.810  -2.328   5.461  1.00  0.00     0.002 C 
BRANCH  30  31
ATOM     31  C   UNL     1      -2.547  -2.697   4.682  1.00  0.00     0.021 C 
BRANCH  31  32
ATOM     32  C   UNL     1      -1.252  -2.558   5.466  1.00  0.00     0.116 C 
BRANCH  32  33
ATOM     33  N   UNL     1      -0.782  -3.793   6.069  1.00  0.00    -0.352 N 
ATOM     34  C   UNL     1       0.399  -4.030   6.750  1.00  0.00     0.251 C 
ATOM     35  H   UNL     1      -1.386  -4.566   5.982  1.00  0.00     0.163 HD
ATOM     36  O   UNL     1       0.763  -5.194   6.927  1.00  0.00    -0.269 OA
BRANCH  34  37
ATOM     37  C   UNL     1       1.123  -2.899   7.381  1.00  0.00     0.039 A 
ATOM     38  C   UNL     1       1.502  -3.047   8.723  1.00  0.00     0.014 A 
ATOM     39  C   UNL     1       1.170  -1.645   6.782  1.00  0.00     0.014 A 
ATOM     40  C   UNL     1       1.635  -1.921   9.529  1.00  0.00     0.010 A 
ATOM     41  C   UNL     1       1.203  -0.533   7.589  1.00  0.00     0.010 A 
ATOM     42  C   UNL     1       1.355  -0.682   8.970  1.00  0.00    -0.014 A 
BRANCH  42  43
ATOM     43  C   UNL     1       1.220   0.556   9.712  1.00  0.00     0.031 A 
ATOM     44  C   UNL     1       2.406   1.402   9.906  1.00  0.00     0.074 A 
ATOM     45  C   UNL     1      -0.027   1.015   9.952  1.00  0.00     0.049 A 
ATOM     46  N   UNL     1       2.440   2.432  10.677  1.00  0.00    -0.248 NA
ATOM     47  C   UNL     1       3.685   1.105   9.271  1.00  0.00     0.031 C 
ATOM     48  C   UNL     1      -0.429   2.393  10.191  1.00  0.00     0.029 A 
ATOM     49  N   UNL     1      -1.181   0.269  10.216  1.00  0.00    -0.354 N 
ATOM     50  C   UNL     1       3.608   3.105  10.393  1.00  0.00     0.074 A 
ATOM     51  C   UNL     1       4.406   2.162   9.655  1.00  0.00     0.031 C 
ATOM     52  C   UNL     1      -1.620   2.393  10.809  1.00  0.00     0.029 A 
ATOM     53  C   UNL     1      -1.918   1.014  11.154  1.00  0.00     0.049 A 
ATOM     54  H   UNL     1      -1.428  -0.601   9.825  1.00  0.00     0.167 HD
ATOM     55  C   UNL     1       3.670   4.436  10.675  1.00  0.00     0.034 A 
ATOM     56  C   UNL     1      -2.211   0.567  12.411  1.00  0.00     0.034 A 
ATOM     57  C   UNL     1       2.519   4.838  11.503  1.00  0.00     0.049 A 
ATOM     58  C   UNL     1      -1.630   1.450  13.502  1.00  0.00     0.074 A 
ATOM     59  C   UNL     1       1.334   5.498  11.225  1.00  0.00     0.029 A 
ATOM     60  N   UNL     1       2.369   4.284  12.773  1.00  0.00    -0.354 N 
ATOM     61  N   UNL     1      -0.819   2.449  13.281  1.00  0.00    -0.248 NA
ATOM     62  C   UNL     1      -1.897   1.272  14.927  1.00  0.00     0.031 C 
ATOM     63  C   UNL     1       0.425   5.226  12.287  1.00  0.00     0.029 A 
ATOM     64  C   UNL     1       1.070   4.446  13.233  1.00  0.00     0.049 A 
ATOM     65  H   UNL     1       3.088   3.838  13.276  1.00  0.00     0.167 HD
ATOM     66  C   UNL     1      -0.354   2.953  14.466  1.00  0.00     0.074 A 
ATOM     67  C   UNL     1      -1.127   2.234  15.467  1.00  0.00     0.031 C 
ATOM     68  C   UNL     1       0.664   3.870  14.517  1.00  0.00     0.034 A 
BRANCH  55  69
ATOM     69  C   UNL     1       4.614   5.449  10.030  1.00  0.00     0.023 A 
ATOM     70  C   UNL     1       4.400   6.811  10.344  1.00  0.00     0.012 A 
ATOM     71  C   UNL     1       5.623   5.200   9.064  1.00  0.00     0.148 A 
ATOM     72  C   UNL     1       5.103   7.852   9.722  1.00  0.00     0.002 A 
ATOM     73  C   UNL     1       6.353   6.235   8.468  1.00  0.00     0.091 A 
ATOM     74  F   UNL     1       5.873   3.961   8.649  1.00  0.00    -0.205 F 
ATOM     75  C   UNL     1       6.083   7.566   8.784  1.00  0.00     0.022 A 
BRANCH  73  76
ATOM     76  S   UNL     1       7.658   5.931   7.257  1.00  0.00     0.127 S 
ATOM     77  O   UNL     1       7.105   6.546   6.051  1.00  0.00    -0.237 OA
ATOM     78  O   UNL     1       8.794   6.645   7.838  1.00  0.00    -0.237 OA
ATOM     79  O   UNL     1       7.828   4.484   7.183  1.00  0.00    -0.744 OA
ENDBRANCH  73  76
ENDBRANCH  55  69
BRANCH  56  80
ATOM     80  C   UNL     1      -2.410  -0.910  12.481  1.00  0.00     0.023 A 
ATOM     81  C   UNL     1      -3.533  -1.423  11.787  1.00  0.00     0.012 A 
ATOM     82  C   UNL     1      -1.346  -1.777  12.788  1.00  0.00     0.148 A 
ATOM     83  C   UNL     1      -3.528  -2.720  11.274  1.00  0.00     0.002 A 
ATOM     84  C   UNL     1      -1.346  -3.070  12.264  1.00  0.00     0.091 A 
ATOM     85  F   UNL     1      -0.313  -1.297  13.491  1.00  0.00    -0.205 F 
ATOM     86  C   UNL     1      -2.415  -3.527  11.476  1.00  0.00     0.022 A 
BRANCH  84  87
ATOM     87  S   UNL     1       0.078  -4.158  12.417  1.00  0.00     0.127 S 
ATOM     88  O   UNL     1      -0.340  -5.038  13.504  1.00  0.00    -0.237 OA
ATOM     89  O   UNL     1       0.126  -4.790  11.100  1.00  0.00    -0.237 OA
ATOM     90  O   UNL     1       1.200  -3.275  12.699  1.00  0.00    -0.744 OA
ENDBRANCH  84  87
ENDBRANCH  56  80
BRANCH  68  91
ATOM     91  C   UNL     1       1.393   4.303  15.779  1.00  0.00     0.023 A 
ATOM     92  C   UNL     1       1.412   3.520  16.950  1.00  0.00     0.012 A 
ATOM     93  C   UNL     1       2.218   5.460  15.780  1.00  0.00     0.148 A 
ATOM     94  C   UNL     1       2.148   3.892  18.081  1.00  0.00     0.002 A 
ATOM     95  C   UNL     1       3.041   5.759  16.864  1.00  0.00     0.091 A 
ATOM     96  F   UNL     1       2.198   6.296  14.732  1.00  0.00    -0.205 F 
ATOM     97  C   UNL     1       2.982   4.998  18.031  1.00  0.00     0.022 A 
BRANCH  95  98
ATOM     98  S   UNL     1       4.317   7.022  16.735  1.00  0.00     0.127 S 
ATOM     99  O   UNL     1       3.637   8.198  17.271  1.00  0.00    -0.237 OA
ATOM    100  O   UNL     1       5.377   6.487  17.592  1.00  0.00    -0.237 OA
ATOM    101  O   UNL     1       4.663   7.064  15.320  1.00  0.00    -0.744 OA
ENDBRANCH  95  98
ENDBRANCH  68  91
ENDBRANCH  42  43
ENDBRANCH  34  37
ENDBRANCH  32  33
ENDBRANCH  31  32
ENDBRANCH  30  31
ENDBRANCH  29  30
ENDBRANCH   1  29
TORSDOF 22
