REMARK SMILES O=C(NCCCCCCNC(=O)c1cc(NS(=O)(=O)c2ccc3c(c2)OCCCO3)ccc1N1CCSCC1)c1ccc(-c2c3nc(c(-c4cccc(S(=O)(=O)[O-])c4F)c4ccc([nH]4)c(-c4cccc(S(=O)(=O)[O-])c4F)c4nc(c(-c5cccc(S(=O)(=O)[O-])c5F)c5ccc2[nH]5)C=C4)C=C3)cc1
REMARK SMILES IDX 8 1 7 2 6 3 5 4 4 5 3 6 1 7 2 8 40 10 41 11 102 12 42 13
REMARK SMILES IDX 101 14 43 15 44 16 45 17 95 18 46 19 100 20 94 21 96 22
REMARK SMILES IDX 47 23 99 24 93 25 92 26 48 28 80 29 60 30 79 31 61 32 64 33
REMARK SMILES IDX 78 34 97 35 62 36 63 37 77 39 98 40 65 41 49 42 50 43 58 44
REMARK SMILES IDX 51 45 53 46 59 47 52 48 54 49 55 50 56 51 57 52 81 53 82 54
REMARK SMILES IDX 90 55 83 56 85 57 91 58 84 59 86 60 87 61 88 62 89 63 66 64
REMARK SMILES IDX 67 65 75 66 68 67 70 68 76 69 69 70 71 71 72 72 73 73 74 74
REMARK SMILES IDX 9 75 10 76 11 77 12 79 13 80 14 81 33 82 15 83 32 84 31 85
REMARK SMILES IDX 34 86 35 87 39 88 36 89 38 90 37 91 16 92 17 94 18 95 19 96
REMARK SMILES IDX 20 97 21 98 25 99 22 100 24 101 23 102 26 103 27 104 30 106
REMARK SMILES IDX 29 107 28 108
REMARK H PARENT 3 9 96 27 64 38 10 78 16 93
REMARK Flexibility Score: 90.00
ROOT
ATOM      1  C   UNL     1       5.107   4.247  -2.427  1.00  0.00     0.021 C 
ENDROOT
BRANCH   1   2
ATOM      2  C   UNL     1       3.782   3.574  -2.788  1.00  0.00     0.002 C 
BRANCH   2   3
ATOM      3  C   UNL     1       3.773   2.149  -3.355  1.00  0.00     0.002 C 
BRANCH   3   4
ATOM      4  C   UNL     1       4.491   1.034  -2.594  1.00  0.00     0.021 C 
BRANCH   4   5
ATOM      5  C   UNL     1       4.224   0.923  -1.101  1.00  0.00     0.116 C 
BRANCH   5   6
ATOM      6  N   UNL     1       2.817   0.822  -0.749  1.00  0.00    -0.352 N 
ATOM      7  O   UNL     1       0.987   0.012   0.295  1.00  0.00    -0.269 OA
ATOM      8  C   UNL     1       2.210   0.011   0.186  1.00  0.00     0.251 C 
ATOM      9  H   UNL     1       2.212   1.418  -1.248  1.00  0.00     0.163 HD
BRANCH   8  10
ATOM     10  C   UNL     1       3.036  -0.884   1.028  1.00  0.00     0.039 A 
ATOM     11  C   UNL     1       4.224  -0.422   1.594  1.00  0.00     0.014 A 
ATOM     12  C   UNL     1       2.629  -2.206   1.241  1.00  0.00     0.014 A 
ATOM     13  C   UNL     1       5.083  -1.315   2.217  1.00  0.00     0.010 A 
ATOM     14  C   UNL     1       3.445  -3.078   1.973  1.00  0.00     0.010 A 
ATOM     15  C   UNL     1       4.694  -2.646   2.443  1.00  0.00    -0.014 A 
BRANCH  15  16
ATOM     16  C   UNL     1       5.578  -3.507   3.272  1.00  0.00     0.031 A 
ATOM     17  C   UNL     1       6.205  -4.762   2.732  1.00  0.00     0.074 A 
ATOM     18  C   UNL     1       5.842  -3.103   4.531  1.00  0.00     0.049 A 
ATOM     19  N   UNL     1       7.055  -5.567   3.318  1.00  0.00    -0.248 NA
ATOM     20  C   UNL     1       5.833  -5.176   1.370  1.00  0.00     0.031 C 
ATOM     21  C   UNL     1       5.239  -1.933   5.179  1.00  0.00     0.029 A 
ATOM     22  N   UNL     1       6.686  -3.606   5.485  1.00  0.00    -0.354 N 
ATOM     23  C   UNL     1       7.297  -6.596   2.415  1.00  0.00     0.074 A 
ATOM     24  C   UNL     1       6.494  -6.321   1.243  1.00  0.00     0.031 C 
ATOM     25  C   UNL     1       5.765  -1.781   6.400  1.00  0.00     0.029 A 
ATOM     26  C   UNL     1       6.687  -2.880   6.653  1.00  0.00     0.049 A 
ATOM     27  H   UNL     1       7.239  -4.410   5.348  1.00  0.00     0.167 HD
ATOM     28  C   UNL     1       8.126  -7.661   2.548  1.00  0.00     0.034 A 
ATOM     29  C   UNL     1       7.337  -3.084   7.813  1.00  0.00     0.034 A 
ATOM     30  C   UNL     1       8.933  -7.915   3.715  1.00  0.00     0.049 A 
ATOM     31  C   UNL     1       8.267  -4.255   7.916  1.00  0.00     0.074 A 
ATOM     32  C   UNL     1       9.831  -8.946   3.934  1.00  0.00     0.029 A 
ATOM     33  N   UNL     1       8.938  -7.136   4.863  1.00  0.00    -0.354 N 
ATOM     34  N   UNL     1       8.567  -5.150   7.006  1.00  0.00    -0.248 NA
ATOM     35  C   UNL     1       8.972  -4.428   9.192  1.00  0.00     0.031 C 
ATOM     36  C   UNL     1      10.362  -8.802   5.220  1.00  0.00     0.029 A 
ATOM     37  C   UNL     1       9.820  -7.663   5.793  1.00  0.00     0.049 A 
ATOM     38  H   UNL     1       8.395  -6.326   4.997  1.00  0.00     0.167 HD
ATOM     39  C   UNL     1       9.504  -5.987   7.595  1.00  0.00     0.074 A 
ATOM     40  C   UNL     1       9.757  -5.461   8.922  1.00  0.00     0.031 C 
ATOM     41  C   UNL     1      10.084  -7.106   7.095  1.00  0.00     0.034 A 
BRANCH  28  42
ATOM     42  C   UNL     1       8.242  -8.618   1.387  1.00  0.00     0.023 A 
ATOM     43  C   UNL     1       8.935  -8.219   0.226  1.00  0.00     0.012 A 
ATOM     44  C   UNL     1       7.747  -9.935   1.475  1.00  0.00     0.148 A 
ATOM     45  C   UNL     1       9.113  -9.104  -0.838  1.00  0.00     0.002 A 
ATOM     46  C   UNL     1       7.964 -10.825   0.428  1.00  0.00     0.091 A 
ATOM     47  F   UNL     1       7.078 -10.294   2.580  1.00  0.00    -0.205 F 
ATOM     48  C   UNL     1       8.638 -10.408  -0.732  1.00  0.00     0.022 A 
BRANCH  46  49
ATOM     49  S   UNL     1       7.463 -12.549   0.492  1.00  0.00     0.127 S 
ATOM     50  O   UNL     1       6.420 -12.592  -0.533  1.00  0.00    -0.237 OA
ATOM     51  O   UNL     1       8.700 -13.242   0.131  1.00  0.00    -0.237 OA
ATOM     52  O   UNL     1       7.005 -12.786   1.854  1.00  0.00    -0.744 OA
ENDBRANCH  46  49
ENDBRANCH  28  42
BRANCH  29  53
ATOM     53  C   UNL     1       7.130  -2.149   8.954  1.00  0.00     0.023 A 
ATOM     54  C   UNL     1       8.185  -1.327   9.392  1.00  0.00     0.012 A 
ATOM     55  C   UNL     1       5.873  -2.047   9.583  1.00  0.00     0.148 A 
ATOM     56  C   UNL     1       8.001  -0.445  10.458  1.00  0.00     0.002 A 
ATOM     57  C   UNL     1       5.678  -1.119  10.596  1.00  0.00     0.091 A 
ATOM     58  F   UNL     1       4.885  -2.850   9.164  1.00  0.00    -0.205 F 
ATOM     59  C   UNL     1       6.745  -0.331  11.050  1.00  0.00     0.022 A 
BRANCH  57  60
ATOM     60  S   UNL     1       4.054  -0.804  11.295  1.00  0.00     0.127 S 
ATOM     61  O   UNL     1       4.148  -1.481  12.585  1.00  0.00    -0.237 OA
ATOM     62  O   UNL     1       4.030   0.658  11.365  1.00  0.00    -0.237 OA
ATOM     63  O   UNL     1       3.107  -1.369  10.343  1.00  0.00    -0.744 OA
ENDBRANCH  57  60
ENDBRANCH  29  53
BRANCH  41  64
ATOM     64  C   UNL     1      11.065  -7.819   7.987  1.00  0.00     0.023 A 
ATOM     65  C   UNL     1      10.602  -8.511   9.125  1.00  0.00     0.012 A 
ATOM     66  C   UNL     1      12.441  -7.821   7.688  1.00  0.00     0.148 A 
ATOM     67  C   UNL     1      11.499  -9.153   9.978  1.00  0.00     0.002 A 
ATOM     68  C   UNL     1      13.323  -8.507   8.514  1.00  0.00     0.091 A 
ATOM     69  F   UNL     1      12.864  -7.139   6.614  1.00  0.00    -0.205 F 
ATOM     70  C   UNL     1      12.857  -9.159   9.667  1.00  0.00     0.022 A 
BRANCH  68  71
ATOM     71  S   UNL     1      15.074  -8.645   8.141  1.00  0.00     0.127 S 
ATOM     72  O   UNL     1      15.660  -7.733   9.121  1.00  0.00    -0.237 OA
ATOM     73  O   UNL     1      15.334 -10.063   8.394  1.00  0.00    -0.237 OA
ATOM     74  O   UNL     1      15.218  -8.246   6.747  1.00  0.00    -0.744 OA
ENDBRANCH  68  71
ENDBRANCH  41  64
ENDBRANCH  15  16
ENDBRANCH   8  10
ENDBRANCH   5   6
ENDBRANCH   4   5
ENDBRANCH   3   4
ENDBRANCH   2   3
ENDBRANCH   1   2
BRANCH   1  75
ATOM     75  C   UNL     1       6.269   4.177  -3.412  1.00  0.00     0.116 C 
BRANCH  75  76
ATOM     76  N   UNL     1       6.152   4.921  -4.748  1.00  0.00    -0.352 N 
ATOM     77  C   UNL     1       7.039   5.007  -6.110  1.00  0.00     0.253 C 
ATOM     78  H   UNL     1       5.345   5.483  -4.792  1.00  0.00     0.163 HD
ATOM     79  O   UNL     1       6.085   5.423  -6.828  1.00  0.00    -0.269 OA
BRANCH  77  80
ATOM     80  C   UNL     1       8.971   4.376  -6.551  1.00  0.00     0.065 A 
ATOM     81  C   UNL     1      10.112   5.252  -6.319  1.00  0.00     0.042 A 
ATOM     82  C   UNL     1       9.764   3.011  -6.767  1.00  0.00     0.050 A 
ATOM     83  C   UNL     1      11.503   5.331  -6.537  1.00  0.00     0.050 A 
ATOM     84  C   UNL     1      11.231   3.002  -6.945  1.00  0.00     0.029 A 
ATOM     85  C   UNL     1      12.073   4.124  -6.842  1.00  0.00     0.029 A 
BRANCH  82  86
ATOM     86  N   UNL     1       9.372   1.598  -6.665  1.00  0.00    -0.369 N 
ATOM     87  C   UNL     1       8.521   0.928  -7.681  1.00  0.00     0.127 C 
ATOM     88  C   UNL     1       9.738   0.863  -5.389  1.00  0.00     0.127 C 
ATOM     89  C   UNL     1       8.565  -0.587  -7.817  1.00  0.00     0.091 C 
ATOM     90  C   UNL     1       9.754  -0.674  -5.452  1.00  0.00     0.091 C 
ATOM     91  S   UNL     1       8.285  -1.386  -6.229  1.00  0.00    -0.158 SA
ENDBRANCH  82  86
BRANCH  83  92
ATOM     92  N   UNL     1      12.210   6.261  -5.671  1.00  0.00    -0.280 N 
ATOM     93  H   UNL     1      13.003   5.955  -5.175  1.00  0.00     0.180 HD
BRANCH  92  94
ATOM     94  S   UNL     1      11.681   7.875  -5.502  1.00  0.00     0.262 S 
ATOM     95  O   UNL     1      12.611   8.526  -4.604  1.00  0.00    -0.201 OA
ATOM     96  O   UNL     1      11.516   8.379  -6.855  1.00  0.00    -0.201 OA
BRANCH  94  97
ATOM     97  C   UNL     1       9.975   7.975  -4.629  1.00  0.00     0.091 A 
ATOM     98  C   UNL     1       9.205   8.868  -5.415  1.00  0.00     0.026 A 
ATOM     99  C   UNL     1       9.410   6.778  -4.079  1.00  0.00     0.072 A 
ATOM    100  C   UNL     1       8.295   8.322  -6.297  1.00  0.00     0.052 A 
ATOM    101  C   UNL     1       8.420   6.166  -4.880  1.00  0.00     0.162 A 
ATOM    102  C   UNL     1       8.112   6.945  -6.239  1.00  0.00     0.161 A 
BRANCH 101 103
ATOM    103  O   UNL     1       8.312   4.408  -4.628  1.00  0.00    -0.490 OA
BRANCH 103 104
ATOM    104  C   UNL     1       7.438   3.123  -5.721  1.00  0.00     0.233 CG0
ATOM    105  G   UNL     1       7.204   3.521  -7.619  1.00  0.00     0.000 G0
ENDBRANCH 103 104
ENDBRANCH 101 103
BRANCH 102 106
ATOM    106  O   UNL     1       7.913   6.495  -7.614  1.00  0.00    -0.490 OA
BRANCH 106 107
ATOM    107  C   UNL     1       7.735   5.132  -8.375  1.00  0.00     0.233 C 
BRANCH 107 108
ATOM    108  C   UNL     1       7.204   3.521  -7.619  1.00  0.00     0.083 CG0
ATOM    109  G   UNL     1       7.438   3.123  -5.721  1.00  0.00     0.000 G0
ENDBRANCH 107 108
ENDBRANCH 106 107
ENDBRANCH 102 106
ENDBRANCH  94  97
ENDBRANCH  92  94
ENDBRANCH  83  92
ENDBRANCH  77  80
ENDBRANCH  75  76
ENDBRANCH   1  75
TORSDOF 20
