REMARK SMILES O=C(NCCCCCCNC(=O)c1cnc2c(C(F)(F)F)cccc2c1Nc1cccc(O)c1)c1ccc(-c2c3nc(c(-c4cccc(S(=O)(=O)[O-])c4F)c4ccc([nH]4)c(-c4cccc(S(=O)(=O)[O-])c4F)c4nc(c(-c5cccc(S(=O)(=O)[O-])c5F)c5ccc2[nH]5)C=C4)C=C3)cc1
REMARK SMILES IDX 6 1 5 2 4 3 3 4 1 5 2 6 35 8 36 9 97 10 37 11 96 12 38 13
REMARK SMILES IDX 39 14 40 15 90 16 41 17 95 18 89 19 91 20 42 21 94 22 88 23
REMARK SMILES IDX 87 24 43 26 75 27 55 28 74 29 56 30 59 31 73 32 92 33 57 34
REMARK SMILES IDX 58 35 72 37 93 38 60 39 44 40 45 41 53 42 46 43 48 44 54 45
REMARK SMILES IDX 47 46 49 47 50 48 51 49 52 50 76 51 77 52 85 53 78 54 80 55
REMARK SMILES IDX 86 56 79 57 81 58 82 59 83 60 84 61 61 62 62 63 70 64 63 65
REMARK SMILES IDX 65 66 71 67 64 68 66 69 67 70 68 71 69 72 7 73 8 74 9 75
REMARK SMILES IDX 10 76 11 77 12 79 13 80 14 81 26 82 15 83 25 84 16 85 24 86
REMARK SMILES IDX 17 87 23 88 22 89 27 90 28 92 29 93 34 94 30 95 32 96 31 97
REMARK SMILES IDX 33 98 18 100 19 101 20 102 21 103
REMARK H PARENT 3 7 91 25 59 36 10 78 27 91 33 99
REMARK Flexibility Score: inf
ROOT
ATOM      1  C   UNL     1       4.239   1.874  -3.662  1.00  0.00     0.002 C 
ENDROOT
BRANCH   1   2
ATOM      2  C   UNL     1       4.676   0.660  -2.844  1.00  0.00     0.021 C 
BRANCH   2   3
ATOM      3  C   UNL     1       4.453   0.765  -1.343  1.00  0.00     0.116 C 
BRANCH   3   4
ATOM      4  N   UNL     1       3.048   0.770  -0.973  1.00  0.00    -0.352 N 
ATOM      5  O   UNL     1       1.178   0.044   0.057  1.00  0.00    -0.269 OA
ATOM      6  C   UNL     1       2.402  -0.001  -0.032  1.00  0.00     0.251 C 
ATOM      7  H   UNL     1       2.482   1.410  -1.461  1.00  0.00     0.163 HD
BRANCH   6   8
ATOM      8  C   UNL     1       3.186  -0.904   0.844  1.00  0.00     0.039 A 
ATOM      9  C   UNL     1       4.372  -0.468   1.437  1.00  0.00     0.014 A 
ATOM     10  C   UNL     1       2.735  -2.209   1.066  1.00  0.00     0.014 A 
ATOM     11  C   UNL     1       5.181  -1.374   2.113  1.00  0.00     0.010 A 
ATOM     12  C   UNL     1       3.506  -3.095   1.829  1.00  0.00     0.010 A 
ATOM     13  C   UNL     1       4.753  -2.696   2.331  1.00  0.00    -0.014 A 
BRANCH  13  14
ATOM     14  C   UNL     1       5.603  -3.593   3.159  1.00  0.00     0.031 A 
ATOM     15  C   UNL     1       6.234  -4.837   2.596  1.00  0.00     0.074 A 
ATOM     16  C   UNL     1       5.838  -3.240   4.440  1.00  0.00     0.049 A 
ATOM     17  N   UNL     1       7.079  -5.657   3.170  1.00  0.00    -0.248 NA
ATOM     18  C   UNL     1       5.870  -5.221   1.224  1.00  0.00     0.031 C 
ATOM     19  C   UNL     1       5.227  -2.093   5.117  1.00  0.00     0.029 A 
ATOM     20  N   UNL     1       6.656  -3.790   5.393  1.00  0.00    -0.354 N 
ATOM     21  C   UNL     1       7.327  -6.665   2.245  1.00  0.00     0.074 A 
ATOM     22  C   UNL     1       6.532  -6.362   1.074  1.00  0.00     0.031 C 
ATOM     23  C   UNL     1       5.725  -1.997   6.357  1.00  0.00     0.029 A 
ATOM     24  C   UNL     1       6.655  -3.098   6.581  1.00  0.00     0.049 A 
ATOM     25  H   UNL     1       7.192  -4.601   5.241  1.00  0.00     0.167 HD
ATOM     26  C   UNL     1       8.158  -7.730   2.355  1.00  0.00     0.034 A 
ATOM     27  C   UNL     1       7.327  -3.319   7.727  1.00  0.00     0.034 A 
ATOM     28  C   UNL     1       8.973  -8.009   3.509  1.00  0.00     0.049 A 
ATOM     29  C   UNL     1       8.289  -4.468   7.793  1.00  0.00     0.074 A 
ATOM     30  C   UNL     1       9.874  -9.043   3.698  1.00  0.00     0.029 A 
ATOM     31  N   UNL     1       8.991  -7.251   4.670  1.00  0.00    -0.354 N 
ATOM     32  N   UNL     1       8.602  -5.334   6.859  1.00  0.00    -0.248 NA
ATOM     33  C   UNL     1       9.013  -4.655   9.057  1.00  0.00     0.031 C 
ATOM     34  C   UNL     1      10.434  -8.912   4.974  1.00  0.00     0.029 A 
ATOM     35  C   UNL     1       9.888  -7.792   5.577  1.00  0.00     0.049 A 
ATOM     36  H   UNL     1       8.446  -6.447   4.827  1.00  0.00     0.167 HD
ATOM     37  C   UNL     1       9.562  -6.165   7.420  1.00  0.00     0.074 A 
ATOM     38  C   UNL     1       9.815  -5.669   8.758  1.00  0.00     0.031 C 
ATOM     39  C   UNL     1      10.157  -7.262   6.889  1.00  0.00     0.034 A 
BRANCH  26  40
ATOM     40  C   UNL     1       8.283  -8.652   1.168  1.00  0.00     0.023 A 
ATOM     41  C   UNL     1       9.037  -8.235   0.052  1.00  0.00     0.012 A 
ATOM     42  C   UNL     1       7.740  -9.952   1.188  1.00  0.00     0.148 A 
ATOM     43  C   UNL     1       9.234  -9.089  -1.033  1.00  0.00     0.002 A 
ATOM     44  C   UNL     1       7.970 -10.810   0.117  1.00  0.00     0.091 A 
ATOM     45  F   UNL     1       7.011 -10.325   2.249  1.00  0.00    -0.205 F 
ATOM     46  C   UNL     1       8.711 -10.378  -0.996  1.00  0.00     0.022 A 
BRANCH  44  47
ATOM     47  S   UNL     1       7.399 -12.514   0.097  1.00  0.00     0.127 S 
ATOM     48  O   UNL     1       6.326 -12.454  -0.895  1.00  0.00    -0.237 OA
ATOM     49  O   UNL     1       8.593 -13.237  -0.341  1.00  0.00    -0.237 OA
ATOM     50  O   UNL     1       6.975 -12.811   1.458  1.00  0.00    -0.744 OA
ENDBRANCH  44  47
ENDBRANCH  26  40
BRANCH  27  51
ATOM     51  C   UNL     1       7.146  -2.388   8.876  1.00  0.00     0.023 A 
ATOM     52  C   UNL     1       8.199  -1.534   9.253  1.00  0.00     0.012 A 
ATOM     53  C   UNL     1       5.915  -2.301   9.553  1.00  0.00     0.148 A 
ATOM     54  C   UNL     1       8.034  -0.624  10.299  1.00  0.00     0.002 A 
ATOM     55  C   UNL     1       5.737  -1.348  10.549  1.00  0.00     0.091 A 
ATOM     56  F   UNL     1       4.929  -3.138   9.199  1.00  0.00    -0.205 F 
ATOM     57  C   UNL     1       6.800  -0.520  10.936  1.00  0.00     0.022 A 
BRANCH  55  58
ATOM     58  S   UNL     1       4.124  -1.056  11.283  1.00  0.00     0.127 S 
ATOM     59  O   UNL     1       4.190  -1.871  12.492  1.00  0.00    -0.237 OA
ATOM     60  O   UNL     1       4.140   0.389  11.512  1.00  0.00    -0.237 OA
ATOM     61  O   UNL     1       3.169  -1.482  10.268  1.00  0.00    -0.744 OA
ENDBRANCH  55  58
ENDBRANCH  27  51
BRANCH  39  62
ATOM     62  C   UNL     1      11.131  -8.002   7.766  1.00  0.00     0.023 A 
ATOM     63  C   UNL     1      10.641  -8.784   8.831  1.00  0.00     0.012 A 
ATOM     64  C   UNL     1      12.516  -7.957   7.520  1.00  0.00     0.148 A 
ATOM     65  C   UNL     1      11.518  -9.480   9.662  1.00  0.00     0.002 A 
ATOM     66  C   UNL     1      13.381  -8.686   8.328  1.00  0.00     0.091 A 
ATOM     67  F   UNL     1      12.966  -7.187   6.518  1.00  0.00    -0.205 F 
ATOM     68  C   UNL     1      12.886  -9.439   9.404  1.00  0.00     0.022 A 
BRANCH  66  69
ATOM     69  S   UNL     1      15.149  -8.746   8.013  1.00  0.00     0.127 S 
ATOM     70  O   UNL     1      15.657  -7.766   8.970  1.00  0.00    -0.237 OA
ATOM     71  O   UNL     1      15.480 -10.136   8.331  1.00  0.00    -0.237 OA
ATOM     72  O   UNL     1      15.308  -8.400   6.607  1.00  0.00    -0.744 OA
ENDBRANCH  66  69
ENDBRANCH  39  62
ENDBRANCH  13  14
ENDBRANCH   6   8
ENDBRANCH   3   4
ENDBRANCH   2   3
ENDBRANCH   1   2
BRANCH   1  73
ATOM     73  C   UNL     1       4.826   3.222  -3.236  1.00  0.00     0.002 C 
BRANCH  73  74
ATOM     74  C   UNL     1       6.347   3.283  -3.070  1.00  0.00     0.021 C 
BRANCH  74  75
ATOM     75  C   UNL     1       7.177   2.779  -4.248  1.00  0.00     0.116 C 
BRANCH  75  76
ATOM     76  N   UNL     1       6.846   3.413  -5.513  1.00  0.00    -0.352 N 
ATOM     77  C   UNL     1       7.686   3.981  -6.443  1.00  0.00     0.254 C 
ATOM     78  H   UNL     1       5.887   3.440  -5.735  1.00  0.00     0.163 HD
ATOM     79  O   UNL     1       7.260   4.349  -7.532  1.00  0.00    -0.269 OA
BRANCH  77  80
ATOM     80  C   UNL     1       9.122   4.062  -6.146  1.00  0.00     0.082 A 
ATOM     81  C   UNL     1       9.793   2.851  -6.167  1.00  0.00     0.127 A 
ATOM     82  C   UNL     1       9.861   5.239  -5.950  1.00  0.00     0.062 A 
ATOM     83  N   UNL     1      11.110   2.710  -5.923  1.00  0.00    -0.255 NA
ATOM     84  C   UNL     1      11.263   5.103  -5.668  1.00  0.00     0.025 A 
ATOM     85  C   UNL     1      11.836   3.803  -5.665  1.00  0.00     0.085 A 
ATOM     86  C   UNL     1      12.111   6.202  -5.381  1.00  0.00     0.012 A 
ATOM     87  C   UNL     1      13.192   3.642  -5.390  1.00  0.00     0.082 A 
ATOM     88  C   UNL     1      13.469   6.032  -5.121  1.00  0.00     0.001 A 
ATOM     89  C   UNL     1      14.008   4.756  -5.126  1.00  0.00     0.015 A 
BRANCH  82  90
ATOM     90  N   UNL     1       9.309   6.552  -6.001  1.00  0.00    -0.354 N 
ATOM     91  H   UNL     1       9.978   7.271  -6.069  1.00  0.00     0.167 HD
BRANCH  90  92
ATOM     92  C   UNL     1       7.976   6.999  -5.972  1.00  0.00     0.042 A 
ATOM     93  C   UNL     1       7.105   6.659  -4.932  1.00  0.00     0.026 A 
ATOM     94  C   UNL     1       7.473   7.727  -7.057  1.00  0.00     0.072 A 
ATOM     95  C   UNL     1       5.752   7.009  -4.988  1.00  0.00     0.006 A 
ATOM     96  C   UNL     1       6.123   8.063  -7.113  1.00  0.00     0.117 A 
ATOM     97  C   UNL     1       5.255   7.705  -6.088  1.00  0.00     0.046 A 
BRANCH  96  98
ATOM     98  O   UNL     1       5.681   8.734  -8.216  1.00  0.00    -0.508 OA
ATOM     99  H   UNL     1       4.778   8.976  -8.286  1.00  0.00     0.293 HD
ENDBRANCH  96  98
ENDBRANCH  90  92
ENDBRANCH  82  90
BRANCH  87 100
ATOM    100  C   UNL     1      13.777   2.253  -5.361  1.00  0.00     0.418 C 
ATOM    101  F   UNL     1      13.241   1.458  -4.394  1.00  0.00    -0.166 F 
ATOM    102  F   UNL     1      13.655   1.581  -6.539  1.00  0.00    -0.166 F 
ATOM    103  F   UNL     1      15.122   2.262  -5.103  1.00  0.00    -0.166 F 
ENDBRANCH  87 100
ENDBRANCH  77  80
ENDBRANCH  75  76
ENDBRANCH  74  75
ENDBRANCH  73  74
ENDBRANCH   1  73
TORSDOF 20
