REMARK SMILES O=C(NCCCCCCNC(=O)[C@@]1([C@@H]2CCO[C@@]3(CCOC3)C2)CCOC1)c1ccc(-c2c3nc(c(-c4cccc(S(=O)(=O)[O-])c4F)c4ccc([nH]4)c(-c4cccc(S(=O)(=O)[O-])c4F)c4nc(c(-c5cccc(S(=O)(=O)[O-])c5F)c5ccc2[nH]5)C=C4)C=C3)cc1
REMARK SMILES IDX 5 1 4 2 3 3 1 4 2 5 28 7 29 8 90 9 30 10 89 11 31 12 32 13
REMARK SMILES IDX 33 14 83 15 34 16 88 17 82 18 84 19 35 20 87 21 81 22 80 23
REMARK SMILES IDX 36 25 68 26 48 27 67 28 49 29 52 30 66 31 85 32 50 33 51 34
REMARK SMILES IDX 65 36 86 37 53 38 37 39 38 40 46 41 39 42 41 43 47 44 40 45
REMARK SMILES IDX 42 46 43 47 44 48 45 49 69 50 70 51 78 52 71 53 73 54 79 55
REMARK SMILES IDX 72 56 74 57 75 58 76 59 77 60 54 61 55 62 63 63 56 64 58 65
REMARK SMILES IDX 64 66 57 67 59 68 60 69 61 70 62 71 6 72 7 73 8 74 9 75
REMARK SMILES IDX 10 76 11 77 12 79 13 80 24 81 27 82 25 83 26 84 14 85 15 86
REMARK SMILES IDX 23 87 16 88 18 89 17 90 19 91 22 92 20 93 21 94
REMARK H PARENT 3 6 84 24 52 35 10 78
REMARK Flexibility Score: inf
ROOT
ATOM      1  C   UNL     1      11.168   2.412  -3.115  1.00  0.00     0.021 C 
ENDROOT
BRANCH   1   2
ATOM      2  C   UNL     1      10.386   1.293  -3.787  1.00  0.00     0.116 C 
BRANCH   2   3
ATOM      3  N   UNL     1      10.370   1.408  -5.234  1.00  0.00    -0.352 N 
ATOM      4  O   UNL     1      10.831   0.805  -7.355  1.00  0.00    -0.269 OA
ATOM      5  C   UNL     1      10.751   0.481  -6.180  1.00  0.00     0.251 C 
ATOM      6  H   UNL     1      10.044   2.266  -5.588  1.00  0.00     0.163 HD
BRANCH   5   7
ATOM      7  C   UNL     1      11.081  -0.900  -5.752  1.00  0.00     0.039 A 
ATOM      8  C   UNL     1      10.273  -1.568  -4.830  1.00  0.00     0.014 A 
ATOM      9  C   UNL     1      12.208  -1.534  -6.284  1.00  0.00     0.014 A 
ATOM     10  C   UNL     1      10.662  -2.807  -4.336  1.00  0.00     0.010 A 
ATOM     11  C   UNL     1      12.544  -2.824  -5.858  1.00  0.00     0.010 A 
ATOM     12  C   UNL     1      11.782  -3.465  -4.869  1.00  0.00    -0.014 A 
BRANCH  12  13
ATOM     13  C   UNL     1      12.046  -4.871  -4.469  1.00  0.00     0.031 A 
ATOM     14  C   UNL     1      13.308  -5.273  -3.759  1.00  0.00     0.074 A 
ATOM     15  C   UNL     1      11.113  -5.797  -4.773  1.00  0.00     0.049 A 
ATOM     16  N   UNL     1      13.667  -6.460  -3.341  1.00  0.00    -0.248 NA
ATOM     17  C   UNL     1      14.298  -4.219  -3.485  1.00  0.00     0.031 C 
ATOM     18  C   UNL     1       9.870  -5.529  -5.505  1.00  0.00     0.029 A 
ATOM     19  N   UNL     1      11.059  -7.143  -4.519  1.00  0.00    -0.354 N 
ATOM     20  C   UNL     1      14.935  -6.309  -2.794  1.00  0.00     0.074 A 
ATOM     21  C   UNL     1      15.285  -4.910  -2.927  1.00  0.00     0.031 C 
ATOM     22  C   UNL     1       9.172  -6.665  -5.624  1.00  0.00     0.029 A 
ATOM     23  C   UNL     1       9.943  -7.754  -5.041  1.00  0.00     0.049 A 
ATOM     24  H   UNL     1      11.752  -7.625  -4.012  1.00  0.00     0.167 HD
ATOM     25  C   UNL     1      15.728  -7.252  -2.230  1.00  0.00     0.034 A 
ATOM     26  C   UNL     1       9.591  -9.052  -5.083  1.00  0.00     0.034 A 
ATOM     27  C   UNL     1      15.358  -8.636  -2.079  1.00  0.00     0.049 A 
ATOM     28  C   UNL     1      10.493 -10.066  -4.442  1.00  0.00     0.074 A 
ATOM     29  C   UNL     1      16.061  -9.647  -1.445  1.00  0.00     0.029 A 
ATOM     30  N   UNL     1      14.202  -9.211  -2.583  1.00  0.00    -0.354 N 
ATOM     31  N   UNL     1      11.617  -9.876  -3.795  1.00  0.00    -0.248 NA
ATOM     32  C   UNL     1      10.068 -11.470  -4.514  1.00  0.00     0.031 C 
ATOM     33  C   UNL     1      15.351 -10.841  -1.604  1.00  0.00     0.029 A 
ATOM     34  C   UNL     1      14.185 -10.567  -2.299  1.00  0.00     0.049 A 
ATOM     35  H   UNL     1      13.497  -8.728  -3.071  1.00  0.00     0.167 HD
ATOM     36  C   UNL     1      12.020 -11.131  -3.362  1.00  0.00     0.074 A 
ATOM     37  C   UNL     1      11.001 -12.068  -3.788  1.00  0.00     0.031 C 
ATOM     38  C   UNL     1      13.144 -11.482  -2.690  1.00  0.00     0.034 A 
BRANCH  25  39
ATOM     39  C   UNL     1      17.079  -6.837  -1.706  1.00  0.00     0.023 A 
ATOM     40  C   UNL     1      17.172  -6.109  -0.503  1.00  0.00     0.012 A 
ATOM     41  C   UNL     1      18.259  -7.281  -2.338  1.00  0.00     0.148 A 
ATOM     42  C   UNL     1      18.416  -5.817   0.055  1.00  0.00     0.002 A 
ATOM     43  C   UNL     1      19.493  -7.023  -1.753  1.00  0.00     0.091 A 
ATOM     44  F   UNL     1      18.149  -7.961  -3.488  1.00  0.00    -0.205 F 
ATOM     45  C   UNL     1      19.574  -6.285  -0.562  1.00  0.00     0.022 A 
BRANCH  43  46
ATOM     46  S   UNL     1      21.038  -7.653  -2.422  1.00  0.00     0.127 S 
ATOM     47  O   UNL     1      21.716  -6.417  -2.810  1.00  0.00    -0.237 OA
ATOM     48  O   UNL     1      21.619  -8.329  -1.262  1.00  0.00    -0.237 OA
ATOM     49  O   UNL     1      20.674  -8.532  -3.524  1.00  0.00    -0.744 OA
ENDBRANCH  43  46
ENDBRANCH  25  39
BRANCH  26  50
ATOM     50  C   UNL     1       8.329  -9.465  -5.758  1.00  0.00     0.023 A 
ATOM     51  C   UNL     1       7.277 -10.014  -5.001  1.00  0.00     0.012 A 
ATOM     52  C   UNL     1       8.166  -9.309  -7.149  1.00  0.00     0.148 A 
ATOM     53  C   UNL     1       6.103 -10.441  -5.623  1.00  0.00     0.002 A 
ATOM     54  C   UNL     1       6.970  -9.675  -7.752  1.00  0.00     0.091 A 
ATOM     55  F   UNL     1       9.184  -8.797  -7.856  1.00  0.00    -0.205 F 
ATOM     56  C   UNL     1       5.946 -10.262  -6.995  1.00  0.00     0.022 A 
BRANCH  54  57
ATOM     57  S   UNL     1       6.635  -9.345  -9.485  1.00  0.00     0.127 S 
ATOM     58  O   UNL     1       6.755 -10.676 -10.071  1.00  0.00    -0.237 OA
ATOM     59  O   UNL     1       5.272  -8.813  -9.435  1.00  0.00    -0.237 OA
ATOM     60  O   UNL     1       7.639  -8.373  -9.897  1.00  0.00    -0.744 OA
ENDBRANCH  54  57
ENDBRANCH  26  50
BRANCH  38  61
ATOM     61  C   UNL     1      13.316 -12.937  -2.344  1.00  0.00     0.023 A 
ATOM     62  C   UNL     1      13.595 -13.872  -3.361  1.00  0.00     0.012 A 
ATOM     63  C   UNL     1      13.250 -13.369  -1.006  1.00  0.00     0.148 A 
ATOM     64  C   UNL     1      13.765 -15.221  -3.055  1.00  0.00     0.002 A 
ATOM     65  C   UNL     1      13.475 -14.706  -0.702  1.00  0.00     0.091 A 
ATOM     66  F   UNL     1      12.966 -12.466  -0.056  1.00  0.00    -0.205 F 
ATOM     67  C   UNL     1      13.717 -15.636  -1.726  1.00  0.00     0.022 A 
BRANCH  65  68
ATOM     68  S   UNL     1      13.527 -15.315   0.986  1.00  0.00     0.127 S 
ATOM     69  O   UNL     1      12.307 -16.118   1.051  1.00  0.00    -0.237 OA
ATOM     70  O   UNL     1      14.769 -16.089   0.996  1.00  0.00    -0.237 OA
ATOM     71  O   UNL     1      13.542 -14.136   1.841  1.00  0.00    -0.744 OA
ENDBRANCH  65  68
ENDBRANCH  38  61
ENDBRANCH  12  13
ENDBRANCH   5   7
ENDBRANCH   2   3
ENDBRANCH   1   2
BRANCH   1  72
ATOM     72  C   UNL     1      10.569   3.811  -3.258  1.00  0.00     0.002 C 
BRANCH  72  73
ATOM     73  C   UNL     1       9.116   3.989  -2.806  1.00  0.00     0.002 C 
BRANCH  73  74
ATOM     74  C   UNL     1       8.748   3.436  -1.431  1.00  0.00     0.021 C 
BRANCH  74  75
ATOM     75  C   UNL     1       9.607   3.886  -0.259  1.00  0.00     0.116 C 
BRANCH  75  76
ATOM     76  N   UNL     1       9.477   5.283   0.114  1.00  0.00    -0.356 N 
ATOM     77  C   UNL     1       9.690   5.957   1.283  1.00  0.00     0.228 C 
ATOM     78  H   UNL     1       9.175   5.861  -0.623  1.00  0.00     0.163 HD
ATOM     79  O   UNL     1       9.859   7.176   1.144  1.00  0.00    -0.274 OA
BRANCH  77  80
ATOM     80  C   UNL     1       9.616   5.328   2.707  1.00  0.00     0.078 C 
ATOM     81  C   UNL     1       9.925   6.371   3.786  1.00  0.00     0.048 C 
ATOM     82  C   UNL     1       8.121   5.090   2.989  1.00  0.00     0.177 C 
ATOM     83  C   UNL     1       8.990   6.043   4.930  1.00  0.00     0.161 C 
ATOM     84  O   UNL     1       7.881   5.327   4.384  1.00  0.00    -0.380 OA
BRANCH  80  85
ATOM     85  C   UNL     1      10.416   4.012   2.877  1.00  0.00     0.012 C 
ATOM     86  C   UNL     1      10.283   3.168   4.150  1.00  0.00     0.033 C 
ATOM     87  C   UNL     1      11.924   4.017   2.552  1.00  0.00     0.043 C 
ATOM     88  C   UNL     1      10.644   1.720   3.782  1.00  0.00     0.161 C 
ATOM     89  C   UNL     1      12.391   2.542   2.310  1.00  0.00     0.094 C 
ATOM     90  O   UNL     1      11.301   1.623   2.509  1.00  0.00    -0.372 OA
ATOM     91  C   UNL     1      12.896   2.368   0.882  1.00  0.00     0.066 C 
ATOM     92  C   UNL     1      13.606   2.086   3.124  1.00  0.00     0.195 C 
ATOM     93  C   UNL     1      14.393   2.531   0.984  1.00  0.00     0.163 C 
ATOM     94  O   UNL     1      14.779   2.189   2.312  1.00  0.00    -0.378 OA
ENDBRANCH  80  85
ENDBRANCH  77  80
ENDBRANCH  75  76
ENDBRANCH  74  75
ENDBRANCH  73  74
ENDBRANCH  72  73
ENDBRANCH   1  72
TORSDOF 17
