REMARK SMILES O=C(NCCCCCCNC(=O)[C@]1(NC(=O)C2CCN(C(=O)C3CC3)CC2)CCCc2ccccc21)c1ccc(-c2c3nc(c(-c4cccc(S(=O)(=O)[O-])c4F)c4ccc([nH]4)c(-c4cccc(S(=O)(=O)[O-])c4F)c4nc(c(-c5cccc(S(=O)(=O)[O-])c5F)c5ccc2[nH]5)C=C4)C=C3)cc1
REMARK SMILES IDX 6 1 5 2 4 3 3 4 1 5 2 6 37 8 38 9 99 10 39 11 98 12 40 13
REMARK SMILES IDX 41 14 42 15 92 16 43 17 97 18 91 19 93 20 44 21 96 22 90 23
REMARK SMILES IDX 89 24 45 26 77 27 57 28 76 29 58 30 61 31 75 32 94 33 59 34
REMARK SMILES IDX 60 35 74 37 95 38 62 39 46 40 47 41 55 42 48 43 50 44 56 45
REMARK SMILES IDX 49 46 51 47 52 48 53 49 54 50 78 51 79 52 87 53 80 54 82 55
REMARK SMILES IDX 88 56 81 57 83 58 84 59 85 60 86 61 63 62 64 63 72 64 65 65
REMARK SMILES IDX 67 66 73 67 66 68 68 69 69 70 70 71 71 72 7 73 8 74 9 75
REMARK SMILES IDX 10 76 11 77 12 79 13 80 28 81 36 82 29 83 31 84 35 85 30 86
REMARK SMILES IDX 32 87 34 88 33 89 14 90 15 91 16 93 17 94 18 95 27 96 19 97
REMARK SMILES IDX 26 98 20 99 21 100 22 101 23 102 24 103 25 104
REMARK H PARENT 3 7 93 25 61 36 10 78 14 92
REMARK Flexibility Score: inf
ROOT
ATOM      1  C   UNL     1       3.954   2.545  -2.948  1.00  0.00     0.002 C 
ENDROOT
BRANCH   1   2
ATOM      2  C   UNL     1       4.462   1.192  -2.452  1.00  0.00     0.021 C 
BRANCH   2   3
ATOM      3  C   UNL     1       4.278   0.918  -0.970  1.00  0.00     0.116 C 
BRANCH   3   4
ATOM      4  N   UNL     1       2.885   0.820  -0.580  1.00  0.00    -0.352 N 
ATOM      5  O   UNL     1       1.052  -0.157   0.298  1.00  0.00    -0.269 OA
ATOM      6  C   UNL     1       2.274  -0.155   0.174  1.00  0.00     0.251 C 
ATOM      7  H   UNL     1       2.300   1.547  -0.895  1.00  0.00     0.163 HD
BRANCH   6   8
ATOM      8  C   UNL     1       3.096  -1.215   0.803  1.00  0.00     0.039 A 
ATOM      9  C   UNL     1       4.285  -0.896   1.462  1.00  0.00     0.014 A 
ATOM     10  C   UNL     1       2.677  -2.546   0.722  1.00  0.00     0.014 A 
ATOM     11  C   UNL     1       5.120  -1.912   1.912  1.00  0.00     0.010 A 
ATOM     12  C   UNL     1       3.474  -3.562   1.261  1.00  0.00     0.010 A 
ATOM     13  C   UNL     1       4.715  -3.256   1.839  1.00  0.00    -0.014 A 
BRANCH  13  14
ATOM     14  C   UNL     1       5.566  -4.295   2.477  1.00  0.00     0.031 A 
ATOM     15  C   UNL     1       6.219  -5.389   1.679  1.00  0.00     0.074 A 
ATOM     16  C   UNL     1       5.763  -4.218   3.808  1.00  0.00     0.049 A 
ATOM     17  N   UNL     1       7.041  -6.321   2.090  1.00  0.00    -0.248 NA
ATOM     18  C   UNL     1       5.909  -5.458   0.242  1.00  0.00     0.031 C 
ATOM     19  C   UNL     1       5.128  -3.236   4.694  1.00  0.00     0.029 A 
ATOM     20  N   UNL     1       6.550  -4.960   4.650  1.00  0.00    -0.354 N 
ATOM     21  C   UNL     1       7.325  -7.103   0.977  1.00  0.00     0.074 A 
ATOM     22  C   UNL     1       6.578  -6.543  -0.130  1.00  0.00     0.031 C 
ATOM     23  C   UNL     1       5.581  -3.410   5.942  1.00  0.00     0.029 A 
ATOM     24  C   UNL     1       6.496  -4.544   5.960  1.00  0.00     0.049 A 
ATOM     25  H   UNL     1       7.101  -5.717   4.346  1.00  0.00     0.167 HD
ATOM     26  C   UNL     1       8.146  -8.177   0.884  1.00  0.00     0.034 A 
ATOM     27  C   UNL     1       7.106  -5.025   7.059  1.00  0.00     0.034 A 
ATOM     28  C   UNL     1       8.908  -8.711   1.985  1.00  0.00     0.049 A 
ATOM     29  C   UNL     1       8.048  -6.184   6.912  1.00  0.00     0.074 A 
ATOM     30  C   UNL     1       9.800  -9.771   1.980  1.00  0.00     0.029 A 
ATOM     31  N   UNL     1       8.870  -8.230   3.285  1.00  0.00    -0.354 N 
ATOM     32  N   UNL     1       8.397  -6.827   5.825  1.00  0.00    -0.248 NA
ATOM     33  C   UNL     1       8.700  -6.665   8.136  1.00  0.00     0.031 C 
ATOM     34  C   UNL     1      10.295  -9.934   3.279  1.00  0.00     0.029 A 
ATOM     35  C   UNL     1       9.722  -8.969   4.090  1.00  0.00     0.049 A 
ATOM     36  H   UNL     1       8.319  -7.474   3.591  1.00  0.00     0.167 HD
ATOM     37  C   UNL     1       9.316  -7.785   6.231  1.00  0.00     0.074 A 
ATOM     38  C   UNL     1       9.504  -7.604   7.657  1.00  0.00     0.031 C 
ATOM     39  C   UNL     1       9.926  -8.748   5.498  1.00  0.00     0.034 A 
BRANCH  26  40
ATOM     40  C   UNL     1       8.318  -8.824  -0.467  1.00  0.00     0.023 A 
ATOM     41  C   UNL     1       9.116  -8.186  -1.437  1.00  0.00     0.012 A 
ATOM     42  C   UNL     1       7.778 -10.096  -0.743  1.00  0.00     0.148 A 
ATOM     43  C   UNL     1       9.361  -8.794  -2.669  1.00  0.00     0.002 A 
ATOM     44  C   UNL     1       8.055 -10.711  -1.960  1.00  0.00     0.091 A 
ATOM     45  F   UNL     1       7.008 -10.679   0.186  1.00  0.00    -0.205 F 
ATOM     46  C   UNL     1       8.840 -10.059  -2.925  1.00  0.00     0.022 A 
BRANCH  44  47
ATOM     47  S   UNL     1       7.492 -12.370  -2.363  1.00  0.00     0.127 S 
ATOM     48  O   UNL     1       6.499 -12.099  -3.403  1.00  0.00    -0.237 OA
ATOM     49  O   UNL     1       8.720 -13.004  -2.844  1.00  0.00    -0.237 OA
ATOM     50  O   UNL     1       6.963 -12.927  -1.126  1.00  0.00    -0.744 OA
ENDBRANCH  44  47
ENDBRANCH  26  40
BRANCH  27  51
ATOM     51  C   UNL     1       6.874  -4.373   8.378  1.00  0.00     0.023 A 
ATOM     52  C   UNL     1       7.918  -3.658   8.996  1.00  0.00     0.012 A 
ATOM     53  C   UNL     1       5.610  -4.412   8.996  1.00  0.00     0.148 A 
ATOM     54  C   UNL     1       7.712  -3.016  10.218  1.00  0.00     0.002 A 
ATOM     55  C   UNL     1       5.394  -3.716  10.180  1.00  0.00     0.091 A 
ATOM     56  F   UNL     1       4.632  -5.116   8.408  1.00  0.00    -0.205 F 
ATOM     57  C   UNL     1       6.448  -3.032  10.802  1.00  0.00     0.022 A 
BRANCH  55  58
ATOM     58  S   UNL     1       3.751  -3.563  10.888  1.00  0.00     0.127 S 
ATOM     59  O   UNL     1       3.755  -4.623  11.891  1.00  0.00    -0.237 OA
ATOM     60  O   UNL     1       3.769  -2.203  11.429  1.00  0.00    -0.237 OA
ATOM     61  O   UNL     1       2.840  -3.740   9.765  1.00  0.00    -0.744 OA
ENDBRANCH  55  58
ENDBRANCH  27  51
BRANCH  39  62
ATOM     62  C   UNL     1      10.853  -9.679   6.233  1.00  0.00     0.023 A 
ATOM     63  C   UNL     1      10.312 -10.662   7.086  1.00  0.00     0.012 A 
ATOM     64  C   UNL     1      12.247  -9.606   6.057  1.00  0.00     0.148 A 
ATOM     65  C   UNL     1      11.147 -11.533   7.783  1.00  0.00     0.002 A 
ATOM     66  C   UNL     1      13.072 -10.506   6.721  1.00  0.00     0.091 A 
ATOM     67  F   UNL     1      12.745  -8.648   5.260  1.00  0.00    -0.205 F 
ATOM     68  C   UNL     1      12.525 -11.462   7.594  1.00  0.00     0.022 A 
BRANCH  66  69
ATOM     69  S   UNL     1      14.850 -10.534   6.468  1.00  0.00     0.127 S 
ATOM     70  O   UNL     1      15.331  -9.826   7.653  1.00  0.00    -0.237 OA
ATOM     71  O   UNL     1      15.144 -11.967   6.452  1.00  0.00    -0.237 OA
ATOM     72  O   UNL     1      15.076  -9.862   5.195  1.00  0.00    -0.744 OA
ENDBRANCH  66  69
ENDBRANCH  39  62
ENDBRANCH  13  14
ENDBRANCH   6   8
ENDBRANCH   3   4
ENDBRANCH   2   3
ENDBRANCH   1   2
BRANCH   1  73
ATOM     73  C   UNL     1       4.438   3.787  -2.193  1.00  0.00     0.002 C 
BRANCH  73  74
ATOM     74  C   UNL     1       5.944   3.905  -1.944  1.00  0.00     0.021 C 
BRANCH  74  75
ATOM     75  C   UNL     1       6.841   3.617  -3.138  1.00  0.00     0.116 C 
BRANCH  75  76
ATOM     76  N   UNL     1       6.692   4.548  -4.234  1.00  0.00    -0.354 N 
ATOM     77  C   UNL     1       7.611   4.910  -5.175  1.00  0.00     0.250 C 
ATOM     78  H   UNL     1       5.809   4.978  -4.311  1.00  0.00     0.163 HD
ATOM     79  O   UNL     1       7.144   5.040  -6.314  1.00  0.00    -0.272 OA
BRANCH  77  80
ATOM     80  C   UNL     1       9.148   5.134  -4.900  1.00  0.00     0.145 C 
ATOM     81  C   UNL     1       9.869   3.915  -5.561  1.00  0.00     0.044 C 
ATOM     82  C   UNL     1       9.546   5.266  -3.421  1.00  0.00    -0.010 A 
ATOM     83  C   UNL     1       9.844   2.660  -4.710  1.00  0.00     0.008 C 
ATOM     84  C   UNL     1      10.204   4.216  -2.732  1.00  0.00    -0.042 A 
ATOM     85  C   UNL     1       9.222   6.430  -2.697  1.00  0.00     0.007 A 
ATOM     86  C   UNL     1      10.563   2.904  -3.391  1.00  0.00     0.036 C 
ATOM     87  C   UNL     1      10.521   4.362  -1.369  1.00  0.00     0.004 A 
ATOM     88  C   UNL     1       9.543   6.558  -1.343  1.00  0.00     0.000 A 
ATOM     89  C   UNL     1      10.189   5.523  -0.679  1.00  0.00     0.000 A 
BRANCH  80  90
ATOM     90  N   UNL     1       9.708   6.313  -5.655  1.00  0.00    -0.338 N 
ATOM     91  C   UNL     1       9.320   7.600  -5.849  1.00  0.00     0.224 C 
ATOM     92  H   UNL     1      10.553   6.100  -6.114  1.00  0.00     0.164 HD
ATOM     93  O   UNL     1      10.215   8.423  -6.062  1.00  0.00    -0.275 OA
BRANCH  91  94
ATOM     94  C   UNL     1       7.853   7.998  -5.930  1.00  0.00     0.082 C 
ATOM     95  C   UNL     1       7.321   7.734  -7.354  1.00  0.00     0.035 C 
ATOM     96  C   UNL     1       7.635   9.466  -5.508  1.00  0.00     0.035 C 
ATOM     97  C   UNL     1       7.686   8.831  -8.350  1.00  0.00     0.120 C 
ATOM     98  C   UNL     1       7.982  10.476  -6.604  1.00  0.00     0.120 C 
ATOM     99  N   UNL     1       7.279  10.132  -7.833  1.00  0.00    -0.342 N 
ATOM    100  C   UNL     1       6.235  10.792  -8.482  1.00  0.00     0.225 C 
ATOM    101  O   UNL     1       5.702  10.300  -9.477  1.00  0.00    -0.275 OA
BRANCH 100 102
ATOM    102  C   UNL     1       5.679  12.116  -8.070  1.00  0.00     0.079 C 
ATOM    103  C   UNL     1       5.552  12.670  -6.681  1.00  0.00     0.014 C 
ATOM    104  C   UNL     1       6.526  13.288  -7.655  1.00  0.00     0.014 C 
ENDBRANCH 100 102
ENDBRANCH  91  94
ENDBRANCH  80  90
ENDBRANCH  77  80
ENDBRANCH  75  76
ENDBRANCH  74  75
ENDBRANCH  73  74
ENDBRANCH   1  73
TORSDOF 19
