REMARK SMILES O=C(NCCCCCCNC(=O)[C@H](CO)NC(=O)[C@H](Cc1ccc(O)cc1)NC(=O)c1ccc(F)cc1)c1ccc(-c2c3nc(c(-c4cccc(S(=O)(=O)[O-])c4F)c4ccc([nH]4)c(-c4cccc(S(=O)(=O)[O-])c4F)c4nc(c(-c5cccc(S(=O)(=O)[O-])c5F)c5ccc2[nH]5)C=C4)C=C3)cc1
REMARK SMILES IDX 7 1 6 2 5 3 4 4 3 5 1 6 2 7 38 9 39 10 100 11 40 12 99 13
REMARK SMILES IDX 41 14 42 15 43 16 93 17 44 18 98 19 92 20 94 21 45 22 97 23
REMARK SMILES IDX 91 24 90 25 46 27 78 28 58 29 77 30 59 31 62 32 76 33 95 34
REMARK SMILES IDX 60 35 61 36 75 38 96 39 63 40 47 41 48 42 56 43 49 44 51 45
REMARK SMILES IDX 57 46 50 47 52 48 53 49 54 50 55 51 79 52 80 53 88 54 81 55
REMARK SMILES IDX 83 56 89 57 82 58 84 59 85 60 86 61 87 62 64 63 65 64 73 65
REMARK SMILES IDX 66 66 68 67 74 68 67 69 69 70 70 71 71 72 72 73 8 74 9 75
REMARK SMILES IDX 10 76 11 77 12 79 13 80 16 81 17 82 18 84 19 85 28 86 29 87
REMARK SMILES IDX 30 89 31 90 32 91 37 92 33 93 36 94 34 95 35 96 20 97 21 98
REMARK SMILES IDX 22 99 27 100 23 101 26 102 24 103 25 104 14 106 15 107
REMARK H PARENT 3 8 94 26 62 37 10 78 16 83 28 88 25 105 15 108
REMARK Flexibility Score: inf
ROOT
ATOM      1  C   UNL     1      13.374   7.737   7.229  1.00  0.00     0.002 C 
ENDROOT
BRANCH   1   2
ATOM      2  C   UNL     1      12.403   6.739   7.870  1.00  0.00     0.002 C 
BRANCH   2   3
ATOM      3  C   UNL     1      12.264   5.412   7.120  1.00  0.00     0.021 C 
BRANCH   3   4
ATOM      4  C   UNL     1      13.572   4.646   6.978  1.00  0.00     0.116 C 
BRANCH   4   5
ATOM      5  N   UNL     1      14.105   4.263   8.277  1.00  0.00    -0.352 N 
ATOM      6  O   UNL     1      14.510   2.849   9.985  1.00  0.00    -0.269 OA
ATOM      7  C   UNL     1      14.313   3.006   8.779  1.00  0.00     0.251 C 
ATOM      8  H   UNL     1      14.347   5.007   8.874  1.00  0.00     0.163 HD
BRANCH   7   9
ATOM      9  C   UNL     1      14.296   1.850   7.862  1.00  0.00     0.039 A 
ATOM     10  C   UNL     1      14.944   1.933   6.626  1.00  0.00     0.014 A 
ATOM     11  C   UNL     1      13.651   0.672   8.245  1.00  0.00     0.014 A 
ATOM     12  C   UNL     1      14.851   0.882   5.725  1.00  0.00     0.010 A 
ATOM     13  C   UNL     1      13.640  -0.420   7.375  1.00  0.00     0.010 A 
ATOM     14  C   UNL     1      14.235  -0.320   6.108  1.00  0.00    -0.014 A 
BRANCH  14  15
ATOM     15  C   UNL     1      14.368  -1.504   5.228  1.00  0.00     0.031 A 
ATOM     16  C   UNL     1      13.179  -2.152   4.589  1.00  0.00     0.074 A 
ATOM     17  C   UNL     1      15.606  -1.995   5.027  1.00  0.00     0.049 A 
ATOM     18  N   UNL     1      13.145  -3.186   3.788  1.00  0.00    -0.248 NA
ATOM     19  C   UNL     1      11.858  -1.577   4.886  1.00  0.00     0.031 C 
ATOM     20  C   UNL     1      16.827  -1.455   5.631  1.00  0.00     0.029 A 
ATOM     21  N   UNL     1      16.048  -3.045   4.268  1.00  0.00    -0.354 N 
ATOM     22  C   UNL     1      11.803  -3.406   3.505  1.00  0.00     0.074 A 
ATOM     23  C   UNL     1      11.052  -2.405   4.233  1.00  0.00     0.031 C 
ATOM     24  C   UNL     1      17.882  -2.149   5.189  1.00  0.00     0.029 A 
ATOM     25  C   UNL     1      17.409  -3.226   4.329  1.00  0.00     0.049 A 
ATOM     26  H   UNL     1      15.450  -3.614   3.730  1.00  0.00     0.167 HD
ATOM     27  C   UNL     1      11.257  -4.351   2.702  1.00  0.00     0.034 A 
ATOM     28  C   UNL     1      18.196  -4.165   3.772  1.00  0.00     0.034 A 
ATOM     29  C   UNL     1      12.024  -5.339   1.986  1.00  0.00     0.049 A 
ATOM     30  C   UNL     1      17.566  -5.207   2.900  1.00  0.00     0.074 A 
ATOM     31  C   UNL     1      11.569  -6.317   1.120  1.00  0.00     0.029 A 
ATOM     32  N   UNL     1      13.403  -5.486   2.062  1.00  0.00    -0.354 N 
ATOM     33  N   UNL     1      16.305  -5.349   2.573  1.00  0.00    -0.248 NA
ATOM     34  C   UNL     1      18.463  -6.199   2.297  1.00  0.00     0.031 C 
ATOM     35  C   UNL     1      12.666  -7.078   0.703  1.00  0.00     0.029 A 
ATOM     36  C   UNL     1      13.814  -6.544   1.267  1.00  0.00     0.049 A 
ATOM     37  H   UNL     1      14.002  -4.921   2.602  1.00  0.00     0.167 HD
ATOM     38  C   UNL     1      16.257  -6.426   1.699  1.00  0.00     0.074 A 
ATOM     39  C   UNL     1      17.621  -6.893   1.541  1.00  0.00     0.031 C 
ATOM     40  C   UNL     1      15.179  -6.977   1.088  1.00  0.00     0.034 A 
BRANCH  27  41
ATOM     41  C   UNL     1       9.757  -4.349   2.531  1.00  0.00     0.023 A 
ATOM     42  C   UNL     1       9.137  -3.305   1.813  1.00  0.00     0.012 A 
ATOM     43  C   UNL     1       8.968  -5.411   3.018  1.00  0.00     0.148 A 
ATOM     44  C   UNL     1       7.757  -3.299   1.613  1.00  0.00     0.002 A 
ATOM     45  C   UNL     1       7.599  -5.423   2.772  1.00  0.00     0.091 A 
ATOM     46  F   UNL     1       9.567  -6.386   3.716  1.00  0.00    -0.205 F 
ATOM     47  C   UNL     1       6.991  -4.362   2.082  1.00  0.00     0.022 A 
BRANCH  45  48
ATOM     48  S   UNL     1       6.539  -6.791   3.255  1.00  0.00     0.127 S 
ATOM     49  O   UNL     1       5.780  -6.200   4.356  1.00  0.00    -0.237 OA
ATOM     50  O   UNL     1       5.763  -7.024   2.037  1.00  0.00    -0.237 OA
ATOM     51  O   UNL     1       7.433  -7.880   3.623  1.00  0.00    -0.744 OA
ENDBRANCH  45  48
ENDBRANCH  27  41
BRANCH  28  52
ATOM     52  C   UNL     1      19.666  -4.088   3.988  1.00  0.00     0.023 A 
ATOM     53  C   UNL     1      20.494  -3.662   2.933  1.00  0.00     0.012 A 
ATOM     54  C   UNL     1      20.225  -4.301   5.264  1.00  0.00     0.148 A 
ATOM     55  C   UNL     1      21.856  -3.449   3.144  1.00  0.00     0.002 A 
ATOM     56  C   UNL     1      21.570  -4.029   5.481  1.00  0.00     0.091 A 
ATOM     57  F   UNL     1      19.413  -4.704   6.251  1.00  0.00    -0.205 F 
ATOM     58  C   UNL     1      22.390  -3.616   4.420  1.00  0.00     0.022 A 
BRANCH  56  59
ATOM     59  S   UNL     1      22.312  -4.063   7.117  1.00  0.00     0.127 S 
ATOM     60  O   UNL     1      23.318  -5.112   6.965  1.00  0.00    -0.237 OA
ATOM     61  O   UNL     1      22.847  -2.706   7.227  1.00  0.00    -0.237 OA
ATOM     62  O   UNL     1      21.228  -4.366   8.041  1.00  0.00    -0.744 OA
ENDBRANCH  56  59
ENDBRANCH  28  52
BRANCH  40  63
ATOM     63  C   UNL     1      15.421  -8.129   0.149  1.00  0.00     0.023 A 
ATOM     64  C   UNL     1      15.774  -9.395   0.656  1.00  0.00     0.012 A 
ATOM     65  C   UNL     1      15.200  -7.975  -1.235  1.00  0.00     0.148 A 
ATOM     66  C   UNL     1      15.928 -10.483  -0.202  1.00  0.00     0.002 A 
ATOM     67  C   UNL     1      15.300  -9.075  -2.076  1.00  0.00     0.091 A 
ATOM     68  F   UNL     1      14.886  -6.757  -1.700  1.00  0.00    -0.205 F 
ATOM     69  C   UNL     1      15.677 -10.327  -1.564  1.00  0.00     0.022 A 
BRANCH  67  70
ATOM     70  S   UNL     1      14.889  -8.993  -3.823  1.00  0.00     0.127 S 
ATOM     71  O   UNL     1      16.203  -9.140  -4.446  1.00  0.00    -0.237 OA
ATOM     72  O   UNL     1      14.003 -10.146  -3.986  1.00  0.00    -0.237 OA
ATOM     73  O   UNL     1      14.246  -7.702  -4.025  1.00  0.00    -0.744 OA
ENDBRANCH  67  70
ENDBRANCH  40  63
ENDBRANCH  14  15
ENDBRANCH   7   9
ENDBRANCH   4   5
ENDBRANCH   3   4
ENDBRANCH   2   3
ENDBRANCH   1   2
BRANCH   1  74
ATOM     74  C   UNL     1      13.080   8.052   5.760  1.00  0.00     0.021 C 
BRANCH  74  75
ATOM     75  C   UNL     1      11.674   8.590   5.524  1.00  0.00     0.116 C 
BRANCH  75  76
ATOM     76  N   UNL     1      11.526   9.943   5.997  1.00  0.00    -0.354 N 
ATOM     77  C   UNL     1      11.415  11.091   5.270  1.00  0.00     0.244 C 
ATOM     78  H   UNL     1      11.502  10.054   6.974  1.00  0.00     0.163 HD
ATOM     79  O   UNL     1      11.320  12.145   5.902  1.00  0.00    -0.273 OA
BRANCH  77  80
ATOM     80  C   UNL     1      11.395  11.037   3.716  1.00  0.00     0.197 C 
BRANCH  80  81
ATOM     81  N   UNL     1      10.122  10.488   3.218  1.00  0.00    -0.340 N 
ATOM     82  C   UNL     1       9.777   9.617   2.232  1.00  0.00     0.243 C 
ATOM     83  H   UNL     1       9.342  10.829   3.712  1.00  0.00     0.164 HD
ATOM     84  O   UNL     1       8.605   9.730   1.851  1.00  0.00    -0.273 OA
BRANCH  82  85
ATOM     85  C   UNL     1      10.761   8.674   1.464  1.00  0.00     0.176 C 
BRANCH  85  86
ATOM     86  N   UNL     1      11.895   8.091   2.190  1.00  0.00    -0.340 N 
ATOM     87  C   UNL     1      13.253   8.106   2.013  1.00  0.00     0.251 C 
ATOM     88  H   UNL     1      11.618   7.574   2.981  1.00  0.00     0.164 HD
ATOM     89  O   UNL     1      13.908   7.282   2.651  1.00  0.00    -0.269 OA
BRANCH  87  90
ATOM     90  C   UNL     1      13.980   9.065   1.141  1.00  0.00     0.040 A 
ATOM     91  C   UNL     1      13.511  10.346   0.848  1.00  0.00     0.017 A 
ATOM     92  C   UNL     1      15.265   8.706   0.698  1.00  0.00     0.017 A 
ATOM     93  C   UNL     1      14.283  11.248   0.115  1.00  0.00     0.040 A 
ATOM     94  C   UNL     1      16.042   9.606  -0.038  1.00  0.00     0.040 A 
ATOM     95  C   UNL     1      15.542  10.869  -0.323  1.00  0.00     0.123 A 
ATOM     96  F   UNL     1      16.287  11.741  -1.015  1.00  0.00    -0.207 F 
ENDBRANCH  87  90
ENDBRANCH  85  86
BRANCH  85  97
ATOM     97  C   UNL     1       9.961   7.524   0.782  1.00  0.00     0.070 C 
BRANCH  97  98
ATOM     98  C   UNL     1       9.167   6.535   1.625  1.00  0.00    -0.045 A 
ATOM     99  C   UNL     1       8.520   5.480   0.952  1.00  0.00     0.007 A 
ATOM    100  C   UNL     1       8.986   6.632   3.012  1.00  0.00     0.007 A 
ATOM    101  C   UNL     1       7.710   4.567   1.635  1.00  0.00     0.046 A 
ATOM    102  C   UNL     1       8.176   5.721   3.697  1.00  0.00     0.046 A 
ATOM    103  C   UNL     1       7.539   4.702   3.005  1.00  0.00     0.115 A 
BRANCH 103 104
ATOM    104  O   UNL     1       6.739   3.857   3.714  1.00  0.00    -0.508 OA
ATOM    105  H   UNL     1       6.294   3.157   3.279  1.00  0.00     0.293 HD
ENDBRANCH 103 104
ENDBRANCH  97  98
ENDBRANCH  85  97
ENDBRANCH  82  85
ENDBRANCH  80  81
BRANCH  80 106
ATOM    106  C   UNL     1      11.585  12.489   3.188  1.00  0.00     0.191 C 
BRANCH 106 107
ATOM    107  O   UNL     1      11.085  12.731   1.869  1.00  0.00    -0.394 OA
ATOM    108  H   UNL     1      11.570  12.182   1.234  1.00  0.00     0.210 HD
ENDBRANCH 106 107
ENDBRANCH  80 106
ENDBRANCH  77  80
ENDBRANCH  75  76
ENDBRANCH  74  75
ENDBRANCH   1  74
TORSDOF 25
