REMARK SMILES CC[C@@H]1CCCN1C(=O)N[C@H]1C=C[C@@H](C(=O)NCCCCCCNC(=O)c2ccc(-c3c4nc(c(-c5cccc(S(=O)(=O)[O-])c5F)c5ccc([nH]5)c(-c5cccc(S(=O)(=O)[O-])c5F)c5nc(c(-c6cccc(S(=O)(=O)[O-])c6F)c6ccc3[nH]6)C=C5)C=C4)cc2)C1
REMARK SMILES IDX 20 1 19 2 18 3 17 4 15 5 16 6 14 8 11 9 12 10 90 11 13 12
REMARK SMILES IDX 10 13 8 14 9 15 7 17 3 18 4 19 5 20 6 21 2 22 1 23 21 24
REMARK SMILES IDX 22 25 23 26 24 27 25 28 26 30 27 31 28 32 89 33 29 34 88 35
REMARK SMILES IDX 30 36 31 37 32 38 82 39 33 40 87 41 81 42 83 43 34 44 86 45
REMARK SMILES IDX 80 46 79 47 35 49 67 50 47 51 66 52 48 53 51 54 65 55 84 56
REMARK SMILES IDX 49 57 50 58 64 60 85 61 52 62 36 63 37 64 45 65 38 66 40 67
REMARK SMILES IDX 46 68 39 69 41 70 42 71 43 72 44 73 68 74 69 75 77 76 70 77
REMARK SMILES IDX 72 78 78 79 71 80 73 81 74 82 75 83 76 84 53 85 54 86 62 87
REMARK SMILES IDX 55 88 57 89 63 90 56 91 58 92 59 93 60 94 61 95
REMARK H PARENT 17 7 10 16 24 29 83 48 51 59
REMARK Flexibility Score: inf
ROOT
ATOM      1  C   UNL     1       3.665  -1.563   5.178  1.00  0.00     0.002 C 
ENDROOT
BRANCH   1   2
ATOM      2  C   UNL     1       2.767  -1.006   4.075  1.00  0.00     0.021 C 
BRANCH   2   3
ATOM      3  C   UNL     1       3.352   0.197   3.343  1.00  0.00     0.116 C 
BRANCH   3   4
ATOM      4  N   UNL     1       4.416  -0.167   2.432  1.00  0.00    -0.356 N 
ATOM      5  C   UNL     1       4.532   0.083   1.099  1.00  0.00     0.227 C 
ATOM      6  O   UNL     1       5.573  -0.265   0.534  1.00  0.00    -0.274 OA
ATOM      7  H   UNL     1       5.163  -0.668   2.834  1.00  0.00     0.163 HD
BRANCH   5   8
ATOM      8  C   UNL     1       3.377   0.683   0.288  1.00  0.00     0.103 C 
ATOM      9  C   UNL     1       0.912   0.581   0.554  1.00  0.00     0.107 C 
ATOM     10  C   UNL     1       1.478   1.945   0.840  1.00  0.00    -0.006 C 
ATOM     11  C   UNL     1       2.172  -0.252   0.305  1.00  0.00     0.047 C 
ATOM     12  C   UNL     1       2.812   1.996   0.714  1.00  0.00    -0.016 C 
BRANCH   9  13
ATOM     13  N   UNL     1       0.123   0.168   1.691  1.00  0.00    -0.332 N 
ATOM     14  C   UNL     1      -0.375  -0.981   2.166  1.00  0.00     0.318 C 
ATOM     15  O   UNL     1      -0.913  -0.891   3.276  1.00  0.00    -0.249 OA
ATOM     16  H   UNL     1      -0.109   0.931   2.268  1.00  0.00     0.165 HD
BRANCH  14  17
ATOM     17  N   UNL     1      -0.254  -2.187   1.552  1.00  0.00    -0.322 N 
ATOM     18  C   UNL     1       0.076  -2.620   0.177  1.00  0.00     0.086 C 
ATOM     19  C   UNL     1      -0.066  -4.160   0.237  1.00  0.00     0.027 C 
ATOM     20  C   UNL     1       0.260  -4.487   1.683  1.00  0.00     0.024 C 
ATOM     21  C   UNL     1      -0.432  -3.354   2.413  1.00  0.00     0.122 C 
BRANCH  18  22
ATOM     22  C   UNL     1      -0.808  -2.040  -0.942  1.00  0.00     0.022 C 
ATOM     23  C   UNL     1      -0.025  -1.506  -2.141  1.00  0.00     0.006 C 
ENDBRANCH  18  22
ENDBRANCH  14  17
ENDBRANCH   9  13
ENDBRANCH   5   8
ENDBRANCH   3   4
ENDBRANCH   2   3
ENDBRANCH   1   2
BRANCH   1  24
ATOM     24  C   UNL     1       4.200  -0.512   6.156  1.00  0.00     0.002 C 
BRANCH  24  25
ATOM     25  C   UNL     1       3.135   0.410   6.761  1.00  0.00     0.021 C 
BRANCH  25  26
ATOM     26  C   UNL     1       2.043  -0.322   7.530  1.00  0.00     0.116 C 
BRANCH  26  27
ATOM     27  N   UNL     1       2.607  -1.079   8.639  1.00  0.00    -0.352 N 
ATOM     28  C   UNL     1       2.437  -0.882   9.980  1.00  0.00     0.251 C 
ATOM     29  H   UNL     1       3.187  -1.833   8.388  1.00  0.00     0.163 HD
ATOM     30  O   UNL     1       3.225  -1.394  10.783  1.00  0.00    -0.269 OA
BRANCH  28  31
ATOM     31  C   UNL     1       1.309  -0.066  10.465  1.00  0.00     0.039 A 
ATOM     32  C   UNL     1       1.518   0.842  11.505  1.00  0.00     0.014 A 
ATOM     33  C   UNL     1       0.038  -0.215   9.900  1.00  0.00     0.014 A 
ATOM     34  C   UNL     1       0.456   1.626  11.955  1.00  0.00     0.010 A 
ATOM     35  C   UNL     1      -0.998   0.622  10.296  1.00  0.00     0.010 A 
ATOM     36  C   UNL     1      -0.805   1.538  11.340  1.00  0.00    -0.014 A 
BRANCH  36  37
ATOM     37  C   UNL     1      -1.929   2.403  11.773  1.00  0.00     0.031 A 
ATOM     38  C   UNL     1      -3.177   1.796  12.353  1.00  0.00     0.074 A 
ATOM     39  C   UNL     1      -1.855   3.732  11.566  1.00  0.00     0.049 A 
ATOM     40  N   UNL     1      -4.265   2.391  12.768  1.00  0.00    -0.248 NA
ATOM     41  C   UNL     1      -3.222   0.328  12.456  1.00  0.00     0.031 C 
ATOM     42  C   UNL     1      -0.737   4.424  10.921  1.00  0.00     0.029 A 
ATOM     43  N   UNL     1      -2.748   4.734  11.847  1.00  0.00    -0.354 N 
ATOM     44  C   UNL     1      -5.136   1.375  13.141  1.00  0.00     0.074 A 
ATOM     45  C   UNL     1      -4.462   0.123  12.875  1.00  0.00     0.031 C 
ATOM     46  C   UNL     1      -1.011   5.736  10.857  1.00  0.00     0.029 A 
ATOM     47  C   UNL     1      -2.332   5.975  11.428  1.00  0.00     0.049 A 
ATOM     48  H   UNL     1      -3.606   4.578  12.305  1.00  0.00     0.167 HD
ATOM     49  C   UNL     1      -6.374   1.475  13.680  1.00  0.00     0.034 A 
ATOM     50  C   UNL     1      -2.949   7.171  11.488  1.00  0.00     0.034 A 
ATOM     51  C   UNL     1      -7.021   2.725  13.975  1.00  0.00     0.049 A 
ATOM     52  C   UNL     1      -4.298   7.262  12.145  1.00  0.00     0.074 A 
ATOM     53  C   UNL     1      -8.224   2.938  14.625  1.00  0.00     0.029 A 
ATOM     54  N   UNL     1      -6.530   3.973  13.624  1.00  0.00    -0.354 N 
ATOM     55  N   UNL     1      -5.027   6.306  12.667  1.00  0.00    -0.248 NA
ATOM     56  C   UNL     1      -4.893   8.601  12.259  1.00  0.00     0.031 C 
ATOM     57  C   UNL     1      -8.477   4.314  14.634  1.00  0.00     0.029 A 
ATOM     58  C   UNL     1      -7.414   4.960  14.024  1.00  0.00     0.049 A 
ATOM     59  H   UNL     1      -5.677   4.133  13.159  1.00  0.00     0.167 HD
ATOM     60  C   UNL     1      -6.153   6.928  13.195  1.00  0.00     0.074 A 
ATOM     61  C   UNL     1      -5.994   8.348  12.954  1.00  0.00     0.031 C 
ATOM     62  C   UNL     1      -7.227   6.373  13.810  1.00  0.00     0.034 A 
BRANCH  49  63
ATOM     63  C   UNL     1      -7.096   0.196  14.021  1.00  0.00     0.023 A 
ATOM     64  C   UNL     1      -6.639  -0.603  15.090  1.00  0.00     0.012 A 
ATOM     65  C   UNL     1      -8.256  -0.189  13.321  1.00  0.00     0.148 A 
ATOM     66  C   UNL     1      -7.299  -1.783  15.430  1.00  0.00     0.002 A 
ATOM     67  C   UNL     1      -8.937  -1.341  13.696  1.00  0.00     0.091 A 
ATOM     68  F   UNL     1      -8.665   0.570  12.294  1.00  0.00    -0.205 F 
ATOM     69  C   UNL     1      -8.453  -2.146  14.741  1.00  0.00     0.022 A 
BRANCH  67  70
ATOM     70  S   UNL     1     -10.479  -1.849  12.927  1.00  0.00     0.127 S 
ATOM     71  O   UNL     1     -10.056  -3.024  12.167  1.00  0.00    -0.237 OA
ATOM     72  O   UNL     1     -11.319  -2.145  14.088  1.00  0.00    -0.237 OA
ATOM     73  O   UNL     1     -10.923  -0.715  12.130  1.00  0.00    -0.744 OA
ENDBRANCH  67  70
ENDBRANCH  49  63
BRANCH  50  74
ATOM     74  C   UNL     1      -2.263   8.382  10.957  1.00  0.00     0.023 A 
ATOM     75  C   UNL     1      -1.784   9.359  11.851  1.00  0.00     0.012 A 
ATOM     76  C   UNL     1      -2.043   8.546   9.576  1.00  0.00     0.148 A 
ATOM     77  C   UNL     1      -1.123  10.492  11.376  1.00  0.00     0.002 A 
ATOM     78  C   UNL     1      -1.333   9.648   9.114  1.00  0.00     0.091 A 
ATOM     79  F   UNL     1      -2.514   7.608   8.742  1.00  0.00    -0.205 F 
ATOM     80  C   UNL     1      -0.888  10.631  10.011  1.00  0.00     0.022 A 
BRANCH  78  81
ATOM     81  S   UNL     1      -0.864   9.838   7.391  1.00  0.00     0.127 S 
ATOM     82  O   UNL     1      -1.690  10.970   6.979  1.00  0.00    -0.237 OA
ATOM     83  O   UNL     1       0.567  10.127   7.499  1.00  0.00    -0.237 OA
ATOM     84  O   UNL     1      -1.172   8.566   6.754  1.00  0.00    -0.744 OA
ENDBRANCH  78  81
ENDBRANCH  50  74
BRANCH  62  85
ATOM     85  C   UNL     1      -8.310   7.303  14.291  1.00  0.00     0.023 A 
ATOM     86  C   UNL     1      -9.149   7.946  13.358  1.00  0.00     0.012 A 
ATOM     87  C   UNL     1      -8.539   7.489  15.668  1.00  0.00     0.148 A 
ATOM     88  C   UNL     1     -10.173   8.788  13.788  1.00  0.00     0.002 A 
ATOM     89  C   UNL     1      -9.595   8.288  16.090  1.00  0.00     0.091 A 
ATOM     90  F   UNL     1      -7.720   6.884  16.541  1.00  0.00    -0.205 F 
ATOM     91  C   UNL     1     -10.403   8.950  15.152  1.00  0.00     0.022 A 
BRANCH  89  92
ATOM     92  S   UNL     1     -10.027   8.476  17.823  1.00  0.00     0.127 S 
ATOM     93  O   UNL     1      -9.597   9.847  18.091  1.00  0.00    -0.237 OA
ATOM     94  O   UNL     1     -11.478   8.285  17.804  1.00  0.00    -0.237 OA
ATOM     95  O   UNL     1      -9.292   7.439  18.535  1.00  0.00    -0.744 OA
ENDBRANCH  89  92
ENDBRANCH  62  85
ENDBRANCH  36  37
ENDBRANCH  28  31
ENDBRANCH  26  27
ENDBRANCH  25  26
ENDBRANCH  24  25
ENDBRANCH   1  24
TORSDOF 19
