REMARK SMILES CC[C@@H](C)N(C)S(=O)(=O)c1cc(C(=O)NCCCCCCNC(=O)c2ccc(-c3c4nc(c(-c5cccc(S(=O)(=O)[O-])c5F)c5ccc([nH]5)c(-c5cccc(S(=O)(=O)[O-])c5F)c5nc(c(-c6cccc(S(=O)(=O)[O-])c6F)c6ccc3[nH]6)C=C5)C=C4)cc2)c(C)cc1C
REMARK SMILES IDX 18 1 17 2 16 3 15 4 13 5 14 6 12 8 10 9 11 10 91 11 90 12
REMARK SMILES IDX 92 13 88 14 89 15 7 16 8 17 9 18 5 19 6 20 3 21 4 22 2 23
REMARK SMILES IDX 1 24 19 25 20 26 21 27 22 28 23 29 24 31 25 32 26 33 87 34
REMARK SMILES IDX 27 35 86 36 28 37 29 38 30 39 80 40 31 41 85 42 79 43 81 44
REMARK SMILES IDX 32 45 84 46 78 47 77 48 33 50 65 51 45 52 64 53 46 54 49 55
REMARK SMILES IDX 63 56 82 57 47 58 48 59 62 61 83 62 50 63 34 64 35 65 43 66
REMARK SMILES IDX 36 67 38 68 44 69 37 70 39 71 40 72 41 73 42 74 66 75 67 76
REMARK SMILES IDX 75 77 68 78 70 79 76 80 69 81 71 82 72 83 73 84 74 85 51 86
REMARK SMILES IDX 52 87 60 88 53 89 55 90 61 91 54 92 56 93 57 94 58 95 59 96
REMARK H PARENT 15 7 22 30 81 49 49 60
REMARK Flexibility Score: inf
ROOT
ATOM      1  C   UNL     1      -2.336  11.931  -3.844  1.00  0.00     0.002 C 
ENDROOT
BRANCH   1   2
ATOM      2  C   UNL     1      -2.678  10.484  -4.211  1.00  0.00     0.021 C 
BRANCH   2   3
ATOM      3  C   UNL     1      -1.460   9.579  -4.444  1.00  0.00     0.116 C 
BRANCH   3   4
ATOM      4  N   UNL     1      -1.153   8.860  -3.224  1.00  0.00    -0.352 N 
ATOM      5  C   UNL     1      -1.382   7.594  -2.759  1.00  0.00     0.251 C 
ATOM      6  O   UNL     1      -1.003   7.389  -1.600  1.00  0.00    -0.269 OA
ATOM      7  H   UNL     1      -0.663   9.415  -2.575  1.00  0.00     0.163 HD
BRANCH   5   8
ATOM      8  C   UNL     1      -1.948   6.432  -3.528  1.00  0.00     0.044 A 
ATOM      9  C   UNL     1      -1.906   3.956  -3.619  1.00  0.00     0.086 A 
ATOM     10  C   UNL     1      -1.445   5.179  -3.095  1.00  0.00     0.036 A 
ATOM     11  C   UNL     1      -2.847   3.950  -4.653  1.00  0.00    -0.031 A 
ATOM     12  C   UNL     1      -3.339   5.187  -5.090  1.00  0.00     0.009 A 
ATOM     13  C   UNL     1      -3.424   2.712  -5.279  1.00  0.00     0.046 C 
ATOM     14  C   UNL     1      -2.973   6.415  -4.490  1.00  0.00    -0.038 A 
ATOM     15  C   UNL     1      -3.835   7.572  -4.892  1.00  0.00     0.045 C 
BRANCH   9  16
ATOM     16  S   UNL     1      -1.379   2.453  -2.801  1.00  0.00     0.243 S 
ATOM     17  O   UNL     1      -1.707   1.321  -3.635  1.00  0.00    -0.207 OA
ATOM     18  O   UNL     1      -1.889   2.545  -1.446  1.00  0.00    -0.207 OA
BRANCH  16  19
ATOM     19  N   UNL     1       0.341   2.522  -2.749  1.00  0.00    -0.198 NA
ATOM     20  C   UNL     1       0.972   2.844  -4.059  1.00  0.00     0.124 C 
BRANCH  19  21
ATOM     21  C   UNL     1       1.038   1.350  -2.071  1.00  0.00     0.069 C 
ATOM     22  C   UNL     1       0.858   0.035  -2.837  1.00  0.00     0.026 C 
BRANCH  21  23
ATOM     23  C   UNL     1       0.647   1.216  -0.587  1.00  0.00     0.016 C 
ATOM     24  C   UNL     1       1.411   0.122   0.151  1.00  0.00     0.005 C 
ENDBRANCH  21  23
ENDBRANCH  19  21
ENDBRANCH  16  19
ENDBRANCH   9  16
ENDBRANCH   5   8
ENDBRANCH   3   4
ENDBRANCH   2   3
ENDBRANCH   1   2
BRANCH   1  25
ATOM     25  C   UNL     1      -1.779  12.768  -4.997  1.00  0.00     0.002 C 
BRANCH  25  26
ATOM     26  C   UNL     1      -2.651  12.817  -6.257  1.00  0.00     0.021 C 
BRANCH  26  27
ATOM     27  C   UNL     1      -4.083  13.301  -6.034  1.00  0.00     0.116 C 
BRANCH  27  28
ATOM     28  N   UNL     1      -4.120  14.675  -5.557  1.00  0.00    -0.352 N 
ATOM     29  C   UNL     1      -4.651  15.790  -6.158  1.00  0.00     0.251 C 
ATOM     30  H   UNL     1      -3.704  14.827  -4.678  1.00  0.00     0.163 HD
ATOM     31  O   UNL     1      -4.378  16.907  -5.728  1.00  0.00    -0.269 OA
BRANCH  29  32
ATOM     32  C   UNL     1      -5.550  15.644  -7.323  1.00  0.00     0.039 A 
ATOM     33  C   UNL     1      -5.370  16.478  -8.431  1.00  0.00     0.014 A 
ATOM     34  C   UNL     1      -6.586  14.706  -7.310  1.00  0.00     0.014 A 
ATOM     35  C   UNL     1      -6.200  16.336  -9.546  1.00  0.00     0.010 A 
ATOM     36  C   UNL     1      -7.371  14.524  -8.446  1.00  0.00     0.010 A 
ATOM     37  C   UNL     1      -7.193  15.343  -9.571  1.00  0.00    -0.014 A 
BRANCH  37  38
ATOM     38  C   UNL     1      -8.056  15.140 -10.762  1.00  0.00     0.031 A 
ATOM     39  C   UNL     1      -9.540  15.373 -10.669  1.00  0.00     0.074 A 
ATOM     40  C   UNL     1      -7.519  14.655 -11.899  1.00  0.00     0.049 A 
ATOM     41  N   UNL     1     -10.464  15.179 -11.575  1.00  0.00    -0.248 NA
ATOM     42  C   UNL     1     -10.058  15.860  -9.380  1.00  0.00     0.031 C 
ATOM     43  C   UNL     1      -6.107  14.316 -12.089  1.00  0.00     0.029 A 
ATOM     44  N   UNL     1      -8.102  14.333 -13.099  1.00  0.00    -0.354 N 
ATOM     45  C   UNL     1     -11.671  15.483 -10.957  1.00  0.00     0.074 A 
ATOM     46  C   UNL     1     -11.366  15.844  -9.589  1.00  0.00     0.031 C 
ATOM     47  C   UNL     1      -5.934  13.834 -13.330  1.00  0.00     0.029 A 
ATOM     48  C   UNL     1      -7.223  13.804 -14.015  1.00  0.00     0.049 A 
ATOM     49  H   UNL     1      -9.059  14.467 -13.286  1.00  0.00     0.167 HD
ATOM     50  C   UNL     1     -12.918  15.492 -11.487  1.00  0.00     0.034 A 
ATOM     51  C   UNL     1      -7.432  13.343 -15.264  1.00  0.00     0.034 A 
ATOM     52  C   UNL     1     -13.210  15.182 -12.860  1.00  0.00     0.049 A 
ATOM     53  C   UNL     1      -8.818  13.410 -15.846  1.00  0.00     0.074 A 
ATOM     54  C   UNL     1     -14.425  15.252 -13.518  1.00  0.00     0.029 A 
ATOM     55  N   UNL     1     -12.277  14.744 -13.787  1.00  0.00    -0.354 N 
ATOM     56  N   UNL     1      -9.922  13.853 -15.295  1.00  0.00    -0.248 NA
ATOM     57  C   UNL     1      -8.981  12.949 -17.232  1.00  0.00     0.031 C 
ATOM     58  C   UNL     1     -14.229  14.841 -14.841  1.00  0.00     0.029 A 
ATOM     59  C   UNL     1     -12.889  14.532 -15.011  1.00  0.00     0.049 A 
ATOM     60  H   UNL     1     -11.321  14.604 -13.603  1.00  0.00     0.167 HD
ATOM     61  C   UNL     1     -10.903  13.758 -16.276  1.00  0.00     0.074 A 
ATOM     62  C   UNL     1     -10.256  13.233 -17.462  1.00  0.00     0.031 C 
ATOM     63  C   UNL     1     -12.222  14.063 -16.198  1.00  0.00     0.034 A 
BRANCH  50  64
ATOM     64  C   UNL     1     -14.054  15.909 -10.590  1.00  0.00     0.023 A 
ATOM     65  C   UNL     1     -14.176  17.262 -10.213  1.00  0.00     0.012 A 
ATOM     66  C   UNL     1     -15.026  14.983 -10.163  1.00  0.00     0.148 A 
ATOM     67  C   UNL     1     -15.225  17.682  -9.395  1.00  0.00     0.002 A 
ATOM     68  C   UNL     1     -16.093  15.417  -9.383  1.00  0.00     0.091 A 
ATOM     69  F   UNL     1     -14.882  13.697 -10.512  1.00  0.00    -0.205 F 
ATOM     70  C   UNL     1     -16.187  16.762  -8.989  1.00  0.00     0.022 A 
BRANCH  68  71
ATOM     71  S   UNL     1     -17.423  14.323  -8.873  1.00  0.00     0.127 S 
ATOM     72  O   UNL     1     -17.116  14.124  -7.457  1.00  0.00    -0.237 OA
ATOM     73  O   UNL     1     -18.611  15.138  -9.129  1.00  0.00    -0.237 OA
ATOM     74  O   UNL     1     -17.310  13.139  -9.713  1.00  0.00    -0.744 OA
ENDBRANCH  68  71
ENDBRANCH  50  64
BRANCH  51  75
ATOM     75  C   UNL     1      -6.281  12.854 -16.075  1.00  0.00     0.023 A 
ATOM     76  C   UNL     1      -5.824  13.631 -17.158  1.00  0.00     0.012 A 
ATOM     77  C   UNL     1      -5.611  11.657 -15.758  1.00  0.00     0.148 A 
ATOM     78  C   UNL     1      -4.739  13.211 -17.927  1.00  0.00     0.002 A 
ATOM     79  C   UNL     1      -4.497  11.271 -16.495  1.00  0.00     0.091 A 
ATOM     80  F   UNL     1      -6.068  10.925 -14.732  1.00  0.00    -0.205 F 
ATOM     81  C   UNL     1      -4.069  12.038 -17.590  1.00  0.00     0.022 A 
BRANCH  79  82
ATOM     82  S   UNL     1      -3.495   9.848 -16.049  1.00  0.00     0.127 S 
ATOM     83  O   UNL     1      -3.841   8.896 -17.100  1.00  0.00    -0.237 OA
ATOM     84  O   UNL     1      -2.139  10.393 -16.132  1.00  0.00    -0.237 OA
ATOM     85  O   UNL     1      -3.910   9.484 -14.701  1.00  0.00    -0.744 OA
ENDBRANCH  79  82
ENDBRANCH  51  75
BRANCH  63  86
ATOM     86  C   UNL     1     -13.059  13.867 -17.434  1.00  0.00     0.023 A 
ATOM     87  C   UNL     1     -13.410  12.565 -17.840  1.00  0.00     0.012 A 
ATOM     88  C   UNL     1     -13.565  14.974 -18.144  1.00  0.00     0.148 A 
ATOM     89  C   UNL     1     -14.230  12.365 -18.950  1.00  0.00     0.002 A 
ATOM     90  C   UNL     1     -14.419  14.769 -19.221  1.00  0.00     0.091 A 
ATOM     91  F   UNL     1     -13.202  16.205 -17.754  1.00  0.00    -0.205 F 
ATOM     92  C   UNL     1     -14.744  13.466 -19.632  1.00  0.00     0.022 A 
BRANCH  90  93
ATOM     93  S   UNL     1     -15.201  16.127 -20.099  1.00  0.00     0.127 S 
ATOM     94  O   UNL     1     -14.446  16.148 -21.351  1.00  0.00    -0.237 OA
ATOM     95  O   UNL     1     -16.583  15.662 -20.227  1.00  0.00    -0.237 OA
ATOM     96  O   UNL     1     -15.037  17.299 -19.249  1.00  0.00    -0.744 OA
ENDBRANCH  90  93
ENDBRANCH  63  86
ENDBRANCH  37  38
ENDBRANCH  29  32
ENDBRANCH  27  28
ENDBRANCH  26  27
ENDBRANCH  25  26
ENDBRANCH   1  25
TORSDOF 20
