REMARK SMILES O=C(NCCCCCCNC(=O)c1ccc2c(c1)[C@@H]1C=CC[C@@H]1[C@H](c1ccncc1)N2)c1ccc(-c2c3nc(c(-c4cccc(S(=O)(=O)[O-])c4F)c4ccc([nH]4)c(-c4cccc(S(=O)(=O)[O-])c4F)c4nc(c(-c5cccc(S(=O)(=O)[O-])c5F)c5ccc2[nH]5)C=C4)C=C3)cc1
REMARK SMILES IDX 5 1 4 2 3 3 1 4 2 5 32 7 33 8 94 9 34 10 93 11 35 12 36 13
REMARK SMILES IDX 37 14 87 15 38 16 92 17 86 18 88 19 39 20 91 21 85 22 84 23
REMARK SMILES IDX 40 25 72 26 52 27 71 28 53 29 56 30 70 31 89 32 54 33 55 34
REMARK SMILES IDX 69 36 90 37 57 38 41 39 42 40 50 41 43 42 45 43 51 44 44 45
REMARK SMILES IDX 46 46 47 47 48 48 49 49 73 50 74 51 82 52 75 53 77 54 83 55
REMARK SMILES IDX 76 56 78 57 79 58 80 59 81 60 58 61 59 62 67 63 60 64 62 65
REMARK SMILES IDX 68 66 61 67 63 68 64 69 65 70 66 71 6 72 7 73 8 74 9 75
REMARK SMILES IDX 10 76 11 77 12 79 13 80 14 81 18 82 15 83 17 84 16 85 19 86
REMARK SMILES IDX 31 87 20 88 23 89 24 90 21 92 22 93 25 94 26 95 30 96 27 97
REMARK SMILES IDX 29 98 28 99
REMARK H PARENT 3 6 88 24 56 35 10 78 31 91
REMARK Flexibility Score: inf
ROOT
ATOM      1  C   UNL     1       4.608  -0.967  -2.688  1.00  0.00     0.021 C 
ENDROOT
BRANCH   1   2
ATOM      2  C   UNL     1       4.374  -0.096  -1.460  1.00  0.00     0.116 C 
BRANCH   2   3
ATOM      3  N   UNL     1       2.965   0.123  -1.184  1.00  0.00    -0.352 N 
ATOM      4  O   UNL     1       1.053   0.050   0.004  1.00  0.00    -0.269 OA
ATOM      5  C   UNL     1       2.278  -0.044  -0.005  1.00  0.00     0.251 C 
ATOM      6  H   UNL     1       2.428   0.435  -1.948  1.00  0.00     0.163 HD
BRANCH   5   7
ATOM      7  C   UNL     1       3.013  -0.366   1.239  1.00  0.00     0.039 A 
ATOM      8  C   UNL     1       4.187   0.314   1.574  1.00  0.00     0.014 A 
ATOM      9  C   UNL     1       2.518  -1.363   2.085  1.00  0.00     0.014 A 
ATOM     10  C   UNL     1       4.935  -0.095   2.673  1.00  0.00     0.010 A 
ATOM     11  C   UNL     1       3.231  -1.718   3.236  1.00  0.00     0.010 A 
ATOM     12  C   UNL     1       4.461  -1.109   3.524  1.00  0.00    -0.014 A 
BRANCH  12  13
ATOM     13  C   UNL     1       5.237  -1.456   4.742  1.00  0.00     0.031 A 
ATOM     14  C   UNL     1       5.856  -2.815   4.921  1.00  0.00     0.074 A 
ATOM     15  C   UNL     1       5.393  -0.513   5.694  1.00  0.00     0.049 A 
ATOM     16  N   UNL     1       6.602  -3.254   5.903  1.00  0.00    -0.248 NA
ATOM     17  C   UNL     1       5.605  -3.814   3.870  1.00  0.00     0.031 C 
ATOM     18  C   UNL     1       4.794   0.824   5.657  1.00  0.00     0.029 A 
ATOM     19  N   UNL     1       6.098  -0.528   6.870  1.00  0.00    -0.354 N 
ATOM     20  C   UNL     1       6.888  -4.581   5.606  1.00  0.00     0.074 A 
ATOM     21  C   UNL     1       6.222  -4.884   4.357  1.00  0.00     0.031 C 
ATOM     22  C   UNL     1       5.177   1.508   6.744  1.00  0.00     0.029 A 
ATOM     23  C   UNL     1       6.012   0.649   7.576  1.00  0.00     0.049 A 
ATOM     24  H   UNL     1       6.615  -1.307   7.180  1.00  0.00     0.167 HD
ATOM     25  C   UNL     1       7.655  -5.460   6.298  1.00  0.00     0.034 A 
ATOM     26  C   UNL     1       6.539   1.000   8.765  1.00  0.00     0.034 A 
ATOM     27  C   UNL     1       8.339  -5.146   7.525  1.00  0.00     0.049 A 
ATOM     28  C   UNL     1       7.411   0.016   9.490  1.00  0.00     0.074 A 
ATOM     29  C   UNL     1       9.168  -5.957   8.281  1.00  0.00     0.029 A 
ATOM     30  N   UNL     1       8.276  -3.924   8.178  1.00  0.00    -0.354 N 
ATOM     31  N   UNL     1       7.769  -1.192   9.127  1.00  0.00    -0.248 NA
ATOM     32  C   UNL     1       7.979   0.454  10.773  1.00  0.00     0.031 C 
ATOM     33  C   UNL     1       9.602  -5.228   9.394  1.00  0.00     0.029 A 
ATOM     34  C   UNL     1       9.052  -3.958   9.325  1.00  0.00     0.049 A 
ATOM     35  H   UNL     1       7.756  -3.146   7.872  1.00  0.00     0.167 HD
ATOM     36  C   UNL     1       8.617  -1.652  10.126  1.00  0.00     0.074 A 
ATOM     37  C   UNL     1       8.748  -0.579  11.090  1.00  0.00     0.031 C 
ATOM     38  C   UNL     1       9.213  -2.864  10.247  1.00  0.00     0.034 A 
BRANCH  25  39
ATOM     39  C   UNL     1       7.850  -6.835   5.713  1.00  0.00     0.023 A 
ATOM     40  C   UNL     1       8.713  -6.996   4.610  1.00  0.00     0.012 A 
ATOM     41  C   UNL     1       7.253  -7.972   6.294  1.00  0.00     0.148 A 
ATOM     42  C   UNL     1       8.963  -8.261   4.080  1.00  0.00     0.002 A 
ATOM     43  C   UNL     1       7.535  -9.235   5.782  1.00  0.00     0.091 A 
ATOM     44  F   UNL     1       6.420  -7.799   7.330  1.00  0.00    -0.205 F 
ATOM     45  C   UNL     1       8.382  -9.380   4.671  1.00  0.00     0.022 A 
BRANCH  43  46
ATOM     46  S   UNL     1       6.893 -10.744   6.516  1.00  0.00     0.127 S 
ATOM     47  O   UNL     1       5.887 -11.145   5.533  1.00  0.00    -0.237 OA
ATOM     48  O   UNL     1       8.080 -11.599   6.555  1.00  0.00    -0.237 OA
ATOM     49  O   UNL     1       6.377 -10.365   7.824  1.00  0.00    -0.744 OA
ENDBRANCH  43  46
ENDBRANCH  25  39
BRANCH  26  50
ATOM     50  C   UNL     1       6.294   2.366   9.305  1.00  0.00     0.023 A 
ATOM     51  C   UNL     1       7.354   3.291   9.362  1.00  0.00     0.012 A 
ATOM     52  C   UNL     1       5.009   2.769   9.715  1.00  0.00     0.148 A 
ATOM     53  C   UNL     1       7.143   4.585   9.839  1.00  0.00     0.002 A 
ATOM     54  C   UNL     1       4.793   4.077  10.132  1.00  0.00     0.091 A 
ATOM     55  F   UNL     1       4.015   1.870   9.676  1.00  0.00    -0.205 F 
ATOM     56  C   UNL     1       5.861   4.982  10.211  1.00  0.00     0.022 A 
BRANCH  54  57
ATOM     57  S   UNL     1       3.141   4.694  10.475  1.00  0.00     0.127 S 
ATOM     58  O   UNL     1       3.080   4.598  11.930  1.00  0.00    -0.237 OA
ATOM     59  O   UNL     1       3.203   6.059   9.950  1.00  0.00    -0.237 OA
ATOM     60  O   UNL     1       2.247   3.815   9.733  1.00  0.00    -0.744 OA
ENDBRANCH  54  57
ENDBRANCH  26  50
BRANCH  38  61
ATOM     61  C   UNL     1      10.073  -3.088  11.462  1.00  0.00     0.023 A 
ATOM     62  C   UNL     1       9.463  -3.276  12.718  1.00  0.00     0.012 A 
ATOM     63  C   UNL     1      11.475  -3.162  11.354  1.00  0.00     0.148 A 
ATOM     64  C   UNL     1      10.238  -3.502  13.855  1.00  0.00     0.002 A 
ATOM     65  C   UNL     1      12.238  -3.430  12.485  1.00  0.00     0.091 A 
ATOM     66  F   UNL     1      12.038  -2.957  10.154  1.00  0.00    -0.205 F 
ATOM     67  C   UNL     1      11.623  -3.590  13.737  1.00  0.00     0.022 A 
BRANCH  65  68
ATOM     68  S   UNL     1      14.020  -3.642  12.405  1.00  0.00     0.127 S 
ATOM     69  O   UNL     1      14.497  -2.356  12.909  1.00  0.00    -0.237 OA
ATOM     70  O   UNL     1      14.243  -4.772  13.308  1.00  0.00    -0.237 OA
ATOM     71  O   UNL     1      14.323  -3.923  11.008  1.00  0.00    -0.744 OA
ENDBRANCH  65  68
ENDBRANCH  38  61
ENDBRANCH  12  13
ENDBRANCH   5   7
ENDBRANCH   2   3
ENDBRANCH   1   2
BRANCH   1  72
ATOM     72  C   UNL     1       4.134  -0.371  -4.014  1.00  0.00     0.002 C 
BRANCH  72  73
ATOM     73  C   UNL     1       4.678   1.020  -4.353  1.00  0.00     0.002 C 
BRANCH  73  74
ATOM     74  C   UNL     1       6.200   1.176  -4.293  1.00  0.00     0.021 C 
BRANCH  74  75
ATOM     75  C   UNL     1       6.997   0.178  -5.128  1.00  0.00     0.116 C 
BRANCH  75  76
ATOM     76  N   UNL     1       6.705   0.285  -6.548  1.00  0.00    -0.352 N 
ATOM     77  C   UNL     1       7.572   0.445  -7.600  1.00  0.00     0.251 C 
ATOM     78  H   UNL     1       5.751   0.237  -6.790  1.00  0.00     0.163 HD
ATOM     79  O   UNL     1       7.148   0.673  -8.729  1.00  0.00    -0.269 OA
BRANCH  77  80
ATOM     80  C   UNL     1       9.029   0.358  -7.368  1.00  0.00     0.040 A 
ATOM     81  C   UNL     1       9.850   1.381  -7.837  1.00  0.00     0.016 A 
ATOM     82  C   UNL     1       9.582  -0.726  -6.684  1.00  0.00     0.020 A 
ATOM     83  C   UNL     1      11.224   1.325  -7.594  1.00  0.00     0.027 A 
ATOM     84  C   UNL     1      10.954  -0.751  -6.383  1.00  0.00    -0.017 A 
ATOM     85  C   UNL     1      11.794   0.253  -6.892  1.00  0.00     0.038 A 
ATOM     86  C   UNL     1      11.503  -1.852  -5.503  1.00  0.00     0.049 C 
ATOM     87  N   UNL     1      13.160   0.255  -6.644  1.00  0.00    -0.378 N 
ATOM     88  C   UNL     1      10.819  -1.913  -4.158  1.00  0.00    -0.023 C 
ATOM     89  C   UNL     1      12.962  -1.631  -5.064  1.00  0.00     0.031 C 
ATOM     90  C   UNL     1      13.799  -0.960  -6.153  1.00  0.00     0.114 C 
ATOM     91  H   UNL     1      13.693   1.069  -6.798  1.00  0.00     0.161 HD
ATOM     92  C   UNL     1      11.570  -1.379  -3.187  1.00  0.00    -0.030 C 
ATOM     93  C   UNL     1      12.878  -0.888  -3.720  1.00  0.00     0.034 C 
BRANCH  90  94
ATOM     94  C   UNL     1      15.234  -0.714  -5.711  1.00  0.00    -0.022 A 
ATOM     95  C   UNL     1      16.087  -1.809  -5.513  1.00  0.00     0.026 A 
ATOM     96  C   UNL     1      15.753   0.563  -5.464  1.00  0.00     0.026 A 
ATOM     97  C   UNL     1      17.393  -1.585  -5.103  1.00  0.00     0.111 A 
ATOM     98  C   UNL     1      17.078   0.687  -5.072  1.00  0.00     0.111 A 
ATOM     99  N   UNL     1      17.912  -0.359  -4.894  1.00  0.00    -0.265 NA
ENDBRANCH  90  94
ENDBRANCH  77  80
ENDBRANCH  75  76
ENDBRANCH  74  75
ENDBRANCH  73  74
ENDBRANCH  72  73
ENDBRANCH   1  72
TORSDOF 17
