REMARK SMILES C[C@@H]1CN(C(=O)Nc2ccc(O)c(C(=O)NCCCCCCNC(=O)c3ccc(-c4c5nc(c(-c6cccc(S(=O)(=O)[O-])c6F)c6ccc([nH]6)c(-c6cccc(S(=O)(=O)[O-])c6F)c6nc(c(-c7cccc(S(=O)(=O)[O-])c7F)c7ccc4[nH]7)C=C6)C=C5)cc3)c2)C[C@H]1C
REMARK SMILES IDX 20 1 19 2 18 3 17 4 16 5 14 6 15 7 13 9 8 10 9 11 89 12
REMARK SMILES IDX 10 13 11 14 7 15 1 16 2 17 3 18 91 19 4 20 90 21 92 22 5 23
REMARK SMILES IDX 6 24 12 26 21 28 22 29 23 30 24 31 25 33 26 34 27 35 88 36
REMARK SMILES IDX 28 37 87 38 29 39 30 40 31 41 81 42 32 43 86 44 80 45 82 46
REMARK SMILES IDX 33 47 85 48 79 49 78 50 34 52 66 53 46 54 65 55 47 56 50 57
REMARK SMILES IDX 64 58 83 59 48 60 49 61 63 63 84 64 51 65 35 66 36 67 44 68
REMARK SMILES IDX 37 69 39 70 45 71 38 72 40 73 41 74 42 75 43 76 67 77 68 78
REMARK SMILES IDX 76 79 69 80 71 81 77 82 70 83 72 84 73 85 74 86 75 87 52 88
REMARK SMILES IDX 53 89 61 90 54 91 56 92 62 93 55 94 57 95 58 96 59 97 60 98
REMARK H PARENT 16 8 7 25 12 27 23 32 82 51 50 62
REMARK Flexibility Score: inf
ROOT
ATOM      1  C   UNL     1      -4.695   6.588   2.994  1.00  0.00     0.002 C 
ENDROOT
BRANCH   1   2
ATOM      2  C   UNL     1      -5.660   5.442   2.678  1.00  0.00     0.002 C 
BRANCH   2   3
ATOM      3  C   UNL     1      -5.078   4.351   1.775  1.00  0.00     0.021 C 
BRANCH   3   4
ATOM      4  C   UNL     1      -3.918   3.575   2.407  1.00  0.00     0.116 C 
BRANCH   4   5
ATOM      5  N   UNL     1      -4.433   2.519   3.249  1.00  0.00    -0.352 N 
ATOM      6  C   UNL     1      -4.683   1.195   3.013  1.00  0.00     0.255 C 
ATOM      7  O   UNL     1      -5.189   0.563   3.948  1.00  0.00    -0.269 OA
ATOM      8  H   UNL     1      -4.643   2.807   4.166  1.00  0.00     0.163 HD
BRANCH   6   9
ATOM      9  C   UNL     1      -4.318   0.441   1.775  1.00  0.00     0.083 A 
ATOM     10  C   UNL     1      -3.547  -1.741   0.988  1.00  0.00     0.043 A 
ATOM     11  C   UNL     1      -3.647  -1.317  -0.330  1.00  0.00     0.030 A 
ATOM     12  C   UNL     1      -3.963  -0.901   2.021  1.00  0.00     0.044 A 
ATOM     13  C   UNL     1      -3.998   0.000  -0.602  1.00  0.00     0.049 A 
ATOM     14  C   UNL     1      -4.300   0.881   0.445  1.00  0.00     0.128 A 
BRANCH  10  15
ATOM     15  N   UNL     1      -3.020  -2.988   1.324  1.00  0.00    -0.308 N 
ATOM     16  C   UNL     1       1.418  -0.142   0.145  1.00  0.00     0.010 C 
ATOM     17  C   UNL     1       0.761  -1.410  -0.378  1.00  0.00     0.010 C 
ATOM     18  C   UNL     1      -0.658  -1.570   0.156  1.00  0.00     0.125 C 
ATOM     19  C   UNL     1       1.433  -2.715   0.052  1.00  0.00     0.010 C 
ATOM     20  N   UNL     1      -0.907  -3.007   0.233  1.00  0.00    -0.324 N 
ATOM     21  C   UNL     1       0.303  -3.736  -0.116  1.00  0.00     0.125 C 
ATOM     22  C   UNL     1       2.658  -3.055  -0.780  1.00  0.00     0.010 C 
ATOM     23  C   UNL     1      -1.962  -3.676   0.809  1.00  0.00     0.321 C 
ATOM     24  O   UNL     1      -1.925  -4.894   1.010  1.00  0.00    -0.248 OA
ATOM     25  H   UNL     1      -3.491  -3.449   2.056  1.00  0.00     0.171 HD
ENDBRANCH  10  15
BRANCH  14  26
ATOM     26  O   UNL     1      -4.603   2.155   0.074  1.00  0.00    -0.507 OA
ATOM     27  H   UNL     1      -4.577   2.398  -0.831  1.00  0.00     0.293 HD
ENDBRANCH  14  26
ENDBRANCH   6   9
ENDBRANCH   4   5
ENDBRANCH   3   4
ENDBRANCH   2   3
ENDBRANCH   1   2
BRANCH   1  28
ATOM     28  C   UNL     1      -4.089   7.274   1.767  1.00  0.00     0.021 C 
BRANCH  28  29
ATOM     29  C   UNL     1      -5.117   7.919   0.843  1.00  0.00     0.116 C 
BRANCH  29  30
ATOM     30  N   UNL     1      -5.825   9.003   1.510  1.00  0.00    -0.352 N 
ATOM     31  C   UNL     1      -5.870  10.335   1.180  1.00  0.00     0.251 C 
ATOM     32  H   UNL     1      -6.343   8.745   2.307  1.00  0.00     0.163 HD
ATOM     33  O   UNL     1      -6.290  11.160   1.982  1.00  0.00    -0.269 OA
BRANCH  31  34
ATOM     34  C   UNL     1      -5.399  10.761  -0.154  1.00  0.00     0.039 A 
ATOM     35  C   UNL     1      -4.549  11.863  -0.262  1.00  0.00     0.014 A 
ATOM     36  C   UNL     1      -5.795  10.056  -1.294  1.00  0.00     0.014 A 
ATOM     37  C   UNL     1      -4.047  12.223  -1.514  1.00  0.00     0.010 A 
ATOM     38  C   UNL     1      -5.234  10.369  -2.526  1.00  0.00     0.010 A 
ATOM     39  C   UNL     1      -4.359  11.459  -2.651  1.00  0.00    -0.014 A 
BRANCH  39  40
ATOM     40  C   UNL     1      -3.779  11.770  -3.981  1.00  0.00     0.031 A 
ATOM     41  C   UNL     1      -4.680  12.141  -5.127  1.00  0.00     0.074 A 
ATOM     42  C   UNL     1      -2.454  11.618  -4.182  1.00  0.00     0.049 A 
ATOM     43  N   UNL     1      -4.375  12.353  -6.380  1.00  0.00    -0.248 NA
ATOM     44  C   UNL     1      -6.118  12.260  -4.832  1.00  0.00     0.031 C 
ATOM     45  C   UNL     1      -1.488  11.192  -3.167  1.00  0.00     0.029 A 
ATOM     46  N   UNL     1      -1.697  11.772  -5.316  1.00  0.00    -0.354 N 
ATOM     47  C   UNL     1      -5.580  12.592  -7.029  1.00  0.00     0.074 A 
ATOM     48  C   UNL     1      -6.626  12.465  -6.039  1.00  0.00     0.031 C 
ATOM     49  C   UNL     1      -0.269  11.119  -3.724  1.00  0.00     0.029 A 
ATOM     50  C   UNL     1      -0.370  11.454  -5.140  1.00  0.00     0.049 A 
ATOM     51  H   UNL     1      -2.068  12.080  -6.174  1.00  0.00     0.167 HD
ATOM     52  C   UNL     1      -5.795  12.914  -8.327  1.00  0.00     0.034 A 
ATOM     53  C   UNL     1       0.646  11.419  -6.024  1.00  0.00     0.034 A 
ATOM     54  C   UNL     1      -4.748  13.076  -9.298  1.00  0.00     0.049 A 
ATOM     55  C   UNL     1       0.384  11.805  -7.455  1.00  0.00     0.074 A 
ATOM     56  C   UNL     1      -4.853  13.484 -10.616  1.00  0.00     0.029 A 
ATOM     57  N   UNL     1      -3.405  12.826  -9.063  1.00  0.00    -0.354 N 
ATOM     58  N   UNL     1      -0.742  12.174  -8.016  1.00  0.00    -0.248 NA
ATOM     59  C   UNL     1       1.537  11.802  -8.367  1.00  0.00     0.031 C 
ATOM     60  C   UNL     1      -3.578  13.449 -11.187  1.00  0.00     0.029 A 
ATOM     61  C   UNL     1      -2.672  13.057 -10.214  1.00  0.00     0.049 A 
ATOM     62  H   UNL     1      -3.028  12.528  -8.203  1.00  0.00     0.167 HD
ATOM     63  C   UNL     1      -0.427  12.486  -9.333  1.00  0.00     0.074 A 
ATOM     64  C   UNL     1       0.999  12.278  -9.482  1.00  0.00     0.031 C 
ATOM     65  C   UNL     1      -1.245  12.897 -10.333  1.00  0.00     0.034 A 
BRANCH  52  66
ATOM     66  C   UNL     1      -7.217  13.155  -8.764  1.00  0.00     0.023 A 
ATOM     67  C   UNL     1      -7.900  14.305  -8.316  1.00  0.00     0.012 A 
ATOM     68  C   UNL     1      -7.856  12.279  -9.663  1.00  0.00     0.148 A 
ATOM     69  C   UNL     1      -9.209  14.559  -8.725  1.00  0.00     0.002 A 
ATOM     70  C   UNL     1      -9.142  12.565 -10.105  1.00  0.00     0.091 A 
ATOM     71  F   UNL     1      -7.198  11.181 -10.062  1.00  0.00    -0.205 F 
ATOM     72  C   UNL     1      -9.824  13.696  -9.627  1.00  0.00     0.022 A 
BRANCH  70  73
ATOM     73  S   UNL     1      -9.992  11.562 -11.329  1.00  0.00     0.127 S 
ATOM     74  O   UNL     1     -11.051  10.952 -10.526  1.00  0.00    -0.237 OA
ATOM     75  O   UNL     1     -10.453  12.570 -12.284  1.00  0.00    -0.237 OA
ATOM     76  O   UNL     1      -8.997  10.637 -11.853  1.00  0.00    -0.744 OA
ENDBRANCH  70  73
ENDBRANCH  52  66
BRANCH  53  77
ATOM     77  C   UNL     1       2.018  11.051  -5.570  1.00  0.00     0.023 A 
ATOM     78  C   UNL     1       3.025  12.035  -5.540  1.00  0.00     0.012 A 
ATOM     79  C   UNL     1       2.324   9.742  -5.149  1.00  0.00     0.148 A 
ATOM     80  C   UNL     1       4.321  11.714  -5.135  1.00  0.00     0.002 A 
ATOM     81  C   UNL     1       3.602   9.443  -4.691  1.00  0.00     0.091 A 
ATOM     82  F   UNL     1       1.353   8.818  -5.192  1.00  0.00    -0.205 F 
ATOM     83  C   UNL     1       4.607  10.422  -4.702  1.00  0.00     0.022 A 
BRANCH  81  84
ATOM     84  S   UNL     1       4.024   7.842  -3.993  1.00  0.00     0.127 S 
ATOM     85  O   UNL     1       4.919   7.298  -5.011  1.00  0.00    -0.237 OA
ATOM     86  O   UNL     1       4.675   8.223  -2.739  1.00  0.00    -0.237 OA
ATOM     87  O   UNL     1       2.760   7.139  -3.823  1.00  0.00    -0.744 OA
ENDBRANCH  81  84
ENDBRANCH  53  77
BRANCH  65  88
ATOM     88  C   UNL     1      -0.623  13.200 -11.671  1.00  0.00     0.023 A 
ATOM     89  C   UNL     1      -0.161  12.150 -12.489  1.00  0.00     0.012 A 
ATOM     90  C   UNL     1      -0.578  14.524 -12.151  1.00  0.00     0.148 A 
ATOM     91  C   UNL     1       0.364  12.417 -13.752  1.00  0.00     0.002 A 
ATOM     92  C   UNL     1      -0.102  14.776 -13.432  1.00  0.00     0.091 A 
ATOM     93  F   UNL     1      -1.007  15.510 -11.350  1.00  0.00    -0.205 F 
ATOM     94  C   UNL     1       0.381  13.726 -14.229  1.00  0.00     0.022 A 
BRANCH  92  95
ATOM     95  S   UNL     1      -0.135  16.414 -14.168  1.00  0.00     0.127 S 
ATOM     96  O   UNL     1       1.288  16.742 -14.228  1.00  0.00    -0.237 OA
ATOM     97  O   UNL     1      -0.757  16.156 -15.467  1.00  0.00    -0.237 OA
ATOM     98  O   UNL     1      -0.927  17.245 -13.271  1.00  0.00    -0.744 OA
ENDBRANCH  92  95
ENDBRANCH  65  88
ENDBRANCH  39  40
ENDBRANCH  31  34
ENDBRANCH  29  30
ENDBRANCH  28  29
ENDBRANCH   1  28
TORSDOF 18
