REMARK SMILES O=C(NCCCCCCNC(=O)c1cccc(N2NC(=O)[C@H]3CC=CC[C@H]3C2=O)c1)c1ccc(-c2c3nc(c(-c4cccc(S(=O)(=O)[O-])c4F)c4ccc([nH]4)c(-c4cccc(S(=O)(=O)[O-])c4F)c4nc(c(-c5cccc(S(=O)(=O)[O-])c5F)c5ccc2[nH]5)C=C4)C=C3)cc1
REMARK SMILES IDX 5 1 4 2 3 3 1 4 2 5 31 7 32 8 93 9 33 10 92 11 34 12 35 13
REMARK SMILES IDX 36 14 86 15 37 16 91 17 85 18 87 19 38 20 90 21 84 22 83 23
REMARK SMILES IDX 39 25 71 26 51 27 70 28 52 29 55 30 69 31 88 32 53 33 54 34
REMARK SMILES IDX 68 36 89 37 56 38 40 39 41 40 49 41 42 42 44 43 50 44 43 45
REMARK SMILES IDX 45 46 46 47 47 48 48 49 72 50 73 51 81 52 74 53 76 54 82 55
REMARK SMILES IDX 75 56 77 57 78 58 79 59 80 60 57 61 58 62 66 63 59 64 61 65
REMARK SMILES IDX 67 66 60 67 62 68 63 69 64 70 65 71 6 72 7 73 8 74 9 75
REMARK SMILES IDX 10 76 11 77 12 79 13 80 14 81 30 82 15 83 17 84 16 85 18 86
REMARK SMILES IDX 19 87 28 88 20 89 27 91 29 92 21 93 22 94 26 95 23 96 25 97
REMARK SMILES IDX 24 98
REMARK H PARENT 3 6 87 24 55 35 10 78 19 90
REMARK Flexibility Score: inf
ROOT
ATOM      1  C   UNL     1       4.641  -1.777  -1.969  1.00  0.00     0.021 C 
ENDROOT
BRANCH   1   2
ATOM      2  C   UNL     1       4.405  -0.492  -1.185  1.00  0.00     0.116 C 
BRANCH   2   3
ATOM      3  N   UNL     1       2.994  -0.183  -1.027  1.00  0.00    -0.352 N 
ATOM      4  O   UNL     1       1.070   0.193   0.081  1.00  0.00    -0.269 OA
ATOM      5  C   UNL     1       2.295   0.110   0.119  1.00  0.00     0.251 C 
ATOM      6  H   UNL     1       2.466  -0.183  -1.857  1.00  0.00     0.163 HD
BRANCH   5   7
ATOM      7  C   UNL     1       3.018   0.293   1.398  1.00  0.00     0.039 A 
ATOM      8  C   UNL     1       4.184   1.061   1.457  1.00  0.00     0.014 A 
ATOM      9  C   UNL     1       2.518  -0.309   2.556  1.00  0.00     0.014 A 
ATOM     10  C   UNL     1       4.920   1.114   2.636  1.00  0.00     0.010 A 
ATOM     11  C   UNL     1       3.218  -0.188   3.761  1.00  0.00     0.010 A 
ATOM     12  C   UNL     1       4.440   0.499   3.805  1.00  0.00    -0.014 A 
BRANCH  12  13
ATOM     13  C   UNL     1       5.195   0.659   5.075  1.00  0.00     0.031 A 
ATOM     14  C   UNL     1       5.813  -0.519   5.775  1.00  0.00     0.074 A 
ATOM     15  C   UNL     1       5.314   1.895   5.599  1.00  0.00     0.049 A 
ATOM     16  N   UNL     1       6.529  -0.538   6.870  1.00  0.00    -0.248 NA
ATOM     17  C   UNL     1       5.598  -1.847   5.180  1.00  0.00     0.031 C 
ATOM     18  C   UNL     1       4.708   3.106   5.040  1.00  0.00     0.029 A 
ATOM     19  N   UNL     1       5.975   2.340   6.715  1.00  0.00    -0.354 N 
ATOM     20  C   UNL     1       6.817  -1.874   7.119  1.00  0.00     0.074 A 
ATOM     21  C   UNL     1       6.194  -2.641   6.061  1.00  0.00     0.031 C 
ATOM     22  C   UNL     1       5.042   4.157   5.800  1.00  0.00     0.029 A 
ATOM     23  C   UNL     1       5.847   3.693   6.924  1.00  0.00     0.049 A 
ATOM     24  H   UNL     1       6.491   1.748   7.309  1.00  0.00     0.167 HD
ATOM     25  C   UNL     1       7.548  -2.410   8.127  1.00  0.00     0.034 A 
ATOM     26  C   UNL     1       6.314   4.476   7.915  1.00  0.00     0.034 A 
ATOM     27  C   UNL     1       8.200  -1.639   9.153  1.00  0.00     0.049 A 
ATOM     28  C   UNL     1       7.158   3.859   8.993  1.00  0.00     0.074 A 
ATOM     29  C   UNL     1       9.024  -2.086  10.172  1.00  0.00     0.029 A 
ATOM     30  N   UNL     1       8.098  -0.264   9.298  1.00  0.00    -0.354 N 
ATOM     31  N   UNL     1       7.538   2.612   9.127  1.00  0.00    -0.248 NA
ATOM     32  C   UNL     1       7.662   4.760  10.039  1.00  0.00     0.031 C 
ATOM     33  C   UNL     1       9.408  -0.983  10.942  1.00  0.00     0.029 A 
ATOM     34  C   UNL     1       8.836   0.154  10.394  1.00  0.00     0.049 A 
ATOM     35  H   UNL     1       7.578   0.329   8.709  1.00  0.00     0.167 HD
ATOM     36  C   UNL     1       8.341   2.579  10.260  1.00  0.00     0.074 A 
ATOM     37  C   UNL     1       8.418   3.939  10.756  1.00  0.00     0.031 C 
ATOM     38  C   UNL     1       8.942   1.517  10.849  1.00  0.00     0.034 A 
BRANCH  25  39
ATOM     39  C   UNL     1       7.729  -3.906   8.149  1.00  0.00     0.023 A 
ATOM     40  C   UNL     1       8.618  -4.509   7.237  1.00  0.00     0.012 A 
ATOM     41  C   UNL     1       7.092  -4.702   9.122  1.00  0.00     0.148 A 
ATOM     42  C   UNL     1       8.852  -5.884   7.276  1.00  0.00     0.002 A 
ATOM     43  C   UNL     1       7.358  -6.066   9.178  1.00  0.00     0.091 A 
ATOM     44  F   UNL     1       6.234  -4.114   9.968  1.00  0.00    -0.205 F 
ATOM     45  C   UNL     1       8.231  -6.659   8.251  1.00  0.00     0.022 A 
BRANCH  43  46
ATOM     46  S   UNL     1       6.663  -7.136  10.444  1.00  0.00     0.127 S 
ATOM     47  O   UNL     1       5.662  -7.881   9.682  1.00  0.00    -0.237 OA
ATOM     48  O   UNL     1       7.826  -7.924  10.856  1.00  0.00    -0.237 OA
ATOM     49  O   UNL     1       6.139  -6.249  11.472  1.00  0.00    -0.744 OA
ENDBRANCH  43  46
ENDBRANCH  25  39
BRANCH  26  50
ATOM     50  C   UNL     1       6.033   5.938   7.888  1.00  0.00     0.023 A 
ATOM     51  C   UNL     1       7.077   6.840   7.612  1.00  0.00     0.012 A 
ATOM     52  C   UNL     1       4.726   6.432   8.068  1.00  0.00     0.148 A 
ATOM     53  C   UNL     1       6.829   8.210   7.532  1.00  0.00     0.002 A 
ATOM     54  C   UNL     1       4.475   7.791   7.928  1.00  0.00     0.091 A 
ATOM     55  F   UNL     1       3.749   5.558   8.349  1.00  0.00    -0.205 F 
ATOM     56  C   UNL     1       5.527   8.684   7.675  1.00  0.00     0.022 A 
BRANCH  54  57
ATOM     57  S   UNL     1       2.807   8.458   7.947  1.00  0.00     0.127 S 
ATOM     58  O   UNL     1       2.742   9.063   9.274  1.00  0.00    -0.237 OA
ATOM     59  O   UNL     1       2.845   9.410   6.836  1.00  0.00    -0.237 OA
ATOM     60  O   UNL     1       1.931   7.316   7.721  1.00  0.00    -0.744 OA
ENDBRANCH  54  57
ENDBRANCH  26  50
BRANCH  38  61
ATOM     61  C   UNL     1       9.749   1.780  12.092  1.00  0.00     0.023 A 
ATOM     62  C   UNL     1       9.085   2.054  13.305  1.00  0.00     0.012 A 
ATOM     63  C   UNL     1      11.154   1.694  12.075  1.00  0.00     0.148 A 
ATOM     64  C   UNL     1       9.810   2.268  14.476  1.00  0.00     0.002 A 
ATOM     65  C   UNL     1      11.868   1.867  13.255  1.00  0.00     0.091 A 
ATOM     66  F   UNL     1      11.768   1.456  10.906  1.00  0.00    -0.205 F 
ATOM     67  C   UNL     1      11.199   2.164  14.453  1.00  0.00     0.022 A 
BRANCH  65  68
ATOM     68  S   UNL     1      13.651   1.662  13.331  1.00  0.00     0.127 S 
ATOM     69  O   UNL     1      14.110   3.049  13.375  1.00  0.00    -0.237 OA
ATOM     70  O   UNL     1      13.829   0.921  14.581  1.00  0.00    -0.237 OA
ATOM     71  O   UNL     1      14.016   0.915  12.134  1.00  0.00    -0.744 OA
ENDBRANCH  65  68
ENDBRANCH  38  61
ENDBRANCH  12  13
ENDBRANCH   5   7
ENDBRANCH   2   3
ENDBRANCH   1   2
BRANCH   1  72
ATOM     72  C   UNL     1       4.159  -1.755  -3.420  1.00  0.00     0.002 C 
BRANCH  72  73
ATOM     73  C   UNL     1       4.705  -0.616  -4.285  1.00  0.00     0.002 C 
BRANCH  73  74
ATOM     74  C   UNL     1       6.230  -0.476  -4.317  1.00  0.00     0.021 C 
BRANCH  74  75
ATOM     75  C   UNL     1       6.997  -1.739  -4.698  1.00  0.00     0.116 C 
BRANCH  75  76
ATOM     76  N   UNL     1       6.661  -2.219  -6.031  1.00  0.00    -0.352 N 
ATOM     77  C   UNL     1       7.504  -2.541  -7.064  1.00  0.00     0.251 C 
ATOM     78  H   UNL     1       5.700  -2.328  -6.215  1.00  0.00     0.163 HD
ATOM     79  O   UNL     1       7.074  -2.845  -8.171  1.00  0.00    -0.269 OA
BRANCH  77  80
ATOM     80  C   UNL     1       8.957  -2.478  -6.835  1.00  0.00     0.041 A 
ATOM     81  C   UNL     1       9.700  -1.544  -7.562  1.00  0.00     0.014 A 
ATOM     82  C   UNL     1       9.558  -3.290  -5.865  1.00  0.00     0.042 A 
ATOM     83  C   UNL     1      11.041  -1.353  -7.253  1.00  0.00     0.003 A 
ATOM     84  C   UNL     1      10.894  -3.070  -5.528  1.00  0.00     0.067 A 
ATOM     85  C   UNL     1      11.624  -2.087  -6.219  1.00  0.00     0.028 A 
BRANCH  84  86
ATOM     86  N   UNL     1      11.537  -3.858  -4.535  1.00  0.00    -0.221 N 
ATOM     87  N   UNL     1      11.389  -5.245  -4.629  1.00  0.00    -0.260 N 
ATOM     88  C   UNL     1      12.453  -3.283  -3.654  1.00  0.00     0.249 C 
ATOM     89  C   UNL     1      12.185  -6.151  -3.984  1.00  0.00     0.243 C 
ATOM     90  H   UNL     1      10.664  -5.593  -5.197  1.00  0.00     0.192 HD
ATOM     91  C   UNL     1      13.562  -4.194  -3.194  1.00  0.00     0.097 C 
ATOM     92  O   UNL     1      12.481  -2.084  -3.370  1.00  0.00    -0.272 OA
ATOM     93  O   UNL     1      12.071  -7.348  -4.241  1.00  0.00    -0.273 OA
ATOM     94  C   UNL     1      13.083  -5.608  -2.891  1.00  0.00     0.097 C 
ATOM     95  C   UNL     1      14.644  -4.125  -4.285  1.00  0.00     0.041 C 
ATOM     96  C   UNL     1      14.264  -6.550  -2.594  1.00  0.00     0.041 C 
ATOM     97  C   UNL     1      15.632  -5.242  -4.233  1.00  0.00    -0.030 C 
ATOM     98  C   UNL     1      15.467  -6.326  -3.466  1.00  0.00    -0.030 C 
ENDBRANCH  84  86
ENDBRANCH  77  80
ENDBRANCH  75  76
ENDBRANCH  74  75
ENDBRANCH  73  74
ENDBRANCH  72  73
ENDBRANCH   1  72
TORSDOF 17
