REMARK SMILES CC[C@@](C)([NH2+][C@H]1CC[C@H](C)[C@H](C)C1)C(=O)NCCCCCCNC(=O)c1ccc(-c2c3nc(c(-c4cccc(S(=O)(=O)[O-])c4F)c4ccc([nH]4)c(-c4cccc(S(=O)(=O)[O-])c4F)c4nc(c(-c5cccc(S(=O)(=O)[O-])c5F)c5ccc2[nH]5)C=C4)C=C3)cc1
REMARK SMILES IDX 20 1 19 2 18 3 17 4 16 5 14 6 15 7 3 9 4 10 2 11 1 12 5 13
REMARK SMILES IDX 6 16 7 17 13 18 8 19 11 20 9 21 12 22 10 23 21 24 22 25
REMARK SMILES IDX 23 26 24 27 25 29 26 30 27 31 88 32 28 33 87 34 29 35 30 36
REMARK SMILES IDX 31 37 81 38 32 39 86 40 80 41 82 42 33 43 85 44 79 45 78 46
REMARK SMILES IDX 34 48 66 49 46 50 65 51 47 52 50 53 64 54 83 55 48 56 49 57
REMARK SMILES IDX 63 59 84 60 51 61 35 62 36 63 44 64 37 65 39 66 45 67 38 68
REMARK SMILES IDX 40 69 41 70 42 71 43 72 67 73 68 74 76 75 69 76 71 77 77 78
REMARK SMILES IDX 70 79 72 80 73 81 74 82 75 83 52 84 53 85 61 86 54 87 56 88
REMARK SMILES IDX 62 89 55 90 57 91 58 92 59 93 60 94
REMARK H PARENT 16 8 5 14 5 15 23 28 82 47 50 58
REMARK Flexibility Score: inf
ROOT
ATOM      1  C   UNL     1       0.667  -7.082  -3.058  1.00  0.00     0.002 C 
ENDROOT
BRANCH   1   2
ATOM      2  C   UNL     1       0.246  -6.003  -4.067  1.00  0.00     0.002 C 
BRANCH   2   3
ATOM      3  C   UNL     1       1.276  -4.888  -4.279  1.00  0.00     0.021 C 
BRANCH   3   4
ATOM      4  C   UNL     1       2.153  -4.945  -5.523  1.00  0.00     0.116 C 
BRANCH   4   5
ATOM      5  N   UNL     1       1.455  -4.382  -6.668  1.00  0.00    -0.351 N 
ATOM      6  C   UNL     1       1.294  -3.126  -7.170  1.00  0.00     0.281 C 
ATOM      7  O   UNL     1       0.376  -3.050  -8.005  1.00  0.00    -0.268 OA
ATOM      8  H   UNL     1       0.992  -5.066  -7.203  1.00  0.00     0.163 HD
BRANCH   6   9
ATOM      9  C   UNL     1       2.169  -1.859  -6.828  1.00  0.00     0.172 C 
ATOM     10  C   UNL     1       3.596  -2.100  -6.323  1.00  0.00     0.090 C 
BRANCH   9  11
ATOM     11  C   UNL     1       2.340  -1.116  -8.225  1.00  0.00     0.075 C 
ATOM     12  C   UNL     1       3.148  -1.865  -9.286  1.00  0.00     0.011 C 
ENDBRANCH   9  11
BRANCH   9  13
ATOM     13  N   UNL     1       1.432  -0.817  -6.041  1.00  0.00    -0.331 N 
ATOM     14  H   UNL     1       0.637  -0.556  -6.624  1.00  0.00     0.347 HD
ATOM     15  H   UNL     1       2.202  -0.179  -5.838  1.00  0.00     0.347 HD
BRANCH  13  16
ATOM     16  C   UNL     1       0.881  -0.978  -4.688  1.00  0.00     0.183 C 
ATOM     17  C   UNL     1      -0.502  -1.643  -4.685  1.00  0.00     0.065 C 
ATOM     18  C   UNL     1       1.843  -1.507  -3.622  1.00  0.00     0.068 C 
ATOM     19  C   UNL     1      -1.087  -1.853  -3.282  1.00  0.00     0.010 C 
ATOM     20  C   UNL     1       1.238  -1.641  -2.212  1.00  0.00    -0.006 C 
ATOM     21  C   UNL     1      -0.101  -2.408  -2.243  1.00  0.00    -0.011 C 
ATOM     22  C   UNL     1       1.143  -0.287  -1.507  1.00  0.00     0.008 C 
ATOM     23  C   UNL     1      -0.762  -2.522  -0.867  1.00  0.00     0.008 C 
ENDBRANCH  13  16
ENDBRANCH   9  13
ENDBRANCH   6   9
ENDBRANCH   4   5
ENDBRANCH   3   4
ENDBRANCH   2   3
ENDBRANCH   1   2
BRANCH   1  24
ATOM     24  C   UNL     1       0.962  -6.612  -1.621  1.00  0.00     0.021 C 
BRANCH  24  25
ATOM     25  C   UNL     1      -0.225  -6.075  -0.816  1.00  0.00     0.116 C 
BRANCH  25  26
ATOM     26  N   UNL     1      -1.099  -7.121  -0.311  1.00  0.00    -0.352 N 
ATOM     27  C   UNL     1      -1.506  -7.390   0.976  1.00  0.00     0.251 C 
ATOM     28  H   UNL     1      -1.455  -7.732  -0.995  1.00  0.00     0.163 HD
ATOM     29  O   UNL     1      -2.207  -8.377   1.191  1.00  0.00    -0.269 OA
BRANCH  27  30
ATOM     30  C   UNL     1      -1.084  -6.540   2.118  1.00  0.00     0.039 A 
ATOM     31  C   UNL     1      -0.543  -7.168   3.245  1.00  0.00     0.014 A 
ATOM     32  C   UNL     1      -1.260  -5.153   2.123  1.00  0.00     0.014 A 
ATOM     33  C   UNL     1      -0.128  -6.409   4.346  1.00  0.00     0.010 A 
ATOM     34  C   UNL     1      -0.805  -4.391   3.209  1.00  0.00     0.010 A 
ATOM     35  C   UNL     1      -0.229  -5.008   4.333  1.00  0.00    -0.014 A 
BRANCH  35  36
ATOM     36  C   UNL     1       0.282  -4.200   5.480  1.00  0.00     0.031 A 
ATOM     37  C   UNL     1      -0.658  -3.403   6.349  1.00  0.00     0.074 A 
ATOM     38  C   UNL     1       1.609  -4.147   5.727  1.00  0.00     0.049 A 
ATOM     39  N   UNL     1      -0.383  -2.646   7.382  1.00  0.00    -0.248 NA
ATOM     40  C   UNL     1      -2.090  -3.453   6.013  1.00  0.00     0.031 C 
ATOM     41  C   UNL     1       2.642  -4.826   4.942  1.00  0.00     0.029 A 
ATOM     42  N   UNL     1       2.320  -3.475   6.694  1.00  0.00    -0.354 N 
ATOM     43  C   UNL     1      -1.594  -2.103   7.797  1.00  0.00     0.074 A 
ATOM     44  C   UNL     1      -2.608  -2.610   6.896  1.00  0.00     0.031 C 
ATOM     45  C   UNL     1       3.849  -4.535   5.455  1.00  0.00     0.029 A 
ATOM     46  C   UNL     1       3.685  -3.624   6.585  1.00  0.00     0.049 A 
ATOM     47  H   UNL     1       1.893  -2.938   7.400  1.00  0.00     0.167 HD
ATOM     48  C   UNL     1      -1.845  -1.276   8.840  1.00  0.00     0.034 A 
ATOM     49  C   UNL     1       4.693  -3.082   7.299  1.00  0.00     0.034 A 
ATOM     50  C   UNL     1      -0.850  -0.802   9.765  1.00  0.00     0.049 A 
ATOM     51  C   UNL     1       4.378  -2.175   8.461  1.00  0.00     0.074 A 
ATOM     52  C   UNL     1      -1.036  -0.034  10.904  1.00  0.00     0.029 A 
ATOM     53  N   UNL     1       0.511  -1.029   9.657  1.00  0.00    -0.354 N 
ATOM     54  N   UNL     1       3.210  -1.814   8.933  1.00  0.00    -0.248 NA
ATOM     55  C   UNL     1       5.519  -1.628   9.213  1.00  0.00     0.031 C 
ATOM     56  C   UNL     1       0.216   0.236  11.461  1.00  0.00     0.029 A 
ATOM     57  C   UNL     1       1.178  -0.401  10.696  1.00  0.00     0.049 A 
ATOM     58  H   UNL     1       0.941  -1.558   8.947  1.00  0.00     0.167 HD
ATOM     59  C   UNL     1       3.476  -1.044  10.061  1.00  0.00     0.074 A 
ATOM     60  C   UNL     1       4.914  -1.001  10.212  1.00  0.00     0.031 C 
ATOM     61  C   UNL     1       2.604  -0.419  10.889  1.00  0.00     0.034 A 
BRANCH  48  62
ATOM     62  C   UNL     1      -3.267  -0.839   9.080  1.00  0.00     0.023 A 
ATOM     63  C   UNL     1      -4.195  -1.750   9.623  1.00  0.00     0.012 A 
ATOM     64  C   UNL     1      -3.647   0.504   8.886  1.00  0.00     0.148 A 
ATOM     65  C   UNL     1      -5.485  -1.335   9.952  1.00  0.00     0.002 A 
ATOM     66  C   UNL     1      -4.920   0.920   9.257  1.00  0.00     0.091 A 
ATOM     67  F   UNL     1      -2.751   1.351   8.358  1.00  0.00    -0.205 F 
ATOM     68  C   UNL     1      -5.843   0.000   9.781  1.00  0.00     0.022 A 
BRANCH  66  69
ATOM     69  S   UNL     1      -5.447   2.635   9.160  1.00  0.00     0.127 S 
ATOM     70  O   UNL     1      -6.486   2.564   8.130  1.00  0.00    -0.237 OA
ATOM     71  O   UNL     1      -5.950   2.877  10.514  1.00  0.00    -0.237 OA
ATOM     72  O   UNL     1      -4.268   3.403   8.798  1.00  0.00    -0.744 OA
ENDBRANCH  66  69
ENDBRANCH  48  62
BRANCH  49  73
ATOM     73  C   UNL     1       6.114  -3.398   6.965  1.00  0.00     0.023 A 
ATOM     74  C   UNL     1       6.899  -4.129   7.880  1.00  0.00     0.012 A 
ATOM     75  C   UNL     1       6.700  -2.951   5.766  1.00  0.00     0.148 A 
ATOM     76  C   UNL     1       8.252  -4.363   7.629  1.00  0.00     0.002 A 
ATOM     77  C   UNL     1       8.032  -3.241   5.494  1.00  0.00     0.091 A 
ATOM     78  F   UNL     1       5.945  -2.243   4.914  1.00  0.00    -0.205 F 
ATOM     79  C   UNL     1       8.816  -3.926   6.434  1.00  0.00     0.022 A 
BRANCH  77  80
ATOM     80  S   UNL     1       8.800  -2.828   3.924  1.00  0.00     0.127 S 
ATOM     81  O   UNL     1       9.658  -1.705   4.296  1.00  0.00    -0.237 OA
ATOM     82  O   UNL     1       9.510  -4.065   3.598  1.00  0.00    -0.237 OA
ATOM     83  O   UNL     1       7.700  -2.517   3.022  1.00  0.00    -0.744 OA
ENDBRANCH  77  80
ENDBRANCH  49  73
BRANCH  61  84
ATOM     84  C   UNL     1       3.156   0.315  12.084  1.00  0.00     0.023 A 
ATOM     85  C   UNL     1       3.847   1.531  11.914  1.00  0.00     0.012 A 
ATOM     86  C   UNL     1       2.905  -0.160  13.388  1.00  0.00     0.148 A 
ATOM     87  C   UNL     1       4.303   2.247  13.021  1.00  0.00     0.002 A 
ATOM     88  C   UNL     1       3.317   0.585  14.486  1.00  0.00     0.091 A 
ATOM     89  F   UNL     1       2.262  -1.328  13.529  1.00  0.00    -0.205 F 
ATOM     90  C   UNL     1       4.027   1.783  14.305  1.00  0.00     0.022 A 
BRANCH  88  91
ATOM     91  S   UNL     1       2.918   0.118  16.175  1.00  0.00     0.127 S 
ATOM     92  O   UNL     1       4.230  -0.259  16.697  1.00  0.00    -0.237 OA
ATOM     93  O   UNL     1       2.379   1.364  16.721  1.00  0.00    -0.237 OA
ATOM     94  O   UNL     1       1.952  -0.968  16.076  1.00  0.00    -0.744 OA
ENDBRANCH  88  91
ENDBRANCH  61  84
ENDBRANCH  35  36
ENDBRANCH  27  30
ENDBRANCH  25  26
ENDBRANCH  24  25
ENDBRANCH   1  24
TORSDOF 19
