REMARK SMILES C[NH2+][C@]1(C(=O)NCCCCCCNC(=O)c2ccc(-c3c4nc(c(-c5cccc(S(=O)(=O)[O-])c5F)c5ccc([nH]5)c(-c5cccc(S(=O)(=O)[O-])c5F)c5nc(c(-c6cccc(S(=O)(=O)[O-])c6F)c6ccc3[nH]6)C=C5)C=C4)cc2)CCC[C@@H]1CC[N@H+]1CCC[C@H]([NH+](C)C)C1
REMARK SMILES IDX 9 1 8 2 7 3 6 4 4 5 5 6 3 8 79 9 82 10 80 11 81 12 2 13 1 14
REMARK SMILES IDX 83 17 84 18 85 19 86 20 93 21 87 23 89 24 88 25 90 26 91 27
REMARK SMILES IDX 92 28 10 30 11 31 12 32 13 33 14 34 15 36 16 37 17 38 78 39
REMARK SMILES IDX 18 40 77 41 19 42 20 43 21 44 71 45 22 46 76 47 70 48 72 49
REMARK SMILES IDX 23 50 75 51 69 52 68 53 24 55 56 56 36 57 55 58 37 59 40 60
REMARK SMILES IDX 54 61 73 62 38 63 39 64 53 66 74 67 41 68 25 69 26 70 34 71
REMARK SMILES IDX 27 72 29 73 35 74 28 75 30 76 31 77 32 78 33 79 57 80 58 81
REMARK SMILES IDX 66 82 59 83 61 84 67 85 60 86 62 87 63 88 64 89 65 90 42 91
REMARK SMILES IDX 43 92 51 93 44 94 46 95 52 96 45 97 47 98 48 99 49 100
REMARK SMILES IDX 50 101
REMARK H PARENT 6 7 2 15 2 16 85 22 90 29 13 35 72 54 40 65
REMARK Flexibility Score: inf
ROOT
ATOM      1  C   UNL     1       2.572   0.786  -2.605  1.00  0.00     0.002 C 
ENDROOT
BRANCH   1   2
ATOM      2  C   UNL     1       1.065   0.675  -2.346  1.00  0.00     0.021 C 
BRANCH   2   3
ATOM      3  C   UNL     1       0.629  -0.718  -1.893  1.00  0.00     0.116 C 
BRANCH   3   4
ATOM      4  N   UNL     1       0.976  -0.929  -0.495  1.00  0.00    -0.351 N 
ATOM      5  C   UNL     1       0.243  -1.101   0.645  1.00  0.00     0.281 C 
ATOM      6  O   UNL     1       0.919  -1.269   1.669  1.00  0.00    -0.268 OA
ATOM      7  H   UNL     1       1.948  -0.953  -0.337  1.00  0.00     0.163 HD
BRANCH   5   8
ATOM      8  C   UNL     1      -1.327  -1.188   0.652  1.00  0.00     0.178 C 
ATOM      9  C   UNL     1      -1.970   0.016  -0.080  1.00  0.00     0.079 C 
ATOM     10  C   UNL     1      -1.825  -2.406  -0.195  1.00  0.00     0.066 C 
ATOM     11  C   UNL     1      -3.322  -0.486  -0.580  1.00  0.00     0.008 C 
ATOM     12  C   UNL     1      -3.242  -2.013  -0.637  1.00  0.00     0.011 C 
BRANCH   8  13
ATOM     13  N   UNL     1      -1.870  -1.030   2.037  1.00  0.00    -0.336 N 
ATOM     14  C   UNL     1      -1.719  -2.106   2.992  1.00  0.00     0.331 C 
ATOM     15  H   UNL     1      -1.417  -0.210   2.440  1.00  0.00     0.346 HD
ATOM     16  H   UNL     1      -2.878  -0.981   1.892  1.00  0.00     0.346 HD
ENDBRANCH   8  13
BRANCH  10  17
ATOM     17  C   UNL     1      -1.753  -3.792   0.477  1.00  0.00     0.072 C 
BRANCH  17  18
ATOM     18  C   UNL     1      -1.458  -5.000  -0.429  1.00  0.00     0.262 C 
BRANCH  18  19
ATOM     19  N   UNL     1      -0.156  -5.056  -1.107  1.00  0.00    -0.330 N 
ATOM     20  C   UNL     1       0.989  -4.511  -0.378  1.00  0.00     0.262 C 
ATOM     21  C   UNL     1       0.158  -6.449  -1.487  1.00  0.00     0.327 C 
ATOM     22  H   UNL     1      -0.281  -4.445  -1.915  1.00  0.00     0.348 HD
ATOM     23  C   UNL     1       2.208  -4.420  -1.296  1.00  0.00     0.068 C 
ATOM     24  C   UNL     1       1.351  -6.555  -2.477  1.00  0.00     0.239 C 
ATOM     25  C   UNL     1       2.563  -5.759  -1.938  1.00  0.00     0.077 C 
BRANCH  24  26
ATOM     26  N   UNL     1       1.047  -6.298  -3.907  1.00  0.00    -0.333 N 
ATOM     27  C   UNL     1       0.067  -7.255  -4.431  1.00  0.00     0.332 C 
ATOM     28  C   UNL     1       0.598  -4.941  -4.213  1.00  0.00     0.332 C 
ATOM     29  H   UNL     1       1.948  -6.419  -4.370  1.00  0.00     0.348 HD
ENDBRANCH  24  26
ENDBRANCH  18  19
ENDBRANCH  17  18
ENDBRANCH  10  17
ENDBRANCH   5   8
ENDBRANCH   3   4
ENDBRANCH   2   3
ENDBRANCH   1   2
BRANCH   1  30
ATOM     30  C   UNL     1       3.098  -0.101  -3.741  1.00  0.00     0.002 C 
BRANCH  30  31
ATOM     31  C   UNL     1       2.394   0.086  -5.088  1.00  0.00     0.021 C 
BRANCH  31  32
ATOM     32  C   UNL     1       2.455   1.507  -5.641  1.00  0.00     0.116 C 
BRANCH  32  33
ATOM     33  N   UNL     1       3.821   1.923  -5.919  1.00  0.00    -0.352 N 
ATOM     34  C   UNL     1       4.359   2.413  -7.084  1.00  0.00     0.251 C 
ATOM     35  H   UNL     1       4.449   1.843  -5.165  1.00  0.00     0.163 HD
ATOM     36  O   UNL     1       5.574   2.516  -7.205  1.00  0.00    -0.269 OA
BRANCH  34  37
ATOM     37  C   UNL     1       3.463   2.802  -8.195  1.00  0.00     0.039 A 
ATOM     38  C   UNL     1       3.784   2.404  -9.495  1.00  0.00     0.014 A 
ATOM     39  C   UNL     1       2.314   3.559  -7.953  1.00  0.00     0.014 A 
ATOM     40  C   UNL     1       2.920   2.721 -10.546  1.00  0.00     0.010 A 
ATOM     41  C   UNL     1       1.419   3.808  -8.989  1.00  0.00     0.010 A 
ATOM     42  C   UNL     1       1.715   3.399 -10.298  1.00  0.00    -0.014 A 
BRANCH  42  43
ATOM     43  C   UNL     1       0.750   3.681 -11.392  1.00  0.00     0.031 A 
ATOM     44  C   UNL     1       0.407   5.100 -11.756  1.00  0.00     0.074 A 
ATOM     45  C   UNL     1       0.120   2.657 -12.002  1.00  0.00     0.049 A 
ATOM     46  N   UNL     1      -0.448   5.540 -12.643  1.00  0.00    -0.248 NA
ATOM     47  C   UNL     1       1.094   6.167 -11.008  1.00  0.00     0.031 C 
ATOM     48  C   UNL     1       0.309   1.239 -11.687  1.00  0.00     0.029 A 
ATOM     49  N   UNL     1      -0.826   2.651 -12.997  1.00  0.00    -0.354 N 
ATOM     50  C   UNL     1      -0.428   6.925 -12.538  1.00  0.00     0.074 A 
ATOM     51  C   UNL     1       0.497   7.254 -11.476  1.00  0.00     0.031 C 
ATOM     52  C   UNL     1      -0.488   0.502 -12.476  1.00  0.00     0.029 A 
ATOM     53  C   UNL     1      -1.270   1.393 -13.328  1.00  0.00     0.049 A 
ATOM     54  H   UNL     1      -1.154   3.471 -13.432  1.00  0.00     0.167 HD
ATOM     55  C   UNL     1      -1.097   7.843 -13.276  1.00  0.00     0.034 A 
ATOM     56  C   UNL     1      -2.210   0.999 -14.210  1.00  0.00     0.034 A 
ATOM     57  C   UNL     1      -1.988   7.513 -14.355  1.00  0.00     0.049 A 
ATOM     58  C   UNL     1      -2.917   2.038 -15.037  1.00  0.00     0.074 A 
ATOM     59  C   UNL     1      -2.647   8.371 -15.218  1.00  0.00     0.029 A 
ATOM     60  N   UNL     1      -2.356   6.226 -14.713  1.00  0.00    -0.354 N 
ATOM     61  N   UNL     1      -2.769   3.341 -15.029  1.00  0.00    -0.248 NA
ATOM     62  C   UNL     1      -3.896   1.552 -16.020  1.00  0.00     0.031 C 
ATOM     63  C   UNL     1      -3.440   7.602 -16.077  1.00  0.00     0.029 A 
ATOM     64  C   UNL     1      -3.244   6.264 -15.774  1.00  0.00     0.049 A 
ATOM     65  H   UNL     1      -2.034   5.404 -14.276  1.00  0.00     0.167 HD
ATOM     66  C   UNL     1      -3.604   3.826 -16.028  1.00  0.00     0.074 A 
ATOM     67  C   UNL     1      -4.241   2.675 -16.635  1.00  0.00     0.031 C 
ATOM     68  C   UNL     1      -3.833   5.109 -16.402  1.00  0.00     0.034 A 
BRANCH  55  69
ATOM     69  C   UNL     1      -0.856   9.300 -12.970  1.00  0.00     0.023 A 
ATOM     70  C   UNL     1       0.388   9.883 -13.286  1.00  0.00     0.012 A 
ATOM     71  C   UNL     1      -1.878  10.104 -12.429  1.00  0.00     0.148 A 
ATOM     72  C   UNL     1       0.625  11.234 -13.034  1.00  0.00     0.002 A 
ATOM     73  C   UNL     1      -1.651  11.461 -12.225  1.00  0.00     0.091 A 
ATOM     74  F   UNL     1      -3.048   9.529 -12.117  1.00  0.00    -0.205 F 
ATOM     75  C   UNL     1      -0.397  12.024 -12.514  1.00  0.00     0.022 A 
BRANCH  73  76
ATOM     76  S   UNL     1      -2.926  12.581 -11.638  1.00  0.00     0.127 S 
ATOM     77  O   UNL     1      -2.436  12.909 -10.299  1.00  0.00    -0.237 OA
ATOM     78  O   UNL     1      -2.841  13.676 -12.604  1.00  0.00    -0.237 OA
ATOM     79  O   UNL     1      -4.172  11.829 -11.678  1.00  0.00    -0.744 OA
ENDBRANCH  73  76
ENDBRANCH  55  69
BRANCH  56  80
ATOM     80  C   UNL     1      -2.495  -0.452 -14.400  1.00  0.00     0.023 A 
ATOM     81  C   UNL     1      -2.122  -1.080 -15.604  1.00  0.00     0.012 A 
ATOM     82  C   UNL     1      -3.112  -1.215 -13.390  1.00  0.00     0.148 A 
ATOM     83  C   UNL     1      -2.392  -2.432 -15.815  1.00  0.00     0.002 A 
ATOM     84  C   UNL     1      -3.326  -2.575 -13.584  1.00  0.00     0.091 A 
ATOM     85  F   UNL     1      -3.467  -0.597 -12.255  1.00  0.00    -0.205 F 
ATOM     86  C   UNL     1      -2.985  -3.182 -14.802  1.00  0.00     0.022 A 
BRANCH  84  87
ATOM     87  S   UNL     1      -3.966  -3.643 -12.289  1.00  0.00     0.127 S 
ATOM     88  O   UNL     1      -5.290  -3.980 -12.805  1.00  0.00    -0.237 OA
ATOM     89  O   UNL     1      -3.000  -4.743 -12.302  1.00  0.00    -0.237 OA
ATOM     90  O   UNL     1      -3.947  -2.843 -11.072  1.00  0.00    -0.744 OA
ENDBRANCH  84  87
ENDBRANCH  56  80
BRANCH  68  91
ATOM     91  C   UNL     1      -4.779   5.346 -17.551  1.00  0.00     0.023 A 
ATOM     92  C   UNL     1      -6.162   5.138 -17.381  1.00  0.00     0.012 A 
ATOM     93  C   UNL     1      -4.301   5.845 -18.779  1.00  0.00     0.148 A 
ATOM     94  C   UNL     1      -7.050   5.390 -18.426  1.00  0.00     0.002 A 
ATOM     95  C   UNL     1      -5.197   6.144 -19.798  1.00  0.00     0.091 A 
ATOM     96  F   UNL     1      -2.979   6.020 -18.928  1.00  0.00    -0.205 F 
ATOM     97  C   UNL     1      -6.570   5.904 -19.628  1.00  0.00     0.022 A 
BRANCH  95  98
ATOM     98  S   UNL     1      -4.682   6.902 -21.343  1.00  0.00     0.127 S 
ATOM     99  O   UNL     1      -4.864   5.803 -22.289  1.00  0.00    -0.237 OA
ATOM    100  O   UNL     1      -5.645   7.995 -21.486  1.00  0.00    -0.237 OA
ATOM    101  O   UNL     1      -3.305   7.332 -21.142  1.00  0.00    -0.744 OA
ENDBRANCH  95  98
ENDBRANCH  68  91
ENDBRANCH  42  43
ENDBRANCH  34  37
ENDBRANCH  32  33
ENDBRANCH  31  32
ENDBRANCH  30  31
ENDBRANCH   1  30
TORSDOF 21
