REMARK SMILES CC(C)C(=O)Nc1ccc(NC(=O)[C@@H]2[C@@H](C(=O)NCCCCCCNC(=O)c3ccc(-c4c5nc(c(-c6cccc(S(=O)(=O)[O-])c6F)c6ccc([nH]6)c(-c6cccc(S(=O)(=O)[O-])c6F)c6nc(c(-c7cccc(S(=O)(=O)[O-])c7F)c7ccc4[nH]7)C=C6)C=C5)cc3)C2(C)C)cc1Cl
REMARK SMILES IDX 21 1 20 2 19 3 18 4 16 5 17 6 15 8 14 9 91 10 92 11 93 12
REMARK SMILES IDX 12 13 11 14 13 16 10 17 7 18 8 19 95 20 9 21 94 22 96 23
REMARK SMILES IDX 6 24 4 25 5 26 2 28 1 29 3 30 22 31 23 32 24 33 25 34 26 35
REMARK SMILES IDX 27 37 28 38 29 39 90 40 30 41 89 42 31 43 32 44 33 45 83 46
REMARK SMILES IDX 34 47 88 48 82 49 84 50 35 51 87 52 81 53 80 54 36 56 68 57
REMARK SMILES IDX 48 58 67 59 49 60 52 61 66 62 85 63 50 64 51 65 65 67 86 68
REMARK SMILES IDX 53 69 37 70 38 71 46 72 39 73 41 74 47 75 40 76 42 77 43 78
REMARK SMILES IDX 44 79 45 80 69 81 70 82 78 83 71 84 73 85 79 86 72 87 74 88
REMARK SMILES IDX 75 89 76 90 77 91 54 92 55 93 63 94 56 95 58 96 64 97 57 98
REMARK SMILES IDX 59 99 60 100 61 101 62 102
REMARK H PARENT 18 7 11 15 6 27 25 36 84 55 52 66
REMARK Flexibility Score: inf
ROOT
ATOM      1  C   UNL     1      -0.353  -3.891  -0.584  1.00  0.00     0.002 C 
ENDROOT
BRANCH   1   2
ATOM      2  C   UNL     1      -0.167  -3.015  -1.820  1.00  0.00     0.021 C 
BRANCH   2   3
ATOM      3  C   UNL     1      -0.189  -3.768  -3.149  1.00  0.00     0.116 C 
BRANCH   3   4
ATOM      4  N   UNL     1      -1.537  -4.162  -3.538  1.00  0.00    -0.356 N 
ATOM      5  C   UNL     1      -2.340  -3.934  -4.628  1.00  0.00     0.224 C 
ATOM      6  O   UNL     1      -3.501  -4.336  -4.553  1.00  0.00    -0.275 OA
ATOM      7  H   UNL     1      -1.975  -4.723  -2.858  1.00  0.00     0.163 HD
BRANCH   5   8
ATOM      8  C   UNL     1      -1.922  -3.274  -5.905  1.00  0.00     0.098 C 
ATOM      9  C   UNL     1      -0.486  -3.131  -6.324  1.00  0.00     0.098 C 
ATOM     10  C   UNL     1      -1.337  -1.871  -6.013  1.00  0.00    -0.011 C 
ATOM     11  C   UNL     1      -1.136  -1.038  -4.766  1.00  0.00     0.013 C 
ATOM     12  C   UNL     1      -1.734  -1.016  -7.202  1.00  0.00     0.013 C 
BRANCH   9  13
ATOM     13  C   UNL     1      -0.011  -3.393  -7.707  1.00  0.00     0.228 C 
ATOM     14  N   UNL     1       1.297  -3.111  -8.041  1.00  0.00    -0.326 N 
ATOM     15  H   UNL     1       1.555  -3.442  -8.932  1.00  0.00     0.169 HD
ATOM     16  O   UNL     1      -0.764  -3.893  -8.536  1.00  0.00    -0.274 OA
BRANCH  14  17
ATOM     17  C   UNL     1       2.340  -2.444  -7.363  1.00  0.00     0.042 A 
ATOM     18  C   UNL     1       4.406  -0.848  -6.291  1.00  0.00     0.060 A 
ATOM     19  C   UNL     1       3.237  -1.057  -5.572  1.00  0.00     0.030 A 
ATOM     20  C   UNL     1       4.620  -1.591  -7.454  1.00  0.00     0.066 A 
ATOM     21  C   UNL     1       2.224  -1.847  -6.111  1.00  0.00     0.028 A 
ATOM     22  C   UNL     1       3.577  -2.350  -8.008  1.00  0.00     0.048 A 
ATOM     23  Cl  UNL     1       6.179  -1.712  -8.187  1.00  0.00    -0.082 Cl
BRANCH  18  24
ATOM     24  N   UNL     1       5.301   0.092  -5.769  1.00  0.00    -0.325 N 
ATOM     25  C   UNL     1       5.399   1.413  -6.111  1.00  0.00     0.226 C 
ATOM     26  O   UNL     1       5.911   2.168  -5.276  1.00  0.00    -0.274 OA
ATOM     27  H   UNL     1       5.927  -0.231  -5.081  1.00  0.00     0.169 HD
BRANCH  25  28
ATOM     28  C   UNL     1       4.856   2.013  -7.413  1.00  0.00     0.072 C 
ATOM     29  C   UNL     1       5.497   1.464  -8.677  1.00  0.00     0.018 C 
ATOM     30  C   UNL     1       3.335   2.043  -7.507  1.00  0.00     0.018 C 
ENDBRANCH  25  28
ENDBRANCH  18  24
ENDBRANCH  14  17
ENDBRANCH   9  13
ENDBRANCH   5   8
ENDBRANCH   3   4
ENDBRANCH   2   3
ENDBRANCH   1   2
BRANCH   1  31
ATOM     31  C   UNL     1       0.721  -4.963  -0.382  1.00  0.00     0.002 C 
BRANCH  31  32
ATOM     32  C   UNL     1       2.166  -4.458  -0.397  1.00  0.00     0.021 C 
BRANCH  32  33
ATOM     33  C   UNL     1       2.468  -3.343   0.599  1.00  0.00     0.116 C 
BRANCH  33  34
ATOM     34  N   UNL     1       2.237  -3.759   1.973  1.00  0.00    -0.352 N 
ATOM     35  C   UNL     1       3.104  -3.762   3.037  1.00  0.00     0.251 C 
ATOM     36  H   UNL     1       1.328  -4.084   2.168  1.00  0.00     0.163 HD
ATOM     37  O   UNL     1       2.799  -4.340   4.076  1.00  0.00    -0.269 OA
BRANCH  35  38
ATOM     38  C   UNL     1       4.410  -3.080   2.921  1.00  0.00     0.039 A 
ATOM     39  C   UNL     1       5.558  -3.726   3.385  1.00  0.00     0.014 A 
ATOM     40  C   UNL     1       4.499  -1.804   2.357  1.00  0.00     0.014 A 
ATOM     41  C   UNL     1       6.804  -3.114   3.233  1.00  0.00     0.010 A 
ATOM     42  C   UNL     1       5.748  -1.234   2.132  1.00  0.00     0.010 A 
ATOM     43  C   UNL     1       6.913  -1.876   2.578  1.00  0.00    -0.014 A 
BRANCH  43  44
ATOM     44  C   UNL     1       8.234  -1.240   2.345  1.00  0.00     0.031 A 
ATOM     45  C   UNL     1       8.553   0.095   2.962  1.00  0.00     0.074 A 
ATOM     46  C   UNL     1       9.116  -1.824   1.511  1.00  0.00     0.049 A 
ATOM     47  N   UNL     1       9.636   0.819   2.847  1.00  0.00    -0.248 NA
ATOM     48  C   UNL     1       7.506   0.710   3.794  1.00  0.00     0.031 C 
ATOM     49  C   UNL     1       8.899  -3.085   0.800  1.00  0.00     0.029 A 
ATOM     50  N   UNL     1      10.365  -1.425   1.106  1.00  0.00    -0.354 N 
ATOM     51  C   UNL     1       9.388   1.988   3.557  1.00  0.00     0.074 A 
ATOM     52  C   UNL     1       8.036   1.893   4.064  1.00  0.00     0.031 C 
ATOM     53  C   UNL     1       9.987  -3.369   0.066  1.00  0.00     0.029 A 
ATOM     54  C   UNL     1      10.962  -2.294   0.223  1.00  0.00     0.049 A 
ATOM     55  H   UNL     1      10.793  -0.596   1.418  1.00  0.00     0.167 HD
ATOM     56  C   UNL     1      10.216   3.035   3.791  1.00  0.00     0.034 A 
ATOM     57  C   UNL     1      12.159  -2.233  -0.391  1.00  0.00     0.034 A 
ATOM     58  C   UNL     1      11.568   3.112   3.305  1.00  0.00     0.049 A 
ATOM     59  C   UNL     1      13.065  -1.065  -0.112  1.00  0.00     0.074 A 
ATOM     60  C   UNL     1      12.521   4.083   3.559  1.00  0.00     0.029 A 
ATOM     61  N   UNL     1      12.155   2.192   2.449  1.00  0.00    -0.354 N 
ATOM     62  N   UNL     1      12.876  -0.045   0.690  1.00  0.00    -0.248 NA
ATOM     63  C   UNL     1      14.365  -1.056  -0.798  1.00  0.00     0.031 C 
ATOM     64  C   UNL     1      13.668   3.772   2.821  1.00  0.00     0.029 A 
ATOM     65  C   UNL     1      13.447   2.583   2.144  1.00  0.00     0.049 A 
ATOM     66  H   UNL     1      11.715   1.380   2.107  1.00  0.00     0.167 HD
ATOM     67  C   UNL     1      14.045   0.705   0.638  1.00  0.00     0.074 A 
ATOM     68  C   UNL     1      14.943   0.012  -0.265  1.00  0.00     0.031 C 
ATOM     69  C   UNL     1      14.347   1.864   1.276  1.00  0.00     0.034 A 
BRANCH  56  70
ATOM     70  C   UNL     1       9.681   4.168   4.631  1.00  0.00     0.023 A 
ATOM     71  C   UNL     1       9.404   3.959   5.999  1.00  0.00     0.012 A 
ATOM     72  C   UNL     1       9.463   5.444   4.074  1.00  0.00     0.148 A 
ATOM     73  C   UNL     1       8.863   4.978   6.782  1.00  0.00     0.002 A 
ATOM     74  C   UNL     1       8.973   6.470   4.874  1.00  0.00     0.091 A 
ATOM     75  F   UNL     1       9.712   5.625   2.770  1.00  0.00    -0.205 F 
ATOM     76  C   UNL     1       8.655   6.235   6.222  1.00  0.00     0.022 A 
BRANCH  74  77
ATOM     77  S   UNL     1       8.753   8.146   4.266  1.00  0.00     0.127 S 
ATOM     78  O   UNL     1       7.298   8.227   4.145  1.00  0.00    -0.237 OA
ATOM     79  O   UNL     1       9.319   8.946   5.354  1.00  0.00    -0.237 OA
ATOM     80  O   UNL     1       9.494   8.217   3.015  1.00  0.00    -0.744 OA
ENDBRANCH  74  77
ENDBRANCH  56  70
BRANCH  57  81
ATOM     81  C   UNL     1      12.605  -3.357  -1.261  1.00  0.00     0.023 A 
ATOM     82  C   UNL     1      13.642  -4.200  -0.813  1.00  0.00     0.012 A 
ATOM     83  C   UNL     1      11.987  -3.625  -2.497  1.00  0.00     0.148 A 
ATOM     84  C   UNL     1      14.074  -5.273  -1.592  1.00  0.00     0.002 A 
ATOM     85  C   UNL     1      12.386  -4.728  -3.244  1.00  0.00     0.091 A 
ATOM     86  F   UNL     1      11.004  -2.811  -2.905  1.00  0.00    -0.205 F 
ATOM     87  C   UNL     1      13.441  -5.543  -2.802  1.00  0.00     0.022 A 
BRANCH  85  88
ATOM     88  S   UNL     1      11.547  -5.233  -4.750  1.00  0.00     0.127 S 
ATOM     89  O   UNL     1      12.595  -5.050  -5.752  1.00  0.00    -0.237 OA
ATOM     90  O   UNL     1      11.214  -6.626  -4.453  1.00  0.00    -0.237 OA
ATOM     91  O   UNL     1      10.395  -4.351  -4.878  1.00  0.00    -0.744 OA
ENDBRANCH  85  88
ENDBRANCH  57  81
BRANCH  69  92
ATOM     92  C   UNL     1      15.722   2.444   1.059  1.00  0.00     0.023 A 
ATOM     93  C   UNL     1      16.060   3.018  -0.183  1.00  0.00     0.012 A 
ATOM     94  C   UNL     1      16.655   2.482   2.114  1.00  0.00     0.148 A 
ATOM     95  C   UNL     1      17.318   3.587  -0.381  1.00  0.00     0.002 A 
ATOM     96  C   UNL     1      17.885   3.100   1.926  1.00  0.00     0.091 A 
ATOM     97  F   UNL     1      16.322   1.915   3.283  1.00  0.00    -0.205 F 
ATOM     98  C   UNL     1      18.224   3.640   0.675  1.00  0.00     0.022 A 
BRANCH  96  99
ATOM     99  S   UNL     1      19.075   3.305   3.256  1.00  0.00     0.127 S 
ATOM    100  O   UNL     1      20.136   2.385   2.852  1.00  0.00    -0.237 OA
ATOM    101  O   UNL     1      19.421   4.722   3.145  1.00  0.00    -0.237 OA
ATOM    102  O   UNL     1      18.374   2.948   4.483  1.00  0.00    -0.744 OA
ENDBRANCH  96  99
ENDBRANCH  69  92
ENDBRANCH  43  44
ENDBRANCH  35  38
ENDBRANCH  33  34
ENDBRANCH  32  33
ENDBRANCH  31  32
ENDBRANCH   1  31
TORSDOF 20
