REMARK SMILES CS(=O)(=O)c1ccc(C2=NN(c3ccc(C(=O)NCCCCCCNC(=O)c4ccc(-c5c6nc(c(-c7cccc(S(=O)(=O)[O-])c7F)c7ccc([nH]7)c(-c7cccc(S(=O)(=O)[O-])c7F)c7nc(c(-c8cccc(S(=O)(=O)[O-])c8F)c8ccc5[nH]8)C=C7)C=C6)cc4)cc3)[C@H](c3ccccc3)C2)cc1
REMARK SMILES IDX 21 1 20 2 19 3 18 4 16 5 17 6 15 8 12 9 13 10 92 11 14 12
REMARK SMILES IDX 91 13 11 14 9 15 10 16 100 17 93 18 8 19 5 20 6 21 102 22
REMARK SMILES IDX 7 23 101 24 2 25 1 26 3 27 4 28 94 29 95 30 99 31 96 32
REMARK SMILES IDX 98 33 97 34 22 35 23 36 24 37 25 38 26 39 27 41 28 42 29 43
REMARK SMILES IDX 90 44 30 45 89 46 31 47 32 48 33 49 83 50 34 51 88 52 82 53
REMARK SMILES IDX 84 54 35 55 87 56 81 57 80 58 36 60 68 61 48 62 67 63 49 64
REMARK SMILES IDX 52 65 66 66 85 67 50 68 51 69 65 71 86 72 53 73 37 74 38 75
REMARK SMILES IDX 46 76 39 77 41 78 47 79 40 80 42 81 43 82 44 83 45 84 69 85
REMARK SMILES IDX 70 86 78 87 71 88 73 89 79 90 72 91 74 92 75 93 76 94 77 95
REMARK SMILES IDX 54 96 55 97 63 98 56 99 58 100 64 101 57 102 59 103 60 104
REMARK SMILES IDX 61 105 62 106
REMARK H PARENT 18 7 25 40 84 59 52 70
REMARK Flexibility Score: inf
ROOT
ATOM      1  C   UNL     1       7.615  -4.989  13.421  1.00  0.00     0.002 C 
ENDROOT
BRANCH   1   2
ATOM      2  C   UNL     1       6.591  -4.175  12.620  1.00  0.00     0.021 C 
BRANCH   2   3
ATOM      3  C   UNL     1       6.745  -2.664  12.807  1.00  0.00     0.116 C 
BRANCH   3   4
ATOM      4  N   UNL     1       7.862  -2.176  12.017  1.00  0.00    -0.352 N 
ATOM      5  C   UNL     1       7.902  -1.481  10.835  1.00  0.00     0.251 C 
ATOM      6  O   UNL     1       9.001  -1.161  10.381  1.00  0.00    -0.269 OA
ATOM      7  H   UNL     1       8.747  -2.381  12.397  1.00  0.00     0.163 HD
BRANCH   5   8
ATOM      8  C   UNL     1       6.667  -1.043  10.134  1.00  0.00     0.039 A 
ATOM      9  C   UNL     1       4.347  -0.010   8.914  1.00  0.00     0.060 A 
ATOM     10  C   UNL     1       5.550   0.700   8.862  1.00  0.00     0.029 A 
ATOM     11  C   UNL     1       4.342  -1.273   9.510  1.00  0.00     0.029 A 
ATOM     12  C   UNL     1       6.702   0.191   9.471  1.00  0.00     0.016 A 
ATOM     13  C   UNL     1       5.495  -1.799  10.091  1.00  0.00     0.016 A 
BRANCH   9  14
ATOM     14  N   UNL     1       3.179   0.477   8.356  1.00  0.00    -0.257 N 
ATOM     15  C   UNL     1       2.087   1.219   6.699  1.00  0.00     0.071 C 
ATOM     16  N   UNL     1       3.044   0.410   7.014  1.00  0.00    -0.176 NA
ATOM     17  C   UNL     1       1.504   2.025   7.825  1.00  0.00     0.091 C 
ATOM     18  C   UNL     1       2.273   1.424   9.021  1.00  0.00     0.144 C 
BRANCH  15  19
ATOM     19  C   UNL     1       1.600   1.315   5.317  1.00  0.00    -0.002 A 
ATOM     20  C   UNL     1       0.773   1.364   2.665  1.00  0.00     0.067 A 
ATOM     21  C   UNL     1       0.990   0.136   3.291  1.00  0.00     0.021 A 
ATOM     22  C   UNL     1       0.971   2.567   3.360  1.00  0.00     0.021 A 
ATOM     23  C   UNL     1       1.420   0.116   4.616  1.00  0.00     0.011 A 
ATOM     24  C   UNL     1       1.375   2.544   4.698  1.00  0.00     0.011 A 
BRANCH  20  25
ATOM     25  S   UNL     1       0.265   1.438   0.963  1.00  0.00     0.175 S 
ATOM     26  C   UNL     1       0.975   0.025   0.162  1.00  0.00     0.163 C 
ATOM     27  O   UNL     1       0.895   2.610   0.387  1.00  0.00    -0.224 OA
ATOM     28  O   UNL     1      -1.178   1.285   0.958  1.00  0.00    -0.224 OA
ENDBRANCH  20  25
ENDBRANCH  15  19
BRANCH  18  29
ATOM     29  C   UNL     1       1.468   0.749  10.129  1.00  0.00    -0.023 A 
ATOM     30  C   UNL     1       0.124   0.361  10.010  1.00  0.00     0.006 A 
ATOM     31  C   UNL     1       2.113   0.476  11.355  1.00  0.00     0.006 A 
ATOM     32  C   UNL     1      -0.545  -0.261  11.073  1.00  0.00     0.000 A 
ATOM     33  C   UNL     1       1.454  -0.171  12.403  1.00  0.00     0.000 A 
ATOM     34  C   UNL     1       0.121  -0.534  12.264  1.00  0.00     0.000 A 
ENDBRANCH  18  29
ENDBRANCH   9  14
ENDBRANCH   5   8
ENDBRANCH   3   4
ENDBRANCH   2   3
ENDBRANCH   1   2
BRANCH   1  35
ATOM     35  C   UNL     1       7.508  -4.826  14.941  1.00  0.00     0.002 C 
BRANCH  35  36
ATOM     36  C   UNL     1       6.128  -5.141  15.524  1.00  0.00     0.021 C 
BRANCH  36  37
ATOM     37  C   UNL     1       5.664  -6.575  15.287  1.00  0.00     0.116 C 
BRANCH  37  38
ATOM     38  N   UNL     1       6.536  -7.533  15.952  1.00  0.00    -0.352 N 
ATOM     39  C   UNL     1       6.220  -8.485  16.888  1.00  0.00     0.251 C 
ATOM     40  H   UNL     1       7.485  -7.493  15.693  1.00  0.00     0.163 HD
ATOM     41  O   UNL     1       7.111  -9.041  17.525  1.00  0.00    -0.269 OA
BRANCH  39  42
ATOM     42  C   UNL     1       4.804  -8.832  17.130  1.00  0.00     0.039 A 
ATOM     43  C   UNL     1       4.355  -8.980  18.444  1.00  0.00     0.014 A 
ATOM     44  C   UNL     1       3.925  -9.018  16.059  1.00  0.00     0.014 A 
ATOM     45  C   UNL     1       3.010  -9.267  18.684  1.00  0.00     0.010 A 
ATOM     46  C   UNL     1       2.572  -9.227  16.303  1.00  0.00     0.010 A 
ATOM     47  C   UNL     1       2.101  -9.364  17.617  1.00  0.00    -0.014 A 
BRANCH  47  48
ATOM     48  C   UNL     1       0.655  -9.604  17.858  1.00  0.00     0.031 A 
ATOM     49  C   UNL     1      -0.006 -10.847  17.326  1.00  0.00     0.074 A 
ATOM     50  C   UNL     1      -0.078  -8.665  18.487  1.00  0.00     0.049 A 
ATOM     51  N   UNL     1      -1.264 -11.198  17.381  1.00  0.00    -0.248 NA
ATOM     52  C   UNL     1       0.854 -11.810  16.617  1.00  0.00     0.031 C 
ATOM     53  C   UNL     1       0.431  -7.382  18.977  1.00  0.00     0.029 A 
ATOM     54  N   UNL     1      -1.415  -8.630  18.796  1.00  0.00    -0.354 N 
ATOM     55  C   UNL     1      -1.353 -12.405  16.696  1.00  0.00     0.074 A 
ATOM     56  C   UNL     1      -0.029 -12.703  16.195  1.00  0.00     0.031 C 
ATOM     57  C   UNL     1      -0.580  -6.685  19.520  1.00  0.00     0.029 A 
ATOM     58  C   UNL     1      -1.814  -7.454  19.388  1.00  0.00     0.049 A 
ATOM     59  H   UNL     1      -2.031  -9.376  18.611  1.00  0.00     0.167 HD
ATOM     60  C   UNL     1      -2.429 -13.209  16.527  1.00  0.00     0.034 A 
ATOM     61  C   UNL     1      -3.037  -7.034  19.766  1.00  0.00     0.034 A 
ATOM     62  C   UNL     1      -3.737 -12.922  17.050  1.00  0.00     0.049 A 
ATOM     63  C   UNL     1      -4.212  -7.957  19.590  1.00  0.00     0.074 A 
ATOM     64  C   UNL     1      -4.878 -13.703  16.989  1.00  0.00     0.029 A 
ATOM     65  N   UNL     1      -4.083 -11.761  17.724  1.00  0.00    -0.354 N 
ATOM     66  N   UNL     1      -4.246  -9.159  19.067  1.00  0.00    -0.248 NA
ATOM     67  C   UNL     1      -5.511  -7.483  20.090  1.00  0.00     0.031 C 
ATOM     68  C   UNL     1      -5.921 -13.002  17.604  1.00  0.00     0.029 A 
ATOM     69  C   UNL     1      -5.421 -11.801  18.080  1.00  0.00     0.049 A 
ATOM     70  H   UNL     1      -3.469 -11.018  17.921  1.00  0.00     0.167 HD
ATOM     71  C   UNL     1      -5.557  -9.599  19.208  1.00  0.00     0.074 A 
ATOM     72  C   UNL     1      -6.281  -8.543  19.886  1.00  0.00     0.031 C 
ATOM     73  C   UNL     1      -6.116 -10.765  18.800  1.00  0.00     0.034 A 
BRANCH  60  74
ATOM     74  C   UNL     1      -2.223 -14.508  15.791  1.00  0.00     0.023 A 
ATOM     75  C   UNL     1      -1.476 -15.539  16.399  1.00  0.00     0.012 A 
ATOM     76  C   UNL     1      -2.812 -14.734  14.531  1.00  0.00     0.148 A 
ATOM     77  C   UNL     1      -1.288 -16.759  15.751  1.00  0.00     0.002 A 
ATOM     78  C   UNL     1      -2.660 -15.970  13.913  1.00  0.00     0.091 A 
ATOM     79  F   UNL     1      -3.503 -13.738  13.961  1.00  0.00    -0.205 F 
ATOM     80  C   UNL     1      -1.888 -16.978  14.515  1.00  0.00     0.022 A 
BRANCH  78  81
ATOM     81  S   UNL     1      -3.458 -16.384  12.358  1.00  0.00     0.127 S 
ATOM     82  O   UNL     1      -2.311 -16.485  11.456  1.00  0.00    -0.237 OA
ATOM     83  O   UNL     1      -4.100 -17.660  12.673  1.00  0.00    -0.237 OA
ATOM     84  O   UNL     1      -4.378 -15.291  12.073  1.00  0.00    -0.744 OA
ENDBRANCH  78  81
ENDBRANCH  60  74
BRANCH  61  85
ATOM     85  C   UNL     1      -3.205  -5.688  20.384  1.00  0.00     0.023 A 
ATOM     86  C   UNL     1      -3.547  -5.581  21.746  1.00  0.00     0.012 A 
ATOM     87  C   UNL     1      -3.010  -4.514  19.631  1.00  0.00     0.148 A 
ATOM     88  C   UNL     1      -3.732  -4.330  22.336  1.00  0.00     0.002 A 
ATOM     89  C   UNL     1      -3.136  -3.272  20.239  1.00  0.00     0.091 A 
ATOM     90  F   UNL     1      -2.693  -4.637  18.334  1.00  0.00    -0.205 F 
ATOM     91  C   UNL     1      -3.518  -3.176  21.587  1.00  0.00     0.022 A 
BRANCH  89  92
ATOM     92  S   UNL     1      -2.747  -1.740  19.385  1.00  0.00     0.127 S 
ATOM     93  O   UNL     1      -4.070  -1.148  19.214  1.00  0.00    -0.237 OA
ATOM     94  O   UNL     1      -1.888  -1.062  20.357  1.00  0.00    -0.237 OA
ATOM     95  O   UNL     1      -2.066  -2.135  18.159  1.00  0.00    -0.744 OA
ENDBRANCH  89  92
ENDBRANCH  61  85
BRANCH  73  96
ATOM     96  C   UNL     1      -7.572 -10.989  19.113  1.00  0.00     0.023 A 
ATOM     97  C   UNL     1      -8.562 -10.261  18.423  1.00  0.00     0.012 A 
ATOM     98  C   UNL     1      -7.960 -11.975  20.042  1.00  0.00     0.148 A 
ATOM     99  C   UNL     1      -9.915 -10.486  18.681  1.00  0.00     0.002 A 
ATOM    100  C   UNL     1      -9.309 -12.229  20.255  1.00  0.00     0.091 A 
ATOM    101  F   UNL     1      -7.002 -12.644  20.700  1.00  0.00    -0.205 F 
ATOM    102  C   UNL     1     -10.287 -11.476  19.586  1.00  0.00     0.022 A 
BRANCH 100 103
ATOM    103  S   UNL     1      -9.883 -13.551  21.327  1.00  0.00     0.127 S 
ATOM    104  O   UNL     1     -10.446 -12.800  22.448  1.00  0.00    -0.237 OA
ATOM    105  O   UNL     1     -10.873 -14.223  20.485  1.00  0.00    -0.237 OA
ATOM    106  O   UNL     1      -8.710 -14.354  21.641  1.00  0.00    -0.744 OA
ENDBRANCH 100 103
ENDBRANCH  73  96
ENDBRANCH  47  48
ENDBRANCH  39  42
ENDBRANCH  37  38
ENDBRANCH  36  37
ENDBRANCH  35  36
ENDBRANCH   1  35
TORSDOF 20
