REMARK SMILES C=CCOc1ccccc1-c1cc(C(=O)NCCCCCCNC(=O)c2ccc(-c3c4nc(c(-c5cccc(S(=O)(=O)[O-])c5F)c5ccc([nH]5)c(-c5cccc(S(=O)(=O)[O-])c5F)c5nc(c(-c6cccc(S(=O)(=O)[O-])c6F)c6ccc3[nH]6)C=C5)C=C4)cc2)nc(N)n1
REMARK SMILES IDX 19 1 18 2 17 3 16 4 14 5 15 6 13 8 11 9 12 10 92 11 90 12
REMARK SMILES IDX 89 13 10 14 5 15 6 16 7 17 9 18 8 19 4 20 3 21 2 22 1 23
REMARK SMILES IDX 91 24 20 27 21 28 22 29 23 30 24 31 25 33 26 34 27 35 88 36
REMARK SMILES IDX 28 37 87 38 29 39 30 40 31 41 81 42 32 43 86 44 80 45 82 46
REMARK SMILES IDX 33 47 85 48 79 49 78 50 34 52 66 53 46 54 65 55 47 56 50 57
REMARK SMILES IDX 64 58 83 59 48 60 49 61 63 63 84 64 51 65 35 66 36 67 44 68
REMARK SMILES IDX 37 69 39 70 45 71 38 72 40 73 41 74 42 75 43 76 67 77 68 78
REMARK SMILES IDX 76 79 69 80 71 81 77 82 70 83 72 84 73 85 74 86 75 87 52 88
REMARK SMILES IDX 53 89 61 90 54 91 56 92 62 93 55 94 57 95 58 96 59 97 60 98
REMARK H PARENT 16 7 91 25 91 26 23 32 82 51 50 62
REMARK Flexibility Score: inf
ROOT
ATOM      1  C   UNL     1       4.239  -3.444   4.965  1.00  0.00     0.002 C 
ENDROOT
BRANCH   1   2
ATOM      2  C   UNL     1       3.625  -2.295   4.164  1.00  0.00     0.021 C 
BRANCH   2   3
ATOM      3  C   UNL     1       3.901  -2.314   2.662  1.00  0.00     0.116 C 
BRANCH   3   4
ATOM      4  N   UNL     1       3.386  -3.508   2.016  1.00  0.00    -0.351 N 
ATOM      5  C   UNL     1       2.830  -3.660   0.766  1.00  0.00     0.270 C 
ATOM      6  O   UNL     1       2.428  -4.779   0.439  1.00  0.00    -0.268 OA
ATOM      7  H   UNL     1       3.444  -4.332   2.551  1.00  0.00     0.163 HD
BRANCH   5   8
ATOM      8  C   UNL     1       2.651  -2.506  -0.167  1.00  0.00     0.134 A 
ATOM      9  C   UNL     1       1.403  -1.436  -1.809  1.00  0.00     0.080 A 
ATOM     10  C   UNL     1       1.648  -2.589  -1.101  1.00  0.00     0.063 A 
ATOM     11  N   UNL     1       2.151  -0.322  -1.656  1.00  0.00    -0.213 NA
ATOM     12  C   UNL     1       3.120  -0.356  -0.741  1.00  0.00     0.221 A 
ATOM     13  N   UNL     1       3.421  -1.414   0.004  1.00  0.00    -0.208 NA
BRANCH   9  14
ATOM     14  C   UNL     1       0.242  -1.300  -2.697  1.00  0.00     0.042 A 
ATOM     15  C   UNL     1      -1.066  -1.618  -2.279  1.00  0.00     0.129 A 
ATOM     16  C   UNL     1      -2.152  -1.514  -3.154  1.00  0.00     0.047 A 
ATOM     17  C   UNL     1      -1.954  -1.048  -4.453  1.00  0.00     0.004 A 
ATOM     18  C   UNL     1       0.410  -0.814  -4.005  1.00  0.00     0.014 A 
ATOM     19  C   UNL     1      -0.675  -0.692  -4.877  1.00  0.00     0.001 A 
BRANCH  15  20
ATOM     20  O   UNL     1      -1.307  -2.108  -1.017  1.00  0.00    -0.489 OA
BRANCH  20  21
ATOM     21  C   UNL     1      -1.685  -1.068  -0.101  1.00  0.00     0.257 C 
BRANCH  21  22
ATOM     22  C   UNL     1      -0.561  -0.817   0.861  1.00  0.00     0.006 C 
ATOM     23  C   UNL     1       0.050   0.365   1.019  1.00  0.00     0.007 C 
ENDBRANCH  21  22
ENDBRANCH  20  21
ENDBRANCH  15  20
ENDBRANCH   9  14
BRANCH  12  24
ATOM     24  N   UNL     1       3.783   0.805  -0.476  1.00  0.00    -0.368 N 
ATOM     25  H   UNL     1       4.505   0.818   0.194  1.00  0.00     0.159 HD
ATOM     26  H   UNL     1       3.541   1.631  -0.954  1.00  0.00     0.159 HD
ENDBRANCH  12  24
ENDBRANCH   5   8
ENDBRANCH   3   4
ENDBRANCH   2   3
ENDBRANCH   1   2
BRANCH   1  27
ATOM     27  C   UNL     1       5.752  -3.616   4.815  1.00  0.00     0.002 C 
BRANCH  27  28
ATOM     28  C   UNL     1       6.587  -2.371   5.122  1.00  0.00     0.021 C 
BRANCH  28  29
ATOM     29  C   UNL     1       6.352  -1.758   6.497  1.00  0.00     0.116 C 
BRANCH  29  30
ATOM     30  N   UNL     1       6.684  -2.673   7.578  1.00  0.00    -0.352 N 
ATOM     31  C   UNL     1       7.507  -2.477   8.661  1.00  0.00     0.251 C 
ATOM     32  H   UNL     1       6.258  -3.559   7.526  1.00  0.00     0.163 HD
ATOM     33  O   UNL     1       7.808  -3.422   9.381  1.00  0.00    -0.269 OA
BRANCH  31  34
ATOM     34  C   UNL     1       8.042  -1.126   8.943  1.00  0.00     0.039 A 
ATOM     35  C   UNL     1       9.393  -0.990   9.272  1.00  0.00     0.014 A 
ATOM     36  C   UNL     1       7.217   0.000   8.886  1.00  0.00     0.014 A 
ATOM     37  C   UNL     1       9.928   0.282   9.489  1.00  0.00     0.010 A 
ATOM     38  C   UNL     1       7.768   1.271   9.024  1.00  0.00     0.010 A 
ATOM     39  C   UNL     1       9.127   1.426   9.337  1.00  0.00    -0.014 A 
BRANCH  39  40
ATOM     40  C   UNL     1       9.694   2.791   9.497  1.00  0.00     0.031 A 
ATOM     41  C   UNL     1       9.181   3.704  10.579  1.00  0.00     0.074 A 
ATOM     42  C   UNL     1      10.615   3.238   8.620  1.00  0.00     0.049 A 
ATOM     43  N   UNL     1       9.516   4.941  10.840  1.00  0.00    -0.248 NA
ATOM     44  C   UNL     1       8.137   3.166  11.467  1.00  0.00     0.031 C 
ATOM     45  C   UNL     1      11.139   2.478   7.484  1.00  0.00     0.029 A 
ATOM     46  N   UNL     1      11.254   4.450   8.531  1.00  0.00    -0.354 N 
ATOM     47  C   UNL     1       8.703   5.341  11.894  1.00  0.00     0.074 A 
ATOM     48  C   UNL     1       7.832   4.227  12.201  1.00  0.00     0.031 C 
ATOM     49  C   UNL     1      12.023   3.237   6.817  1.00  0.00     0.029 A 
ATOM     50  C   UNL     1      12.103   4.548   7.454  1.00  0.00     0.049 A 
ATOM     51  H   UNL     1      11.117   5.179   9.178  1.00  0.00     0.167 HD
ATOM     52  C   UNL     1       8.697   6.517  12.565  1.00  0.00     0.034 A 
ATOM     53  C   UNL     1      12.854   5.579   7.020  1.00  0.00     0.034 A 
ATOM     54  C   UNL     1       9.587   7.611  12.280  1.00  0.00     0.049 A 
ATOM     55  C   UNL     1      12.849   6.867   7.798  1.00  0.00     0.074 A 
ATOM     56  C   UNL     1       9.718   8.811  12.956  1.00  0.00     0.029 A 
ATOM     57  N   UNL     1      10.487   7.646  11.226  1.00  0.00    -0.354 N 
ATOM     58  N   UNL     1      12.184   7.171   8.886  1.00  0.00    -0.248 NA
ATOM     59  C   UNL     1      13.726   7.942   7.311  1.00  0.00     0.031 C 
ATOM     60  C   UNL     1      10.673   9.586  12.290  1.00  0.00     0.029 A 
ATOM     61  C   UNL     1      11.167   8.851  11.224  1.00  0.00     0.049 A 
ATOM     62  H   UNL     1      10.623   6.919  10.576  1.00  0.00     0.167 HD
ATOM     63  C   UNL     1      12.590   8.454   9.235  1.00  0.00     0.074 A 
ATOM     64  C   UNL     1      13.573   8.862   8.253  1.00  0.00     0.031 C 
ATOM     65  C   UNL     1      12.179   9.228  10.270  1.00  0.00     0.034 A 
BRANCH  52  66
ATOM     66  C   UNL     1       7.721   6.670  13.704  1.00  0.00     0.023 A 
ATOM     67  C   UNL     1       7.909   5.930  14.891  1.00  0.00     0.012 A 
ATOM     68  C   UNL     1       6.651   7.582  13.623  1.00  0.00     0.148 A 
ATOM     69  C   UNL     1       7.026   6.065  15.961  1.00  0.00     0.002 A 
ATOM     70  C   UNL     1       5.804   7.748  14.713  1.00  0.00     0.091 A 
ATOM     71  F   UNL     1       6.476   8.263  12.482  1.00  0.00    -0.205 F 
ATOM     72  C   UNL     1       5.981   6.981  15.876  1.00  0.00     0.022 A 
BRANCH  70  73
ATOM     73  S   UNL     1       4.478   8.960  14.735  1.00  0.00     0.127 S 
ATOM     74  O   UNL     1       3.294   8.103  14.697  1.00  0.00    -0.237 OA
ATOM     75  O   UNL     1       4.701   9.635  16.014  1.00  0.00    -0.237 OA
ATOM     76  O   UNL     1       4.680   9.799  13.562  1.00  0.00    -0.744 OA
ENDBRANCH  70  73
ENDBRANCH  52  66
BRANCH  53  77
ATOM     77  C   UNL     1      13.716   5.418   5.815  1.00  0.00     0.023 A 
ATOM     78  C   UNL     1      15.117   5.392   5.962  1.00  0.00     0.012 A 
ATOM     79  C   UNL     1      13.158   5.271   4.530  1.00  0.00     0.148 A 
ATOM     80  C   UNL     1      15.947   5.257   4.849  1.00  0.00     0.002 A 
ATOM     81  C   UNL     1      13.988   5.080   3.433  1.00  0.00     0.091 A 
ATOM     82  F   UNL     1      11.823   5.308   4.411  1.00  0.00    -0.205 F 
ATOM     83  C   UNL     1      15.383   5.091   3.586  1.00  0.00     0.022 A 
BRANCH  81  84
ATOM     84  S   UNL     1      13.351   4.731   1.790  1.00  0.00     0.127 S 
ATOM     85  O   UNL     1      13.718   5.942   1.063  1.00  0.00    -0.237 OA
ATOM     86  O   UNL     1      14.110   3.535   1.422  1.00  0.00    -0.237 OA
ATOM     87  O   UNL     1      11.921   4.506   1.961  1.00  0.00    -0.744 OA
ENDBRANCH  81  84
ENDBRANCH  53  77
BRANCH  65  88
ATOM     88  C   UNL     1      12.821  10.582  10.431  1.00  0.00     0.023 A 
ATOM     89  C   UNL     1      12.526  11.618   9.523  1.00  0.00     0.012 A 
ATOM     90  C   UNL     1      13.663  10.846  11.530  1.00  0.00     0.148 A 
ATOM     91  C   UNL     1      13.087  12.884   9.685  1.00  0.00     0.002 A 
ATOM     92  C   UNL     1      14.175  12.124  11.716  1.00  0.00     0.091 A 
ATOM     93  F   UNL     1      13.946   9.843  12.374  1.00  0.00    -0.205 F 
ATOM     94  C   UNL     1      13.900  13.140  10.787  1.00  0.00     0.022 A 
BRANCH  92  95
ATOM     95  S   UNL     1      15.147  12.573  13.158  1.00  0.00     0.127 S 
ATOM     96  O   UNL     1      16.476  12.754  12.576  1.00  0.00    -0.237 OA
ATOM     97  O   UNL     1      14.499  13.810  13.595  1.00  0.00    -0.237 OA
ATOM     98  O   UNL     1      15.022  11.461  14.091  1.00  0.00    -0.744 OA
ENDBRANCH  92  95
ENDBRANCH  65  88
ENDBRANCH  39  40
ENDBRANCH  31  34
ENDBRANCH  29  30
ENDBRANCH  28  29
ENDBRANCH  27  28
ENDBRANCH   1  27
TORSDOF 21
