REMARK SMILES Cc1cc(F)c([C@@H](C)[N@H+](CCC(=O)NCCCCCCNC(=O)c2ccc(-c3c4nc(c(-c5cccc(S(=O)(=O)[O-])c5F)c5ccc([nH]5)c(-c5cccc(S(=O)(=O)[O-])c5F)c5nc(c(-c6cccc(S(=O)(=O)[O-])c6F)c6ccc3[nH]6)C=C5)C=C4)cc2)C(C)(C)C)cc1F
REMARK SMILES IDX 17 1 16 2 15 3 14 4 12 5 13 6 11 8 10 9 9 10 7 12 8 13 6 14
REMARK SMILES IDX 1 15 2 16 3 17 92 18 4 19 91 20 93 21 5 22 87 23 88 24 89 25
REMARK SMILES IDX 90 26 18 27 19 28 20 29 21 30 22 31 23 33 24 34 25 35 86 36
REMARK SMILES IDX 26 37 85 38 27 39 28 40 29 41 79 42 30 43 84 44 78 45 80 46
REMARK SMILES IDX 31 47 83 48 77 49 76 50 32 52 64 53 44 54 63 55 45 56 48 57
REMARK SMILES IDX 62 58 81 59 46 60 47 61 61 63 82 64 49 65 33 66 34 67 42 68
REMARK SMILES IDX 35 69 37 70 43 71 36 72 38 73 39 74 40 75 41 76 65 77 66 78
REMARK SMILES IDX 74 79 67 80 69 81 75 82 68 83 70 84 71 85 72 86 73 87 50 88
REMARK SMILES IDX 51 89 59 90 52 91 54 92 60 93 53 94 55 95 56 96 57 97 58 98
REMARK H PARENT 14 7 9 11 21 32 80 51 48 62
REMARK Flexibility Score: inf
ROOT
ATOM      1  C   UNL     1       1.621  -5.824   0.688  1.00  0.00     0.002 C 
ENDROOT
BRANCH   1   2
ATOM      2  C   UNL     1       2.015  -5.226  -0.663  1.00  0.00     0.021 C 
BRANCH   2   3
ATOM      3  C   UNL     1       2.816  -6.047  -1.692  1.00  0.00     0.116 C 
BRANCH   3   4
ATOM      4  N   UNL     1       2.263  -7.329  -2.090  1.00  0.00    -0.356 N 
ATOM      5  C   UNL     1       1.721  -7.747  -3.270  1.00  0.00     0.225 C 
ATOM      6  O   UNL     1       1.423  -8.943  -3.372  1.00  0.00    -0.275 OA
ATOM      7  H   UNL     1       2.283  -8.016  -1.385  1.00  0.00     0.163 HD
BRANCH   5   8
ATOM      8  C   UNL     1       1.475  -6.804  -4.434  1.00  0.00     0.161 C 
BRANCH   8   9
ATOM      9  C   UNL     1       0.009  -6.357  -4.559  1.00  0.00     0.273 C 
BRANCH   9  10
ATOM     10  N   UNL     1      -0.390  -5.249  -3.650  1.00  0.00    -0.324 N 
ATOM     11  H   UNL     1       0.320  -5.068  -2.940  1.00  0.00     0.349 HD
BRANCH  10  12
ATOM     12  C   UNL     1      -0.334  -3.887  -4.313  1.00  0.00     0.215 C 
ATOM     13  C   UNL     1       0.891  -3.724  -5.265  1.00  0.00     0.081 C 
BRANCH  12  14
ATOM     14  C   UNL     1      -0.194  -2.652  -3.408  1.00  0.00     0.048 A 
ATOM     15  C   UNL     1       0.517   0.863  -0.939  1.00  0.00     0.047 C 
ATOM     16  C   UNL     1       0.248  -0.327  -1.804  1.00  0.00    -0.012 A 
ATOM     17  C   UNL     1       0.983  -1.486  -1.596  1.00  0.00     0.046 A 
ATOM     18  C   UNL     1      -0.645  -0.310  -2.877  1.00  0.00     0.126 A 
ATOM     19  C   UNL     1       0.819  -2.570  -2.452  1.00  0.00     0.132 A 
ATOM     20  C   UNL     1      -0.892  -1.458  -3.652  1.00  0.00     0.052 A 
ATOM     21  F   UNL     1      -1.248   0.837  -3.219  1.00  0.00    -0.207 F 
ATOM     22  F   UNL     1       1.791  -3.480  -2.466  1.00  0.00    -0.206 F 
ENDBRANCH  12  14
ENDBRANCH  10  12
BRANCH  10  23
ATOM     23  C   UNL     1      -1.524  -5.654  -2.738  1.00  0.00     0.090 C 
ATOM     24  C   UNL     1      -1.011  -6.803  -1.820  1.00  0.00     0.078 C 
ATOM     25  C   UNL     1      -2.015  -4.539  -1.793  1.00  0.00     0.078 C 
ATOM     26  C   UNL     1      -2.798  -6.241  -3.407  1.00  0.00     0.078 C 
ENDBRANCH  10  23
ENDBRANCH   9  10
ENDBRANCH   8   9
ENDBRANCH   5   8
ENDBRANCH   3   4
ENDBRANCH   2   3
ENDBRANCH   1   2
BRANCH   1  27
ATOM     27  C   UNL     1       2.051  -4.975   1.901  1.00  0.00     0.002 C 
BRANCH  27  28
ATOM     28  C   UNL     1       1.694  -3.474   1.898  1.00  0.00     0.021 C 
BRANCH  28  29
ATOM     29  C   UNL     1       0.210  -3.129   2.055  1.00  0.00     0.116 C 
BRANCH  29  30
ATOM     30  N   UNL     1      -0.168  -3.065   3.461  1.00  0.00    -0.352 N 
ATOM     31  C   UNL     1      -0.308  -1.968   4.281  1.00  0.00     0.251 C 
ATOM     32  H   UNL     1      -0.349  -3.934   3.886  1.00  0.00     0.163 HD
ATOM     33  O   UNL     1      -0.304  -2.125   5.500  1.00  0.00    -0.269 OA
BRANCH  31  34
ATOM     34  C   UNL     1      -0.462  -0.603   3.718  1.00  0.00     0.039 A 
ATOM     35  C   UNL     1      -1.387  -0.344   2.704  1.00  0.00     0.014 A 
ATOM     36  C   UNL     1       0.262   0.456   4.277  1.00  0.00     0.014 A 
ATOM     37  C   UNL     1      -1.512   0.950   2.184  1.00  0.00     0.010 A 
ATOM     38  C   UNL     1       0.105   1.758   3.781  1.00  0.00     0.010 A 
ATOM     39  C   UNL     1      -0.759   2.017   2.705  1.00  0.00    -0.014 A 
BRANCH  39  40
ATOM     40  C   UNL     1      -0.889   3.391   2.135  1.00  0.00     0.031 A 
ATOM     41  C   UNL     1       0.282   4.071   1.465  1.00  0.00     0.074 A 
ATOM     42  C   UNL     1      -2.065   4.046   2.218  1.00  0.00     0.049 A 
ATOM     43  N   UNL     1       0.338   5.256   0.910  1.00  0.00    -0.248 NA
ATOM     44  C   UNL     1       1.549   3.326   1.398  1.00  0.00     0.031 C 
ATOM     45  C   UNL     1      -3.277   3.526   2.853  1.00  0.00     0.029 A 
ATOM     46  N   UNL     1      -2.433   5.295   1.776  1.00  0.00    -0.354 N 
ATOM     47  C   UNL     1       1.640   5.406   0.447  1.00  0.00     0.074 A 
ATOM     48  C   UNL     1       2.349   4.192   0.788  1.00  0.00     0.031 C 
ATOM     49  C   UNL     1      -4.254   4.440   2.752  1.00  0.00     0.029 A 
ATOM     50  C   UNL     1      -3.731   5.630   2.086  1.00  0.00     0.049 A 
ATOM     51  H   UNL     1      -1.825   5.893   1.284  1.00  0.00     0.167 HD
ATOM     52  C   UNL     1       2.195   6.449  -0.214  1.00  0.00     0.034 A 
ATOM     53  C   UNL     1      -4.425   6.767   1.881  1.00  0.00     0.034 A 
ATOM     54  C   UNL     1       1.503   7.659  -0.565  1.00  0.00     0.049 A 
ATOM     55  C   UNL     1      -3.775   7.926   1.182  1.00  0.00     0.074 A 
ATOM     56  C   UNL     1       1.991   8.751  -1.264  1.00  0.00     0.029 A 
ATOM     57  N   UNL     1       0.190   7.948  -0.238  1.00  0.00    -0.354 N 
ATOM     58  N   UNL     1      -2.569   8.007   0.676  1.00  0.00    -0.248 NA
ATOM     59  C   UNL     1      -4.582   9.144   1.008  1.00  0.00     0.031 C 
ATOM     60  C   UNL     1       0.979   9.711  -1.339  1.00  0.00     0.029 A 
ATOM     61  C   UNL     1      -0.146   9.205  -0.710  1.00  0.00     0.049 A 
ATOM     62  H   UNL     1      -0.415   7.349   0.257  1.00  0.00     0.167 HD
ATOM     63  C   UNL     1      -2.481   9.269   0.101  1.00  0.00     0.074 A 
ATOM     64  C   UNL     1      -3.757   9.919   0.314  1.00  0.00     0.031 C 
ATOM     65  C   UNL     1      -1.430   9.834  -0.539  1.00  0.00     0.034 A 
BRANCH  52  66
ATOM     66  C   UNL     1       3.630   6.331  -0.653  1.00  0.00     0.023 A 
ATOM     67  C   UNL     1       3.933   5.600  -1.818  1.00  0.00     0.012 A 
ATOM     68  C   UNL     1       4.650   7.044   0.007  1.00  0.00     0.148 A 
ATOM     69  C   UNL     1       5.234   5.577  -2.320  1.00  0.00     0.002 A 
ATOM     70  C   UNL     1       5.939   7.037  -0.514  1.00  0.00     0.091 A 
ATOM     71  F   UNL     1       4.335   7.726   1.117  1.00  0.00    -0.205 F 
ATOM     72  C   UNL     1       6.232   6.303  -1.675  1.00  0.00     0.022 A 
BRANCH  70  73
ATOM     73  S   UNL     1       7.284   7.981   0.212  1.00  0.00     0.127 S 
ATOM     74  O   UNL     1       8.195   6.910   0.633  1.00  0.00    -0.237 OA
ATOM     75  O   UNL     1       7.761   8.762  -0.934  1.00  0.00    -0.237 OA
ATOM     76  O   UNL     1       6.705   8.756   1.288  1.00  0.00    -0.744 OA
ENDBRANCH  70  73
ENDBRANCH  52  66
BRANCH  53  77
ATOM     77  C   UNL     1      -5.845   6.839   2.321  1.00  0.00     0.023 A 
ATOM     78  C   UNL     1      -6.871   6.758   1.361  1.00  0.00     0.012 A 
ATOM     79  C   UNL     1      -6.180   6.912   3.688  1.00  0.00     0.148 A 
ATOM     80  C   UNL     1      -8.209   6.752   1.754  1.00  0.00     0.002 A 
ATOM     81  C   UNL     1      -7.513   6.863   4.074  1.00  0.00     0.091 A 
ATOM     82  F   UNL     1      -5.182   6.992   4.579  1.00  0.00    -0.205 F 
ATOM     83  C   UNL     1      -8.530   6.792   3.109  1.00  0.00     0.022 A 
BRANCH  81  84
ATOM     84  S   UNL     1      -8.023   6.809   5.795  1.00  0.00     0.127 S 
ATOM     85  O   UNL     1      -8.798   8.042   5.916  1.00  0.00    -0.237 OA
ATOM     86  O   UNL     1      -8.813   5.578   5.832  1.00  0.00    -0.237 OA
ATOM     87  O   UNL     1      -6.793   6.767   6.574  1.00  0.00    -0.744 OA
ENDBRANCH  81  84
ENDBRANCH  53  77
BRANCH  65  88
ATOM     88  C   UNL     1      -1.591  11.222  -1.096  1.00  0.00     0.023 A 
ATOM     89  C   UNL     1      -1.503  12.332  -0.234  1.00  0.00     0.012 A 
ATOM     90  C   UNL     1      -1.686  11.425  -2.487  1.00  0.00     0.148 A 
ATOM     91  C   UNL     1      -1.513  13.627  -0.751  1.00  0.00     0.002 A 
ATOM     92  C   UNL     1      -1.660  12.717  -2.996  1.00  0.00     0.091 A 
ATOM     93  F   UNL     1      -1.774  10.350  -3.283  1.00  0.00    -0.205 F 
ATOM     94  C   UNL     1      -1.577  13.820  -2.130  1.00  0.00     0.022 A 
BRANCH  92  95
ATOM     95  S   UNL     1      -1.663  13.065  -4.759  1.00  0.00     0.127 S 
ATOM     96  O   UNL     1      -2.946  13.748  -4.925  1.00  0.00    -0.237 OA
ATOM     97  O   UNL     1      -0.490  13.927  -4.905  1.00  0.00    -0.237 OA
ATOM     98  O   UNL     1      -1.559  11.775  -5.427  1.00  0.00    -0.744 OA
ENDBRANCH  92  95
ENDBRANCH  65  88
ENDBRANCH  39  40
ENDBRANCH  31  34
ENDBRANCH  29  30
ENDBRANCH  28  29
ENDBRANCH  27  28
ENDBRANCH   1  27
TORSDOF 21
