REMARK SMILES C[C@H](CCC(=O)NCCCCCCNC(=O)c1ccc(-c2c3nc(c(-c4cccc(S(=O)(=O)[O-])c4F)c4ccc([nH]4)c(-c4cccc(S(=O)(=O)[O-])c4F)c4nc(c(-c5cccc(S(=O)(=O)[O-])c5F)c5ccc2[nH]5)C=C4)C=C3)cc1)NC(=O)N(C)CCc1cccs1
REMARK SMILES IDX 8 1 7 2 5 3 6 4 4 6 3 7 2 8 1 9 80 10 81 11 82 13 83 14
REMARK SMILES IDX 84 15 85 16 86 17 87 18 88 19 91 20 89 21 90 22 9 23 10 24
REMARK SMILES IDX 11 25 12 26 13 27 14 28 15 29 16 31 17 32 18 33 79 34 19 35
REMARK SMILES IDX 78 36 20 37 21 38 22 39 72 40 23 41 77 42 71 43 73 44 24 45
REMARK SMILES IDX 76 46 70 47 69 48 25 50 57 51 37 52 56 53 38 54 41 55 55 56
REMARK SMILES IDX 74 57 39 58 40 59 54 61 75 62 42 63 26 64 27 65 35 66 28 67
REMARK SMILES IDX 30 68 36 69 29 70 31 71 32 72 33 73 34 74 58 75 59 76 67 77
REMARK SMILES IDX 60 78 62 79 68 80 61 81 63 82 64 83 65 84 66 85 43 86 44 87
REMARK SMILES IDX 52 88 45 89 47 90 53 91 46 92 48 93 49 94 50 95 51 96
REMARK H PARENT 7 5 80 12 14 30 73 49 41 60
REMARK Flexibility Score: inf
ROOT
ATOM      1  C   UNL     1       1.506   4.286  -0.727  1.00  0.00     0.116 C 
ENDROOT
BRANCH   1   2
ATOM      2  N   UNL     1       2.003   3.742   0.531  1.00  0.00    -0.356 N 
ATOM      3  C   UNL     1       2.689   2.601   0.819  1.00  0.00     0.220 C 
ATOM      4  O   UNL     1       3.199   2.501   1.939  1.00  0.00    -0.275 OA
ATOM      5  H   UNL     1       1.808   4.303   1.316  1.00  0.00     0.163 HD
BRANCH   3   6
ATOM      6  C   UNL     1       2.752   1.441  -0.156  1.00  0.00     0.102 C 
BRANCH   6   7
ATOM      7  C   UNL     1       1.749   0.342   0.221  1.00  0.00     0.034 C 
BRANCH   7   8
ATOM      8  C   UNL     1       0.287   0.770   0.003  1.00  0.00     0.081 C 
ATOM      9  C   UNL     1      -0.091   0.594  -1.475  1.00  0.00     0.031 C 
BRANCH   8  10
ATOM     10  N   UNL     1      -0.608  -0.007   0.852  1.00  0.00    -0.336 N 
ATOM     11  C   UNL     1      -1.332   0.301   1.956  1.00  0.00     0.317 C 
ATOM     12  H   UNL     1      -0.707  -0.944   0.567  1.00  0.00     0.165 HD
ATOM     13  O   UNL     1      -2.112  -0.561   2.365  1.00  0.00    -0.249 OA
BRANCH  11  14
ATOM     14  N   UNL     1      -1.208   1.528   2.563  1.00  0.00    -0.328 N 
ATOM     15  C   UNL     1       0.098   2.031   2.950  1.00  0.00     0.148 C 
BRANCH  14  16
ATOM     16  C   UNL     1      -2.336   2.030   3.365  1.00  0.00     0.126 C 
BRANCH  16  17
ATOM     17  C   UNL     1      -3.301   2.983   2.650  1.00  0.00     0.068 C 
BRANCH  17  18
ATOM     18  C   UNL     1      -4.137   2.422   1.532  1.00  0.00     0.006 A 
ATOM     19  C   UNL     1      -4.470   1.132   1.170  1.00  0.00     0.015 A 
ATOM     20  S   UNL     1      -4.936   3.531   0.509  1.00  0.00    -0.149 S 
ATOM     21  C   UNL     1      -5.242   1.071  -0.030  1.00  0.00     0.012 A 
ATOM     22  C   UNL     1      -5.570   2.320  -0.495  1.00  0.00     0.065 A 
ENDBRANCH  17  18
ENDBRANCH  16  17
ENDBRANCH  14  16
ENDBRANCH  11  14
ENDBRANCH   8  10
ENDBRANCH   7   8
ENDBRANCH   6   7
ENDBRANCH   3   6
ENDBRANCH   1   2
BRANCH   1  23
ATOM     23  C   UNL     1      -0.023   4.354  -0.880  1.00  0.00     0.021 C 
BRANCH  23  24
ATOM     24  C   UNL     1      -0.829   4.936   0.290  1.00  0.00     0.002 C 
BRANCH  24  25
ATOM     25  C   UNL     1      -0.961   6.463   0.327  1.00  0.00     0.002 C 
BRANCH  25  26
ATOM     26  C   UNL     1      -1.952   7.075  -0.678  1.00  0.00     0.021 C 
BRANCH  26  27
ATOM     27  C   UNL     1      -3.440   6.796  -0.432  1.00  0.00     0.116 C 
BRANCH  27  28
ATOM     28  N   UNL     1      -3.979   7.417   0.772  1.00  0.00    -0.352 N 
ATOM     29  C   UNL     1      -5.265   7.883   0.995  1.00  0.00     0.251 C 
ATOM     30  H   UNL     1      -3.349   7.518   1.522  1.00  0.00     0.163 HD
ATOM     31  O   UNL     1      -5.578   8.395   2.050  1.00  0.00    -0.269 OA
BRANCH  29  32
ATOM     32  C   UNL     1      -6.257   7.753  -0.098  1.00  0.00     0.039 A 
ATOM     33  C   UNL     1      -6.651   8.872  -0.824  1.00  0.00     0.014 A 
ATOM     34  C   UNL     1      -6.740   6.494  -0.439  1.00  0.00     0.014 A 
ATOM     35  C   UNL     1      -7.463   8.703  -1.953  1.00  0.00     0.010 A 
ATOM     36  C   UNL     1      -7.463   6.314  -1.618  1.00  0.00     0.010 A 
ATOM     37  C   UNL     1      -7.824   7.415  -2.404  1.00  0.00    -0.014 A 
BRANCH  37  38
ATOM     38  C   UNL     1      -8.486   7.230  -3.731  1.00  0.00     0.031 A 
ATOM     39  C   UNL     1      -9.804   6.511  -3.883  1.00  0.00     0.074 A 
ATOM     40  C   UNL     1      -7.841   7.649  -4.843  1.00  0.00     0.049 A 
ATOM     41  N   UNL     1     -10.526   6.340  -4.963  1.00  0.00    -0.248 NA
ATOM     42  C   UNL     1     -10.367   5.865  -2.688  1.00  0.00     0.031 C 
ATOM     43  C   UNL     1      -6.492   8.221  -4.871  1.00  0.00     0.029 A 
ATOM     44  N   UNL     1      -8.228   7.663  -6.161  1.00  0.00    -0.354 N 
ATOM     45  C   UNL     1     -11.597   5.534  -4.590  1.00  0.00     0.074 A 
ATOM     46  C   UNL     1     -11.407   5.214  -3.192  1.00  0.00     0.031 C 
ATOM     47  C   UNL     1      -6.192   8.589  -6.125  1.00  0.00     0.029 A 
ATOM     48  C   UNL     1      -7.312   8.259  -6.999  1.00  0.00     0.049 A 
ATOM     49  H   UNL     1      -9.080   7.284  -6.477  1.00  0.00     0.167 HD
ATOM     50  C   UNL     1     -12.662   5.130  -5.326  1.00  0.00     0.034 A 
ATOM     51  C   UNL     1      -7.373   8.539  -8.316  1.00  0.00     0.034 A 
ATOM     52  C   UNL     1     -12.890   5.515  -6.694  1.00  0.00     0.049 A 
ATOM     53  C   UNL     1      -8.620   8.195  -9.082  1.00  0.00     0.074 A 
ATOM     54  C   UNL     1     -14.007   5.284  -7.480  1.00  0.00     0.029 A 
ATOM     55  N   UNL     1     -11.987   6.210  -7.482  1.00  0.00    -0.354 N 
ATOM     56  N   UNL     1      -9.721   7.628  -8.653  1.00  0.00    -0.248 NA
ATOM     57  C   UNL     1      -8.649   8.565 -10.505  1.00  0.00     0.031 C 
ATOM     58  C   UNL     1     -13.771   5.828  -8.748  1.00  0.00     0.029 A 
ATOM     59  C   UNL     1     -12.514   6.410  -8.747  1.00  0.00     0.049 A 
ATOM     60  H   UNL     1     -11.099   6.516  -7.185  1.00  0.00     0.167 HD
ATOM     61  C   UNL     1     -10.585   7.603  -9.741  1.00  0.00     0.074 A 
ATOM     62  C   UNL     1      -9.889   8.233 -10.844  1.00  0.00     0.031 C 
ATOM     63  C   UNL     1     -11.836   7.086  -9.823  1.00  0.00     0.034 A 
BRANCH  50  64
ATOM     64  C   UNL     1     -13.712   4.288  -4.641  1.00  0.00     0.023 A 
ATOM     65  C   UNL     1     -14.537   4.875  -3.659  1.00  0.00     0.012 A 
ATOM     66  C   UNL     1     -13.925   2.943  -5.001  1.00  0.00     0.148 A 
ATOM     67  C   UNL     1     -15.521   4.128  -3.013  1.00  0.00     0.002 A 
ATOM     68  C   UNL     1     -14.940   2.216  -4.385  1.00  0.00     0.091 A 
ATOM     69  F   UNL     1     -13.125   2.391  -5.925  1.00  0.00    -0.205 F 
ATOM     70  C   UNL     1     -15.728   2.802  -3.382  1.00  0.00     0.022 A 
BRANCH  68  71
ATOM     71  S   UNL     1     -15.339   0.528  -4.856  1.00  0.00     0.127 S 
ATOM     72  O   UNL     1     -14.743  -0.234  -3.760  1.00  0.00    -0.237 OA
ATOM     73  O   UNL     1     -16.803   0.543  -4.859  1.00  0.00    -0.237 OA
ATOM     74  O   UNL     1     -14.736   0.328  -6.166  1.00  0.00    -0.744 OA
ENDBRANCH  68  71
ENDBRANCH  50  64
BRANCH  51  75
ATOM     75  C   UNL     1      -6.268   9.306  -8.961  1.00  0.00     0.023 A 
ATOM     76  C   UNL     1      -6.495  10.648  -9.328  1.00  0.00     0.012 A 
ATOM     77  C   UNL     1      -4.994   8.745  -9.166  1.00  0.00     0.148 A 
ATOM     78  C   UNL     1      -5.482  11.408  -9.913  1.00  0.00     0.002 A 
ATOM     79  C   UNL     1      -3.973   9.524  -9.699  1.00  0.00     0.091 A 
ATOM     80  F   UNL     1      -4.801   7.464  -8.819  1.00  0.00    -0.205 F 
ATOM     81  C   UNL     1      -4.219  10.850 -10.088  1.00  0.00     0.022 A 
BRANCH  79  82
ATOM     82  S   UNL     1      -2.281   8.933  -9.830  1.00  0.00     0.127 S 
ATOM     83  O   UNL     1      -2.140   8.745 -11.271  1.00  0.00    -0.237 OA
ATOM     84  O   UNL     1      -1.523  10.057  -9.278  1.00  0.00    -0.237 OA
ATOM     85  O   UNL     1      -2.226   7.722  -9.022  1.00  0.00    -0.744 OA
ENDBRANCH  79  82
ENDBRANCH  51  75
BRANCH  63  86
ATOM     86  C   UNL     1     -12.552   7.196 -11.145  1.00  0.00     0.023 A 
ATOM     87  C   UNL     1     -12.151   6.383 -12.224  1.00  0.00     0.012 A 
ATOM     88  C   UNL     1     -13.661   8.050 -11.297  1.00  0.00     0.148 A 
ATOM     89  C   UNL     1     -12.823   6.442 -13.444  1.00  0.00     0.002 A 
ATOM     90  C   UNL     1     -14.355   8.069 -12.502  1.00  0.00     0.091 A 
ATOM     91  F   UNL     1     -14.014   8.833 -10.267  1.00  0.00    -0.205 F 
ATOM     92  C   UNL     1     -13.931   7.275 -13.579  1.00  0.00     0.022 A 
BRANCH  90  93
ATOM     93  S   UNL     1     -15.848   9.043 -12.733  1.00  0.00     0.127 S 
ATOM     94  O   UNL     1     -15.354  10.161 -13.534  1.00  0.00    -0.237 OA
ATOM     95  O   UNL     1     -16.719   8.114 -13.454  1.00  0.00    -0.237 OA
ATOM     96  O   UNL     1     -16.310   9.384 -11.394  1.00  0.00    -0.744 OA
ENDBRANCH  90  93
ENDBRANCH  63  86
ENDBRANCH  37  38
ENDBRANCH  29  32
ENDBRANCH  27  28
ENDBRANCH  26  27
ENDBRANCH  25  26
ENDBRANCH  24  25
ENDBRANCH  23  24
ENDBRANCH   1  23
TORSDOF 23
