REMARK SMILES CC1(C)[C@H](C(=O)NCCCCCCNC(=O)c2ccc(-c3c4nc(c(-c5cccc(S(=O)(=O)[O-])c5F)c5ccc([nH]5)c(-c5cccc(S(=O)(=O)[O-])c5F)c5nc(c(-c6cccc(S(=O)(=O)[O-])c6F)c6ccc3[nH]6)C=C5)C=C4)cc2)[C@@H]1C(=O)Nc1ccc(NC(=O)C2CCC2)cc1
REMARK SMILES IDX 10 1 9 2 8 3 7 4 5 5 6 6 4 8 1 9 2 10 3 11 80 12 81 13 82 14
REMARK SMILES IDX 83 15 84 17 85 18 96 19 86 20 95 21 87 22 88 23 89 24 90 26
REMARK SMILES IDX 91 27 92 28 94 29 93 30 11 31 12 32 13 33 14 34 15 35 16 37
REMARK SMILES IDX 17 38 18 39 79 40 19 41 78 42 20 43 21 44 22 45 72 46 23 47
REMARK SMILES IDX 77 48 71 49 73 50 24 51 76 52 70 53 69 54 25 56 57 57 37 58
REMARK SMILES IDX 56 59 38 60 41 61 55 62 74 63 39 64 40 65 54 67 75 68 42 69
REMARK SMILES IDX 26 70 27 71 35 72 28 73 30 74 36 75 29 76 31 77 32 78 33 79
REMARK SMILES IDX 34 80 58 81 59 82 67 83 60 84 62 85 68 86 61 87 63 88 64 89
REMARK SMILES IDX 65 90 66 91 43 92 44 93 52 94 45 95 47 96 53 97 46 98 48 99
REMARK SMILES IDX 49 100 50 101 51 102
REMARK H PARENT 7 7 83 16 88 25 14 36 73 55 41 66
REMARK Flexibility Score: inf
ROOT
ATOM      1  C   UNL     1      -0.560   5.247  -1.814  1.00  0.00     0.002 C 
ENDROOT
BRANCH   1   2
ATOM      2  C   UNL     1       0.242   4.203  -1.020  1.00  0.00     0.021 C 
BRANCH   2   3
ATOM      3  C   UNL     1      -0.597   3.035  -0.511  1.00  0.00     0.116 C 
BRANCH   3   4
ATOM      4  N   UNL     1      -0.916   2.129  -1.593  1.00  0.00    -0.356 N 
ATOM      5  C   UNL     1      -0.962   0.779  -1.758  1.00  0.00     0.224 C 
ATOM      6  O   UNL     1      -1.266   0.404  -2.894  1.00  0.00    -0.275 OA
ATOM      7  H   UNL     1      -1.160   2.609  -2.417  1.00  0.00     0.163 HD
BRANCH   5   8
ATOM      8  C   UNL     1      -0.710  -0.290  -0.762  1.00  0.00     0.098 C 
ATOM      9  C   UNL     1       1.171  -1.784   0.139  1.00  0.00     0.013 C 
ATOM     10  C   UNL     1       0.490  -0.432   0.158  1.00  0.00    -0.011 C 
ATOM     11  C   UNL     1       1.486   0.690   0.316  1.00  0.00     0.013 C 
ATOM     12  C   UNL     1      -0.952  -0.378   0.711  1.00  0.00     0.098 C 
BRANCH  12  13
ATOM     13  C   UNL     1      -1.487   0.671   1.601  1.00  0.00     0.228 C 
ATOM     14  O   UNL     1      -0.798   1.117   2.510  1.00  0.00    -0.274 OA
ATOM     15  N   UNL     1      -2.789   1.108   1.463  1.00  0.00    -0.326 N 
ATOM     16  H   UNL     1      -3.189   1.567   2.237  1.00  0.00     0.169 HD
BRANCH  15  17
ATOM     17  C   UNL     1      -3.592   0.959   0.330  1.00  0.00     0.041 A 
ATOM     18  C   UNL     1      -3.860   2.126  -0.368  1.00  0.00     0.028 A 
ATOM     19  C   UNL     1      -4.010  -0.264  -0.188  1.00  0.00     0.028 A 
ATOM     20  C   UNL     1      -4.326   2.046  -1.670  1.00  0.00     0.028 A 
ATOM     21  C   UNL     1      -4.686  -0.295  -1.420  1.00  0.00     0.028 A 
ATOM     22  C   UNL     1      -4.849   0.875  -2.174  1.00  0.00     0.041 A 
BRANCH  22  23
ATOM     23  N   UNL     1      -5.523   0.812  -3.398  1.00  0.00    -0.326 N 
ATOM     24  C   UNL     1      -5.991   1.766  -4.282  1.00  0.00     0.227 C 
ATOM     25  H   UNL     1      -5.702  -0.109  -3.693  1.00  0.00     0.169 HD
ATOM     26  O   UNL     1      -6.529   1.292  -5.303  1.00  0.00    -0.274 OA
BRANCH  24  27
ATOM     27  C   UNL     1      -5.900   3.306  -4.103  1.00  0.00     0.079 C 
ATOM     28  C   UNL     1      -7.180   4.067  -4.613  1.00  0.00     0.013 C 
ATOM     29  C   UNL     1      -6.146   4.105  -2.781  1.00  0.00     0.013 C 
ATOM     30  C   UNL     1      -6.846   5.181  -3.616  1.00  0.00     0.002 C 
ENDBRANCH  24  27
ENDBRANCH  22  23
ENDBRANCH  15  17
ENDBRANCH  12  13
ENDBRANCH   5   8
ENDBRANCH   3   4
ENDBRANCH   2   3
ENDBRANCH   1   2
BRANCH   1  31
ATOM     31  C   UNL     1      -1.689   5.945  -1.046  1.00  0.00     0.002 C 
BRANCH  31  32
ATOM     32  C   UNL     1      -1.295   6.537   0.310  1.00  0.00     0.021 C 
BRANCH  32  33
ATOM     33  C   UNL     1      -0.098   7.482   0.278  1.00  0.00     0.116 C 
BRANCH  33  34
ATOM     34  N   UNL     1      -0.322   8.637  -0.574  1.00  0.00    -0.352 N 
ATOM     35  C   UNL     1      -0.022   9.954  -0.331  1.00  0.00     0.251 C 
ATOM     36  H   UNL     1      -0.746   8.449  -1.442  1.00  0.00     0.163 HD
ATOM     37  O   UNL     1      -0.414  10.825  -1.103  1.00  0.00    -0.269 OA
BRANCH  35  38
ATOM     38  C   UNL     1       0.751  10.320   0.875  1.00  0.00     0.039 A 
ATOM     39  C   UNL     1       0.309  11.386   1.661  1.00  0.00     0.014 A 
ATOM     40  C   UNL     1       1.906   9.616   1.229  1.00  0.00     0.014 A 
ATOM     41  C   UNL     1       0.999  11.718   2.828  1.00  0.00     0.010 A 
ATOM     42  C   UNL     1       2.552   9.903   2.429  1.00  0.00     0.010 A 
ATOM     43  C   UNL     1       2.113  10.965   3.234  1.00  0.00    -0.014 A 
BRANCH  43  44
ATOM     44  C   UNL     1       2.832  11.277   4.496  1.00  0.00     0.031 A 
ATOM     45  C   UNL     1       4.266  11.732   4.458  1.00  0.00     0.074 A 
ATOM     46  C   UNL     1       2.216  11.079   5.678  1.00  0.00     0.049 A 
ATOM     47  N   UNL     1       5.066  12.017   5.453  1.00  0.00    -0.248 NA
ATOM     48  C   UNL     1       4.894  11.856   3.132  1.00  0.00     0.031 C 
ATOM     49  C   UNL     1       0.857  10.560   5.848  1.00  0.00     0.029 A 
ATOM     50  N   UNL     1       2.663  11.266   6.963  1.00  0.00    -0.354 N 
ATOM     51  C   UNL     1       6.296  12.317   4.878  1.00  0.00     0.074 A 
ATOM     52  C   UNL     1       6.147  12.147   3.450  1.00  0.00     0.031 C 
ATOM     53  C   UNL     1       0.580  10.473   7.159  1.00  0.00     0.029 A 
ATOM     54  C   UNL     1       1.746  10.907   7.923  1.00  0.00     0.049 A 
ATOM     55  H   UNL     1       3.555  11.622   7.176  1.00  0.00     0.167 HD
ATOM     56  C   UNL     1       7.437  12.727   5.481  1.00  0.00     0.034 A 
ATOM     57  C   UNL     1       1.834  10.925   9.268  1.00  0.00     0.034 A 
ATOM     58  C   UNL     1       7.565  12.944   6.897  1.00  0.00     0.049 A 
ATOM     59  C   UNL     1       3.093  11.445   9.909  1.00  0.00     0.074 A 
ATOM     60  C   UNL     1       8.648  13.448   7.595  1.00  0.00     0.029 A 
ATOM     61  N   UNL     1       6.580  12.668   7.832  1.00  0.00    -0.354 N 
ATOM     62  N   UNL     1       4.189  11.885   9.339  1.00  0.00    -0.248 NA
ATOM     63  C   UNL     1       3.113  11.512  11.377  1.00  0.00     0.031 C 
ATOM     64  C   UNL     1       8.323  13.460   8.956  1.00  0.00     0.029 A 
ATOM     65  C   UNL     1       7.029  12.986   9.102  1.00  0.00     0.049 A 
ATOM     66  H   UNL     1       5.691  12.300   7.623  1.00  0.00     0.167 HD
ATOM     67  C   UNL     1       5.011  12.315  10.373  1.00  0.00     0.074 A 
ATOM     68  C   UNL     1       4.278  12.103  11.604  1.00  0.00     0.031 C 
ATOM     69  C   UNL     1       6.266  12.824  10.312  1.00  0.00     0.034 A 
BRANCH  56  70
ATOM     70  C   UNL     1       8.624  13.029   4.604  1.00  0.00     0.023 A 
ATOM     71  C   UNL     1       8.610  14.178   3.787  1.00  0.00     0.012 A 
ATOM     72  C   UNL     1       9.775  12.216   4.632  1.00  0.00     0.148 A 
ATOM     73  C   UNL     1       9.706  14.496   2.987  1.00  0.00     0.002 A 
ATOM     74  C   UNL     1      10.881  12.565   3.865  1.00  0.00     0.091 A 
ATOM     75  F   UNL     1       9.763  11.117   5.398  1.00  0.00    -0.205 F 
ATOM     76  C   UNL     1      10.844  13.697   3.034  1.00  0.00     0.022 A 
BRANCH  74  77
ATOM     77  S   UNL     1      12.424  11.646   3.916  1.00  0.00     0.127 S 
ATOM     78  O   UNL     1      12.426  11.001   2.603  1.00  0.00    -0.237 OA
ATOM     79  O   UNL     1      13.413  12.713   4.072  1.00  0.00    -0.237 OA
ATOM     80  O   UNL     1      12.318  10.745   5.054  1.00  0.00    -0.744 OA
ENDBRANCH  74  77
ENDBRANCH  56  70
BRANCH  57  81
ATOM     81  C   UNL     1       0.668  10.510  10.097  1.00  0.00     0.023 A 
ATOM     82  C   UNL     1      -0.046  11.484  10.823  1.00  0.00     0.012 A 
ATOM     83  C   UNL     1       0.245   9.168  10.151  1.00  0.00     0.148 A 
ATOM     84  C   UNL     1      -1.137  11.124  11.615  1.00  0.00     0.002 A 
ATOM     85  C   UNL     1      -0.877   8.825  10.897  1.00  0.00     0.091 A 
ATOM     86  F   UNL     1       0.943   8.253   9.463  1.00  0.00    -0.205 F 
ATOM     87  C   UNL     1      -1.558   9.798  11.644  1.00  0.00     0.022 A 
BRANCH  85  88
ATOM     88  S   UNL     1      -1.569   7.167  10.884  1.00  0.00     0.127 S 
ATOM     89  O   UNL     1      -1.200   6.678  12.210  1.00  0.00    -0.237 OA
ATOM     90  O   UNL     1      -2.996   7.435  10.701  1.00  0.00    -0.237 OA
ATOM     91  O   UNL     1      -0.940   6.490   9.758  1.00  0.00    -0.744 OA
ENDBRANCH  85  88
ENDBRANCH  57  81
BRANCH  69  92
ATOM     92  C   UNL     1       6.920  13.229  11.608  1.00  0.00     0.023 A 
ATOM     93  C   UNL     1       7.367  12.240  12.506  1.00  0.00     0.012 A 
ATOM     94  C   UNL     1       7.153  14.587  11.901  1.00  0.00     0.148 A 
ATOM     95  C   UNL     1       8.006  12.598  13.693  1.00  0.00     0.002 A 
ATOM     96  C   UNL     1       7.834  14.934  13.062  1.00  0.00     0.091 A 
ATOM     97  F   UNL     1       6.702  15.514  11.044  1.00  0.00    -0.205 F 
ATOM     98  C   UNL     1       8.250  13.942  13.964  1.00  0.00     0.022 A 
BRANCH  96  99
ATOM     99  S   UNL     1       8.277  16.633  13.441  1.00  0.00     0.127 S 
ATOM    100  O   UNL     1       7.309  16.967  14.485  1.00  0.00    -0.237 OA
ATOM    101  O   UNL     1       9.657  16.499  13.910  1.00  0.00    -0.237 OA
ATOM    102  O   UNL     1       8.135  17.370  12.193  1.00  0.00    -0.744 OA
ENDBRANCH  96  99
ENDBRANCH  69  92
ENDBRANCH  43  44
ENDBRANCH  35  38
ENDBRANCH  33  34
ENDBRANCH  32  33
ENDBRANCH  31  32
ENDBRANCH   1  31
TORSDOF 20
