REMARK SMILES C/C=C/C[C@]1(C(=O)NCCCCCCNC(=O)c2ccc(-c3c4nc(c(-c5cccc(S(=O)(=O)[O-])c5F)c5ccc([nH]5)c(-c5cccc(S(=O)(=O)[O-])c5F)c5nc(c(-c6cccc(S(=O)(=O)[O-])c6F)c6ccc3[nH]6)C=C5)C=C4)cc2)CCN(C(=O)OC(C)(C)C)C1
REMARK SMILES IDX 11 1 10 2 9 3 8 4 6 5 7 6 5 8 81 9 91 10 82 11 83 12 4 13
REMARK SMILES IDX 3 14 1 15 2 16 84 17 85 18 86 19 87 20 88 21 89 22 90 23
REMARK SMILES IDX 12 24 13 25 14 26 15 27 16 28 17 30 18 31 19 32 80 33 20 34
REMARK SMILES IDX 79 35 21 36 22 37 23 38 73 39 24 40 78 41 72 42 74 43 25 44
REMARK SMILES IDX 77 45 71 46 70 47 26 49 58 50 38 51 57 52 39 53 42 54 56 55
REMARK SMILES IDX 75 56 40 57 41 58 55 60 76 61 43 62 27 63 28 64 36 65 29 66
REMARK SMILES IDX 31 67 37 68 30 69 32 70 33 71 34 72 35 73 59 74 60 75 68 76
REMARK SMILES IDX 61 77 63 78 69 79 62 80 64 81 65 82 66 83 67 84 44 85 45 86
REMARK SMILES IDX 53 87 46 88 48 89 54 90 47 91 49 92 50 93 51 94 52 95
REMARK H PARENT 8 7 15 29 74 48 42 59
REMARK Flexibility Score: inf
ROOT
ATOM      1  C   UNL     1       2.618   7.103  -2.316  1.00  0.00     0.002 C 
ENDROOT
BRANCH   1   2
ATOM      2  C   UNL     1       2.640   6.986  -0.787  1.00  0.00     0.021 C 
BRANCH   2   3
ATOM      3  C   UNL     1       1.289   6.689  -0.140  1.00  0.00     0.116 C 
BRANCH   3   4
ATOM      4  N   UNL     1       0.709   5.466  -0.659  1.00  0.00    -0.356 N 
ATOM      5  C   UNL     1      -0.146   4.561  -0.130  1.00  0.00     0.228 C 
ATOM      6  O   UNL     1      -0.742   3.876  -0.971  1.00  0.00    -0.274 OA
ATOM      7  H   UNL     1       0.993   5.252  -1.577  1.00  0.00     0.163 HD
BRANCH   5   8
ATOM      8  C   UNL     1      -0.467   4.450   1.374  1.00  0.00     0.072 C 
ATOM      9  C   UNL     1       0.732   4.580   2.355  1.00  0.00     0.041 C 
ATOM     10  C   UNL     1      -1.371   5.656   1.698  1.00  0.00     0.140 C 
ATOM     11  C   UNL     1       0.340   5.682   3.344  1.00  0.00     0.124 C 
ATOM     12  N   UNL     1      -0.611   6.479   2.612  1.00  0.00    -0.307 N 
BRANCH   8  13
ATOM     13  C   UNL     1      -1.214   3.111   1.666  1.00  0.00     0.046 C 
BRANCH  13  14
ATOM     14  C   UNL     1      -0.615   1.890   1.007  1.00  0.00    -0.030 C 
ATOM     15  C   UNL     1       0.988   0.032   0.620  1.00  0.00     0.035 C 
ATOM     16  C   UNL     1       0.403   1.137   1.445  1.00  0.00    -0.035 C 
ENDBRANCH  13  14
ENDBRANCH   8  13
BRANCH  12  17
ATOM     17  C   UNL     1      -0.727   7.849   2.630  1.00  0.00     0.410 C 
ATOM     18  O   UNL     1      -1.366   8.464   1.789  1.00  0.00    -0.224 OA
BRANCH  17  19
ATOM     19  O   UNL     1      -0.042   8.410   3.657  1.00  0.00    -0.444 OA
BRANCH  19  20
ATOM     20  C   UNL     1       0.070   9.857   3.786  1.00  0.00     0.106 C 
ATOM     21  C   UNL     1       1.113  10.367   2.787  1.00  0.00     0.056 C 
ATOM     22  C   UNL     1      -1.263  10.604   3.636  1.00  0.00     0.056 C 
ATOM     23  C   UNL     1       0.584  10.088   5.215  1.00  0.00     0.056 C 
ENDBRANCH  19  20
ENDBRANCH  17  19
ENDBRANCH  12  17
ENDBRANCH   5   8
ENDBRANCH   3   4
ENDBRANCH   2   3
ENDBRANCH   1   2
BRANCH   1  24
ATOM     24  C   UNL     1       1.571   8.060  -2.891  1.00  0.00     0.002 C 
BRANCH  24  25
ATOM     25  C   UNL     1       1.621   9.492  -2.356  1.00  0.00     0.021 C 
BRANCH  25  26
ATOM     26  C   UNL     1       2.986  10.166  -2.430  1.00  0.00     0.116 C 
BRANCH  26  27
ATOM     27  N   UNL     1       3.515  10.222  -3.780  1.00  0.00    -0.352 N 
ATOM     28  C   UNL     1       4.220  11.228  -4.390  1.00  0.00     0.251 C 
ATOM     29  H   UNL     1       3.344   9.428  -4.336  1.00  0.00     0.163 HD
ATOM     30  O   UNL     1       4.487  11.145  -5.586  1.00  0.00    -0.269 OA
BRANCH  28  31
ATOM     31  C   UNL     1       4.640  12.419  -3.617  1.00  0.00     0.039 A 
ATOM     32  C   UNL     1       4.506  13.678  -4.209  1.00  0.00     0.014 A 
ATOM     33  C   UNL     1       5.191  12.303  -2.337  1.00  0.00     0.014 A 
ATOM     34  C   UNL     1       4.902  14.820  -3.510  1.00  0.00     0.010 A 
ATOM     35  C   UNL     1       5.518  13.447  -1.613  1.00  0.00     0.010 A 
ATOM     36  C   UNL     1       5.404  14.715  -2.202  1.00  0.00    -0.014 A 
BRANCH  36  37
ATOM     37  C   UNL     1       5.855  15.921  -1.464  1.00  0.00     0.031 A 
ATOM     38  C   UNL     1       7.309  16.088  -1.110  1.00  0.00     0.074 A 
ATOM     39  C   UNL     1       4.955  16.842  -1.070  1.00  0.00     0.049 A 
ATOM     40  N   UNL     1       7.897  17.076  -0.485  1.00  0.00    -0.248 NA
ATOM     41  C   UNL     1       8.219  14.991  -1.480  1.00  0.00     0.031 C 
ATOM     42  C   UNL     1       3.507  16.751  -1.274  1.00  0.00     0.029 A 
ATOM     43  N   UNL     1       5.123  18.029  -0.403  1.00  0.00    -0.354 N 
ATOM     44  C   UNL     1       9.231  16.706  -0.359  1.00  0.00     0.074 A 
ATOM     45  C   UNL     1       9.360  15.386  -0.935  1.00  0.00     0.031 C 
ATOM     46  C   UNL     1       2.921  17.841  -0.751  1.00  0.00     0.029 A 
ATOM     47  C   UNL     1       3.947  18.702  -0.169  1.00  0.00     0.049 A 
ATOM     48  H   UNL     1       6.003  18.366  -0.118  1.00  0.00     0.167 HD
ATOM     49  C   UNL     1      10.265  17.415   0.153  1.00  0.00     0.034 A 
ATOM     50  C   UNL     1       3.724  19.887   0.432  1.00  0.00     0.034 A 
ATOM     51  C   UNL     1      10.145  18.751   0.669  1.00  0.00     0.049 A 
ATOM     52  C   UNL     1       4.900  20.695   0.912  1.00  0.00     0.074 A 
ATOM     53  C   UNL     1      11.143  19.589   1.135  1.00  0.00     0.029 A 
ATOM     54  N   UNL     1       8.952  19.449   0.781  1.00  0.00    -0.354 N 
ATOM     55  N   UNL     1       6.177  20.399   0.870  1.00  0.00    -0.248 NA
ATOM     56  C   UNL     1       4.611  22.021   1.475  1.00  0.00     0.031 C 
ATOM     57  C   UNL     1      10.551  20.793   1.533  1.00  0.00     0.029 A 
ATOM     58  C   UNL     1       9.187  20.709   1.302  1.00  0.00     0.049 A 
ATOM     59  H   UNL     1       8.067  19.099   0.527  1.00  0.00     0.167 HD
ATOM     60  C   UNL     1       6.845  21.516   1.359  1.00  0.00     0.074 A 
ATOM     61  C   UNL     1       5.831  22.502   1.674  1.00  0.00     0.031 C 
ATOM     62  C   UNL     1       8.175  21.703   1.545  1.00  0.00     0.034 A 
BRANCH  49  63
ATOM     63  C   UNL     1      11.632  16.783   0.114  1.00  0.00     0.023 A 
ATOM     64  C   UNL     1      12.298  16.654  -1.123  1.00  0.00     0.012 A 
ATOM     65  C   UNL     1      12.277  16.363   1.292  1.00  0.00     0.148 A 
ATOM     66  C   UNL     1      13.568  16.083  -1.191  1.00  0.00     0.002 A 
ATOM     67  C   UNL     1      13.562  15.834   1.221  1.00  0.00     0.091 A 
ATOM     68  F   UNL     1      11.621  16.471   2.456  1.00  0.00    -0.205 F 
ATOM     69  C   UNL     1      14.203  15.683  -0.019  1.00  0.00     0.022 A 
BRANCH  67  70
ATOM     70  S   UNL     1      14.493  15.359   2.683  1.00  0.00     0.127 S 
ATOM     71  O   UNL     1      14.436  13.900   2.609  1.00  0.00    -0.237 OA
ATOM     72  O   UNL     1      15.812  15.932   2.409  1.00  0.00    -0.237 OA
ATOM     73  O   UNL     1      13.796  15.959   3.812  1.00  0.00    -0.744 OA
ENDBRANCH  67  70
ENDBRANCH  49  63
BRANCH  50  74
ATOM     74  C   UNL     1       2.338  20.428   0.515  1.00  0.00     0.023 A 
ATOM     75  C   UNL     1       1.975  21.522  -0.295  1.00  0.00     0.012 A 
ATOM     76  C   UNL     1       1.373  19.851   1.362  1.00  0.00     0.148 A 
ATOM     77  C   UNL     1       0.686  22.052  -0.240  1.00  0.00     0.002 A 
ATOM     78  C   UNL     1       0.076  20.352   1.375  1.00  0.00     0.091 A 
ATOM     79  F   UNL     1       1.740  18.819   2.135  1.00  0.00    -0.205 F 
ATOM     80  C   UNL     1      -0.266  21.462   0.587  1.00  0.00     0.022 A 
BRANCH  78  81
ATOM     81  S   UNL     1      -1.244  19.573   2.313  1.00  0.00     0.127 S 
ATOM     82  O   UNL     1      -1.412  20.506   3.424  1.00  0.00    -0.237 OA
ATOM     83  O   UNL     1      -2.341  19.562   1.345  1.00  0.00    -0.237 OA
ATOM     84  O   UNL     1      -0.743  18.250   2.663  1.00  0.00    -0.744 OA
ENDBRANCH  78  81
ENDBRANCH  50  74
BRANCH  62  85
ATOM     85  C   UNL     1       8.625  23.039   2.074  1.00  0.00     0.023 A 
ATOM     86  C   UNL     1       8.405  23.366   3.426  1.00  0.00     0.012 A 
ATOM     87  C   UNL     1       9.329  23.938   1.249  1.00  0.00     0.148 A 
ATOM     88  C   UNL     1       8.852  24.583   3.942  1.00  0.00     0.002 A 
ATOM     89  C   UNL     1       9.811  25.128   1.782  1.00  0.00     0.091 A 
ATOM     90  F   UNL     1       9.509  23.620  -0.041  1.00  0.00    -0.205 F 
ATOM     91  C   UNL     1       9.564  25.457   3.124  1.00  0.00     0.022 A 
BRANCH  89  92
ATOM     92  S   UNL     1      10.819  26.261   0.819  1.00  0.00     0.127 S 
ATOM     93  O   UNL     1       9.843  27.279   0.436  1.00  0.00    -0.237 OA
ATOM     94  O   UNL     1      11.814  26.707   1.795  1.00  0.00    -0.237 OA
ATOM     95  O   UNL     1      11.368  25.468  -0.274  1.00  0.00    -0.744 OA
ENDBRANCH  89  92
ENDBRANCH  62  85
ENDBRANCH  36  37
ENDBRANCH  28  31
ENDBRANCH  26  27
ENDBRANCH  25  26
ENDBRANCH  24  25
ENDBRANCH   1  24
TORSDOF 21
