REMARK SMILES CCC[NH+]1CCN(C(=O)N[C@H]2C=C[C@@H](C(=O)NCCCCCCNC(=O)c3ccc(-c4c5nc(c(-c6cccc(S(=O)(=O)[O-])c6F)c6ccc([nH]6)c(-c6cccc(S(=O)(=O)[O-])c6F)c6nc(c(-c7cccc(S(=O)(=O)[O-])c7F)c7ccc4[nH]7)C=C6)C=C5)cc3)C2)CC1
REMARK SMILES IDX 20 1 19 2 18 3 17 4 15 5 16 6 14 8 11 9 12 10 90 11 13 12
REMARK SMILES IDX 10 13 4 14 5 15 92 16 6 18 91 19 7 20 8 21 9 22 3 24 2 25
REMARK SMILES IDX 1 26 21 27 22 28 23 29 24 30 25 31 26 33 27 34 28 35 89 36
REMARK SMILES IDX 29 37 88 38 30 39 31 40 32 41 82 42 33 43 87 44 81 45 83 46
REMARK SMILES IDX 34 47 86 48 80 49 79 50 35 52 67 53 47 54 66 55 48 56 51 57
REMARK SMILES IDX 65 58 84 59 49 60 50 61 64 63 85 64 52 65 36 66 37 67 45 68
REMARK SMILES IDX 38 69 40 70 46 71 39 72 41 73 42 74 43 75 44 76 68 77 69 78
REMARK SMILES IDX 77 79 70 80 72 81 78 82 71 83 73 84 74 85 75 86 76 87 53 88
REMARK SMILES IDX 54 89 62 90 55 91 57 92 63 93 56 94 58 95 59 96 60 97 61 98
REMARK H PARENT 17 7 4 17 10 23 24 32 83 51 51 62
REMARK Flexibility Score: inf
ROOT
ATOM      1  C   UNL     1      -1.945   4.408   5.848  1.00  0.00     0.002 C 
ENDROOT
BRANCH   1   2
ATOM      2  C   UNL     1      -1.346   4.460   4.444  1.00  0.00     0.021 C 
BRANCH   2   3
ATOM      3  C   UNL     1      -1.573   3.203   3.617  1.00  0.00     0.116 C 
BRANCH   3   4
ATOM      4  N   UNL     1      -2.935   3.034   3.167  1.00  0.00    -0.356 N 
ATOM      5  C   UNL     1      -3.482   3.078   1.926  1.00  0.00     0.227 C 
ATOM      6  O   UNL     1      -4.656   2.689   1.838  1.00  0.00    -0.274 OA
ATOM      7  H   UNL     1      -3.581   2.854   3.888  1.00  0.00     0.163 HD
BRANCH   5   8
ATOM      8  C   UNL     1      -2.752   3.536   0.646  1.00  0.00     0.103 C 
ATOM      9  C   UNL     1      -0.371   3.873   0.088  1.00  0.00     0.107 C 
ATOM     10  C   UNL     1      -0.903   2.627  -0.511  1.00  0.00    -0.006 C 
ATOM     11  C   UNL     1      -1.607   4.551   0.712  1.00  0.00     0.047 C 
ATOM     12  C   UNL     1      -2.189   2.422  -0.189  1.00  0.00    -0.016 C 
BRANCH   9  13
ATOM     13  N   UNL     1       0.801   3.765   0.966  1.00  0.00    -0.332 N 
ATOM     14  N   UNL     1       0.874  -1.198   2.693  1.00  0.00    -0.332 N 
ATOM     15  C   UNL     1       1.869  -0.400   3.449  1.00  0.00     0.284 C 
ATOM     16  C   UNL     1      -0.251  -0.334   2.377  1.00  0.00     0.284 C 
ATOM     17  H   UNL     1       0.478  -1.954   3.252  1.00  0.00     0.348 HD
ATOM     18  C   UNL     1       2.304   0.925   2.772  1.00  0.00     0.183 C 
ATOM     19  C   UNL     1       0.123   0.939   1.627  1.00  0.00     0.183 C 
ATOM     20  N   UNL     1       1.211   1.717   2.166  1.00  0.00    -0.314 N 
ATOM     21  C   UNL     1       1.483   3.014   1.848  1.00  0.00     0.318 C 
ATOM     22  O   UNL     1       2.440   3.607   2.361  1.00  0.00    -0.249 OA
ATOM     23  H   UNL     1       1.305   4.604   0.864  1.00  0.00     0.165 HD
BRANCH  14  24
ATOM     24  C   UNL     1       1.492  -1.969   1.606  1.00  0.00     0.262 C 
BRANCH  24  25
ATOM     25  C   UNL     1       0.706  -2.294   0.316  1.00  0.00     0.058 C 
ATOM     26  C   UNL     1       0.886  -1.286  -0.816  1.00  0.00     0.010 C 
ENDBRANCH  24  25
ENDBRANCH  14  24
ENDBRANCH   9  13
ENDBRANCH   5   8
ENDBRANCH   3   4
ENDBRANCH   2   3
ENDBRANCH   1   2
BRANCH   1  27
ATOM     27  C   UNL     1      -1.487   3.228   6.710  1.00  0.00     0.002 C 
BRANCH  27  28
ATOM     28  C   UNL     1       0.029   3.056   6.843  1.00  0.00     0.021 C 
BRANCH  28  29
ATOM     29  C   UNL     1       0.772   4.278   7.373  1.00  0.00     0.116 C 
BRANCH  29  30
ATOM     30  N   UNL     1       0.306   4.674   8.694  1.00  0.00    -0.352 N 
ATOM     31  C   UNL     1       1.025   4.879   9.844  1.00  0.00     0.251 C 
ATOM     32  H   UNL     1      -0.664   4.816   8.774  1.00  0.00     0.163 HD
ATOM     33  O   UNL     1       0.439   5.027  10.916  1.00  0.00    -0.269 OA
BRANCH  31  34
ATOM     34  C   UNL     1       2.502   4.905   9.798  1.00  0.00     0.039 A 
ATOM     35  C   UNL     1       3.222   4.214  10.775  1.00  0.00     0.014 A 
ATOM     36  C   UNL     1       3.175   5.610   8.796  1.00  0.00     0.014 A 
ATOM     37  C   UNL     1       4.617   4.184  10.715  1.00  0.00     0.010 A 
ATOM     38  C   UNL     1       4.560   5.513   8.693  1.00  0.00     0.010 A 
ATOM     39  C   UNL     1       5.297   4.807   9.654  1.00  0.00    -0.014 A 
BRANCH  39  40
ATOM     40  C   UNL     1       6.775   4.717   9.529  1.00  0.00     0.031 A 
ATOM     41  C   UNL     1       7.620   5.961   9.583  1.00  0.00     0.074 A 
ATOM     42  C   UNL     1       7.349   3.522   9.286  1.00  0.00     0.049 A 
ATOM     43  N   UNL     1       8.915   6.085   9.446  1.00  0.00    -0.248 NA
ATOM     44  C   UNL     1       6.917   7.238   9.794  1.00  0.00     0.031 C 
ATOM     45  C   UNL     1       6.631   2.255   9.133  1.00  0.00     0.029 A 
ATOM     46  N   UNL     1       8.665   3.182   9.096  1.00  0.00    -0.354 N 
ATOM     47  C   UNL     1       9.178   7.447   9.519  1.00  0.00     0.074 A 
ATOM     48  C   UNL     1       7.904   8.114   9.677  1.00  0.00     0.031 C 
ATOM     49  C   UNL     1       7.514   1.277   8.877  1.00  0.00     0.029 A 
ATOM     50  C   UNL     1       8.855   1.850   8.811  1.00  0.00     0.049 A 
ATOM     51  H   UNL     1       9.404   3.830   9.158  1.00  0.00     0.167 HD
ATOM     52  C   UNL     1      10.372   8.085   9.485  1.00  0.00     0.034 A 
ATOM     53  C   UNL     1       9.979   1.168   8.516  1.00  0.00     0.034 A 
ATOM     54  C   UNL     1      11.638   7.416   9.356  1.00  0.00     0.049 A 
ATOM     55  C   UNL     1      11.296   1.896   8.510  1.00  0.00     0.074 A 
ATOM     56  C   UNL     1      12.908   7.964   9.395  1.00  0.00     0.029 A 
ATOM     57  N   UNL     1      11.797   6.055   9.147  1.00  0.00    -0.354 N 
ATOM     58  N   UNL     1      11.539   3.163   8.740  1.00  0.00    -0.248 NA
ATOM     59  C   UNL     1      12.497   1.094   8.240  1.00  0.00     0.031 C 
ATOM     60  C   UNL     1      13.834   6.939   9.174  1.00  0.00     0.029 A 
ATOM     61  C   UNL     1      13.142   5.745   9.040  1.00  0.00     0.049 A 
ATOM     62  H   UNL     1      11.061   5.404   9.084  1.00  0.00     0.167 HD
ATOM     63  C   UNL     1      12.921   3.304   8.680  1.00  0.00     0.074 A 
ATOM     64  C   UNL     1      13.462   1.987   8.413  1.00  0.00     0.031 C 
ATOM     65  C   UNL     1      13.672   4.423   8.821  1.00  0.00     0.034 A 
BRANCH  52  66
ATOM     66  C   UNL     1      10.369   9.586   9.629  1.00  0.00     0.023 A 
ATOM     67  C   UNL     1      10.028  10.168  10.868  1.00  0.00     0.012 A 
ATOM     68  C   UNL     1      10.756  10.419   8.561  1.00  0.00     0.148 A 
ATOM     69  C   UNL     1      10.032  11.553  11.030  1.00  0.00     0.002 A 
ATOM     70  C   UNL     1      10.806  11.796   8.744  1.00  0.00     0.091 A 
ATOM     71  F   UNL     1      11.060   9.851   7.385  1.00  0.00    -0.205 F 
ATOM     72  C   UNL     1      10.431  12.365   9.972  1.00  0.00     0.022 A 
BRANCH  70  73
ATOM     73  S   UNL     1      11.386  12.924   7.472  1.00  0.00     0.127 S 
ATOM     74  O   UNL     1      10.152  13.619   7.109  1.00  0.00    -0.237 OA
ATOM     75  O   UNL     1      12.353  13.742   8.205  1.00  0.00    -0.237 OA
ATOM     76  O   UNL     1      11.964  12.091   6.427  1.00  0.00    -0.744 OA
ENDBRANCH  70  73
ENDBRANCH  52  66
BRANCH  53  77
ATOM     77  C   UNL     1       9.913  -0.298   8.253  1.00  0.00     0.023 A 
ATOM     78  C   UNL     1      10.470  -1.197   9.183  1.00  0.00     0.012 A 
ATOM     79  C   UNL     1       9.283  -0.806   7.100  1.00  0.00     0.148 A 
ATOM     80  C   UNL     1      10.434  -2.573   8.952  1.00  0.00     0.002 A 
ATOM     81  C   UNL     1       9.198  -2.179   6.905  1.00  0.00     0.091 A 
ATOM     82  F   UNL     1       8.766   0.066   6.223  1.00  0.00    -0.205 F 
ATOM     83  C   UNL     1       9.790  -3.064   7.819  1.00  0.00     0.022 A 
BRANCH  81  84
ATOM     84  S   UNL     1       8.275  -2.905   5.546  1.00  0.00     0.127 S 
ATOM     85  O   UNL     1       9.343  -3.470   4.725  1.00  0.00    -0.237 OA
ATOM     86  O   UNL     1       7.444  -3.890   6.239  1.00  0.00    -0.237 OA
ATOM     87  O   UNL     1       7.528  -1.809   4.944  1.00  0.00    -0.744 OA
ENDBRANCH  81  84
ENDBRANCH  53  77
BRANCH  65  88
ATOM     88  C   UNL     1      15.170   4.277   8.737  1.00  0.00     0.023 A 
ATOM     89  C   UNL     1      15.785   4.002   7.499  1.00  0.00     0.012 A 
ATOM     90  C   UNL     1      15.973   4.483   9.877  1.00  0.00     0.148 A 
ATOM     91  C   UNL     1      17.172   3.899   7.404  1.00  0.00     0.002 A 
ATOM     92  C   UNL     1      17.357   4.432   9.764  1.00  0.00     0.091 A 
ATOM     93  F   UNL     1      15.369   4.727  11.049  1.00  0.00    -0.205 F 
ATOM     94  C   UNL     1      17.958   4.126   8.532  1.00  0.00     0.022 A 
BRANCH  92  95
ATOM     95  S   UNL     1      18.451   4.809  11.137  1.00  0.00     0.127 S 
ATOM     96  O   UNL     1      19.014   3.493  11.439  1.00  0.00    -0.237 OA
ATOM     97  O   UNL     1      19.393   5.751  10.533  1.00  0.00    -0.237 OA
ATOM     98  O   UNL     1      17.609   5.380  12.180  1.00  0.00    -0.744 OA
ENDBRANCH  92  95
ENDBRANCH  65  88
ENDBRANCH  39  40
ENDBRANCH  31  34
ENDBRANCH  29  30
ENDBRANCH  28  29
ENDBRANCH  27  28
ENDBRANCH   1  27
TORSDOF 19
