REMARK SMILES Cc1ccc(Cl)cc1NC(=O)N[C@@](C)(C(=O)NCCCCCCNC(=O)c1ccc(-c2c3nc(c(-c4cccc(S(=O)(=O)[O-])c4F)c4ccc([nH]4)c(-c4cccc(S(=O)(=O)[O-])c4F)c4nc(c(-c5cccc(S(=O)(=O)[O-])c5F)c5ccc2[nH]5)C=C4)C=C3)cc1)C(F)(F)F
REMARK SMILES IDX 21 1 20 2 19 3 18 4 17 5 15 6 16 7 13 9 14 10 12 11 9 12
REMARK SMILES IDX 10 13 11 15 8 17 1 18 2 19 3 20 4 21 7 22 5 23 6 24 90 25
REMARK SMILES IDX 91 26 92 27 93 28 22 29 23 30 24 31 25 32 26 34 27 35 28 36
REMARK SMILES IDX 89 37 29 38 88 39 30 40 31 41 32 42 82 43 33 44 87 45 81 46
REMARK SMILES IDX 83 47 34 48 86 49 80 50 79 51 35 53 67 54 47 55 66 56 48 57
REMARK SMILES IDX 51 58 65 59 84 60 49 61 50 62 64 64 85 65 52 66 36 67 37 68
REMARK SMILES IDX 45 69 38 70 40 71 46 72 39 73 41 74 42 75 43 76 44 77 68 78
REMARK SMILES IDX 69 79 77 80 70 81 72 82 78 83 71 84 73 85 74 86 75 87 76 88
REMARK SMILES IDX 53 89 54 90 62 91 55 92 57 93 63 94 56 95 58 96 59 97 60 98
REMARK SMILES IDX 61 99
REMARK H PARENT 17 8 9 14 12 16 24 33 83 52 51 63
REMARK Flexibility Score: inf
ROOT
ATOM      1  C   UNL     1      -5.390   6.003  -1.986  1.00  0.00     0.002 C 
ENDROOT
BRANCH   1   2
ATOM      2  C   UNL     1      -3.934   6.207  -2.420  1.00  0.00     0.002 C 
BRANCH   2   3
ATOM      3  C   UNL     1      -2.897   6.224  -1.283  1.00  0.00     0.021 C 
BRANCH   3   4
ATOM      4  C   UNL     1      -2.990   5.038  -0.323  1.00  0.00     0.116 C 
BRANCH   4   5
ATOM      5  N   UNL     1      -2.997   3.793  -1.063  1.00  0.00    -0.354 N 
ATOM      6  C   UNL     1      -1.825   3.277  -1.549  1.00  0.00     0.255 C 
ATOM      7  O   UNL     1      -1.509   3.591  -2.696  1.00  0.00    -0.272 OA
ATOM      8  H   UNL     1      -3.845   3.318  -1.216  1.00  0.00     0.163 HD
BRANCH   6   9
ATOM      9  C   UNL     1      -0.947   2.417  -0.593  1.00  0.00     0.213 C 
ATOM     10  C   UNL     1      -1.831   1.910   0.562  1.00  0.00     0.056 C 
BRANCH   9  11
ATOM     11  N   UNL     1       0.159   3.256  -0.030  1.00  0.00    -0.316 N 
ATOM     12  N   UNL     1       1.912   1.945   0.990  1.00  0.00    -0.308 N 
ATOM     13  C   UNL     1       1.301   3.093   0.647  1.00  0.00     0.320 C 
ATOM     14  H   UNL     1       2.833   2.104   1.300  1.00  0.00     0.171 HD
ATOM     15  O   UNL     1       1.927   4.134   0.886  1.00  0.00    -0.248 OA
ATOM     16  H   UNL     1      -0.004   4.210  -0.211  1.00  0.00     0.166 HD
BRANCH  12  17
ATOM     17  C   UNL     1       1.586   0.582   1.024  1.00  0.00     0.047 A 
ATOM     18  C   UNL     1       3.865  -0.038   0.010  1.00  0.00     0.046 C 
ATOM     19  C   UNL     1       2.464  -0.361   0.451  1.00  0.00    -0.027 A 
ATOM     20  C   UNL     1       2.019  -1.687   0.273  1.00  0.00     0.007 A 
ATOM     21  C   UNL     1       0.753  -2.081   0.702  1.00  0.00     0.021 A 
ATOM     22  C   UNL     1       0.421   0.122   1.633  1.00  0.00     0.047 A 
ATOM     23  C   UNL     1      -0.021  -1.186   1.426  1.00  0.00     0.043 A 
ATOM     24  Cl  UNL     1      -1.563  -1.674   2.015  1.00  0.00    -0.084 Cl
ENDBRANCH  12  17
ENDBRANCH   9  11
BRANCH   9  25
ATOM     25  C   UNL     1      -0.525   1.330  -1.617  1.00  0.00     0.420 C 
ATOM     26  F   UNL     1       0.290   1.807  -2.589  1.00  0.00    -0.168 F 
ATOM     27  F   UNL     1       0.129   0.292  -1.078  1.00  0.00    -0.168 F 
ATOM     28  F   UNL     1      -1.610   0.778  -2.223  1.00  0.00    -0.168 F 
ENDBRANCH   9  25
ENDBRANCH   6   9
ENDBRANCH   4   5
ENDBRANCH   3   4
ENDBRANCH   2   3
ENDBRANCH   1   2
BRANCH   1  29
ATOM     29  C   UNL     1      -5.878   6.970  -0.910  1.00  0.00     0.021 C 
BRANCH  29  30
ATOM     30  C   UNL     1      -5.644   8.434  -1.240  1.00  0.00     0.116 C 
BRANCH  30  31
ATOM     31  N   UNL     1      -6.368   8.846  -2.430  1.00  0.00    -0.352 N 
ATOM     32  C   UNL     1      -7.177   9.944  -2.590  1.00  0.00     0.251 C 
ATOM     33  H   UNL     1      -6.265   8.267  -3.220  1.00  0.00     0.163 HD
ATOM     34  O   UNL     1      -7.875  10.065  -3.587  1.00  0.00    -0.269 OA
BRANCH  32  35
ATOM     35  C   UNL     1      -7.206  10.961  -1.518  1.00  0.00     0.039 A 
ATOM     36  C   UNL     1      -8.439  11.402  -1.038  1.00  0.00     0.014 A 
ATOM     37  C   UNL     1      -6.013  11.438  -0.964  1.00  0.00     0.014 A 
ATOM     38  C   UNL     1      -8.476  12.295   0.033  1.00  0.00     0.010 A 
ATOM     39  C   UNL     1      -6.056  12.260   0.156  1.00  0.00     0.010 A 
ATOM     40  C   UNL     1      -7.287  12.711   0.655  1.00  0.00    -0.014 A 
BRANCH  40  41
ATOM     41  C   UNL     1      -7.313  13.624   1.825  1.00  0.00     0.031 A 
ATOM     42  C   UNL     1      -6.662  14.979   1.738  1.00  0.00     0.074 A 
ATOM     43  C   UNL     1      -7.852  13.204   2.987  1.00  0.00     0.049 A 
ATOM     44  N   UNL     1      -6.550  15.897   2.661  1.00  0.00    -0.248 NA
ATOM     45  C   UNL     1      -6.030  15.341   0.457  1.00  0.00     0.031 C 
ATOM     46  C   UNL     1      -8.430  11.878   3.222  1.00  0.00     0.029 A 
ATOM     47  N   UNL     1      -7.973  13.836   4.199  1.00  0.00    -0.354 N 
ATOM     48  C   UNL     1      -5.799  16.919   2.093  1.00  0.00     0.074 A 
ATOM     49  C   UNL     1      -5.461  16.501   0.751  1.00  0.00     0.031 C 
ATOM     50  C   UNL     1      -8.841  11.796   4.498  1.00  0.00     0.029 A 
ATOM     51  C   UNL     1      -8.529  13.048   5.181  1.00  0.00     0.049 A 
ATOM     52  H   UNL     1      -7.690  14.767   4.352  1.00  0.00     0.167 HD
ATOM     53  C   UNL     1      -5.444  18.108   2.631  1.00  0.00     0.034 A 
ATOM     54  C   UNL     1      -8.748  13.300   6.486  1.00  0.00     0.034 A 
ATOM     55  C   UNL     1      -5.830  18.541   3.946  1.00  0.00     0.049 A 
ATOM     56  C   UNL     1      -8.400  14.657   7.036  1.00  0.00     0.074 A 
ATOM     57  C   UNL     1      -5.623  19.775   4.536  1.00  0.00     0.029 A 
ATOM     58  N   UNL     1      -6.487  17.755   4.878  1.00  0.00    -0.354 N 
ATOM     59  N   UNL     1      -7.858  15.681   6.423  1.00  0.00    -0.248 NA
ATOM     60  C   UNL     1      -8.729  14.909   8.447  1.00  0.00     0.031 C 
ATOM     61  C   UNL     1      -6.121  19.723   5.841  1.00  0.00     0.029 A 
ATOM     62  C   UNL     1      -6.676  18.470   6.047  1.00  0.00     0.049 A 
ATOM     63  H   UNL     1      -6.776  16.826   4.730  1.00  0.00     0.167 HD
ATOM     64  C   UNL     1      -7.816  16.707   7.359  1.00  0.00     0.074 A 
ATOM     65  C   UNL     1      -8.409  16.190   8.574  1.00  0.00     0.031 C 
ATOM     66  C   UNL     1      -7.319  17.961   7.230  1.00  0.00     0.034 A 
BRANCH  53  67
ATOM     67  C   UNL     1      -4.626  19.054   1.794  1.00  0.00     0.023 A 
ATOM     68  C   UNL     1      -5.224  19.727   0.709  1.00  0.00     0.012 A 
ATOM     69  C   UNL     1      -3.295  19.351   2.146  1.00  0.00     0.148 A 
ATOM     70  C   UNL     1      -4.502  20.668  -0.025  1.00  0.00     0.002 A 
ATOM     71  C   UNL     1      -2.598  20.324   1.440  1.00  0.00     0.091 A 
ATOM     72  F   UNL     1      -2.740  18.683   3.167  1.00  0.00    -0.205 F 
ATOM     73  C   UNL     1      -3.196  20.976   0.348  1.00  0.00     0.022 A 
BRANCH  71  74
ATOM     74  S   UNL     1      -0.944  20.856   1.895  1.00  0.00     0.127 S 
ATOM     75  O   UNL     1      -0.161  20.397   0.748  1.00  0.00    -0.237 OA
ATOM     76  O   UNL     1      -1.104  22.307   1.983  1.00  0.00    -0.237 OA
ATOM     77  O   UNL     1      -0.640  20.196   3.157  1.00  0.00    -0.744 OA
ENDBRANCH  71  74
ENDBRANCH  53  67
BRANCH  54  78
ATOM     78  C   UNL     1      -9.361  12.258   7.359  1.00  0.00     0.023 A 
ATOM     79  C   UNL     1     -10.659  12.449   7.873  1.00  0.00     0.012 A 
ATOM     80  C   UNL     1      -8.663  11.079   7.683  1.00  0.00     0.148 A 
ATOM     81  C   UNL     1     -11.230  11.507   8.730  1.00  0.00     0.002 A 
ATOM     82  C   UNL     1      -9.262  10.117   8.487  1.00  0.00     0.091 A 
ATOM     83  F   UNL     1      -7.424  10.919   7.195  1.00  0.00    -0.205 F 
ATOM     84  C   UNL     1     -10.536  10.338   9.030  1.00  0.00     0.022 A 
BRANCH  82  85
ATOM     85  S   UNL     1      -8.493   8.525   8.807  1.00  0.00     0.127 S 
ATOM     86  O   UNL     1      -8.064   8.674  10.195  1.00  0.00    -0.237 OA
ATOM     87  O   UNL     1      -9.610   7.602   8.602  1.00  0.00    -0.237 OA
ATOM     88  O   UNL     1      -7.428   8.401   7.821  1.00  0.00    -0.744 OA
ENDBRANCH  82  85
ENDBRANCH  54  78
BRANCH  66  89
ATOM     89  C   UNL     1      -7.434  18.888   8.411  1.00  0.00     0.023 A 
ATOM     90  C   UNL     1      -6.633  18.682   9.551  1.00  0.00     0.012 A 
ATOM     91  C   UNL     1      -8.283  20.011   8.354  1.00  0.00     0.148 A 
ATOM     92  C   UNL     1      -6.701  19.561  10.631  1.00  0.00     0.002 A 
ATOM     93  C   UNL     1      -8.305  20.912   9.411  1.00  0.00     0.091 A 
ATOM     94  F   UNL     1      -9.049  20.180   7.266  1.00  0.00    -0.205 F 
ATOM     95  C   UNL     1      -7.526  20.681  10.556  1.00  0.00     0.022 A 
BRANCH  93  96
ATOM     96  S   UNL     1      -9.258  22.433   9.358  1.00  0.00     0.127 S 
ATOM     97  O   UNL     1     -10.326  22.148  10.315  1.00  0.00    -0.237 OA
ATOM     98  O   UNL     1      -8.283  23.426   9.810  1.00  0.00    -0.237 OA
ATOM     99  O   UNL     1      -9.686  22.593   7.975  1.00  0.00    -0.744 OA
ENDBRANCH  93  96
ENDBRANCH  66  89
ENDBRANCH  40  41
ENDBRANCH  32  35
ENDBRANCH  30  31
ENDBRANCH  29  30
ENDBRANCH   1  29
TORSDOF 19
