REMARK SMILES C[C@@H](C(=O)NCCCCCCNC(=O)c1ccc(-c2c3nc(c(-c4cccc(S(=O)(=O)[O-])c4F)c4ccc([nH]4)c(-c4cccc(S(=O)(=O)[O-])c4F)c4nc(c(-c5cccc(S(=O)(=O)[O-])c5F)c5ccc2[nH]5)C=C4)C=C3)cc1)c1cc(C(=O)c2ccccc2)ccc1O
REMARK SMILES IDX 8 1 7 2 6 3 5 4 3 5 4 6 2 8 1 9 78 10 79 11 91 12 80 13
REMARK SMILES IDX 90 14 89 15 92 16 81 18 82 19 83 20 84 21 88 22 85 23 87 24
REMARK SMILES IDX 86 25 9 26 10 27 11 28 12 29 13 30 14 32 15 33 16 34 77 35
REMARK SMILES IDX 17 36 76 37 18 38 19 39 20 40 70 41 21 42 75 43 69 44 71 45
REMARK SMILES IDX 22 46 74 47 68 48 67 49 23 51 55 52 35 53 54 54 36 55 39 56
REMARK SMILES IDX 53 57 72 58 37 59 38 60 52 62 73 63 40 64 24 65 25 66 33 67
REMARK SMILES IDX 26 68 28 69 34 70 27 71 29 72 30 73 31 74 32 75 56 76 57 77
REMARK SMILES IDX 65 78 58 79 60 80 66 81 59 82 61 83 62 84 63 85 64 86 41 87
REMARK SMILES IDX 42 88 50 89 43 90 45 91 51 92 44 93 46 94 47 95 48 96 49 97
REMARK H PARENT 5 7 92 17 12 31 71 50 39 61
REMARK Flexibility Score: inf
ROOT
ATOM      1  C   UNL     1       5.034   2.035  -1.962  1.00  0.00     0.002 C 
ENDROOT
BRANCH   1   2
ATOM      2  C   UNL     1       4.259   1.270  -0.881  1.00  0.00     0.021 C 
BRANCH   2   3
ATOM      3  C   UNL     1       3.360   2.156  -0.008  1.00  0.00     0.116 C 
BRANCH   3   4
ATOM      4  N   UNL     1       2.202   2.594  -0.767  1.00  0.00    -0.356 N 
ATOM      5  C   UNL     1       0.936   2.082  -0.811  1.00  0.00     0.227 C 
ATOM      6  O   UNL     1       0.219   2.446  -1.747  1.00  0.00    -0.274 OA
ATOM      7  H   UNL     1       2.352   3.381  -1.339  1.00  0.00     0.163 HD
BRANCH   5   8
ATOM      8  C   UNL     1       0.442   1.117   0.289  1.00  0.00     0.109 C 
ATOM      9  C   UNL     1       1.109  -0.250   0.102  1.00  0.00     0.023 C 
BRANCH   8  10
ATOM     10  C   UNL     1      -1.097   1.104   0.384  1.00  0.00     0.007 A 
ATOM     11  C   UNL     1      -1.756   2.339   0.618  1.00  0.00     0.020 A 
ATOM     12  C   UNL     1      -1.916  -0.030   0.281  1.00  0.00     0.119 A 
ATOM     13  C   UNL     1      -3.157   2.429   0.709  1.00  0.00     0.023 A 
ATOM     14  C   UNL     1      -3.304   0.045   0.385  1.00  0.00     0.047 A 
ATOM     15  C   UNL     1      -3.927   1.272   0.570  1.00  0.00     0.016 A 
BRANCH  12  16
ATOM     16  O   UNL     1      -1.444  -1.287   0.051  1.00  0.00    -0.508 OA
ATOM     17  H   UNL     1      -0.522  -1.434  -0.034  1.00  0.00     0.293 HD
ENDBRANCH  12  16
BRANCH  13  18
ATOM     18  C   UNL     1      -3.800   3.763   0.906  1.00  0.00     0.193 C 
ATOM     19  O   UNL     1      -3.195   4.798   0.646  1.00  0.00    -0.289 OA
BRANCH  18  20
ATOM     20  C   UNL     1      -5.202   3.858   1.383  1.00  0.00     0.022 A 
ATOM     21  C   UNL     1      -6.104   4.656   0.672  1.00  0.00     0.012 A 
ATOM     22  C   UNL     1      -5.629   3.144   2.509  1.00  0.00     0.012 A 
ATOM     23  C   UNL     1      -7.445   4.695   1.057  1.00  0.00     0.001 A 
ATOM     24  C   UNL     1      -6.971   3.182   2.886  1.00  0.00     0.001 A 
ATOM     25  C   UNL     1      -7.879   3.950   2.155  1.00  0.00     0.000 A 
ENDBRANCH  18  20
ENDBRANCH  13  18
ENDBRANCH   8  10
ENDBRANCH   5   8
ENDBRANCH   3   4
ENDBRANCH   2   3
ENDBRANCH   1   2
BRANCH   1  26
ATOM     26  C   UNL     1       6.042   3.059  -1.433  1.00  0.00     0.002 C 
BRANCH  26  27
ATOM     27  C   UNL     1       7.093   2.500  -0.468  1.00  0.00     0.021 C 
BRANCH  27  28
ATOM     28  C   UNL     1       7.962   1.379  -1.037  1.00  0.00     0.116 C 
BRANCH  28  29
ATOM     29  N   UNL     1       8.741   1.821  -2.183  1.00  0.00    -0.352 N 
ATOM     30  C   UNL     1      10.091   1.737  -2.412  1.00  0.00     0.251 C 
ATOM     31  H   UNL     1       8.220   2.244  -2.904  1.00  0.00     0.163 HD
ATOM     32  O   UNL     1      10.581   2.353  -3.357  1.00  0.00    -0.269 OA
BRANCH  30  33
ATOM     33  C   UNL     1      10.960   0.925  -1.530  1.00  0.00     0.039 A 
ATOM     34  C   UNL     1      12.210   1.437  -1.169  1.00  0.00     0.014 A 
ATOM     35  C   UNL     1      10.575  -0.347  -1.095  1.00  0.00     0.014 A 
ATOM     36  C   UNL     1      13.051   0.695  -0.338  1.00  0.00     0.010 A 
ATOM     37  C   UNL     1      11.390  -1.059  -0.213  1.00  0.00     0.010 A 
ATOM     38  C   UNL     1      12.639  -0.550   0.169  1.00  0.00    -0.014 A 
BRANCH  38  39
ATOM     39  C   UNL     1      13.504  -1.306   1.113  1.00  0.00     0.031 A 
ATOM     40  C   UNL     1      14.082  -2.642   0.731  1.00  0.00     0.074 A 
ATOM     41  C   UNL     1      13.730  -0.804   2.343  1.00  0.00     0.049 A 
ATOM     42  N   UNL     1      14.869  -3.426   1.424  1.00  0.00    -0.248 NA
ATOM     43  C   UNL     1      13.714  -3.181  -0.588  1.00  0.00     0.031 C 
ATOM     44  C   UNL     1      13.150   0.433   2.870  1.00  0.00     0.029 A 
ATOM     45  N   UNL     1      14.491  -1.281   3.382  1.00  0.00    -0.354 N 
ATOM     46  C   UNL     1      15.078  -4.552   0.636  1.00  0.00     0.074 A 
ATOM     47  C   UNL     1      14.300  -4.370  -0.570  1.00  0.00     0.031 C 
ATOM     48  C   UNL     1      13.577   0.619   4.129  1.00  0.00     0.029 A 
ATOM     49  C   UNL     1      14.447  -0.490   4.506  1.00  0.00     0.049 A 
ATOM     50  H   UNL     1      15.017  -2.111   3.327  1.00  0.00     0.167 HD
ATOM     51  C   UNL     1      15.875  -5.622   0.875  1.00  0.00     0.034 A 
ATOM     52  C   UNL     1      15.043  -0.638   5.705  1.00  0.00     0.034 A 
ATOM     53  C   UNL     1      16.674  -5.786   2.061  1.00  0.00     0.049 A 
ATOM     54  C   UNL     1      15.970  -1.804   5.921  1.00  0.00     0.074 A 
ATOM     55  C   UNL     1      17.561  -6.803   2.367  1.00  0.00     0.029 A 
ATOM     56  N   UNL     1      16.685  -4.912   3.136  1.00  0.00    -0.354 N 
ATOM     57  N   UNL     1      16.282  -2.774   5.096  1.00  0.00    -0.248 NA
ATOM     58  C   UNL     1      16.663  -1.871   7.216  1.00  0.00     0.031 C 
ATOM     59  C   UNL     1      18.102  -6.548   3.633  1.00  0.00     0.029 A 
ATOM     60  C   UNL     1      17.564  -5.363   4.106  1.00  0.00     0.049 A 
ATOM     61  H   UNL     1      16.146  -4.090   3.201  1.00  0.00     0.167 HD
ATOM     62  C   UNL     1      17.225  -3.550   5.760  1.00  0.00     0.074 A 
ATOM     63  C   UNL     1      17.460  -2.916   7.041  1.00  0.00     0.031 C 
ATOM     64  C   UNL     1      17.825  -4.697   5.356  1.00  0.00     0.034 A 
BRANCH  51  65
ATOM     65  C   UNL     1      15.985  -6.668  -0.205  1.00  0.00     0.023 A 
ATOM     66  C   UNL     1      16.702  -6.365  -1.381  1.00  0.00     0.012 A 
ATOM     67  C   UNL     1      15.451  -7.960  -0.035  1.00  0.00     0.148 A 
ATOM     68  C   UNL     1      16.863  -7.321  -2.383  1.00  0.00     0.002 A 
ATOM     69  C   UNL     1      15.651  -8.921  -1.022  1.00  0.00     0.091 A 
ATOM     70  F   UNL     1      14.758  -8.225   1.081  1.00  0.00    -0.205 F 
ATOM     71  C   UNL     1      16.347  -8.600  -2.199  1.00  0.00     0.022 A 
BRANCH  69  72
ATOM     72  S   UNL     1      15.092 -10.620  -0.851  1.00  0.00     0.127 S 
ATOM     73  O   UNL     1      14.025 -10.681  -1.851  1.00  0.00    -0.237 OA
ATOM     74  O   UNL     1      16.297 -11.376  -1.202  1.00  0.00    -0.237 OA
ATOM     75  O   UNL     1      14.662 -10.767   0.529  1.00  0.00    -0.744 OA
ENDBRANCH  69  72
ENDBRANCH  51  65
BRANCH  52  76
ATOM     76  C   UNL     1      14.835   0.383   6.770  1.00  0.00     0.023 A 
ATOM     77  C   UNL     1      15.896   1.235   7.135  1.00  0.00     0.012 A 
ATOM     78  C   UNL     1      13.587   0.532   7.404  1.00  0.00     0.148 A 
ATOM     79  C   UNL     1      15.728   2.191   8.138  1.00  0.00     0.002 A 
ATOM     80  C   UNL     1      13.409   1.526   8.360  1.00  0.00     0.091 A 
ATOM     81  F   UNL     1      12.592  -0.297   7.055  1.00  0.00    -0.205 F 
ATOM     82  C   UNL     1      14.483   2.344   8.742  1.00  0.00     0.022 A 
BRANCH  80  83
ATOM     83  S   UNL     1      11.800   1.878   9.077  1.00  0.00     0.127 S 
ATOM     84  O   UNL     1      11.914   1.253  10.392  1.00  0.00    -0.237 OA
ATOM     85  O   UNL     1      11.782   3.341   9.089  1.00  0.00    -0.237 OA
ATOM     86  O   UNL     1      10.833   1.280   8.166  1.00  0.00    -0.744 OA
ENDBRANCH  80  83
ENDBRANCH  52  76
BRANCH  64  87
ATOM     87  C   UNL     1      18.809  -5.334   6.303  1.00  0.00     0.023 A 
ATOM     88  C   UNL     1      18.340  -5.968   7.471  1.00  0.00     0.012 A 
ATOM     89  C   UNL     1      20.187  -5.347   6.015  1.00  0.00     0.148 A 
ATOM     90  C   UNL     1      19.231  -6.571   8.358  1.00  0.00     0.002 A 
ATOM     91  C   UNL     1      21.065  -5.991   6.880  1.00  0.00     0.091 A 
ATOM     92  F   UNL     1      20.618  -4.721   4.910  1.00  0.00    -0.205 F 
ATOM     93  C   UNL     1      20.591  -6.591   8.058  1.00  0.00     0.022 A 
BRANCH  91  94
ATOM     94  S   UNL     1      22.820  -6.143   6.526  1.00  0.00     0.127 S 
ATOM     95  O   UNL     1      23.392  -5.134   7.415  1.00  0.00    -0.237 OA
ATOM     96  O   UNL     1      23.099  -7.526   6.914  1.00  0.00    -0.237 OA
ATOM     97  O   UNL     1      22.961  -5.879   5.100  1.00  0.00    -0.744 OA
ENDBRANCH  91  94
ENDBRANCH  64  87
ENDBRANCH  38  39
ENDBRANCH  30  33
ENDBRANCH  28  29
ENDBRANCH  27  28
ENDBRANCH  26  27
ENDBRANCH   1  26
TORSDOF 20
