REMARK SMILES C[C@H](Cc1ccc([N+](=O)[O-])cc1)C(=O)NCCCCCCNC(=O)c1ccc(-c2c3nc(c(-c4cccc(S(=O)(=O)[O-])c4F)c4ccc([nH]4)c(-c4cccc(S(=O)(=O)[O-])c4F)c4nc(c(-c5cccc(S(=O)(=O)[O-])c5F)c5ccc2[nH]5)C=C4)C=C3)cc1
REMARK SMILES IDX 18 1 17 2 16 3 15 4 13 5 14 6 2 8 1 9 3 10 4 11 5 12 12 13
REMARK SMILES IDX 6 14 11 15 7 16 8 17 9 18 10 19 19 20 20 21 21 22 22 23
REMARK SMILES IDX 23 24 24 26 25 27 26 28 87 29 27 30 86 31 28 32 29 33 30 34
REMARK SMILES IDX 80 35 31 36 85 37 79 38 81 39 32 40 84 41 78 42 77 43 33 45
REMARK SMILES IDX 65 46 45 47 64 48 46 49 49 50 63 51 82 52 47 53 48 54 62 56
REMARK SMILES IDX 83 57 50 58 34 59 35 60 43 61 36 62 38 63 44 64 37 65 39 66
REMARK SMILES IDX 40 67 41 68 42 69 66 70 67 71 75 72 68 73 70 74 76 75 69 76
REMARK SMILES IDX 71 77 72 78 73 79 74 80 51 81 52 82 60 83 53 84 55 85 61 86
REMARK SMILES IDX 54 87 56 88 57 89 58 90 59 91
REMARK H PARENT 15 7 22 25 81 44 49 55
REMARK Flexibility Score: inf
ROOT
ATOM      1  C   UNL     1      -3.598   0.546   2.817  1.00  0.00     0.002 C 
ENDROOT
BRANCH   1   2
ATOM      2  C   UNL     1      -2.157   0.768   2.365  1.00  0.00     0.021 C 
BRANCH   2   3
ATOM      3  C   UNL     1      -1.438  -0.477   1.865  1.00  0.00     0.116 C 
BRANCH   3   4
ATOM      4  N   UNL     1      -1.779  -0.834   0.511  1.00  0.00    -0.356 N 
ATOM      5  C   UNL     1      -0.998  -1.247  -0.518  1.00  0.00     0.223 C 
ATOM      6  O   UNL     1      -1.586  -1.523  -1.572  1.00  0.00    -0.275 OA
ATOM      7  H   UNL     1      -2.738  -0.768   0.297  1.00  0.00     0.163 HD
BRANCH   5   8
ATOM      8  C   UNL     1       0.522  -1.458  -0.431  1.00  0.00     0.079 C 
ATOM      9  C   UNL     1       0.860  -2.900  -0.078  1.00  0.00     0.018 C 
BRANCH   8  10
ATOM     10  C   UNL     1       1.389  -0.345   0.198  1.00  0.00     0.048 C 
BRANCH  10  11
ATOM     11  C   UNL     1       2.110  -0.462   1.538  1.00  0.00    -0.047 A 
ATOM     12  C   UNL     1       1.714  -1.289   2.600  1.00  0.00     0.011 A 
ATOM     13  C   UNL     1       3.186   0.420   1.765  1.00  0.00     0.011 A 
ATOM     14  C   UNL     1       2.340  -1.225   3.851  1.00  0.00     0.086 A 
ATOM     15  C   UNL     1       3.835   0.480   3.002  1.00  0.00     0.086 A 
ATOM     16  C   UNL     1       3.399  -0.337   4.046  1.00  0.00     0.269 A 
BRANCH  16  17
ATOM     17  N   UNL     1       4.038  -0.244   5.361  1.00  0.00     0.062 N 
ATOM     18  O   UNL     1       3.434  -0.735   6.322  1.00  0.00    -0.258 OA
ATOM     19  O   UNL     1       5.135   0.329   5.422  1.00  0.00    -0.258 OA
ENDBRANCH  16  17
ENDBRANCH  10  11
ENDBRANCH   8  10
ENDBRANCH   5   8
ENDBRANCH   3   4
ENDBRANCH   2   3
ENDBRANCH   1   2
BRANCH   1  20
ATOM     20  C   UNL     1      -3.792  -0.528   3.892  1.00  0.00     0.002 C 
BRANCH  20  21
ATOM     21  C   UNL     1      -2.915  -0.393   5.141  1.00  0.00     0.021 C 
BRANCH  21  22
ATOM     22  C   UNL     1      -3.000   0.952   5.859  1.00  0.00     0.116 C 
BRANCH  22  23
ATOM     23  N   UNL     1      -4.362   1.298   6.227  1.00  0.00    -0.352 N 
ATOM     24  C   UNL     1      -4.878   1.660   7.446  1.00  0.00     0.251 C 
ATOM     25  H   UNL     1      -5.015   1.268   5.490  1.00  0.00     0.163 HD
ATOM     26  O   UNL     1      -6.093   1.741   7.591  1.00  0.00    -0.269 OA
BRANCH  24  27
ATOM     27  C   UNL     1      -3.974   1.938   8.584  1.00  0.00     0.039 A 
ATOM     28  C   UNL     1      -4.306   1.434   9.844  1.00  0.00     0.014 A 
ATOM     29  C   UNL     1      -2.819   2.708   8.418  1.00  0.00     0.014 A 
ATOM     30  C   UNL     1      -3.454   1.660  10.927  1.00  0.00     0.010 A 
ATOM     31  C   UNL     1      -1.935   2.868   9.482  1.00  0.00     0.010 A 
ATOM     32  C   UNL     1      -2.247   2.355  10.749  1.00  0.00    -0.014 A 
BRANCH  32  33
ATOM     33  C   UNL     1      -1.297   2.543  11.876  1.00  0.00     0.031 A 
ATOM     34  C   UNL     1      -0.961   3.925  12.368  1.00  0.00     0.074 A 
ATOM     35  C   UNL     1      -0.675   1.470  12.405  1.00  0.00     0.049 A 
ATOM     36  N   UNL     1      -0.128   4.284  13.310  1.00  0.00    -0.248 NA
ATOM     37  C   UNL     1      -1.628   5.054  11.699  1.00  0.00     0.031 C 
ATOM     38  C   UNL     1      -0.855   0.086  11.961  1.00  0.00     0.029 A 
ATOM     39  N   UNL     1       0.253   1.377  13.412  1.00  0.00    -0.354 N 
ATOM     40  C   UNL     1      -0.139   5.674  13.321  1.00  0.00     0.074 A 
ATOM     41  C   UNL     1      -1.041   6.095  12.271  1.00  0.00     0.031 C 
ATOM     42  C   UNL     1      -0.068  -0.717  12.694  1.00  0.00     0.029 A 
ATOM     43  C   UNL     1       0.696   0.094  13.636  1.00  0.00     0.049 A 
ATOM     44  H   UNL     1       0.571   2.154  13.926  1.00  0.00     0.167 HD
ATOM     45  C   UNL     1       0.522   6.522  14.144  1.00  0.00     0.034 A 
ATOM     46  C   UNL     1       1.621  -0.377  14.496  1.00  0.00     0.034 A 
ATOM     47  C   UNL     1       1.387   6.097  15.212  1.00  0.00     0.049 A 
ATOM     48  C   UNL     1       2.307   0.584  15.429  1.00  0.00     0.074 A 
ATOM     49  C   UNL     1       2.024   6.875  16.162  1.00  0.00     0.029 A 
ATOM     50  N   UNL     1       1.748   4.783  15.463  1.00  0.00    -0.354 N 
ATOM     51  N   UNL     1       2.157   1.882  15.534  1.00  0.00    -0.248 NA
ATOM     52  C   UNL     1       3.261   0.011  16.389  1.00  0.00     0.031 C 
ATOM     53  C   UNL     1       2.799   6.034  16.968  1.00  0.00     0.029 A 
ATOM     54  C   UNL     1       2.611   4.728  16.545  1.00  0.00     0.049 A 
ATOM     55  H   UNL     1       1.437   4.003  14.949  1.00  0.00     0.167 HD
ATOM     56  C   UNL     1       2.968   2.276  16.591  1.00  0.00     0.074 A 
ATOM     57  C   UNL     1       3.591   1.075  17.109  1.00  0.00     0.031 C 
ATOM     58  C   UNL     1       3.187   3.521  17.082  1.00  0.00     0.034 A 
BRANCH  45  59
ATOM     59  C   UNL     1       0.305   8.002  13.952  1.00  0.00     0.023 A 
ATOM     60  C   UNL     1      -0.936   8.577  14.293  1.00  0.00     0.012 A 
ATOM     61  C   UNL     1       1.349   8.832  13.498  1.00  0.00     0.148 A 
ATOM     62  C   UNL     1      -1.147   9.948  14.153  1.00  0.00     0.002 A 
ATOM     63  C   UNL     1       1.147  10.204  13.406  1.00  0.00     0.091 A 
ATOM     64  F   UNL     1       2.516   8.265  13.160  1.00  0.00    -0.205 F 
ATOM     65  C   UNL     1      -0.104  10.762  13.720  1.00  0.00     0.022 A 
BRANCH  63  66
ATOM     66  S   UNL     1       2.450  11.348  12.939  1.00  0.00     0.127 S 
ATOM     67  O   UNL     1       1.990  11.799  11.626  1.00  0.00    -0.237 OA
ATOM     68  O   UNL     1       2.364  12.359  13.994  1.00  0.00    -0.237 OA
ATOM     69  O   UNL     1       3.684  10.575  12.936  1.00  0.00    -0.744 OA
ENDBRANCH  63  66
ENDBRANCH  45  59
BRANCH  46  70
ATOM     70  C   UNL     1       1.904  -1.839  14.557  1.00  0.00     0.023 A 
ATOM     71  C   UNL     1       1.498  -2.576  15.687  1.00  0.00     0.012 A 
ATOM     72  C   UNL     1       2.542  -2.508  13.495  1.00  0.00     0.148 A 
ATOM     73  C   UNL     1       1.752  -3.945  15.773  1.00  0.00     0.002 A 
ATOM     74  C   UNL     1       2.741  -3.882  13.562  1.00  0.00     0.091 A 
ATOM     75  F   UNL     1       2.926  -1.787  12.432  1.00  0.00    -0.205 F 
ATOM     76  C   UNL     1       2.364  -4.599  14.708  1.00  0.00     0.022 A 
BRANCH  74  77
ATOM     77  S   UNL     1       3.398  -4.833  12.187  1.00  0.00     0.127 S 
ATOM     78  O   UNL     1       4.697  -5.253  12.708  1.00  0.00    -0.237 OA
ATOM     79  O   UNL     1       2.408  -5.903  12.062  1.00  0.00    -0.237 OA
ATOM     80  O   UNL     1       3.437  -3.917  11.056  1.00  0.00    -0.744 OA
ENDBRANCH  74  77
ENDBRANCH  46  70
BRANCH  58  81
ATOM     81  C   UNL     1       4.107   3.655  18.268  1.00  0.00     0.023 A 
ATOM     82  C   UNL     1       5.493   3.459  18.113  1.00  0.00     0.012 A 
ATOM     83  C   UNL     1       3.601   4.047  19.524  1.00  0.00     0.148 A 
ATOM     84  C   UNL     1       6.357   3.616  19.196  1.00  0.00     0.002 A 
ATOM     85  C   UNL     1       4.474   4.253  20.585  1.00  0.00     0.091 A 
ATOM     86  F   UNL     1       2.277   4.212  19.657  1.00  0.00    -0.205 F 
ATOM     87  C   UNL     1       5.850   4.025  20.427  1.00  0.00     0.022 A 
BRANCH  85  88
ATOM     88  S   UNL     1       3.923   4.876  22.178  1.00  0.00     0.127 S 
ATOM     89  O   UNL     1       4.060   3.692  23.024  1.00  0.00    -0.237 OA
ATOM     90  O   UNL     1       4.895   5.935  22.450  1.00  0.00    -0.237 OA
ATOM     91  O   UNL     1       2.559   5.345  21.977  1.00  0.00    -0.744 OA
ENDBRANCH  85  88
ENDBRANCH  58  81
ENDBRANCH  32  33
ENDBRANCH  24  27
ENDBRANCH  22  23
ENDBRANCH  21  22
ENDBRANCH  20  21
ENDBRANCH   1  20
TORSDOF 19
