REMARK SMILES CC(C)C[C@H](NC(=O)[C@H](Cc1ccccc1)NC(=O)CNC(=O)C[NH3+])C(=O)NCCCCCCNC(=O)c1ccc(-c2c3nc(c(-c4cccc(S(=O)(=O)[O-])c4F)c4ccc([nH]4)c(-c4cccc(S(=O)(=O)[O-])c4F)c4nc(c(-c5cccc(S(=O)(=O)[O-])c5F)c5ccc2[nH]5)C=C4)C=C3)cc1
REMARK SMILES IDX 29 1 28 2 26 3 27 4 5 6 4 7 2 8 1 9 3 10 6 11 7 12 8 14 9 15
REMARK SMILES IDX 17 16 18 17 19 19 20 20 21 21 22 22 23 24 24 25 25 26 10 30
REMARK SMILES IDX 11 31 12 32 16 33 13 34 15 35 14 36 30 37 31 38 32 39 33 40
REMARK SMILES IDX 34 41 35 42 36 43 37 45 38 46 39 47 100 48 40 49 99 50 41 51
REMARK SMILES IDX 42 52 43 53 93 54 44 55 98 56 92 57 94 58 45 59 97 60 91 61
REMARK SMILES IDX 90 62 46 64 78 65 58 66 77 67 59 68 62 69 76 70 95 71 60 72
REMARK SMILES IDX 61 73 75 75 96 76 63 77 47 78 48 79 56 80 49 81 51 82 57 83
REMARK SMILES IDX 50 84 52 85 53 86 54 87 55 88 79 89 80 90 88 91 81 92 83 93
REMARK SMILES IDX 89 94 82 95 84 96 85 97 86 98 87 99 64 100 65 101 73 102
REMARK SMILES IDX 66 103 68 104 74 105 67 106 69 107 70 108 71 109 72 110
REMARK H PARENT 28 5 6 13 17 18 21 23 25 27 25 28 25 29 35 44 94 63 62 74
REMARK Flexibility Score: inf
ROOT
ATOM      1  C   UNL     1      -0.503  -3.166   0.015  1.00  0.00     0.116 C 
ENDROOT
BRANCH   1   2
ATOM      2  N   UNL     1      -1.625  -3.604  -0.798  1.00  0.00    -0.354 N 
ATOM      3  C   UNL     1      -2.662  -4.443  -0.527  1.00  0.00     0.242 C 
ATOM      4  O   UNL     1      -3.569  -4.518  -1.358  1.00  0.00    -0.273 OA
ATOM      5  H   UNL     1      -1.638  -3.225  -1.707  1.00  0.00     0.163 HD
BRANCH   3   6
ATOM      6  C   UNL     1      -2.785  -5.161   0.817  1.00  0.00     0.171 C 
BRANCH   6   7
ATOM      7  C   UNL     1      -3.216  -4.016   1.761  1.00  0.00     0.038 C 
BRANCH   7   8
ATOM      8  C   UNL     1      -3.799  -4.350   3.137  1.00  0.00    -0.015 C 
ATOM      9  C   UNL     1      -2.700  -4.572   4.173  1.00  0.00     0.007 C 
ATOM     10  C   UNL     1      -4.674  -3.161   3.575  1.00  0.00     0.007 C 
ENDBRANCH   7   8
ENDBRANCH   6   7
BRANCH   6  11
ATOM     11  N   UNL     1      -1.558  -5.890   1.145  1.00  0.00    -0.343 N 
ATOM     12  C   UNL     1      -0.979  -6.941   0.468  1.00  0.00     0.243 C 
ATOM     13  H   UNL     1      -1.086  -5.591   1.956  1.00  0.00     0.164 HD
ATOM     14  O   UNL     1      -0.079  -7.565   1.040  1.00  0.00    -0.273 OA
BRANCH  12  15
ATOM     15  C   UNL     1      -1.395  -7.315  -0.984  1.00  0.00     0.175 C 
BRANCH  15  16
ATOM     16  N   UNL     1      -0.194  -7.490  -1.820  1.00  0.00    -0.342 N 
ATOM     17  C   UNL     1       0.099  -6.929  -3.030  1.00  0.00     0.240 C 
ATOM     18  H   UNL     1       0.492  -8.094  -1.455  1.00  0.00     0.164 HD
ATOM     19  O   UNL     1       1.018  -7.398  -3.701  1.00  0.00    -0.273 OA
BRANCH  17  20
ATOM     20  C   UNL     1      -0.685  -5.703  -3.503  1.00  0.00     0.216 C 
BRANCH  20  21
ATOM     21  N   UNL     1      -2.014  -5.899  -4.038  1.00  0.00    -0.342 N 
ATOM     22  C   UNL     1      -2.914  -4.928  -4.405  1.00  0.00     0.275 C 
ATOM     23  H   UNL     1      -2.306  -6.832  -4.153  1.00  0.00     0.164 HD
ATOM     24  O   UNL     1      -4.018  -5.295  -4.811  1.00  0.00    -0.268 OA
BRANCH  22  25
ATOM     25  C   UNL     1      -2.523  -3.433  -4.305  1.00  0.00     0.360 C 
BRANCH  25  26
ATOM     26  N   UNL     1      -3.444  -2.689  -3.440  1.00  0.00    -0.350 N 
ATOM     27  H   UNL     1      -4.386  -2.735  -3.828  1.00  0.00     0.344 HD
ATOM     28  H   UNL     1      -3.146  -1.715  -3.384  1.00  0.00     0.344 HD
ATOM     29  H   UNL     1      -3.440  -3.100  -2.506  1.00  0.00     0.344 HD
ENDBRANCH  25  26
ENDBRANCH  22  25
ENDBRANCH  20  21
ENDBRANCH  17  20
ENDBRANCH  15  16
BRANCH  15  30
ATOM     30  C   UNL     1      -2.181  -8.637  -1.009  1.00  0.00     0.070 C 
BRANCH  30  31
ATOM     31  C   UNL     1      -3.592  -8.455  -0.520  1.00  0.00    -0.045 A 
ATOM     32  C   UNL     1      -3.953  -8.864   0.768  1.00  0.00     0.004 A 
ATOM     33  C   UNL     1      -4.532  -7.792  -1.322  1.00  0.00     0.004 A 
ATOM     34  C   UNL     1      -5.226  -8.582   1.260  1.00  0.00     0.000 A 
ATOM     35  C   UNL     1      -5.801  -7.505  -0.825  1.00  0.00     0.000 A 
ATOM     36  C   UNL     1      -6.145  -7.894   0.468  1.00  0.00     0.000 A 
ENDBRANCH  30  31
ENDBRANCH  15  30
ENDBRANCH  12  15
ENDBRANCH   6  11
ENDBRANCH   3   6
ENDBRANCH   1   2
BRANCH   1  37
ATOM     37  C   UNL     1       0.837  -3.349  -0.691  1.00  0.00     0.021 C 
BRANCH  37  38
ATOM     38  C   UNL     1       0.920  -2.803  -2.118  1.00  0.00     0.002 C 
BRANCH  38  39
ATOM     39  C   UNL     1       0.476  -1.359  -2.331  1.00  0.00     0.002 C 
BRANCH  39  40
ATOM     40  C   UNL     1       1.352  -0.320  -1.652  1.00  0.00     0.021 C 
BRANCH  40  41
ATOM     41  C   UNL     1       2.845  -0.539  -1.835  1.00  0.00     0.116 C 
BRANCH  41  42
ATOM     42  N   UNL     1       3.257  -0.710  -3.225  1.00  0.00    -0.352 N 
ATOM     43  C   UNL     1       4.402  -0.239  -3.825  1.00  0.00     0.251 C 
ATOM     44  H   UNL     1       2.644  -1.222  -3.801  1.00  0.00     0.163 HD
ATOM     45  O   UNL     1       4.628  -0.432  -5.015  1.00  0.00    -0.269 OA
BRANCH  43  46
ATOM     46  C   UNL     1       5.316   0.561  -2.995  1.00  0.00     0.039 A 
ATOM     47  C   UNL     1       5.524   1.897  -3.333  1.00  0.00     0.014 A 
ATOM     48  C   UNL     1       5.766   0.040  -1.780  1.00  0.00     0.014 A 
ATOM     49  C   UNL     1       6.117   2.744  -2.400  1.00  0.00     0.010 A 
ATOM     50  C   UNL     1       6.251   0.910  -0.815  1.00  0.00     0.010 A 
ATOM     51  C   UNL     1       6.435   2.269  -1.116  1.00  0.00    -0.014 A 
BRANCH  51  52
ATOM     52  C   UNL     1       6.952   3.187  -0.073  1.00  0.00     0.031 A 
ATOM     53  C   UNL     1       8.307   2.948   0.532  1.00  0.00     0.074 A 
ATOM     54  C   UNL     1       6.171   4.188   0.384  1.00  0.00     0.049 A 
ATOM     55  N   UNL     1       8.939   3.650   1.435  1.00  0.00    -0.248 NA
ATOM     56  C   UNL     1       9.030   1.739   0.101  1.00  0.00     0.031 C 
ATOM     57  C   UNL     1       4.791   4.448  -0.035  1.00  0.00     0.029 A 
ATOM     58  N   UNL     1       6.426   5.171   1.306  1.00  0.00    -0.354 N 
ATOM     59  C   UNL     1      10.106   2.948   1.708  1.00  0.00     0.074 A 
ATOM     60  C   UNL     1      10.070   1.738   0.920  1.00  0.00     0.031 C 
ATOM     61  C   UNL     1       4.336   5.541   0.601  1.00  0.00     0.029 A 
ATOM     62  C   UNL     1       5.383   6.051   1.479  1.00  0.00     0.049 A 
ATOM     63  H   UNL     1       7.275   5.239   1.799  1.00  0.00     0.167 HD
ATOM     64  C   UNL     1      11.141   3.301   2.505  1.00  0.00     0.034 A 
ATOM     65  C   UNL     1       5.295   7.160   2.240  1.00  0.00     0.034 A 
ATOM     66  C   UNL     1      11.206   4.544   3.220  1.00  0.00     0.049 A 
ATOM     67  C   UNL     1       6.498   7.587   3.037  1.00  0.00     0.074 A 
ATOM     68  C   UNL     1      12.260   5.066   3.947  1.00  0.00     0.029 A 
ATOM     69  N   UNL     1      10.171   5.463   3.294  1.00  0.00    -0.354 N 
ATOM     70  N   UNL     1       7.675   7.016   3.124  1.00  0.00    -0.248 NA
ATOM     71  C   UNL     1       6.375   8.833   3.807  1.00  0.00     0.031 C 
ATOM     72  C   UNL     1      11.856   6.299   4.472  1.00  0.00     0.029 A 
ATOM     73  C   UNL     1      10.554   6.547   4.062  1.00  0.00     0.049 A 
ATOM     74  H   UNL     1       9.292   5.359   2.863  1.00  0.00     0.167 HD
ATOM     75  C   UNL     1       8.443   7.845   3.934  1.00  0.00     0.074 A 
ATOM     76  C   UNL     1       7.604   8.973   4.287  1.00  0.00     0.031 C 
ATOM     77  C   UNL     1       9.719   7.681   4.364  1.00  0.00     0.034 A 
BRANCH  64  78
ATOM     78  C   UNL     1      12.311   2.357   2.574  1.00  0.00     0.023 A 
ATOM     79  C   UNL     1      13.155   2.213   1.452  1.00  0.00     0.012 A 
ATOM     80  C   UNL     1      12.588   1.625   3.744  1.00  0.00     0.148 A 
ATOM     81  C   UNL     1      14.227   1.324   1.478  1.00  0.00     0.002 A 
ATOM     82  C   UNL     1      13.687   0.774   3.777  1.00  0.00     0.091 A 
ATOM     83  F   UNL     1      11.758   1.750   4.790  1.00  0.00    -0.205 F 
ATOM     84  C   UNL     1      14.499   0.612   2.643  1.00  0.00     0.022 A 
BRANCH  82  85
ATOM     85  S   UNL     1      14.159  -0.127   5.257  1.00  0.00     0.127 S 
ATOM     86  O   UNL     1      13.699  -1.478   4.940  1.00  0.00    -0.237 OA
ATOM     87  O   UNL     1      15.613   0.035   5.269  1.00  0.00    -0.237 OA
ATOM     88  O   UNL     1      13.470   0.531   6.358  1.00  0.00    -0.744 OA
ENDBRANCH  82  85
ENDBRANCH  64  78
BRANCH  65  89
ATOM     89  C   UNL     1       4.068   8.006   2.186  1.00  0.00     0.023 A 
ATOM     90  C   UNL     1       4.126   9.253   1.532  1.00  0.00     0.012 A 
ATOM     91  C   UNL     1       2.845   7.575   2.733  1.00  0.00     0.148 A 
ATOM     92  C   UNL     1       2.997  10.068   1.447  1.00  0.00     0.002 A 
ATOM     93  C   UNL     1       1.710   8.370   2.601  1.00  0.00     0.091 A 
ATOM     94  F   UNL     1       2.811   6.392   3.361  1.00  0.00    -0.205 F 
ATOM     95  C   UNL     1       1.787   9.622   1.972  1.00  0.00     0.022 A 
BRANCH  93  96
ATOM     96  S   UNL     1       0.084   7.819   3.131  1.00  0.00     0.127 S 
ATOM     97  O   UNL     1      -0.142   8.644   4.314  1.00  0.00    -0.237 OA
ATOM     98  O   UNL     1      -0.745   8.159   1.974  1.00  0.00    -0.237 OA
ATOM     99  O   UNL     1       0.215   6.388   3.370  1.00  0.00    -0.744 OA
ENDBRANCH  93  96
ENDBRANCH  65  89
BRANCH  77 100
ATOM    100  C   UNL     1      10.289   8.747   5.260  1.00  0.00     0.023 A 
ATOM    101  C   UNL     1       9.853   8.835   6.596  1.00  0.00     0.012 A 
ATOM    102  C   UNL     1      11.301   9.612   4.802  1.00  0.00     0.148 A 
ATOM    103  C   UNL     1      10.392   9.791   7.455  1.00  0.00     0.002 A 
ATOM    104  C   UNL     1      11.866  10.532   5.678  1.00  0.00     0.091 A 
ATOM    105  F   UNL     1      11.688   9.529   3.521  1.00  0.00    -0.205 F 
ATOM    106  C   UNL     1      11.406  10.631   7.000  1.00  0.00     0.022 A 
BRANCH 104 107
ATOM    107  S   UNL     1      13.242  11.581   5.194  1.00  0.00     0.127 S 
ATOM    108  O   UNL     1      12.567  12.844   4.903  1.00  0.00    -0.237 OA
ATOM    109  O   UNL     1      14.069  11.596   6.402  1.00  0.00    -0.237 OA
ATOM    110  O   UNL     1      13.860  10.916   4.054  1.00  0.00    -0.744 OA
ENDBRANCH 104 107
ENDBRANCH  77 100
ENDBRANCH  51  52
ENDBRANCH  43  46
ENDBRANCH  41  42
ENDBRANCH  40  41
ENDBRANCH  39  40
ENDBRANCH  38  39
ENDBRANCH  37  38
ENDBRANCH   1  37
TORSDOF 27
