REMARK SMILES COc1ccc(Cl)c2c1N[C@@H](c1ccc(C(=O)NCCCCCCNC(=O)c3ccc(-c4c5nc(c(-c6cccc(S(=O)(=O)[O-])c6F)c6ccc([nH]6)c(-c6cccc(S(=O)(=O)[O-])c6F)c6nc(c(-c7cccc(S(=O)(=O)[O-])c7F)c7ccc4[nH]7)C=C6)C=C5)cc3)cc1)[C@@H]1CC=C[C@H]21
REMARK SMILES IDX 22 1 21 2 20 3 19 4 18 5 16 6 17 7 15 9 12 10 13 11 92 12
REMARK SMILES IDX 14 13 91 14 11 15 3 16 4 17 9 18 5 19 8 20 10 21 6 22 97 23
REMARK SMILES IDX 7 25 93 26 96 27 94 28 95 29 2 30 1 31 23 32 24 33 25 34
REMARK SMILES IDX 26 35 27 37 28 38 29 39 90 40 30 41 89 42 31 43 32 44 33 45
REMARK SMILES IDX 83 46 34 47 88 48 82 49 84 50 35 51 87 52 81 53 80 54 36 56
REMARK SMILES IDX 68 57 48 58 67 59 49 60 52 61 66 62 85 63 50 64 51 65 65 67
REMARK SMILES IDX 86 68 53 69 37 70 38 71 46 72 39 73 41 74 47 75 40 76 42 77
REMARK SMILES IDX 43 78 44 79 45 80 69 81 70 82 78 83 71 84 73 85 79 86 72 87
REMARK SMILES IDX 74 88 75 89 76 90 77 91 54 92 55 93 63 94 56 95 58 96 64 97
REMARK SMILES IDX 57 98 59 99 60 100 61 101 62 102
REMARK H PARENT 18 8 10 24 25 36 84 55 52 66
REMARK Flexibility Score: inf
ROOT
ATOM      1  C   UNL     1      12.195  -3.001   3.075  1.00  0.00     0.002 C 
ENDROOT
BRANCH   1   2
ATOM      2  C   UNL     1      10.709  -3.343   3.243  1.00  0.00     0.002 C 
BRANCH   2   3
ATOM      3  C   UNL     1       9.744  -2.186   2.950  1.00  0.00     0.021 C 
BRANCH   3   4
ATOM      4  C   UNL     1       9.796  -1.703   1.500  1.00  0.00     0.116 C 
BRANCH   4   5
ATOM      5  N   UNL     1       9.085  -2.637   0.647  1.00  0.00    -0.352 N 
ATOM      6  C   UNL     1       7.827  -2.609   0.108  1.00  0.00     0.251 C 
ATOM      7  O   UNL     1       7.470  -3.577  -0.566  1.00  0.00    -0.269 OA
ATOM      8  H   UNL     1       9.604  -3.440   0.413  1.00  0.00     0.163 HD
BRANCH   6   9
ATOM      9  C   UNL     1       6.911  -1.443   0.238  1.00  0.00     0.039 A 
ATOM     10  C   UNL     1       5.153   0.785   0.245  1.00  0.00    -0.025 A 
ATOM     11  C   UNL     1       5.216  -0.080  -0.858  1.00  0.00     0.006 A 
ATOM     12  C   UNL     1       5.957   0.487   1.358  1.00  0.00     0.006 A 
ATOM     13  C   UNL     1       6.067  -1.188  -0.851  1.00  0.00     0.014 A 
ATOM     14  C   UNL     1       6.819  -0.617   1.359  1.00  0.00     0.014 A 
BRANCH  10  15
ATOM     15  C   UNL     1       4.238   2.006   0.280  1.00  0.00     0.114 C 
ATOM     16  C   UNL     1       0.718   2.327  -0.910  1.00  0.00     0.142 A 
ATOM     17  C   UNL     1      -0.259   3.294  -1.138  1.00  0.00     0.050 A 
ATOM     18  C   UNL     1       2.050   2.689  -0.621  1.00  0.00     0.083 A 
ATOM     19  C   UNL     1       0.074   4.641  -1.043  1.00  0.00     0.025 A 
ATOM     20  C   UNL     1       2.389   4.053  -0.521  1.00  0.00     0.005 A 
ATOM     21  N   UNL     1       3.018   1.714  -0.453  1.00  0.00    -0.375 N 
ATOM     22  C   UNL     1       1.385   5.019  -0.740  1.00  0.00     0.047 A 
ATOM     23  C   UNL     1       3.830   4.446  -0.273  1.00  0.00     0.051 C 
ATOM     24  H   UNL     1       2.878   0.817  -0.832  1.00  0.00     0.161 HD
ATOM     25  Cl  UNL     1       1.713   6.719  -0.702  1.00  0.00    -0.084 Cl
ATOM     26  C   UNL     1       4.866   3.288  -0.310  1.00  0.00     0.031 C 
ATOM     27  C   UNL     1       4.109   5.045   1.083  1.00  0.00    -0.023 C 
ATOM     28  C   UNL     1       6.033   3.840   0.529  1.00  0.00     0.034 C 
ATOM     29  C   UNL     1       5.333   4.719   1.515  1.00  0.00    -0.030 C 
BRANCH  16  30
ATOM     30  O   UNL     1       0.326   1.017  -1.065  1.00  0.00    -0.495 OA
ATOM     31  C   UNL     1       0.375   0.287   0.162  1.00  0.00     0.278 C 
ENDBRANCH  16  30
ENDBRANCH  10  15
ENDBRANCH   6   9
ENDBRANCH   4   5
ENDBRANCH   3   4
ENDBRANCH   2   3
ENDBRANCH   1   2
BRANCH   1  32
ATOM     32  C   UNL     1      12.658  -1.759   3.842  1.00  0.00     0.021 C 
BRANCH  32  33
ATOM     33  C   UNL     1      12.465  -1.857   5.351  1.00  0.00     0.116 C 
BRANCH  33  34
ATOM     34  N   UNL     1      13.345  -2.862   5.927  1.00  0.00    -0.352 N 
ATOM     35  C   UNL     1      14.358  -2.680   6.837  1.00  0.00     0.251 C 
ATOM     36  H   UNL     1      13.197  -3.788   5.626  1.00  0.00     0.163 HD
ATOM     37  O   UNL     1      15.185  -3.556   7.040  1.00  0.00    -0.269 OA
BRANCH  35  38
ATOM     38  C   UNL     1      14.426  -1.398   7.567  1.00  0.00     0.039 A 
ATOM     39  C   UNL     1      15.618  -0.672   7.570  1.00  0.00     0.014 A 
ATOM     40  C   UNL     1      13.293  -0.921   8.234  1.00  0.00     0.014 A 
ATOM     41  C   UNL     1      15.665   0.562   8.220  1.00  0.00     0.010 A 
ATOM     42  C   UNL     1      13.328   0.330   8.839  1.00  0.00     0.010 A 
ATOM     43  C   UNL     1      14.518   1.073   8.849  1.00  0.00    -0.014 A 
BRANCH  43  44
ATOM     44  C   UNL     1      14.552   2.368   9.567  1.00  0.00     0.031 A 
ATOM     45  C   UNL     1      14.453   2.384  11.066  1.00  0.00     0.074 A 
ATOM     46  C   UNL     1      14.607   3.520   8.872  1.00  0.00     0.049 A 
ATOM     47  N   UNL     1      14.433   3.409  11.875  1.00  0.00    -0.248 NA
ATOM     48  C   UNL     1      14.345   1.080  11.745  1.00  0.00     0.031 C 
ATOM     49  C   UNL     1      14.651   3.628   7.412  1.00  0.00     0.029 A 
ATOM     50  N   UNL     1      14.618   4.822   9.303  1.00  0.00    -0.354 N 
ATOM     51  C   UNL     1      14.281   2.879  13.150  1.00  0.00     0.074 A 
ATOM     52  C   UNL     1      14.191   1.444  13.010  1.00  0.00     0.031 C 
ATOM     53  C   UNL     1      14.695   4.927   7.070  1.00  0.00     0.029 A 
ATOM     54  C   UNL     1      14.667   5.742   8.282  1.00  0.00     0.049 A 
ATOM     55  H   UNL     1      14.594   5.075  10.254  1.00  0.00     0.167 HD
ATOM     56  C   UNL     1      14.253   3.530  14.334  1.00  0.00     0.034 A 
ATOM     57  C   UNL     1      14.695   7.088   8.321  1.00  0.00     0.034 A 
ATOM     58  C   UNL     1      14.406   4.950  14.475  1.00  0.00     0.049 A 
ATOM     59  C   UNL     1      14.695   7.785   9.655  1.00  0.00     0.074 A 
ATOM     60  C   UNL     1      14.480   5.691  15.640  1.00  0.00     0.029 A 
ATOM     61  N   UNL     1      14.511   5.841  13.420  1.00  0.00    -0.354 N 
ATOM     62  N   UNL     1      14.684   7.258  10.855  1.00  0.00    -0.248 NA
ATOM     63  C   UNL     1      14.741   9.255   9.643  1.00  0.00     0.031 C 
ATOM     64  C   UNL     1      14.625   7.036  15.289  1.00  0.00     0.029 A 
ATOM     65  C   UNL     1      14.646   7.127  13.906  1.00  0.00     0.049 A 
ATOM     66  H   UNL     1      14.491   5.595  12.467  1.00  0.00     0.167 HD
ATOM     67  C   UNL     1      14.757   8.327  11.740  1.00  0.00     0.074 A 
ATOM     68  C   UNL     1      14.815   9.533  10.940  1.00  0.00     0.031 C 
ATOM     69  C   UNL     1      14.764   8.309  13.094  1.00  0.00     0.034 A 
BRANCH  56  70
ATOM     70  C   UNL     1      14.126   2.714  15.587  1.00  0.00     0.023 A 
ATOM     71  C   UNL     1      15.264   2.057  16.094  1.00  0.00     0.012 A 
ATOM     72  C   UNL     1      12.920   2.683  16.313  1.00  0.00     0.148 A 
ATOM     73  C   UNL     1      15.203   1.373  17.306  1.00  0.00     0.002 A 
ATOM     74  C   UNL     1      12.875   2.024  17.535  1.00  0.00     0.091 A 
ATOM     75  F   UNL     1      11.850   3.306  15.799  1.00  0.00    -0.205 F 
ATOM     76  C   UNL     1      14.014   1.366  18.031  1.00  0.00     0.022 A 
BRANCH  74  77
ATOM     77  S   UNL     1      11.411   1.997  18.574  1.00  0.00     0.127 S 
ATOM     78  O   UNL     1      11.099   0.568  18.607  1.00  0.00    -0.237 OA
ATOM     79  O   UNL     1      11.920   2.540  19.833  1.00  0.00    -0.237 OA
ATOM     80  O   UNL     1      10.421   2.826  17.901  1.00  0.00    -0.744 OA
ENDBRANCH  74  77
ENDBRANCH  56  70
BRANCH  57  81
ATOM     81  C   UNL     1      14.824   7.860   7.056  1.00  0.00     0.023 A 
ATOM     82  C   UNL     1      16.070   8.429   6.731  1.00  0.00     0.012 A 
ATOM     83  C   UNL     1      13.749   7.990   6.156  1.00  0.00     0.148 A 
ATOM     84  C   UNL     1      16.241   9.130   5.537  1.00  0.00     0.002 A 
ATOM     85  C   UNL     1      13.936   8.658   4.951  1.00  0.00     0.091 A 
ATOM     86  F   UNL     1      12.573   7.442   6.491  1.00  0.00    -0.205 F 
ATOM     87  C   UNL     1      15.178   9.238   4.644  1.00  0.00     0.022 A 
BRANCH  85  88
ATOM     88  S   UNL     1      12.658   8.767   3.694  1.00  0.00     0.127 S 
ATOM     89  O   UNL     1      12.377  10.201   3.676  1.00  0.00    -0.237 OA
ATOM     90  O   UNL     1      13.356   8.260   2.512  1.00  0.00    -0.237 OA
ATOM     91  O   UNL     1      11.569   7.920   4.161  1.00  0.00    -0.744 OA
ENDBRANCH  85  88
ENDBRANCH  57  81
BRANCH  69  92
ATOM     92  C   UNL     1      14.863   9.618  13.825  1.00  0.00     0.023 A 
ATOM     93  C   UNL     1      13.705  10.400  13.996  1.00  0.00     0.012 A 
ATOM     94  C   UNL     1      16.057   9.985  14.474  1.00  0.00     0.148 A 
ATOM     95  C   UNL     1      13.735  11.534  14.806  1.00  0.00     0.002 A 
ATOM     96  C   UNL     1      16.071  11.096  15.307  1.00  0.00     0.091 A 
ATOM     97  F   UNL     1      17.145   9.223  14.287  1.00  0.00    -0.205 F 
ATOM     98  C   UNL     1      14.912  11.873  15.471  1.00  0.00     0.022 A 
BRANCH  96  99
ATOM     99  S   UNL     1      17.511  11.565  16.273  1.00  0.00     0.127 S 
ATOM    100  O   UNL     1      17.874  12.843  15.663  1.00  0.00    -0.237 OA
ATOM    101  O   UNL     1      16.956  11.668  17.623  1.00  0.00    -0.237 OA
ATOM    102  O   UNL     1      18.484  10.496  16.095  1.00  0.00    -0.744 OA
ENDBRANCH  96  99
ENDBRANCH  69  92
ENDBRANCH  43  44
ENDBRANCH  35  38
ENDBRANCH  33  34
ENDBRANCH  32  33
ENDBRANCH   1  32
TORSDOF 18
