REMARK SMILES CCCOc1cncc(N[C@@](C)(C(=O)NCCCCCCNC(=O)c2ccc(-c3c4nc(c(-c5cccc(S(=O)(=O)[O-])c5F)c5ccc([nH]5)c(-c5cccc(S(=O)(=O)[O-])c5F)c5nc(c(-c6cccc(S(=O)(=O)[O-])c6F)c6ccc3[nH]6)C=C5)C=C4)cc2)C(F)(F)F)n1
REMARK SMILES IDX 17 1 16 2 15 3 13 4 14 5 11 7 12 8 10 9 9 11 5 12 6 13 92 14
REMARK SMILES IDX 7 15 8 16 4 17 3 18 2 19 1 20 88 21 89 22 90 23 91 24 18 25
REMARK SMILES IDX 19 26 20 27 21 28 22 29 23 30 24 32 25 33 26 34 87 35 27 36
REMARK SMILES IDX 86 37 28 38 29 39 30 40 80 41 31 42 85 43 79 44 81 45 32 46
REMARK SMILES IDX 84 47 78 48 77 49 33 51 65 52 45 53 64 54 46 55 49 56 63 57
REMARK SMILES IDX 82 58 47 59 48 60 62 62 83 63 50 64 34 65 35 66 43 67 36 68
REMARK SMILES IDX 38 69 44 70 37 71 39 72 40 73 41 74 42 75 66 76 67 77 75 78
REMARK SMILES IDX 68 79 70 80 76 81 69 82 71 83 72 84 73 85 74 86 51 87 52 88
REMARK SMILES IDX 60 89 53 90 55 91 61 92 54 93 56 94 57 95 58 96 59 97
REMARK H PARENT 15 6 10 10 22 31 81 50 49 61
REMARK Flexibility Score: inf
ROOT
ATOM      1  C   UNL     1       4.061   2.166   7.767  1.00  0.00     0.021 C 
ENDROOT
BRANCH   1   2
ATOM      2  C   UNL     1       3.301   3.421   7.342  1.00  0.00     0.116 C 
BRANCH   2   3
ATOM      3  N   UNL     1       4.075   4.213   6.405  1.00  0.00    -0.354 N 
ATOM      4  C   UNL     1       3.806   4.726   5.172  1.00  0.00     0.254 C 
ATOM      5  O   UNL     1       4.780   5.239   4.611  1.00  0.00    -0.272 OA
ATOM      6  H   UNL     1       4.982   4.423   6.727  1.00  0.00     0.163 HD
BRANCH   4   7
ATOM      7  C   UNL     1       2.412   4.614   4.497  1.00  0.00     0.211 C 
ATOM      8  C   UNL     1       1.301   5.157   5.415  1.00  0.00     0.055 C 
BRANCH   7   9
ATOM      9  N   UNL     1       2.179   3.166   4.183  1.00  0.00    -0.347 N 
ATOM     10  H   UNL     1       2.697   2.554   4.754  1.00  0.00     0.163 HD
BRANCH   9  11
ATOM     11  C   UNL     1       1.396   2.523   3.266  1.00  0.00     0.149 A 
ATOM     12  C   UNL     1       0.430   0.522   2.634  1.00  0.00     0.234 A 
ATOM     13  C   UNL     1      -0.302   1.157   1.647  1.00  0.00     0.179 A 
ATOM     14  N   UNL     1       1.263   1.189   3.474  1.00  0.00    -0.193 NA
ATOM     15  N   UNL     1      -0.122   2.453   1.353  1.00  0.00    -0.255 NA
ATOM     16  C   UNL     1       0.750   3.097   2.171  1.00  0.00     0.158 A 
BRANCH  12  17
ATOM     17  O   UNL     1       0.271  -0.831   2.811  1.00  0.00    -0.477 OA
BRANCH  17  18
ATOM     18  C   UNL     1       1.188  -1.591   2.003  1.00  0.00     0.231 C 
BRANCH  18  19
ATOM     19  C   UNL     1       0.811  -1.628   0.512  1.00  0.00     0.038 C 
ATOM     20  C   UNL     1       1.635  -0.661  -0.335  1.00  0.00     0.007 C 
ENDBRANCH  18  19
ENDBRANCH  17  18
ENDBRANCH  12  17
ENDBRANCH   9  11
ENDBRANCH   7   9
BRANCH   7  21
ATOM     21  C   UNL     1       2.503   5.599   3.300  1.00  0.00     0.420 C 
ATOM     22  F   UNL     1       3.240   5.122   2.272  1.00  0.00    -0.168 F 
ATOM     23  F   UNL     1       1.266   5.870   2.800  1.00  0.00    -0.168 F 
ATOM     24  F   UNL     1       2.994   6.814   3.648  1.00  0.00    -0.168 F 
ENDBRANCH   7  21
ENDBRANCH   4   7
ENDBRANCH   2   3
ENDBRANCH   1   2
BRANCH   1  25
ATOM     25  C   UNL     1       5.409   2.420   8.452  1.00  0.00     0.002 C 
BRANCH  25  26
ATOM     26  C   UNL     1       5.363   3.341   9.674  1.00  0.00     0.002 C 
BRANCH  26  27
ATOM     27  C   UNL     1       4.377   2.924  10.766  1.00  0.00     0.021 C 
BRANCH  27  28
ATOM     28  C   UNL     1       4.560   1.504  11.286  1.00  0.00     0.116 C 
BRANCH  28  29
ATOM     29  N   UNL     1       5.862   1.304  11.902  1.00  0.00    -0.352 N 
ATOM     30  C   UNL     1       6.160   0.769  13.129  1.00  0.00     0.251 C 
ATOM     31  H   UNL     1       6.635   1.593  11.365  1.00  0.00     0.163 HD
ATOM     32  O   UNL     1       7.308   0.843  13.568  1.00  0.00    -0.269 OA
BRANCH  30  33
ATOM     33  C   UNL     1       5.099   0.122  13.928  1.00  0.00     0.039 A 
ATOM     34  C   UNL     1       5.015   0.399  15.295  1.00  0.00     0.014 A 
ATOM     35  C   UNL     1       4.189  -0.757  13.333  1.00  0.00     0.014 A 
ATOM     36  C   UNL     1       3.989  -0.169  16.053  1.00  0.00     0.010 A 
ATOM     37  C   UNL     1       3.120  -1.254  14.072  1.00  0.00     0.010 A 
ATOM     38  C   UNL     1       3.017  -0.980  15.444  1.00  0.00    -0.014 A 
BRANCH  38  39
ATOM     39  C   UNL     1       1.897  -1.559  16.229  1.00  0.00     0.031 A 
ATOM     40  C   UNL     1       1.751  -3.054  16.349  1.00  0.00     0.074 A 
ATOM     41  C   UNL     1       0.973  -0.745  16.777  1.00  0.00     0.049 A 
ATOM     42  N   UNL     1       0.821  -3.746  16.955  1.00  0.00    -0.248 NA
ATOM     43  C   UNL     1       2.769  -3.881  15.679  1.00  0.00     0.031 C 
ATOM     44  C   UNL     1       0.962   0.715  16.672  1.00  0.00     0.029 A 
ATOM     45  N   UNL     1      -0.149  -1.032  17.515  1.00  0.00    -0.354 N 
ATOM     46  C   UNL     1       1.123  -5.081  16.714  1.00  0.00     0.074 A 
ATOM     47  C   UNL     1       2.296  -5.103  15.870  1.00  0.00     0.031 C 
ATOM     48  C   UNL     1      -0.106   1.196  17.329  1.00  0.00     0.029 A 
ATOM     49  C   UNL     1      -0.873   0.081  17.874  1.00  0.00     0.049 A 
ATOM     50  H   UNL     1      -0.410  -1.948  17.764  1.00  0.00     0.167 HD
ATOM     51  C   UNL     1       0.500  -6.191  17.179  1.00  0.00     0.034 A 
ATOM     52  C   UNL     1      -2.029   0.190  18.558  1.00  0.00     0.034 A 
ATOM     53  C   UNL     1      -0.648  -6.166  18.044  1.00  0.00     0.049 A 
ATOM     54  C   UNL     1      -2.688  -1.058  19.081  1.00  0.00     0.074 A 
ATOM     55  C   UNL     1      -1.310  -7.232  18.627  1.00  0.00     0.029 A 
ATOM     56  N   UNL     1      -1.310  -5.016  18.447  1.00  0.00    -0.354 N 
ATOM     57  N   UNL     1      -2.306  -2.307  18.962  1.00  0.00    -0.248 NA
ATOM     58  C   UNL     1      -3.918  -0.880  19.866  1.00  0.00     0.031 C 
ATOM     59  C   UNL     1      -2.392  -6.728  19.356  1.00  0.00     0.029 A 
ATOM     60  C   UNL     1      -2.377  -5.346  19.264  1.00  0.00     0.049 A 
ATOM     61  H   UNL     1      -1.058  -4.100  18.189  1.00  0.00     0.167 HD
ATOM     62  C   UNL     1      -3.218  -3.056  19.696  1.00  0.00     0.074 A 
ATOM     63  C   UNL     1      -4.162  -2.119  20.269  1.00  0.00     0.031 C 
ATOM     64  C   UNL     1      -3.276  -4.399  19.873  1.00  0.00     0.034 A 
BRANCH  51  65
ATOM     65  C   UNL     1       1.078  -7.530  16.796  1.00  0.00     0.023 A 
ATOM     66  C   UNL     1       2.322  -7.931  17.327  1.00  0.00     0.012 A 
ATOM     67  C   UNL     1       0.371  -8.413  15.957  1.00  0.00     0.148 A 
ATOM     68  C   UNL     1       2.871  -9.169  16.998  1.00  0.00     0.002 A 
ATOM     69  C   UNL     1       0.901  -9.666  15.673  1.00  0.00     0.091 A 
ATOM     70  F   UNL     1      -0.801  -8.009  15.446  1.00  0.00    -0.205 F 
ATOM     71  C   UNL     1       2.156 -10.040  16.181  1.00  0.00     0.022 A 
BRANCH  69  72
ATOM     72  S   UNL     1       0.024 -10.894  14.699  1.00  0.00     0.127 S 
ATOM     73  O   UNL     1       0.839 -10.946  13.486  1.00  0.00    -0.237 OA
ATOM     74  O   UNL     1       0.117 -12.082  15.548  1.00  0.00    -0.237 OA
ATOM     75  O   UNL     1      -1.326 -10.378  14.521  1.00  0.00    -0.744 OA
ENDBRANCH  69  72
ENDBRANCH  51  65
BRANCH  52  76
ATOM     76  C   UNL     1      -2.609   1.534  18.842  1.00  0.00     0.023 A 
ATOM     77  C   UNL     1      -2.630   2.014  20.167  1.00  0.00     0.012 A 
ATOM     78  C   UNL     1      -3.134   2.338  17.813  1.00  0.00     0.148 A 
ATOM     79  C   UNL     1      -3.202   3.251  20.467  1.00  0.00     0.002 A 
ATOM     80  C   UNL     1      -3.649   3.595  18.110  1.00  0.00     0.091 A 
ATOM     81  F   UNL     1      -3.112   1.861  16.560  1.00  0.00    -0.205 F 
ATOM     82  C   UNL     1      -3.703   4.044  19.439  1.00  0.00     0.022 A 
BRANCH  80  83
ATOM     83  S   UNL     1      -4.197   4.736  16.837  1.00  0.00     0.127 S 
ATOM     84  O   UNL     1      -5.642   4.754  17.053  1.00  0.00    -0.237 OA
ATOM     85  O   UNL     1      -3.501   5.966  17.216  1.00  0.00    -0.237 OA
ATOM     86  O   UNL     1      -3.754   4.161  15.574  1.00  0.00    -0.744 OA
ENDBRANCH  80  83
ENDBRANCH  52  76
BRANCH  64  87
ATOM     87  C   UNL     1      -4.358  -4.941  20.771  1.00  0.00     0.023 A 
ATOM     88  C   UNL     1      -5.703  -4.920  20.355  1.00  0.00     0.012 A 
ATOM     89  C   UNL     1      -4.026  -5.532  22.007  1.00  0.00     0.148 A 
ATOM     90  C   UNL     1      -6.706  -5.440  21.173  1.00  0.00     0.002 A 
ATOM     91  C   UNL     1      -5.022  -6.098  22.791  1.00  0.00     0.091 A 
ATOM     92  F   UNL     1      -2.742  -5.526  22.394  1.00  0.00    -0.205 F 
ATOM     93  C   UNL     1      -6.365  -6.040  22.383  1.00  0.00     0.022 A 
BRANCH  91  94
ATOM     94  S   UNL     1      -4.664  -6.980  24.314  1.00  0.00     0.127 S 
ATOM     95  O   UNL     1      -5.173  -6.052  25.322  1.00  0.00    -0.237 OA
ATOM     96  O   UNL     1      -5.454  -8.202  24.156  1.00  0.00    -0.237 OA
ATOM     97  O   UNL     1      -3.223  -7.190  24.328  1.00  0.00    -0.744 OA
ENDBRANCH  91  94
ENDBRANCH  64  87
ENDBRANCH  38  39
ENDBRANCH  30  33
ENDBRANCH  28  29
ENDBRANCH  27  28
ENDBRANCH  26  27
ENDBRANCH  25  26
ENDBRANCH   1  25
TORSDOF 22
