REMARK SMILES COc1cccc(N2C(=O)C[C@@H](SC[C@@H](NC(C)=O)C(=O)NCCCCCCNC(=O)c3ccc(-c4c5nc(c(-c6cccc(S(=O)(=O)[O-])c6F)c6ccc([nH]6)c(-c6cccc(S(=O)(=O)[O-])c6F)c6nc(c(-c7cccc(S(=O)(=O)[O-])c7F)c7ccc4[nH]7)C=C6)C=C5)cc3)C2=O)c1
REMARK SMILES IDX 24 1 23 2 22 3 20 4 21 5 15 7 14 8 13 9 12 10 8 11 9 12
REMARK SMILES IDX 95 13 10 14 11 15 96 16 7 17 3 18 4 19 97 20 5 21 6 22 2 23
REMARK SMILES IDX 1 24 16 25 17 26 18 28 19 29 25 30 26 31 27 32 28 33 29 34
REMARK SMILES IDX 30 35 31 37 32 38 33 39 94 40 34 41 93 42 35 43 36 44 37 45
REMARK SMILES IDX 87 46 38 47 92 48 86 49 88 50 39 51 91 52 85 53 84 54 40 56
REMARK SMILES IDX 72 57 52 58 71 59 53 60 56 61 70 62 89 63 54 64 55 65 69 67
REMARK SMILES IDX 90 68 57 69 41 70 42 71 50 72 43 73 45 74 51 75 44 76 46 77
REMARK SMILES IDX 47 78 48 79 49 80 73 81 74 82 82 83 75 84 77 85 83 86 76 87
REMARK SMILES IDX 78 88 79 89 80 90 81 91 58 92 59 93 67 94 60 95 62 96 68 97
REMARK SMILES IDX 61 98 63 99 64 100 65 101 66 102
REMARK H PARENT 22 6 16 27 29 36 88 55 56 66
REMARK Flexibility Score: inf
ROOT
ATOM      1  C   UNL     1       8.004  -0.191   7.330  1.00  0.00     0.021 C 
ENDROOT
BRANCH   1   2
ATOM      2  C   UNL     1       8.721  -0.804   6.131  1.00  0.00     0.116 C 
BRANCH   2   3
ATOM      3  N   UNL     1       9.746  -1.725   6.571  1.00  0.00    -0.354 N 
ATOM      4  C   UNL     1      10.002  -3.003   6.181  1.00  0.00     0.243 C 
ATOM      5  O   UNL     1      10.857  -3.631   6.815  1.00  0.00    -0.273 OA
ATOM      6  H   UNL     1      10.352  -1.372   7.262  1.00  0.00     0.163 HD
BRANCH   4   7
ATOM      7  C   UNL     1       9.148  -3.722   5.108  1.00  0.00     0.181 C 
BRANCH   7   8
ATOM      8  C   UNL     1       7.778  -4.066   5.756  1.00  0.00     0.105 C 
BRANCH   8   9
ATOM      9  S   UNL     1       6.638  -5.108   4.748  1.00  0.00    -0.145 SA
BRANCH   9  10
ATOM     10  C   UNL     1       5.737  -3.973   3.611  1.00  0.00     0.146 C 
ATOM     11  N   UNL     1       3.762  -2.730   3.438  1.00  0.00    -0.249 N 
ATOM     12  C   UNL     1       4.784  -1.840   3.217  1.00  0.00     0.235 C 
ATOM     13  C   UNL     1       4.227  -3.981   3.803  1.00  0.00     0.247 C 
ATOM     14  O   UNL     1       4.747  -0.662   2.909  1.00  0.00    -0.274 OA
ATOM     15  C   UNL     1       6.069  -2.505   3.558  1.00  0.00     0.125 C 
ATOM     16  O   UNL     1       3.570  -4.973   4.088  1.00  0.00    -0.273 OA
BRANCH  11  17
ATOM     17  C   UNL     1       2.401  -2.358   3.328  1.00  0.00     0.055 A 
ATOM     18  C   UNL     1       0.677  -1.003   2.264  1.00  0.00     0.120 A 
ATOM     19  C   UNL     1      -0.242  -1.452   3.211  1.00  0.00     0.046 A 
ATOM     20  C   UNL     1       2.000  -1.433   2.346  1.00  0.00     0.073 A 
ATOM     21  C   UNL     1       0.136  -2.381   4.180  1.00  0.00     0.006 A 
ATOM     22  C   UNL     1       1.447  -2.857   4.220  1.00  0.00     0.027 A 
BRANCH  18  23
ATOM     23  O   UNL     1       0.181  -0.128   1.339  1.00  0.00    -0.497 OA
ATOM     24  C   UNL     1       0.912   0.007   0.124  1.00  0.00     0.278 C 
ENDBRANCH  18  23
ENDBRANCH  11  17
ENDBRANCH   9  10
ENDBRANCH   8   9
ENDBRANCH   7   8
BRANCH   7  25
ATOM     25  N   UNL     1       8.975  -3.027   3.830  1.00  0.00    -0.344 N 
ATOM     26  C   UNL     1       9.889  -2.174   3.256  1.00  0.00     0.217 C 
ATOM     27  H   UNL     1       8.134  -3.183   3.341  1.00  0.00     0.164 HD
ATOM     28  C   UNL     1       9.403  -1.575   1.959  1.00  0.00     0.114 C 
ATOM     29  O   UNL     1      10.949  -1.843   3.769  1.00  0.00    -0.275 OA
ENDBRANCH   7  25
ENDBRANCH   4   7
ENDBRANCH   2   3
ENDBRANCH   1   2
BRANCH   1  30
ATOM     30  C   UNL     1       8.817   0.913   8.012  1.00  0.00     0.002 C 
BRANCH  30  31
ATOM     31  C   UNL     1       9.134   2.109   7.107  1.00  0.00     0.002 C 
BRANCH  31  32
ATOM     32  C   UNL     1       7.909   2.778   6.478  1.00  0.00     0.021 C 
BRANCH  32  33
ATOM     33  C   UNL     1       6.882   3.278   7.487  1.00  0.00     0.116 C 
BRANCH  33  34
ATOM     34  N   UNL     1       7.463   4.240   8.410  1.00  0.00    -0.352 N 
ATOM     35  C   UNL     1       7.014   5.488   8.756  1.00  0.00     0.251 C 
ATOM     36  H   UNL     1       8.297   3.955   8.848  1.00  0.00     0.163 HD
ATOM     37  O   UNL     1       7.750   6.252   9.374  1.00  0.00    -0.269 OA
BRANCH  35  38
ATOM     38  C   UNL     1       5.648   5.907   8.382  1.00  0.00     0.039 A 
ATOM     39  C   UNL     1       5.444   7.209   7.922  1.00  0.00     0.014 A 
ATOM     40  C   UNL     1       4.568   5.029   8.514  1.00  0.00     0.014 A 
ATOM     41  C   UNL     1       4.158   7.623   7.575  1.00  0.00     0.010 A 
ATOM     42  C   UNL     1       3.303   5.417   8.088  1.00  0.00     0.010 A 
ATOM     43  C   UNL     1       3.079   6.726   7.642  1.00  0.00    -0.014 A 
BRANCH  43  44
ATOM     44  C   UNL     1       1.705   7.157   7.282  1.00  0.00     0.031 A 
ATOM     45  C   UNL     1       0.617   7.157   8.323  1.00  0.00     0.074 A 
ATOM     46  C   UNL     1       1.426   7.498   6.009  1.00  0.00     0.049 A 
ATOM     47  N   UNL     1      -0.642   7.487   8.200  1.00  0.00    -0.248 NA
ATOM     48  C   UNL     1       0.983   6.699   9.675  1.00  0.00     0.031 C 
ATOM     49  C   UNL     1       2.377   7.463   4.896  1.00  0.00     0.029 A 
ATOM     50  N   UNL     1       0.256   7.923   5.433  1.00  0.00    -0.354 N 
ATOM     51  C   UNL     1      -1.223   7.247   9.440  1.00  0.00     0.074 A 
ATOM     52  C   UNL     1      -0.190   6.702  10.291  1.00  0.00     0.031 C 
ATOM     53  C   UNL     1       1.756   7.862   3.774  1.00  0.00     0.029 A 
ATOM     54  C   UNL     1       0.359   8.154   4.081  1.00  0.00     0.049 A 
ATOM     55  H   UNL     1      -0.579   8.051   5.939  1.00  0.00     0.167 HD
ATOM     56  C   UNL     1      -2.492   7.488   9.845  1.00  0.00     0.034 A 
ATOM     57  C   UNL     1      -0.568   8.556   3.191  1.00  0.00     0.034 A 
ATOM     58  C   UNL     1      -3.505   8.066   9.004  1.00  0.00     0.049 A 
ATOM     59  C   UNL     1      -1.959   8.863   3.678  1.00  0.00     0.074 A 
ATOM     60  C   UNL     1      -4.800   8.422   9.336  1.00  0.00     0.029 A 
ATOM     61  N   UNL     1      -3.339   8.369   7.661  1.00  0.00    -0.354 N 
ATOM     62  N   UNL     1      -2.449   8.771   4.891  1.00  0.00    -0.248 NA
ATOM     63  C   UNL     1      -2.912   9.373   2.683  1.00  0.00     0.031 C 
ATOM     64  C   UNL     1      -5.426   8.915   8.186  1.00  0.00     0.029 A 
ATOM     65  C   UNL     1      -4.507   8.905   7.149  1.00  0.00     0.049 A 
ATOM     66  H   UNL     1      -2.511   8.225   7.148  1.00  0.00     0.167 HD
ATOM     67  C   UNL     1      -3.750   9.255   4.814  1.00  0.00     0.074 A 
ATOM     68  C   UNL     1      -3.964   9.655   3.439  1.00  0.00     0.031 C 
ATOM     69  C   UNL     1      -4.686   9.351   5.791  1.00  0.00     0.034 A 
BRANCH  56  70
ATOM     70  C   UNL     1      -2.845   7.169  11.275  1.00  0.00     0.023 A 
ATOM     71  C   UNL     1      -2.303   7.949  12.319  1.00  0.00     0.012 A 
ATOM     72  C   UNL     1      -3.752   6.137  11.586  1.00  0.00     0.148 A 
ATOM     73  C   UNL     1      -2.627   7.683  13.649  1.00  0.00     0.002 A 
ATOM     74  C   UNL     1      -4.108   5.910  12.911  1.00  0.00     0.091 A 
ATOM     75  F   UNL     1      -4.241   5.393  10.585  1.00  0.00    -0.205 F 
ATOM     76  C   UNL     1      -3.537   6.672  13.943  1.00  0.00     0.022 A 
BRANCH  74  77
ATOM     77  S   UNL     1      -5.334   4.688  13.390  1.00  0.00     0.127 S 
ATOM     78  O   UNL     1      -4.509   3.695  14.076  1.00  0.00    -0.237 OA
ATOM     79  O   UNL     1      -6.212   5.462  14.268  1.00  0.00    -0.237 OA
ATOM     80  O   UNL     1      -5.956   4.234  12.154  1.00  0.00    -0.744 OA
ENDBRANCH  74  77
ENDBRANCH  56  70
BRANCH  57  81
ATOM     81  C   UNL     1      -0.194   8.764   1.763  1.00  0.00     0.023 A 
ATOM     82  C   UNL     1      -0.159  10.072   1.240  1.00  0.00     0.012 A 
ATOM     83  C   UNL     1       0.142   7.682   0.927  1.00  0.00     0.148 A 
ATOM     84  C   UNL     1       0.160  10.294  -0.100  1.00  0.00     0.002 A 
ATOM     85  C   UNL     1       0.514   7.915  -0.392  1.00  0.00     0.091 A 
ATOM     86  F   UNL     1       0.099   6.445   1.442  1.00  0.00    -0.205 F 
ATOM     87  C   UNL     1       0.504   9.218  -0.913  1.00  0.00     0.022 A 
BRANCH  85  88
ATOM     88  S   UNL     1       1.095   6.606  -1.476  1.00  0.00     0.127 S 
ATOM     89  O   UNL     1      -0.002   6.500  -2.434  1.00  0.00    -0.237 OA
ATOM     90  O   UNL     1       2.328   7.184  -2.013  1.00  0.00    -0.237 OA
ATOM     91  O   UNL     1       1.301   5.445  -0.621  1.00  0.00    -0.744 OA
ENDBRANCH  85  88
ENDBRANCH  57  81
BRANCH  69  92
ATOM     92  C   UNL     1      -6.011   9.970   5.428  1.00  0.00     0.023 A 
ATOM     93  C   UNL     1      -6.914   9.279   4.596  1.00  0.00     0.012 A 
ATOM     94  C   UNL     1      -6.383  11.219   5.965  1.00  0.00     0.148 A 
ATOM     95  C   UNL     1      -8.147   9.842   4.268  1.00  0.00     0.002 A 
ATOM     96  C   UNL     1      -7.635  11.748   5.678  1.00  0.00     0.091 A 
ATOM     97  F   UNL     1      -5.504  11.871   6.739  1.00  0.00    -0.205 F 
ATOM     98  C   UNL     1      -8.512  11.069   4.817  1.00  0.00     0.022 A 
BRANCH  96  99
ATOM     99  S   UNL     1      -8.226  13.271   6.424  1.00  0.00     0.127 S 
ATOM    100  O   UNL     1      -8.139  14.205   5.303  1.00  0.00    -0.237 OA
ATOM    101  O   UNL     1      -9.591  12.915   6.816  1.00  0.00    -0.237 OA
ATOM    102  O   UNL     1      -7.331  13.544   7.540  1.00  0.00    -0.744 OA
ENDBRANCH  96  99
ENDBRANCH  69  92
ENDBRANCH  43  44
ENDBRANCH  35  38
ENDBRANCH  33  34
ENDBRANCH  32  33
ENDBRANCH  31  32
ENDBRANCH  30  31
ENDBRANCH   1  30
TORSDOF 22
