REMARK SMILES O=C(NCCCCCCNC(=O)c1cc(SCc2csc(-c3ccsc3)n2)ccn1)c1ccc(-c2c3nc(c(-c4cccc(S(=O)(=O)[O-])c4F)c4ccc([nH]4)c(-c4cccc(S(=O)(=O)[O-])c4F)c4nc(c(-c5cccc(S(=O)(=O)[O-])c5F)c5ccc2[nH]5)C=C4)C=C3)cc1
REMARK SMILES IDX 7 1 6 2 5 3 4 4 3 5 1 6 2 7 31 9 32 10 93 11 33 12 92 13
REMARK SMILES IDX 34 14 35 15 36 16 86 17 37 18 91 19 85 20 87 21 38 22 90 23
REMARK SMILES IDX 84 24 83 25 39 27 71 28 51 29 70 30 52 31 55 32 69 33 88 34
REMARK SMILES IDX 53 35 54 36 68 38 89 39 56 40 40 41 41 42 49 43 42 44 44 45
REMARK SMILES IDX 50 46 43 47 45 48 46 49 47 50 48 51 72 52 73 53 81 54 74 55
REMARK SMILES IDX 76 56 82 57 75 58 77 59 78 60 79 61 80 62 57 63 58 64 66 65
REMARK SMILES IDX 59 66 61 67 67 68 60 69 62 70 63 71 64 72 65 73 8 74 9 75
REMARK SMILES IDX 10 76 11 77 12 79 13 80 14 81 30 82 15 83 29 84 28 85 16 86
REMARK SMILES IDX 17 87 18 88 19 89 27 90 20 91 21 92 22 93 23 94 26 95 24 96
REMARK SMILES IDX 25 97
REMARK H PARENT 3 8 87 26 55 37 10 78
REMARK Flexibility Score: inf
ROOT
ATOM      1  C   UNL     1       4.758   1.834  -4.206  1.00  0.00     0.002 C 
ENDROOT
BRANCH   1   2
ATOM      2  C   UNL     1       4.073   0.506  -3.866  1.00  0.00     0.002 C 
BRANCH   2   3
ATOM      3  C   UNL     1       4.517  -0.145  -2.557  1.00  0.00     0.021 C 
BRANCH   3   4
ATOM      4  C   UNL     1       4.316   0.707  -1.311  1.00  0.00     0.116 C 
BRANCH   4   5
ATOM      5  N   UNL     1       2.926   0.741  -0.889  1.00  0.00    -0.352 N 
ATOM      6  O   UNL     1       1.094   0.154   0.268  1.00  0.00    -0.269 OA
ATOM      7  C   UNL     1       2.323   0.198   0.221  1.00  0.00     0.251 C 
ATOM      8  H   UNL     1       2.321   1.230  -1.492  1.00  0.00     0.163 HD
BRANCH   7   9
ATOM      9  C   UNL     1       3.125  -0.343   1.348  1.00  0.00     0.039 A 
ATOM     10  C   UNL     1       4.309   0.269   1.761  1.00  0.00     0.014 A 
ATOM     11  C   UNL     1       2.646  -1.450   2.060  1.00  0.00     0.014 A 
ATOM     12  C   UNL     1       5.083  -0.305   2.766  1.00  0.00     0.010 A 
ATOM     13  C   UNL     1       3.369  -1.957   3.149  1.00  0.00     0.010 A 
ATOM     14  C   UNL     1       4.611  -1.408   3.497  1.00  0.00    -0.014 A 
BRANCH  14  15
ATOM     15  C   UNL     1       5.392  -1.873   4.678  1.00  0.00     0.031 A 
ATOM     16  C   UNL     1       5.978  -3.257   4.758  1.00  0.00     0.074 A 
ATOM     17  C   UNL     1       5.604  -1.004   5.687  1.00  0.00     0.049 A 
ATOM     18  N   UNL     1       6.822  -3.745   5.633  1.00  0.00    -0.248 NA
ATOM     19  C   UNL     1       5.574  -4.220   3.726  1.00  0.00     0.031 C 
ATOM     20  C   UNL     1       5.033   0.343   5.771  1.00  0.00     0.029 A 
ATOM     21  N   UNL     1       6.354  -1.115   6.830  1.00  0.00    -0.354 N 
ATOM     22  C   UNL     1       7.057  -5.061   5.249  1.00  0.00     0.074 A 
ATOM     23  C   UNL     1       6.253  -5.305   4.073  1.00  0.00     0.031 C 
ATOM     24  C   UNL     1       5.474   0.943   6.885  1.00  0.00     0.029 A 
ATOM     25  C   UNL     1       6.320   0.010   7.620  1.00  0.00     0.049 A 
ATOM     26  H   UNL     1       6.869  -1.922   7.062  1.00  0.00     0.167 HD
ATOM     27  C   UNL     1       7.873  -5.981   5.818  1.00  0.00     0.034 A 
ATOM     28  C   UNL     1       6.891   0.263   8.813  1.00  0.00     0.034 A 
ATOM     29  C   UNL     1       8.628  -5.759   7.023  1.00  0.00     0.049 A 
ATOM     30  C   UNL     1       7.774  -0.781   9.432  1.00  0.00     0.074 A 
ATOM     31  C   UNL     1       9.487  -6.627   7.675  1.00  0.00     0.029 A 
ATOM     32  N   UNL     1       8.589  -4.597   7.778  1.00  0.00    -0.354 N 
ATOM     33  N   UNL     1       8.113  -1.957   8.963  1.00  0.00    -0.248 NA
ATOM     34  C   UNL     1       8.380  -0.450  10.729  1.00  0.00     0.031 C 
ATOM     35  C   UNL     1       9.945  -5.999   8.838  1.00  0.00     0.029 A 
ATOM     36  C   UNL     1       9.396  -4.729   8.895  1.00  0.00     0.049 A 
ATOM     37  H   UNL     1       8.063  -3.795   7.553  1.00  0.00     0.167 HD
ATOM     38  C   UNL     1       8.989  -2.498   9.896  1.00  0.00     0.074 A 
ATOM     39  C   UNL     1       9.155  -1.505  10.938  1.00  0.00     0.031 C 
ATOM     40  C   UNL     1       9.585  -3.716   9.902  1.00  0.00     0.034 A 
BRANCH  27  41
ATOM     41  C   UNL     1       8.025  -7.310   5.121  1.00  0.00     0.023 A 
ATOM     42  C   UNL     1       8.795  -7.380   3.942  1.00  0.00     0.012 A 
ATOM     43  C   UNL     1       7.480  -8.491   5.661  1.00  0.00     0.148 A 
ATOM     44  C   UNL     1       9.004  -8.599   3.299  1.00  0.00     0.002 A 
ATOM     45  C   UNL     1       7.722  -9.709   5.033  1.00  0.00     0.091 A 
ATOM     46  F   UNL     1       6.736  -8.402   6.772  1.00  0.00    -0.205 F 
ATOM     47  C   UNL     1       8.476  -9.764   3.849  1.00  0.00     0.022 A 
BRANCH  45  48
ATOM     48  S   UNL     1       7.142 -11.277   5.691  1.00  0.00     0.127 S 
ATOM     49  O   UNL     1       6.134 -11.656   4.703  1.00  0.00    -0.237 OA
ATOM     50  O   UNL     1       8.357 -12.090   5.666  1.00  0.00    -0.237 OA
ATOM     51  O   UNL     1       6.629 -10.988   7.025  1.00  0.00    -0.744 OA
ENDBRANCH  45  48
ENDBRANCH  27  41
BRANCH  28  52
ATOM     52  C   UNL     1       6.661   1.576   9.479  1.00  0.00     0.023 A 
ATOM     53  C   UNL     1       7.723   2.489   9.617  1.00  0.00     0.012 A 
ATOM     54  C   UNL     1       5.381   1.936   9.944  1.00  0.00     0.148 A 
ATOM     55  C   UNL     1       7.521   3.724  10.236  1.00  0.00     0.002 A 
ATOM     56  C   UNL     1       5.173   3.192  10.500  1.00  0.00     0.091 A 
ATOM     57  F   UNL     1       4.385   1.046   9.822  1.00  0.00    -0.205 F 
ATOM     58  C   UNL     1       6.245   4.080  10.665  1.00  0.00     0.022 A 
BRANCH  56  59
ATOM     59  S   UNL     1       3.531   3.776  10.934  1.00  0.00     0.127 S 
ATOM     60  O   UNL     1       3.531   3.620  12.385  1.00  0.00    -0.237 OA
ATOM     61  O   UNL     1       3.563   5.161  10.462  1.00  0.00    -0.237 OA
ATOM     62  O   UNL     1       2.611   2.919  10.197  1.00  0.00    -0.744 OA
ENDBRANCH  56  59
ENDBRANCH  28  52
BRANCH  40  63
ATOM     63  C   UNL     1      10.490  -4.035  11.062  1.00  0.00     0.023 A 
ATOM     64  C   UNL     1       9.937  -4.277  12.335  1.00  0.00     0.012 A 
ATOM     65  C   UNL     1      11.882  -4.140  10.880  1.00  0.00     0.148 A 
ATOM     66  C   UNL     1      10.760  -4.581  13.419  1.00  0.00     0.002 A 
ATOM     67  C   UNL     1      12.692  -4.492  11.954  1.00  0.00     0.091 A 
ATOM     68  F   UNL     1      12.392  -3.884   9.666  1.00  0.00    -0.205 F 
ATOM     69  C   UNL     1      12.134  -4.698  13.226  1.00  0.00     0.022 A 
BRANCH  67  70
ATOM     70  S   UNL     1      14.459  -4.756  11.772  1.00  0.00     0.127 S 
ATOM     71  O   UNL     1      15.005  -3.542  12.380  1.00  0.00    -0.237 OA
ATOM     72  O   UNL     1      14.673  -5.976  12.553  1.00  0.00    -0.237 OA
ATOM     73  O   UNL     1      14.696  -4.904  10.345  1.00  0.00    -0.744 OA
ENDBRANCH  67  70
ENDBRANCH  40  63
ENDBRANCH  14  15
ENDBRANCH   7   9
ENDBRANCH   4   5
ENDBRANCH   3   4
ENDBRANCH   2   3
ENDBRANCH   1   2
BRANCH   1  74
ATOM     74  C   UNL     1       6.290   1.833  -4.144  1.00  0.00     0.021 C 
BRANCH  74  75
ATOM     75  C   UNL     1       6.974   0.801  -5.038  1.00  0.00     0.116 C 
BRANCH  75  76
ATOM     76  N   UNL     1       6.709   1.040  -6.448  1.00  0.00    -0.351 N 
ATOM     77  C   UNL     1       7.601   1.297  -7.466  1.00  0.00     0.269 C 
ATOM     78  H   UNL     1       5.761   1.015  -6.712  1.00  0.00     0.163 HD
ATOM     79  O   UNL     1       7.186   1.586  -8.588  1.00  0.00    -0.268 OA
BRANCH  77  80
ATOM     80  C   UNL     1       9.060   1.176  -7.205  1.00  0.00     0.129 A 
ATOM     81  C   UNL     1       9.562  -0.040  -6.758  1.00  0.00     0.049 A 
ATOM     82  N   UNL     1       9.812   2.285  -7.406  1.00  0.00    -0.251 NA
ATOM     83  C   UNL     1      10.909  -0.114  -6.432  1.00  0.00     0.011 A 
ATOM     84  C   UNL     1      11.124   2.171  -7.128  1.00  0.00     0.113 A 
ATOM     85  C   UNL     1      11.708   1.014  -6.638  1.00  0.00     0.035 A 
BRANCH  83  86
ATOM     86  S   UNL     1      11.707  -1.564  -5.767  1.00  0.00    -0.120 SA
BRANCH  86  87
ATOM     87  C   UNL     1      10.330  -2.582  -5.144  1.00  0.00     0.132 C 
BRANCH  87  88
ATOM     88  C   UNL     1       9.606  -2.064  -3.937  1.00  0.00     0.062 A 
ATOM     89  C   UNL     1      10.043  -1.179  -2.966  1.00  0.00     0.091 A 
ATOM     90  N   UNL     1       8.348  -2.599  -3.680  1.00  0.00    -0.240 NA
ATOM     91  S   UNL     1       8.987  -1.218  -1.615  1.00  0.00    -0.122 S 
ATOM     92  C   UNL     1       7.993  -2.349  -2.435  1.00  0.00     0.124 A 
BRANCH  92  93
ATOM     93  C   UNL     1       6.825  -3.048  -1.806  1.00  0.00     0.021 A 
ATOM     94  C   UNL     1       6.634  -3.284  -0.411  1.00  0.00     0.023 A 
ATOM     95  C   UNL     1       5.813  -3.601  -2.563  1.00  0.00     0.076 A 
ATOM     96  C   UNL     1       5.512  -4.048  -0.173  1.00  0.00     0.065 A 
ATOM     97  S   UNL     1       4.635  -4.381  -1.601  1.00  0.00    -0.152 S 
ENDBRANCH  92  93
ENDBRANCH  87  88
ENDBRANCH  86  87
ENDBRANCH  83  86
ENDBRANCH  77  80
ENDBRANCH  75  76
ENDBRANCH  74  75
ENDBRANCH   1  74
TORSDOF 20
