REMARK SMILES CCC1C[NH+]([C@H]2COC[C@@]2(C)C(=O)NCCCCCCNC(=O)c2ccc(-c3c4nc(c(-c5cccc(S(=O)(=O)[O-])c5F)c5ccc([nH]5)c(-c5cccc(S(=O)(=O)[O-])c5F)c5nc(c(-c6cccc(S(=O)(=O)[O-])c6F)c6ccc3[nH]6)C=C5)C=C4)cc2)C1
REMARK SMILES IDX 18 1 17 2 16 3 15 4 14 5 12 6 13 7 10 9 6 10 7 11 8 12 9 13
REMARK SMILES IDX 11 14 5 15 3 16 4 17 87 18 2 20 1 21 19 22 20 23 21 24 22 25
REMARK SMILES IDX 23 27 24 28 25 29 86 30 26 31 85 32 27 33 28 34 29 35 79 36
REMARK SMILES IDX 30 37 84 38 78 39 80 40 31 41 83 42 77 43 76 44 32 46 64 47
REMARK SMILES IDX 44 48 63 49 45 50 48 51 62 52 81 53 46 54 47 55 61 57 82 58
REMARK SMILES IDX 49 59 33 60 34 61 42 62 35 63 37 64 43 65 36 66 38 67 39 68
REMARK SMILES IDX 40 69 41 70 65 71 66 72 74 73 67 74 69 75 75 76 68 77 70 78
REMARK SMILES IDX 71 79 72 80 73 81 50 82 51 83 59 84 52 85 54 86 60 87 53 88
REMARK SMILES IDX 55 89 56 90 57 91 58 92
REMARK H PARENT 14 8 5 19 21 26 80 45 48 56
REMARK Flexibility Score: inf
ROOT
ATOM      1  C   UNL     1      -1.187   3.676   8.520  1.00  0.00     0.002 C 
ENDROOT
BRANCH   1   2
ATOM      2  C   UNL     1      -2.212   2.667   7.988  1.00  0.00     0.002 C 
BRANCH   2   3
ATOM      3  C   UNL     1      -1.881   1.932   6.688  1.00  0.00     0.021 C 
BRANCH   3   4
ATOM      4  C   UNL     1      -0.510   1.279   6.606  1.00  0.00     0.116 C 
BRANCH   4   5
ATOM      5  N   UNL     1      -0.284   0.127   7.448  1.00  0.00    -0.355 N 
ATOM      6  C   UNL     1       0.786  -0.728   7.421  1.00  0.00     0.234 C 
ATOM      7  O   UNL     1       0.957  -1.401   8.448  1.00  0.00    -0.274 OA
ATOM      8  H   UNL     1      -0.979  -0.066   8.118  1.00  0.00     0.163 HD
BRANCH   6   9
ATOM      9  C   UNL     1       1.620  -1.045   6.158  1.00  0.00     0.123 C 
ATOM     10  C   UNL     1       2.025   0.028   5.128  1.00  0.00     0.228 C 
ATOM     11  C   UNL     1       3.278  -0.586   4.487  1.00  0.00     0.226 C 
ATOM     12  O   UNL     1       3.900  -1.419   5.472  1.00  0.00    -0.374 OA
ATOM     13  C   UNL     1       3.013  -1.518   6.601  1.00  0.00     0.183 C 
ATOM     14  C   UNL     1       0.881  -2.211   5.454  1.00  0.00     0.031 C 
BRANCH  10  15
ATOM     15  N   UNL     1       2.161   1.363   5.702  1.00  0.00    -0.329 N 
ATOM     16  C   UNL     1       3.034   3.238   5.763  1.00  0.00     0.099 C 
ATOM     17  C   UNL     1       2.246   2.437   4.689  1.00  0.00     0.271 C 
ATOM     18  C   UNL     1       3.451   1.815   6.262  1.00  0.00     0.271 C 
ATOM     19  H   UNL     1       1.383   1.254   6.353  1.00  0.00     0.348 HD
BRANCH  16  20
ATOM     20  C   UNL     1       4.100   4.193   5.265  1.00  0.00     0.012 C 
ATOM     21  C   UNL     1       3.451   5.357   4.530  1.00  0.00     0.004 C 
ENDBRANCH  16  20
ENDBRANCH  10  15
ENDBRANCH   6   9
ENDBRANCH   4   5
ENDBRANCH   3   4
ENDBRANCH   2   3
ENDBRANCH   1   2
BRANCH   1  22
ATOM     22  C   UNL     1      -0.687   4.759   7.559  1.00  0.00     0.021 C 
BRANCH  22  23
ATOM     23  C   UNL     1      -1.747   5.567   6.817  1.00  0.00     0.116 C 
BRANCH  23  24
ATOM     24  N   UNL     1      -2.723   6.186   7.699  1.00  0.00    -0.352 N 
ATOM     25  C   UNL     1      -3.179   7.478   7.744  1.00  0.00     0.251 C 
ATOM     26  H   UNL     1      -3.118   5.582   8.368  1.00  0.00     0.163 HD
ATOM     27  O   UNL     1      -3.939   7.816   8.654  1.00  0.00    -0.269 OA
BRANCH  25  28
ATOM     28  C   UNL     1      -2.754   8.477   6.738  1.00  0.00     0.039 A 
ATOM     29  C   UNL     1      -2.428   9.765   7.174  1.00  0.00     0.014 A 
ATOM     30  C   UNL     1      -2.694   8.172   5.375  1.00  0.00     0.014 A 
ATOM     31  C   UNL     1      -1.986  10.723   6.258  1.00  0.00     0.010 A 
ATOM     32  C   UNL     1      -2.185   9.107   4.472  1.00  0.00     0.010 A 
ATOM     33  C   UNL     1      -1.826  10.393   4.902  1.00  0.00    -0.014 A 
BRANCH  33  34
ATOM     34  C   UNL     1      -1.255  11.374   3.940  1.00  0.00     0.031 A 
ATOM     35  C   UNL     1      -2.067  11.875   2.775  1.00  0.00     0.074 A 
ATOM     36  C   UNL     1       0.028  11.766   4.080  1.00  0.00     0.049 A 
ATOM     37  N   UNL     1      -1.723  12.715   1.833  1.00  0.00    -0.248 NA
ATOM     38  C   UNL     1      -3.436  11.350   2.635  1.00  0.00     0.031 C 
ATOM     39  C   UNL     1       0.946  11.296   5.121  1.00  0.00     0.029 A 
ATOM     40  N   UNL     1       0.791  12.630   3.333  1.00  0.00    -0.354 N 
ATOM     41  C   UNL     1      -2.812  12.794   0.973  1.00  0.00     0.074 A 
ATOM     42  C   UNL     1      -3.821  11.896   1.490  1.00  0.00     0.031 C 
ATOM     43  C   UNL     1       2.141  11.884   4.953  1.00  0.00     0.029 A 
ATOM     44  C   UNL     1       2.089  12.745   3.777  1.00  0.00     0.049 A 
ATOM     45  H   UNL     1       0.443  13.121   2.555  1.00  0.00     0.167 HD
ATOM     46  C   UNL     1      -2.968  13.561  -0.133  1.00  0.00     0.034 A 
ATOM     47  C   UNL     1       3.124  13.456   3.287  1.00  0.00     0.034 A 
ATOM     48  C   UNL     1      -1.978  14.483  -0.624  1.00  0.00     0.049 A 
ATOM     49  C   UNL     1       2.909  14.321   2.075  1.00  0.00     0.074 A 
ATOM     50  C   UNL     1      -2.082  15.373  -1.679  1.00  0.00     0.029 A 
ATOM     51  N   UNL     1      -0.700  14.624  -0.108  1.00  0.00    -0.354 N 
ATOM     52  N   UNL     1       1.816  14.510   1.377  1.00  0.00    -0.248 NA
ATOM     53  C   UNL     1       4.064  15.101   1.602  1.00  0.00     0.031 C 
ATOM     54  C   UNL     1      -0.854  16.026  -1.824  1.00  0.00     0.029 A 
ATOM     55  C   UNL     1       0.002  15.572  -0.834  1.00  0.00     0.049 A 
ATOM     56  H   UNL     1      -0.343  14.125   0.662  1.00  0.00     0.167 HD
ATOM     57  C   UNL     1       2.139  15.455   0.410  1.00  0.00     0.074 A 
ATOM     58  C   UNL     1       3.523  15.820   0.629  1.00  0.00     0.031 C 
ATOM     59  C   UNL     1       1.364  15.964  -0.579  1.00  0.00     0.034 A 
BRANCH  46  60
ATOM     60  C   UNL     1      -4.276  13.474  -0.877  1.00  0.00     0.023 A 
ATOM     61  C   UNL     1      -5.442  14.027  -0.309  1.00  0.00     0.012 A 
ATOM     62  C   UNL     1      -4.334  12.924  -2.174  1.00  0.00     0.148 A 
ATOM     63  C   UNL     1      -6.650  14.009  -1.006  1.00  0.00     0.002 A 
ATOM     64  C   UNL     1      -5.530  12.952  -2.881  1.00  0.00     0.091 A 
ATOM     65  F   UNL     1      -3.219  12.388  -2.690  1.00  0.00    -0.205 F 
ATOM     66  C   UNL     1      -6.691  13.483  -2.295  1.00  0.00     0.022 A 
BRANCH  64  67
ATOM     67  S   UNL     1      -5.670  12.376  -4.577  1.00  0.00     0.127 S 
ATOM     68  O   UNL     1      -6.521  11.197  -4.418  1.00  0.00    -0.237 OA
ATOM     69  O   UNL     1      -6.318  13.511  -5.233  1.00  0.00    -0.237 OA
ATOM     70  O   UNL     1      -4.311  12.105  -5.025  1.00  0.00    -0.744 OA
ENDBRANCH  64  67
ENDBRANCH  46  60
BRANCH  47  71
ATOM     71  C   UNL     1       4.450  13.422   3.970  1.00  0.00     0.023 A 
ATOM     72  C   UNL     1       4.928  14.580   4.614  1.00  0.00     0.012 A 
ATOM     73  C   UNL     1       5.237  12.255   3.983  1.00  0.00     0.148 A 
ATOM     74  C   UNL     1       6.185  14.590   5.221  1.00  0.00     0.002 A 
ATOM     75  C   UNL     1       6.462  12.254   4.641  1.00  0.00     0.091 A 
ATOM     76  F   UNL     1       4.772  11.167   3.354  1.00  0.00    -0.205 F 
ATOM     77  C   UNL     1       6.947  13.425   5.242  1.00  0.00     0.022 A 
BRANCH  75  78
ATOM     78  S   UNL     1       7.447  10.764   4.830  1.00  0.00     0.127 S 
ATOM     79  O   UNL     1       8.564  11.027   3.928  1.00  0.00    -0.237 OA
ATOM     80  O   UNL     1       7.781  10.802   6.255  1.00  0.00    -0.237 OA
ATOM     81  O   UNL     1       6.570   9.664   4.451  1.00  0.00    -0.744 OA
ENDBRANCH  75  78
ENDBRANCH  47  71
BRANCH  59  82
ATOM     82  C   UNL     1       1.978  17.004  -1.481  1.00  0.00     0.023 A 
ATOM     83  C   UNL     1       2.971  16.634  -2.410  1.00  0.00     0.012 A 
ATOM     84  C   UNL     1       1.526  18.338  -1.447  1.00  0.00     0.148 A 
ATOM     85  C   UNL     1       3.535  17.584  -3.261  1.00  0.00     0.002 A 
ATOM     86  C   UNL     1       2.054  19.267  -2.336  1.00  0.00     0.091 A 
ATOM     87  F   UNL     1       0.593  18.676  -0.546  1.00  0.00    -0.205 F 
ATOM     88  C   UNL     1       3.068  18.896  -3.232  1.00  0.00     0.022 A 
BRANCH  86  89
ATOM     89  S   UNL     1       1.446  20.954  -2.440  1.00  0.00     0.127 S 
ATOM     90  O   UNL     1       2.558  21.708  -1.865  1.00  0.00    -0.237 OA
ATOM     91  O   UNL     1       1.269  21.132  -3.882  1.00  0.00    -0.237 OA
ATOM     92  O   UNL     1       0.208  20.984  -1.672  1.00  0.00    -0.744 OA
ENDBRANCH  86  89
ENDBRANCH  59  82
ENDBRANCH  33  34
ENDBRANCH  25  28
ENDBRANCH  23  24
ENDBRANCH  22  23
ENDBRANCH   1  22
TORSDOF 18
