REMARK SMILES Cc1ccc(C[C@@H](Cc2cc(F)cc(Br)c2)C(=O)NCCCCCCNC(=O)c2ccc(-c3c4nc(c(-c5cccc(S(=O)(=O)[O-])c5F)c5ccc([nH]5)c(-c5cccc(S(=O)(=O)[O-])c5F)c5nc(c(-c6cccc(S(=O)(=O)[O-])c6F)c6ccc3[nH]6)C=C5)C=C4)cc2)cc1
REMARK SMILES IDX 23 1 22 2 21 3 20 4 19 5 17 6 18 7 7 9 6 10 5 11 1 12 2 13
REMARK SMILES IDX 3 14 93 15 4 16 92 17 8 18 9 19 10 20 16 21 11 22 14 23
REMARK SMILES IDX 12 24 13 25 15 26 24 27 25 28 26 29 27 30 28 32 29 33 30 34
REMARK SMILES IDX 91 35 31 36 90 37 32 38 33 39 34 40 84 41 35 42 89 43 83 44
REMARK SMILES IDX 85 45 36 46 88 47 82 48 81 49 37 51 69 52 49 53 68 54 50 55
REMARK SMILES IDX 53 56 67 57 86 58 51 59 52 60 66 62 87 63 54 64 38 65 39 66
REMARK SMILES IDX 47 67 40 68 42 69 48 70 41 71 43 72 44 73 45 74 46 75 70 76
REMARK SMILES IDX 71 77 79 78 72 79 74 80 80 81 73 82 75 83 76 84 77 85 78 86
REMARK SMILES IDX 55 87 56 88 64 89 57 90 59 91 65 92 58 93 60 94 61 95 62 96
REMARK SMILES IDX 63 97
REMARK H PARENT 19 8 26 31 85 50 53 61
REMARK Flexibility Score: inf
ROOT
ATOM      1  C   UNL     1      -8.215  -2.932   2.048  1.00  0.00     0.002 C 
ENDROOT
BRANCH   1   2
ATOM      2  C   UNL     1      -7.766  -1.494   2.371  1.00  0.00     0.002 C 
BRANCH   2   3
ATOM      3  C   UNL     1      -6.261  -1.215   2.280  1.00  0.00     0.021 C 
BRANCH   3   4
ATOM      4  C   UNL     1      -5.645  -1.569   0.935  1.00  0.00     0.116 C 
BRANCH   4   5
ATOM      5  N   UNL     1      -5.951  -0.586  -0.085  1.00  0.00    -0.356 N 
ATOM      6  C   UNL     1      -5.220  -0.198  -1.164  1.00  0.00     0.223 C 
ATOM      7  O   UNL     1      -5.757   0.546  -1.990  1.00  0.00    -0.275 OA
ATOM      8  H   UNL     1      -6.818  -0.131   0.019  1.00  0.00     0.163 HD
BRANCH   6   9
ATOM      9  C   UNL     1      -3.773  -0.635  -1.356  1.00  0.00     0.087 C 
BRANCH   9  10
ATOM     10  C   UNL     1      -2.943   0.091  -0.260  1.00  0.00     0.049 C 
BRANCH  10  11
ATOM     11  C   UNL     1      -1.432   0.064  -0.322  1.00  0.00    -0.047 A 
ATOM     12  C   UNL     1       2.882   0.144  -0.001  1.00  0.00     0.044 C 
ATOM     13  C   UNL     1       1.389   0.127  -0.125  1.00  0.00    -0.051 A 
ATOM     14  C   UNL     1       0.693  -1.074   0.027  1.00  0.00     0.004 A 
ATOM     15  C   UNL     1       0.669   1.295  -0.388  1.00  0.00     0.004 A 
ATOM     16  C   UNL     1      -0.702  -1.100  -0.051  1.00  0.00     0.004 A 
ATOM     17  C   UNL     1      -0.726   1.263  -0.488  1.00  0.00     0.004 A 
ENDBRANCH  10  11
ENDBRANCH   9  10
BRANCH   9  18
ATOM     18  C   UNL     1      -3.521  -2.158  -1.482  1.00  0.00     0.049 C 
BRANCH  18  19
ATOM     19  C   UNL     1      -4.601  -3.191  -1.754  1.00  0.00    -0.043 A 
ATOM     20  C   UNL     1      -4.344  -4.508  -1.325  1.00  0.00     0.043 A 
ATOM     21  C   UNL     1      -5.841  -2.932  -2.350  1.00  0.00     0.019 A 
ATOM     22  C   UNL     1      -5.330  -5.488  -1.390  1.00  0.00     0.124 A 
ATOM     23  C   UNL     1      -6.838  -3.919  -2.368  1.00  0.00     0.021 A 
ATOM     24  F   UNL     1      -5.061  -6.722  -0.943  1.00  0.00    -0.207 F 
ATOM     25  C   UNL     1      -6.592  -5.198  -1.879  1.00  0.00     0.055 A 
ATOM     26  Br  UNL     1      -8.567  -3.491  -3.007  1.00  0.00    -0.051 Br
ENDBRANCH  18  19
ENDBRANCH   9  18
ENDBRANCH   6   9
ENDBRANCH   4   5
ENDBRANCH   3   4
ENDBRANCH   2   3
ENDBRANCH   1   2
BRANCH   1  27
ATOM     27  C   UNL     1      -7.362  -4.066   2.627  1.00  0.00     0.021 C 
BRANCH  27  28
ATOM     28  C   UNL     1      -7.242  -4.042   4.144  1.00  0.00     0.116 C 
BRANCH  28  29
ATOM     29  N   UNL     1      -8.128  -4.962   4.825  1.00  0.00    -0.352 N 
ATOM     30  C   UNL     1      -8.351  -5.131   6.182  1.00  0.00     0.251 C 
ATOM     31  H   UNL     1      -8.650  -5.555   4.237  1.00  0.00     0.163 HD
ATOM     32  O   UNL     1      -8.950  -6.130   6.550  1.00  0.00    -0.269 OA
BRANCH  30  33
ATOM     33  C   UNL     1      -7.968  -4.065   7.151  1.00  0.00     0.039 A 
ATOM     34  C   UNL     1      -8.870  -3.763   8.182  1.00  0.00     0.014 A 
ATOM     35  C   UNL     1      -6.838  -3.270   6.975  1.00  0.00     0.014 A 
ATOM     36  C   UNL     1      -8.761  -2.558   8.880  1.00  0.00     0.010 A 
ATOM     37  C   UNL     1      -6.768  -2.043   7.607  1.00  0.00     0.010 A 
ATOM     38  C   UNL     1      -7.763  -1.662   8.514  1.00  0.00    -0.014 A 
BRANCH  38  39
ATOM     39  C   UNL     1      -7.702  -0.270   8.934  1.00  0.00     0.031 A 
ATOM     40  C   UNL     1      -6.812   0.166  10.028  1.00  0.00     0.074 A 
ATOM     41  C   UNL     1      -8.306   0.652   8.152  1.00  0.00     0.049 A 
ATOM     42  N   UNL     1      -6.897   1.311  10.617  1.00  0.00    -0.248 NA
ATOM     43  C   UNL     1      -5.755  -0.684  10.556  1.00  0.00     0.031 C 
ATOM     44  C   UNL     1      -8.006   2.076   8.081  1.00  0.00     0.029 A 
ATOM     45  N   UNL     1      -9.476   0.506   7.400  1.00  0.00    -0.354 N 
ATOM     46  C   UNL     1      -5.770   1.461  11.397  1.00  0.00     0.074 A 
ATOM     47  C   UNL     1      -5.128   0.166  11.375  1.00  0.00     0.031 C 
ATOM     48  C   UNL     1      -9.074   2.714   7.582  1.00  0.00     0.029 A 
ATOM     49  C   UNL     1     -10.146   1.739   7.481  1.00  0.00     0.049 A 
ATOM     50  H   UNL     1      -9.771  -0.297   6.913  1.00  0.00     0.167 HD
ATOM     51  C   UNL     1      -5.428   2.702  11.851  1.00  0.00     0.034 A 
ATOM     52  C   UNL     1     -11.407   1.897   7.973  1.00  0.00     0.034 A 
ATOM     53  C   UNL     1      -6.420   3.708  11.451  1.00  0.00     0.049 A 
ATOM     54  C   UNL     1     -11.492   2.888   9.118  1.00  0.00     0.074 A 
ATOM     55  C   UNL     1      -6.476   4.609  10.398  1.00  0.00     0.029 A 
ATOM     56  N   UNL     1      -7.681   3.703  12.030  1.00  0.00    -0.354 N 
ATOM     57  N   UNL     1     -10.459   3.450   9.682  1.00  0.00    -0.248 NA
ATOM     58  C   UNL     1     -12.746   3.297   9.745  1.00  0.00     0.031 C 
ATOM     59  C   UNL     1      -7.806   5.095  10.306  1.00  0.00     0.029 A 
ATOM     60  C   UNL     1      -8.552   4.508  11.313  1.00  0.00     0.049 A 
ATOM     61  H   UNL     1      -7.923   3.197  12.839  1.00  0.00     0.167 HD
ATOM     62  C   UNL     1     -10.855   4.138  10.800  1.00  0.00     0.074 A 
ATOM     63  C   UNL     1     -12.306   4.092  10.736  1.00  0.00     0.031 C 
ATOM     64  C   UNL     1      -9.951   4.613  11.714  1.00  0.00     0.034 A 
BRANCH  51  65
ATOM     65  C   UNL     1      -4.048   3.077  12.366  1.00  0.00     0.023 A 
ATOM     66  C   UNL     1      -3.639   4.424  12.223  1.00  0.00     0.012 A 
ATOM     67  C   UNL     1      -3.089   2.199  12.915  1.00  0.00     0.148 A 
ATOM     68  C   UNL     1      -2.329   4.846  12.479  1.00  0.00     0.002 A 
ATOM     69  C   UNL     1      -1.759   2.597  13.089  1.00  0.00     0.091 A 
ATOM     70  F   UNL     1      -3.471   1.000  13.365  1.00  0.00    -0.205 F 
ATOM     71  C   UNL     1      -1.374   3.921  12.867  1.00  0.00     0.022 A 
BRANCH  69  72
ATOM     72  S   UNL     1      -0.450   1.422  13.480  1.00  0.00     0.127 S 
ATOM     73  O   UNL     1       0.577   1.761  12.492  1.00  0.00    -0.237 OA
ATOM     74  O   UNL     1      -0.108   1.773  14.855  1.00  0.00    -0.237 OA
ATOM     75  O   UNL     1      -1.035   0.099  13.290  1.00  0.00    -0.744 OA
ENDBRANCH  69  72
ENDBRANCH  51  65
BRANCH  52  76
ATOM     76  C   UNL     1     -12.283   0.706   7.792  1.00  0.00     0.023 A 
ATOM     77  C   UNL     1     -12.642   0.377   6.464  1.00  0.00     0.012 A 
ATOM     78  C   UNL     1     -12.419  -0.268   8.796  1.00  0.00     0.148 A 
ATOM     79  C   UNL     1     -13.022  -0.922   6.124  1.00  0.00     0.002 A 
ATOM     80  C   UNL     1     -12.786  -1.567   8.446  1.00  0.00     0.091 A 
ATOM     81  F   UNL     1     -12.103   0.063  10.054  1.00  0.00    -0.205 F 
ATOM     82  C   UNL     1     -13.061  -1.901   7.110  1.00  0.00     0.022 A 
BRANCH  80  83
ATOM     83  S   UNL     1     -12.770  -2.911   9.641  1.00  0.00     0.127 S 
ATOM     84  O   UNL     1     -14.184  -3.014   9.986  1.00  0.00    -0.237 OA
ATOM     85  O   UNL     1     -12.245  -4.023   8.849  1.00  0.00    -0.237 OA
ATOM     86  O   UNL     1     -11.877  -2.461  10.699  1.00  0.00    -0.744 OA
ENDBRANCH  80  83
ENDBRANCH  52  76
BRANCH  64  87
ATOM     87  C   UNL     1     -10.280   5.188  13.083  1.00  0.00     0.023 A 
ATOM     88  C   UNL     1     -11.494   4.925  13.745  1.00  0.00     0.012 A 
ATOM     89  C   UNL     1      -9.299   5.900  13.826  1.00  0.00     0.148 A 
ATOM     90  C   UNL     1     -11.748   5.380  15.044  1.00  0.00     0.002 A 
ATOM     91  C   UNL     1      -9.515   6.255  15.157  1.00  0.00     0.091 A 
ATOM     92  F   UNL     1      -8.146   6.258  13.242  1.00  0.00    -0.205 F 
ATOM     93  C   UNL     1     -10.750   6.023  15.762  1.00  0.00     0.022 A 
BRANCH  91  94
ATOM     94  S   UNL     1      -8.161   6.868  16.170  1.00  0.00     0.127 S 
ATOM     95  O   UNL     1      -8.214   8.306  15.920  1.00  0.00    -0.237 OA
ATOM     96  O   UNL     1      -8.565   6.473  17.521  1.00  0.00    -0.237 OA
ATOM     97  O   UNL     1      -6.985   6.165  15.674  1.00  0.00    -0.744 OA
ENDBRANCH  91  94
ENDBRANCH  64  87
ENDBRANCH  38  39
ENDBRANCH  30  33
ENDBRANCH  28  29
ENDBRANCH  27  28
ENDBRANCH   1  27
TORSDOF 20
