REMARK SMILES C[C@H]1CCC[C@@]1(C(=O)NCCCCCCNC(=O)c1ccc(-c2c3nc(c(-c4cccc(S(=O)(=O)[O-])c4F)c4ccc([nH]4)c(-c4cccc(S(=O)(=O)[O-])c4F)c4nc(c(-c5cccc(S(=O)(=O)[O-])c5F)c5ccc2[nH]5)C=C4)C=C3)cc1)S(=O)(=O)c1cc(F)ccc1F
REMARK SMILES IDX 13 1 12 2 11 3 10 4 9 5 7 6 8 7 6 9 1 10 2 11 3 12 4 13 5 14
REMARK SMILES IDX 82 15 83 16 84 17 85 18 86 19 91 20 87 21 90 22 92 23 88 24
REMARK SMILES IDX 89 25 14 26 15 27 16 28 17 29 18 31 19 32 20 33 81 34 21 35
REMARK SMILES IDX 80 36 22 37 23 38 24 39 74 40 25 41 79 42 73 43 75 44 26 45
REMARK SMILES IDX 78 46 72 47 71 48 27 50 59 51 39 52 58 53 40 54 43 55 57 56
REMARK SMILES IDX 76 57 41 58 42 59 56 61 77 62 44 63 28 64 29 65 37 66 30 67
REMARK SMILES IDX 32 68 38 69 31 70 33 71 34 72 35 73 36 74 60 75 61 76 69 77
REMARK SMILES IDX 62 78 64 79 70 80 63 81 65 82 66 83 67 84 68 85 45 86 46 87
REMARK SMILES IDX 54 88 47 89 49 90 55 91 48 92 50 93 51 94 52 95 53 96
REMARK H PARENT 9 8 16 30 75 49 43 60
REMARK Flexibility Score: inf
ROOT
ATOM      1  C   UNL     1       4.781   3.340   3.550  1.00  0.00     0.002 C 
ENDROOT
BRANCH   1   2
ATOM      2  C   UNL     1       4.979   2.457   2.310  1.00  0.00     0.002 C 
BRANCH   2   3
ATOM      3  C   UNL     1       3.906   1.397   2.060  1.00  0.00     0.021 C 
BRANCH   3   4
ATOM      4  C   UNL     1       2.487   1.935   2.081  1.00  0.00     0.116 C 
BRANCH   4   5
ATOM      5  N   UNL     1       1.984   2.322   0.788  1.00  0.00    -0.355 N 
ATOM      6  C   UNL     1       0.755   2.132   0.234  1.00  0.00     0.242 C 
ATOM      7  O   UNL     1       0.498   2.893  -0.706  1.00  0.00    -0.273 OA
ATOM      8  H   UNL     1       2.630   2.797   0.216  1.00  0.00     0.163 HD
BRANCH   6   9
ATOM      9  C   UNL     1      -0.204   1.016   0.653  1.00  0.00     0.157 C 
ATOM     10  C   UNL     1       1.378  -1.016   1.532  1.00  0.00     0.010 C 
ATOM     11  C   UNL     1       0.422  -0.415   0.510  1.00  0.00     0.017 C 
ATOM     12  C   UNL     1      -0.769  -1.355   0.303  1.00  0.00     0.005 C 
ATOM     13  C   UNL     1      -1.767  -0.562  -0.515  1.00  0.00     0.003 C 
ATOM     14  C   UNL     1      -1.273   0.883  -0.500  1.00  0.00     0.034 C 
BRANCH   9  15
ATOM     15  S   UNL     1      -1.114   1.379   2.192  1.00  0.00     0.196 S 
ATOM     16  O   UNL     1      -2.432   1.907   1.884  1.00  0.00    -0.222 OA
ATOM     17  O   UNL     1      -1.042   0.192   3.028  1.00  0.00    -0.222 OA
BRANCH  15  18
ATOM     18  C   UNL     1      -0.345   2.658   3.154  1.00  0.00     0.107 A 
ATOM     19  C   UNL     1       0.127   2.374   4.444  1.00  0.00     0.062 A 
ATOM     20  C   UNL     1      -0.243   3.952   2.653  1.00  0.00     0.142 A 
ATOM     21  C   UNL     1       0.776   3.371   5.166  1.00  0.00     0.124 A 
ATOM     22  C   UNL     1       0.421   4.943   3.380  1.00  0.00     0.043 A 
ATOM     23  F   UNL     1      -0.729   4.265   1.447  1.00  0.00    -0.206 F 
ATOM     24  F   UNL     1       1.300   3.083   6.363  1.00  0.00    -0.207 F 
ATOM     25  C   UNL     1       0.946   4.647   4.639  1.00  0.00     0.042 A 
ENDBRANCH  15  18
ENDBRANCH   9  15
ENDBRANCH   6   9
ENDBRANCH   4   5
ENDBRANCH   3   4
ENDBRANCH   2   3
ENDBRANCH   1   2
BRANCH   1  26
ATOM     26  C   UNL     1       4.434   2.605   4.848  1.00  0.00     0.021 C 
BRANCH  26  27
ATOM     27  C   UNL     1       5.404   1.500   5.244  1.00  0.00     0.116 C 
BRANCH  27  28
ATOM     28  N   UNL     1       6.776   1.971   5.292  1.00  0.00    -0.352 N 
ATOM     29  C   UNL     1       7.673   1.917   6.328  1.00  0.00     0.251 C 
ATOM     30  H   UNL     1       7.110   2.386   4.465  1.00  0.00     0.163 HD
ATOM     31  O   UNL     1       8.720   2.548   6.268  1.00  0.00    -0.269 OA
BRANCH  29  32
ATOM     32  C   UNL     1       7.354   1.100   7.516  1.00  0.00     0.039 A 
ATOM     33  C   UNL     1       7.574   1.637   8.785  1.00  0.00     0.014 A 
ATOM     34  C   UNL     1       6.834  -0.190   7.371  1.00  0.00     0.014 A 
ATOM     35  C   UNL     1       7.234   0.891   9.914  1.00  0.00     0.010 A 
ATOM     36  C   UNL     1       6.416  -0.894   8.493  1.00  0.00     0.010 A 
ATOM     37  C   UNL     1       6.629  -0.369   9.776  1.00  0.00    -0.014 A 
BRANCH  37  38
ATOM     38  C   UNL     1       6.228  -1.165  10.961  1.00  0.00     0.031 A 
ATOM     39  C   UNL     1       6.861  -2.507  11.213  1.00  0.00     0.074 A 
ATOM     40  C   UNL     1       5.242  -0.717  11.762  1.00  0.00     0.049 A 
ATOM     41  N   UNL     1       6.606  -3.374  12.158  1.00  0.00    -0.248 NA
ATOM     42  C   UNL     1       7.895  -2.946  10.261  1.00  0.00     0.031 C 
ATOM     43  C   UNL     1       4.505   0.535  11.576  1.00  0.00     0.029 A 
ATOM     44  N   UNL     1       4.674  -1.274  12.879  1.00  0.00    -0.354 N 
ATOM     45  C   UNL     1       7.418  -4.471  11.895  1.00  0.00     0.074 A 
ATOM     46  C   UNL     1       8.141  -4.179  10.677  1.00  0.00     0.031 C 
ATOM     47  C   UNL     1       3.592   0.657  12.552  1.00  0.00     0.029 A 
ATOM     48  C   UNL     1       3.653  -0.522  13.410  1.00  0.00     0.049 A 
ATOM     49  H   UNL     1       4.970  -2.130  13.264  1.00  0.00     0.167 HD
ATOM     50  C   UNL     1       7.573  -5.606  12.617  1.00  0.00     0.034 A 
ATOM     51  C   UNL     1       2.851  -0.761  14.466  1.00  0.00     0.034 A 
ATOM     52  C   UNL     1       6.874  -5.873  13.845  1.00  0.00     0.049 A 
ATOM     53  C   UNL     1       3.056  -2.020  15.265  1.00  0.00     0.074 A 
ATOM     54  C   UNL     1       7.013  -6.954  14.696  1.00  0.00     0.029 A 
ATOM     55  N   UNL     1       5.895  -5.056  14.391  1.00  0.00    -0.354 N 
ATOM     56  N   UNL     1       3.932  -2.979  15.084  1.00  0.00    -0.248 NA
ATOM     57  C   UNL     1       2.186  -2.212  16.433  1.00  0.00     0.031 C 
ATOM     58  C   UNL     1       6.094  -6.807  15.740  1.00  0.00     0.029 A 
ATOM     59  C   UNL     1       5.412  -5.614  15.561  1.00  0.00     0.049 A 
ATOM     60  H   UNL     1       5.589  -4.205  14.002  1.00  0.00     0.167 HD
ATOM     61  C   UNL     1       3.747  -3.868  16.137  1.00  0.00     0.074 A 
ATOM     62  C   UNL     1       2.686  -3.322  16.960  1.00  0.00     0.031 C 
ATOM     63  C   UNL     1       4.389  -5.033  16.395  1.00  0.00     0.034 A 
BRANCH  50  64
ATOM     64  C   UNL     1       8.568  -6.622  12.115  1.00  0.00     0.023 A 
ATOM     65  C   UNL     1       9.947  -6.324  12.145  1.00  0.00     0.012 A 
ATOM     66  C   UNL     1       8.146  -7.881  11.647  1.00  0.00     0.148 A 
ATOM     67  C   UNL     1      10.884  -7.242  11.674  1.00  0.00     0.002 A 
ATOM     68  C   UNL     1       9.090  -8.811  11.226  1.00  0.00     0.091 A 
ATOM     69  F   UNL     1       6.831  -8.141  11.605  1.00  0.00    -0.205 F 
ATOM     70  C   UNL     1      10.457  -8.488  11.224  1.00  0.00     0.022 A 
BRANCH  68  71
ATOM     71  S   UNL     1       8.648 -10.472  10.706  1.00  0.00     0.127 S 
ATOM     72  O   UNL     1       8.907 -10.409   9.268  1.00  0.00    -0.237 OA
ATOM     73  O   UNL     1       9.597 -11.292  11.460  1.00  0.00    -0.237 OA
ATOM     74  O   UNL     1       7.254 -10.654  11.083  1.00  0.00    -0.744 OA
ENDBRANCH  68  71
ENDBRANCH  50  64
BRANCH  51  75
ATOM     75  C   UNL     1       1.829   0.246  14.868  1.00  0.00     0.023 A 
ATOM     76  C   UNL     1       2.008   0.973  16.061  1.00  0.00     0.012 A 
ATOM     77  C   UNL     1       0.702   0.510  14.066  1.00  0.00     0.148 A 
ATOM     78  C   UNL     1       1.067   1.921  16.466  1.00  0.00     0.002 A 
ATOM     79  C   UNL     1      -0.202   1.494  14.446  1.00  0.00     0.091 A 
ATOM     80  F   UNL     1       0.548  -0.197  12.937  1.00  0.00    -0.205 F 
ATOM     81  C   UNL     1      -0.032   2.188  15.654  1.00  0.00     0.022 A 
BRANCH  79  82
ATOM     82  S   UNL     1      -1.577   1.998  13.406  1.00  0.00     0.127 S 
ATOM     83  O   UNL     1      -2.725   1.551  14.191  1.00  0.00    -0.237 OA
ATOM     84  O   UNL     1      -1.394   3.448  13.350  1.00  0.00    -0.237 OA
ATOM     85  O   UNL     1      -1.380   1.317  12.133  1.00  0.00    -0.744 OA
ENDBRANCH  79  82
ENDBRANCH  51  75
BRANCH  63  86
ATOM     86  C   UNL     1       4.003  -5.782  17.643  1.00  0.00     0.023 A 
ATOM     87  C   UNL     1       2.760  -6.441  17.716  1.00  0.00     0.012 A 
ATOM     88  C   UNL     1       4.909  -5.894  18.717  1.00  0.00     0.148 A 
ATOM     89  C   UNL     1       2.411  -7.170  18.853  1.00  0.00     0.002 A 
ATOM     90  C   UNL     1       4.577  -6.666  19.823  1.00  0.00     0.091 A 
ATOM     91  F   UNL     1       6.080  -5.245  18.635  1.00  0.00    -0.205 F 
ATOM     92  C   UNL     1       3.323  -7.293  19.899  1.00  0.00     0.022 A 
BRANCH  90  93
ATOM     93  S   UNL     1       5.726  -6.964  21.170  1.00  0.00     0.127 S 
ATOM     94  O   UNL     1       5.119  -6.194  22.255  1.00  0.00    -0.237 OA
ATOM     95  O   UNL     1       5.643  -8.416  21.331  1.00  0.00    -0.237 OA
ATOM     96  O   UNL     1       7.021  -6.479  20.711  1.00  0.00    -0.744 OA
ENDBRANCH  90  93
ENDBRANCH  63  86
ENDBRANCH  37  38
ENDBRANCH  29  32
ENDBRANCH  27  28
ENDBRANCH  26  27
ENDBRANCH   1  26
TORSDOF 18
