REMARK SMILES CCc1c(C(=O)NCC(=O)NCCCCCCNC(=O)c2ccc(-c3c4nc(c(-c5cccc(S(=O)(=O)[O-])c5F)c5ccc([nH]5)c(-c5cccc(S(=O)(=O)[O-])c5F)c5nc(c(-c6cccc(S(=O)(=O)[O-])c6F)c6ccc3[nH]6)C=C5)C=C4)cc2)nnn1-c1ccc(Cl)cc1
REMARK SMILES IDX 14 1 13 2 12 3 11 4 9 5 10 6 8 8 7 9 5 10 6 11 4 13 3 14
REMARK SMILES IDX 86 15 84 16 85 17 2 18 1 19 87 20 88 21 93 22 89 23 92 24
REMARK SMILES IDX 90 25 91 26 15 27 16 28 17 29 18 30 19 31 20 33 21 34 22 35
REMARK SMILES IDX 83 36 23 37 82 38 24 39 25 40 26 41 76 42 27 43 81 44 75 45
REMARK SMILES IDX 77 46 28 47 80 48 74 49 73 50 29 52 61 53 41 54 60 55 42 56
REMARK SMILES IDX 45 57 59 58 78 59 43 60 44 61 58 63 79 64 46 65 30 66 31 67
REMARK SMILES IDX 39 68 32 69 34 70 40 71 33 72 35 73 36 74 37 75 38 76 62 77
REMARK SMILES IDX 63 78 71 79 64 80 66 81 72 82 65 83 67 84 68 85 69 86 70 87
REMARK SMILES IDX 47 88 48 89 56 90 49 91 51 92 57 93 50 94 52 95 53 96 54 97
REMARK SMILES IDX 55 98
REMARK H PARENT 11 7 7 12 18 32 77 51 45 62
REMARK Flexibility Score: inf
ROOT
ATOM      1  C   UNL     1      -4.994   1.804   2.288  1.00  0.00     0.002 C 
ENDROOT
BRANCH   1   2
ATOM      2  C   UNL     1      -3.620   2.421   2.016  1.00  0.00     0.021 C 
BRANCH   2   3
ATOM      3  C   UNL     1      -2.517   1.389   1.838  1.00  0.00     0.116 C 
BRANCH   3   4
ATOM      4  N   UNL     1      -2.674   0.634   0.617  1.00  0.00    -0.355 N 
ATOM      5  C   UNL     1      -2.033   0.719  -0.574  1.00  0.00     0.239 C 
ATOM      6  O   UNL     1      -2.378  -0.101  -1.437  1.00  0.00    -0.273 OA
ATOM      7  H   UNL     1      -3.367  -0.065   0.657  1.00  0.00     0.163 HD
BRANCH   5   8
ATOM      8  C   UNL     1      -0.801   1.606  -0.830  1.00  0.00     0.216 C 
BRANCH   8   9
ATOM      9  N   UNL     1      -0.501   2.823  -0.117  1.00  0.00    -0.342 N 
ATOM     10  C   UNL     1       0.326   3.193   0.911  1.00  0.00     0.274 C 
ATOM     11  O   UNL     1       0.474   4.412   1.018  1.00  0.00    -0.267 OA
ATOM     12  H   UNL     1      -1.025   3.584  -0.456  1.00  0.00     0.164 HD
BRANCH  10  13
ATOM     13  C   UNL     1       0.929   2.315   1.928  1.00  0.00     0.174 A 
ATOM     14  C   UNL     1       1.266   0.965   2.074  1.00  0.00     0.077 A 
ATOM     15  N   UNL     1       1.789   0.894   3.370  1.00  0.00    -0.217 N 
ATOM     16  N   UNL     1       1.165   2.932   3.147  1.00  0.00    -0.124 NA
ATOM     17  N   UNL     1       1.561   2.039   4.026  1.00  0.00    -0.061 NA
BRANCH  14  18
ATOM     18  C   UNL     1       1.038  -0.259   1.254  1.00  0.00     0.055 C 
ATOM     19  C   UNL     1       1.972  -0.394   0.064  1.00  0.00     0.011 C 
ENDBRANCH  14  18
BRANCH  15  20
ATOM     20  C   UNL     1       2.423  -0.173   4.056  1.00  0.00     0.067 A 
ATOM     21  C   UNL     1       2.187  -0.340   5.429  1.00  0.00     0.030 A 
ATOM     22  C   UNL     1       3.311  -1.026   3.395  1.00  0.00     0.030 A 
ATOM     23  C   UNL     1       2.776  -1.406   6.114  1.00  0.00     0.023 A 
ATOM     24  C   UNL     1       3.915  -2.078   4.088  1.00  0.00     0.023 A 
ATOM     25  C   UNL     1       3.632  -2.273   5.439  1.00  0.00     0.041 A 
ATOM     26  Cl  UNL     1       4.355  -3.590   6.277  1.00  0.00    -0.084 Cl
ENDBRANCH  15  20
ENDBRANCH  10  13
ENDBRANCH   8   9
ENDBRANCH   5   8
ENDBRANCH   3   4
ENDBRANCH   2   3
ENDBRANCH   1   2
BRANCH   1  27
ATOM     27  C   UNL     1      -5.071   0.816   3.461  1.00  0.00     0.002 C 
BRANCH  27  28
ATOM     28  C   UNL     1      -4.487   1.277   4.805  1.00  0.00     0.021 C 
BRANCH  28  29
ATOM     29  C   UNL     1      -5.180   2.483   5.422  1.00  0.00     0.116 C 
BRANCH  29  30
ATOM     30  N   UNL     1      -6.584   2.216   5.741  1.00  0.00    -0.352 N 
ATOM     31  C   UNL     1      -7.588   3.110   6.073  1.00  0.00     0.251 C 
ATOM     32  H   UNL     1      -6.852   1.269   5.716  1.00  0.00     0.163 HD
ATOM     33  O   UNL     1      -8.587   2.735   6.663  1.00  0.00    -0.269 OA
BRANCH  31  34
ATOM     34  C   UNL     1      -7.427   4.525   5.690  1.00  0.00     0.039 A 
ATOM     35  C   UNL     1      -7.822   5.568   6.531  1.00  0.00     0.014 A 
ATOM     36  C   UNL     1      -6.828   4.792   4.467  1.00  0.00     0.014 A 
ATOM     37  C   UNL     1      -7.524   6.877   6.156  1.00  0.00     0.010 A 
ATOM     38  C   UNL     1      -6.357   6.048   4.200  1.00  0.00     0.010 A 
ATOM     39  C   UNL     1      -6.769   7.107   4.994  1.00  0.00    -0.014 A 
BRANCH  39  40
ATOM     40  C   UNL     1      -6.313   8.444   4.635  1.00  0.00     0.031 A 
ATOM     41  C   UNL     1      -5.583   9.155   5.714  1.00  0.00     0.074 A 
ATOM     42  C   UNL     1      -6.358   8.919   3.370  1.00  0.00     0.049 A 
ATOM     43  N   UNL     1      -6.004  10.159   6.410  1.00  0.00    -0.248 NA
ATOM     44  C   UNL     1      -4.310   8.592   6.189  1.00  0.00     0.031 C 
ATOM     45  C   UNL     1      -6.753   8.208   2.144  1.00  0.00     0.029 A 
ATOM     46  N   UNL     1      -5.911  10.110   2.886  1.00  0.00    -0.354 N 
ATOM     47  C   UNL     1      -4.935  10.517   7.228  1.00  0.00     0.074 A 
ATOM     48  C   UNL     1      -4.033   9.396   7.218  1.00  0.00     0.031 C 
ATOM     49  C   UNL     1      -6.278   8.866   1.066  1.00  0.00     0.029 A 
ATOM     50  C   UNL     1      -5.726  10.130   1.506  1.00  0.00     0.049 A 
ATOM     51  H   UNL     1      -5.735  10.889   3.461  1.00  0.00     0.167 HD
ATOM     52  C   UNL     1      -4.750  11.812   7.610  1.00  0.00     0.034 A 
ATOM     53  C   UNL     1      -5.130  11.105   0.782  1.00  0.00     0.034 A 
ATOM     54  C   UNL     1      -5.923  12.607   7.333  1.00  0.00     0.049 A 
ATOM     55  C   UNL     1      -5.178  12.336   1.602  1.00  0.00     0.074 A 
ATOM     56  C   UNL     1      -7.253  12.562   7.698  1.00  0.00     0.029 A 
ATOM     57  N   UNL     1      -5.859  13.419   6.226  1.00  0.00    -0.354 N 
ATOM     58  N   UNL     1      -6.285  12.949   1.915  1.00  0.00    -0.248 NA
ATOM     59  C   UNL     1      -4.029  12.654   2.430  1.00  0.00     0.031 C 
ATOM     60  C   UNL     1      -7.968  12.966   6.530  1.00  0.00     0.029 A 
ATOM     61  C   UNL     1      -7.038  13.300   5.543  1.00  0.00     0.049 A 
ATOM     62  H   UNL     1      -5.097  13.987   5.969  1.00  0.00     0.167 HD
ATOM     63  C   UNL     1      -6.096  13.341   3.233  1.00  0.00     0.074 A 
ATOM     64  C   UNL     1      -4.653  13.254   3.447  1.00  0.00     0.031 C 
ATOM     65  C   UNL     1      -7.147  13.410   4.103  1.00  0.00     0.034 A 
BRANCH  52  66
ATOM     66  C   UNL     1      -3.409  12.476   7.850  1.00  0.00     0.023 A 
ATOM     67  C   UNL     1      -3.432  13.800   8.347  1.00  0.00     0.012 A 
ATOM     68  C   UNL     1      -2.171  12.003   7.359  1.00  0.00     0.148 A 
ATOM     69  C   UNL     1      -2.308  14.631   8.287  1.00  0.00     0.002 A 
ATOM     70  C   UNL     1      -1.035  12.807   7.377  1.00  0.00     0.091 A 
ATOM     71  F   UNL     1      -2.096  10.823   6.742  1.00  0.00    -0.205 F 
ATOM     72  C   UNL     1      -1.106  14.133   7.805  1.00  0.00     0.022 A 
BRANCH  70  73
ATOM     73  S   UNL     1       0.559  12.196   6.811  1.00  0.00     0.127 S 
ATOM     74  O   UNL     1       0.696  12.885   5.531  1.00  0.00    -0.237 OA
ATOM     75  O   UNL     1       1.451  12.669   7.870  1.00  0.00    -0.237 OA
ATOM     76  O   UNL     1       0.421  10.747   6.752  1.00  0.00    -0.744 OA
ENDBRANCH  70  73
ENDBRANCH  52  66
BRANCH  53  77
ATOM     77  C   UNL     1      -4.338  11.022  -0.465  1.00  0.00     0.023 A 
ATOM     78  C   UNL     1      -4.153  12.180  -1.247  1.00  0.00     0.012 A 
ATOM     79  C   UNL     1      -3.527   9.897  -0.737  1.00  0.00     0.148 A 
ATOM     80  C   UNL     1      -3.160  12.235  -2.231  1.00  0.00     0.002 A 
ATOM     81  C   UNL     1      -2.546   9.954  -1.723  1.00  0.00     0.091 A 
ATOM     82  F   UNL     1      -3.655   8.808   0.033  1.00  0.00    -0.205 F 
ATOM     83  C   UNL     1      -2.349  11.128  -2.461  1.00  0.00     0.022 A 
BRANCH  81  84
ATOM     84  S   UNL     1      -1.449   8.570  -2.067  1.00  0.00     0.127 S 
ATOM     85  O   UNL     1      -1.494   8.502  -3.528  1.00  0.00    -0.237 OA
ATOM     86  O   UNL     1      -0.184   9.046  -1.517  1.00  0.00    -0.237 OA
ATOM     87  O   UNL     1      -2.043   7.415  -1.403  1.00  0.00    -0.744 OA
ENDBRANCH  81  84
ENDBRANCH  53  77
BRANCH  65  88
ATOM     88  C   UNL     1      -8.545  13.345   3.535  1.00  0.00     0.023 A 
ATOM     89  C   UNL     1      -9.040  12.212   2.857  1.00  0.00     0.012 A 
ATOM     90  C   UNL     1      -9.431  14.391   3.843  1.00  0.00     0.148 A 
ATOM     91  C   UNL     1     -10.383  12.135   2.474  1.00  0.00     0.002 A 
ATOM     92  C   UNL     1     -10.775  14.291   3.505  1.00  0.00     0.091 A 
ATOM     93  F   UNL     1      -8.947  15.461   4.492  1.00  0.00    -0.205 F 
ATOM     94  C   UNL     1     -11.254  13.169   2.811  1.00  0.00     0.022 A 
BRANCH  92  95
ATOM     95  S   UNL     1     -11.965  15.529   4.023  1.00  0.00     0.127 S 
ATOM     96  O   UNL     1     -12.216  16.251   2.777  1.00  0.00    -0.237 OA
ATOM     97  O   UNL     1     -13.085  14.713   4.494  1.00  0.00    -0.237 OA
ATOM     98  O   UNL     1     -11.310  16.300   5.074  1.00  0.00    -0.744 OA
ENDBRANCH  92  95
ENDBRANCH  65  88
ENDBRANCH  39  40
ENDBRANCH  31  34
ENDBRANCH  29  30
ENDBRANCH  28  29
ENDBRANCH  27  28
ENDBRANCH   1  27
TORSDOF 20
