REMARK SMILES O=C(NCCCCCCNC(=O)[C@@H]1CCCN1S(=O)(=O)c1ccc2c3c(cccc13)C(=O)N2)c1ccc(-c2c3nc(c(-c4cccc(S(=O)(=O)[O-])c4F)c4ccc([nH]4)c(-c4cccc(S(=O)(=O)[O-])c4F)c4nc(c(-c5cccc(S(=O)(=O)[O-])c5F)c5ccc2[nH]5)C=C4)C=C3)cc1
REMARK SMILES IDX 6 1 5 2 4 3 3 4 1 5 2 6 34 8 35 9 96 10 36 11 95 12 37 13
REMARK SMILES IDX 38 14 39 15 89 16 40 17 94 18 88 19 90 20 41 21 93 22 87 23
REMARK SMILES IDX 86 24 42 26 74 27 54 28 73 29 55 30 58 31 72 32 91 33 56 34
REMARK SMILES IDX 57 35 71 37 92 38 59 39 43 40 44 41 52 42 45 43 47 44 53 45
REMARK SMILES IDX 46 46 48 47 49 48 50 49 51 50 75 51 76 52 84 53 77 54 79 55
REMARK SMILES IDX 85 56 78 57 80 58 81 59 82 60 83 61 60 62 61 63 69 64 62 65
REMARK SMILES IDX 64 66 70 67 63 68 65 69 66 70 67 71 68 72 7 73 8 74 9 75
REMARK SMILES IDX 10 76 11 77 12 79 13 80 14 81 17 82 15 83 16 84 18 85 19 86
REMARK SMILES IDX 20 87 21 88 22 89 30 90 23 91 25 92 29 93 24 94 26 95 28 96
REMARK SMILES IDX 33 97 27 98 31 99 32 101
REMARK H PARENT 3 7 90 25 58 36 10 78 33 100
REMARK Flexibility Score: inf
ROOT
ATOM      1  C   UNL     1       4.424  -2.785  -1.201  1.00  0.00     0.002 C 
ENDROOT
BRANCH   1   2
ATOM      2  C   UNL     1       4.654  -2.059   0.344  1.00  0.00     0.021 C 
BRANCH   2   3
ATOM      3  C   UNL     1       3.929  -0.746   0.621  1.00  0.00     0.116 C 
BRANCH   3   4
ATOM      4  N   UNL     1       2.513  -0.734   0.279  1.00  0.00    -0.352 N 
ATOM      5  O   UNL     1       0.504   0.319   0.027  1.00  0.00    -0.269 OA
ATOM      6  C   UNL     1       1.685   0.364   0.339  1.00  0.00     0.251 C 
ATOM      7  H   UNL     1       2.115  -1.583  -0.021  1.00  0.00     0.163 HD
BRANCH   6   8
ATOM      8  C   UNL     1       2.299   1.591   0.866  1.00  0.00     0.039 A 
ATOM      9  C   UNL     1       3.237   2.266   0.082  1.00  0.00     0.014 A 
ATOM     10  C   UNL     1       2.131   1.875   2.222  1.00  0.00     0.014 A 
ATOM     11  C   UNL     1       4.100   3.160   0.698  1.00  0.00     0.010 A 
ATOM     12  C   UNL     1       2.950   2.828   2.818  1.00  0.00     0.010 A 
ATOM     13  C   UNL     1       3.958   3.452   2.068  1.00  0.00    -0.014 A 
BRANCH  13  14
ATOM     14  C   UNL     1       4.818   4.483   2.685  1.00  0.00     0.031 A 
ATOM     15  C   UNL     1       5.809   4.138   3.759  1.00  0.00     0.074 A 
ATOM     16  C   UNL     1       4.656   5.754   2.272  1.00  0.00     0.049 A 
ATOM     17  N   UNL     1       6.611   4.940   4.407  1.00  0.00    -0.248 NA
ATOM     18  C   UNL     1       5.918   2.726   4.164  1.00  0.00     0.031 C 
ATOM     19  C   UNL     1       3.681   6.190   1.267  1.00  0.00     0.029 A 
ATOM     20  N   UNL     1       5.284   6.910   2.651  1.00  0.00    -0.354 N 
ATOM     21  C   UNL     1       7.294   4.144   5.317  1.00  0.00     0.074 A 
ATOM     22  C   UNL     1       6.818   2.790   5.139  1.00  0.00     0.031 C 
ATOM     23  C   UNL     1       3.779   7.516   1.105  1.00  0.00     0.029 A 
ATOM     24  C   UNL     1       4.781   8.028   2.030  1.00  0.00     0.049 A 
ATOM     25  H   UNL     1       6.021   6.937   3.302  1.00  0.00     0.167 HD
ATOM     26  C   UNL     1       8.239   4.519   6.208  1.00  0.00     0.034 A 
ATOM     27  C   UNL     1       5.068   9.330   2.209  1.00  0.00     0.034 A 
ATOM     28  C   UNL     1       8.721   5.865   6.351  1.00  0.00     0.049 A 
ATOM     29  C   UNL     1       6.123   9.709   3.203  1.00  0.00     0.074 A 
ATOM     30  C   UNL     1       9.732   6.325   7.176  1.00  0.00     0.029 A 
ATOM     31  N   UNL     1       8.218   6.965   5.676  1.00  0.00    -0.354 N 
ATOM     32  N   UNL     1       6.850   8.924   3.959  1.00  0.00    -0.248 NA
ATOM     33  C   UNL     1       6.415  11.140   3.358  1.00  0.00     0.031 C 
ATOM     34  C   UNL     1       9.819   7.709   7.024  1.00  0.00     0.029 A 
ATOM     35  C   UNL     1       8.885   8.106   6.081  1.00  0.00     0.049 A 
ATOM     36  H   UNL     1       7.496   6.938   5.007  1.00  0.00     0.167 HD
ATOM     37  C   UNL     1       7.694   9.763   4.673  1.00  0.00     0.074 A 
ATOM     38  C   UNL     1       7.404  11.115   4.244  1.00  0.00     0.031 C 
ATOM     39  C   UNL     1       8.613   9.438   5.611  1.00  0.00     0.034 A 
BRANCH  26  40
ATOM     40  C   UNL     1       8.870   3.477   7.089  1.00  0.00     0.023 A 
ATOM     41  C   UNL     1       9.905   2.675   6.572  1.00  0.00     0.012 A 
ATOM     42  C   UNL     1       8.573   3.433   8.465  1.00  0.00     0.148 A 
ATOM     43  C   UNL     1      10.648   1.851   7.417  1.00  0.00     0.002 A 
ATOM     44  C   UNL     1       9.333   2.628   9.305  1.00  0.00     0.091 A 
ATOM     45  F   UNL     1       7.582   4.208   8.928  1.00  0.00    -0.205 F 
ATOM     46  C   UNL     1      10.373   1.840   8.783  1.00  0.00     0.022 A 
BRANCH  44  47
ATOM     47  S   UNL     1       9.091   2.573  11.084  1.00  0.00     0.127 S 
ATOM     48  O   UNL     1       8.771   1.161  11.292  1.00  0.00    -0.237 OA
ATOM     49  O   UNL     1      10.403   2.982  11.583  1.00  0.00    -0.237 OA
ATOM     50  O   UNL     1       8.003   3.496  11.374  1.00  0.00    -0.744 OA
ENDBRANCH  44  47
ENDBRANCH  26  40
BRANCH  27  51
ATOM     51  C   UNL     1       4.332  10.351   1.420  1.00  0.00     0.023 A 
ATOM     52  C   UNL     1       4.981  11.017   0.365  1.00  0.00     0.012 A 
ATOM     53  C   UNL     1       2.970  10.607   1.671  1.00  0.00     0.148 A 
ATOM     54  C   UNL     1       4.285  11.934  -0.423  1.00  0.00     0.002 A 
ATOM     55  C   UNL     1       2.275  11.494   0.862  1.00  0.00     0.091 A 
ATOM     56  F   UNL     1       2.378   9.948   2.677  1.00  0.00    -0.205 F 
ATOM     57  C   UNL     1       2.932  12.166  -0.180  1.00  0.00     0.022 A 
BRANCH  55  58
ATOM     58  S   UNL     1       0.515  11.800   1.050  1.00  0.00     0.127 S 
ATOM     59  O   UNL     1       0.500  13.207   1.442  1.00  0.00    -0.237 OA
ATOM     60  O   UNL     1       0.020  11.530  -0.300  1.00  0.00    -0.237 OA
ATOM     61  O   UNL     1       0.054  10.862   2.064  1.00  0.00    -0.744 OA
ENDBRANCH  55  58
ENDBRANCH  27  51
BRANCH  39  62
ATOM     62  C   UNL     1       9.398  10.546   6.250  1.00  0.00     0.023 A 
ATOM     63  C   UNL     1       8.806  11.305   7.277  1.00  0.00     0.012 A 
ATOM     64  C   UNL     1      10.763  10.716   5.950  1.00  0.00     0.148 A 
ATOM     65  C   UNL     1       9.568  12.216   8.005  1.00  0.00     0.002 A 
ATOM     66  C   UNL     1      11.523  11.603   6.699  1.00  0.00     0.091 A 
ATOM     67  F   UNL     1      11.296   9.974   4.968  1.00  0.00    -0.205 F 
ATOM     68  C   UNL     1      10.927  12.353   7.727  1.00  0.00     0.022 A 
BRANCH  66  69
ATOM     69  S   UNL     1      13.290  11.809   6.456  1.00  0.00     0.127 S 
ATOM     70  O   UNL     1      13.372  13.212   6.052  1.00  0.00    -0.237 OA
ATOM     71  O   UNL     1      13.820  11.525   7.790  1.00  0.00    -0.237 OA
ATOM     72  O   UNL     1      13.674  10.851   5.428  1.00  0.00    -0.744 OA
ENDBRANCH  66  69
ENDBRANCH  39  62
ENDBRANCH  13  14
ENDBRANCH   6   8
ENDBRANCH   3   4
ENDBRANCH   2   3
ENDBRANCH   1   2
BRANCH   1  73
ATOM     73  C   UNL     1       5.436  -2.748  -3.159  1.00  0.00     0.002 C 
BRANCH  73  74
ATOM     74  C   UNL     1       7.018  -2.768  -3.787  1.00  0.00     0.021 C 
BRANCH  74  75
ATOM     75  C   UNL     1       7.950  -3.978  -3.757  1.00  0.00     0.116 C 
BRANCH  75  76
ATOM     76  N   UNL     1       7.410  -5.278  -4.152  1.00  0.00    -0.355 N 
ATOM     77  C   UNL     1       7.937  -6.520  -3.806  1.00  0.00     0.238 C 
ATOM     78  H   UNL     1       6.602  -5.276  -4.714  1.00  0.00     0.163 HD
ATOM     79  O   UNL     1       7.448  -7.557  -4.249  1.00  0.00    -0.273 OA
BRANCH  77  80
ATOM     80  C   UNL     1       9.145  -6.493  -2.889  1.00  0.00     0.162 C 
ATOM     81  C   UNL     1       9.839  -7.761  -2.417  1.00  0.00     0.032 C 
ATOM     82  N   UNL     1       8.959  -5.736  -1.618  1.00  0.00    -0.185 NA
ATOM     83  C   UNL     1      10.866  -7.189  -1.430  1.00  0.00     0.019 C 
ATOM     84  C   UNL     1      10.284  -5.850  -0.952  1.00  0.00     0.103 C 
BRANCH  82  85
ATOM     85  S   UNL     1       7.601  -6.042  -0.623  1.00  0.00     0.244 S 
ATOM     86  O   UNL     1       7.584  -7.457  -0.320  1.00  0.00    -0.207 OA
ATOM     87  O   UNL     1       7.657  -5.074   0.453  1.00  0.00    -0.207 OA
BRANCH  85  88
ATOM     88  C   UNL     1       6.135  -5.677  -1.572  1.00  0.00     0.090 A 
ATOM     89  C   UNL     1       5.305  -6.758  -2.081  1.00  0.00     0.024 A 
ATOM     90  C   UNL     1       5.764  -4.339  -1.778  1.00  0.00     0.005 A 
ATOM     91  C   UNL     1       4.073  -6.665  -2.852  1.00  0.00     0.028 A 
ATOM     92  C   UNL     1       4.213  -4.347  -2.567  1.00  0.00     0.019 A 
ATOM     93  C   UNL     1       6.473  -2.723  -1.371  1.00  0.00     0.010 A 
ATOM     94  C   UNL     1       3.546  -5.405  -3.066  1.00  0.00     0.050 A 
ATOM     95  C   UNL     1       3.341  -2.918  -3.039  1.00  0.00     0.050 A 
ATOM     96  C   UNL     1       5.576  -1.223  -1.825  1.00  0.00     0.002 A 
ATOM     97  N   UNL     1       2.428  -4.893  -3.759  1.00  0.00    -0.321 N 
ATOM     98  C   UNL     1       3.934  -1.283  -2.620  1.00  0.00     0.014 A 
ATOM     99  C   UNL     1       2.231  -3.459  -3.792  1.00  0.00     0.256 C 
ATOM    100  H   UNL     1       1.796  -5.498  -4.210  1.00  0.00     0.170 HD
ATOM    101  O   UNL     1       1.313  -2.923  -4.398  1.00  0.00    -0.269 OA
ENDBRANCH  85  88
ENDBRANCH  82  85
ENDBRANCH  77  80
ENDBRANCH  75  76
ENDBRANCH  74  75
ENDBRANCH  73  74
ENDBRANCH   1  73
TORSDOF 18
