REMARK SMILES CCOc1cnc(C(=O)c2[nH]c3cc(Cl)ccc3c2CC(=O)NCCCCCCNC(=O)c2ccc(-c3c4nc(c(-c5cccc(S(=O)(=O)[O-])c5F)c5ccc([nH]5)c(-c5cccc(S(=O)(=O)[O-])c5F)c5nc(c(-c6cccc(S(=O)(=O)[O-])c6F)c6ccc3[nH]6)C=C5)C=C4)cc2)cc1CC
REMARK SMILES IDX 25 1 24 2 23 3 21 4 22 5 20 7 19 8 10 9 11 10 12 11 18 13
REMARK SMILES IDX 13 14 17 15 14 16 16 17 15 18 8 19 9 20 7 21 4 22 5 23 97 24
REMARK SMILES IDX 6 25 96 26 3 27 2 28 1 29 98 30 99 31 26 32 27 33 28 34
REMARK SMILES IDX 29 35 30 36 31 37 32 39 33 40 34 41 95 42 35 43 94 44 36 45
REMARK SMILES IDX 37 46 38 47 88 48 39 49 93 50 87 51 89 52 40 53 92 54 86 55
REMARK SMILES IDX 85 56 41 58 73 59 53 60 72 61 54 62 57 63 71 64 90 65 55 66
REMARK SMILES IDX 56 67 70 69 91 70 58 71 42 72 43 73 51 74 44 75 46 76 52 77
REMARK SMILES IDX 45 78 47 79 48 80 49 81 50 82 74 83 75 84 83 85 76 86 78 87
REMARK SMILES IDX 84 88 77 89 79 90 80 91 81 92 82 93 59 94 60 95 68 96 61 97
REMARK SMILES IDX 63 98 69 99 62 100 64 101 65 102 66 103 67 104
REMARK H PARENT 23 6 11 12 30 38 89 57 57 68
REMARK Flexibility Score: inf
ROOT
ATOM      1  C   UNL     1      10.968   2.009   3.537  1.00  0.00     0.021 C 
ENDROOT
BRANCH   1   2
ATOM      2  C   UNL     1      11.269   0.559   3.158  1.00  0.00     0.116 C 
BRANCH   2   3
ATOM      3  N   UNL     1      10.508  -0.380   3.958  1.00  0.00    -0.356 N 
ATOM      4  C   UNL     1       9.436  -1.148   3.606  1.00  0.00     0.224 C 
ATOM      5  O   UNL     1       9.013  -1.963   4.430  1.00  0.00    -0.275 OA
ATOM      6  H   UNL     1      10.808  -0.478   4.890  1.00  0.00     0.163 HD
BRANCH   4   7
ATOM      7  C   UNL     1       8.866  -1.096   2.195  1.00  0.00     0.138 C 
BRANCH   7   8
ATOM      8  C   UNL     1       8.386   0.258   1.756  1.00  0.00    -0.002 A 
ATOM      9  C   UNL     1       7.335   0.994   2.292  1.00  0.00     0.093 A 
ATOM     10  N   UNL     1       7.361   2.233   1.690  1.00  0.00    -0.351 N 
ATOM     11  C   UNL     1       8.209   2.224   0.611  1.00  0.00     0.048 A 
ATOM     12  H   UNL     1       6.844   3.014   1.992  1.00  0.00     0.167 HD
ATOM     13  C   UNL     1       8.872   1.000   0.625  1.00  0.00     0.004 A 
ATOM     14  C   UNL     1       8.443   3.205  -0.361  1.00  0.00     0.047 A 
ATOM     15  C   UNL     1       9.827   0.744  -0.384  1.00  0.00     0.012 A 
ATOM     16  C   UNL     1       9.386   2.918  -1.351  1.00  0.00     0.043 A 
ATOM     17  C   UNL     1      10.076   1.710  -1.366  1.00  0.00     0.021 A 
ATOM     18  Cl  UNL     1       9.690   4.084  -2.581  1.00  0.00    -0.084 Cl
BRANCH   9  19
ATOM     19  C   UNL     1       6.363   0.607   3.305  1.00  0.00     0.227 C 
ATOM     20  O   UNL     1       6.688   0.408   4.469  1.00  0.00    -0.285 OA
BRANCH  19  21
ATOM     21  C   UNL     1       4.918   0.476   2.866  1.00  0.00     0.113 A 
ATOM     22  C   UNL     1       2.256   0.385   2.171  1.00  0.00     0.140 A 
ATOM     23  C   UNL     1       2.720   0.049   3.439  1.00  0.00     0.158 A 
ATOM     24  C   UNL     1       3.174   0.827   1.220  1.00  0.00    -0.002 A 
ATOM     25  N   UNL     1       4.021   0.101   3.813  1.00  0.00    -0.249 NA
ATOM     26  C   UNL     1       4.530   0.788   1.562  1.00  0.00     0.040 A 
BRANCH  22  27
ATOM     27  O   UNL     1       0.917   0.381   1.908  1.00  0.00    -0.492 OA
BRANCH  27  28
ATOM     28  C   UNL     1       0.456  -0.907   1.476  1.00  0.00     0.226 C 
ATOM     29  C   UNL     1       0.166  -0.881  -0.016  1.00  0.00     0.049 C 
ENDBRANCH  27  28
ENDBRANCH  22  27
BRANCH  24  30
ATOM     30  C   UNL     1       2.766   1.353  -0.135  1.00  0.00     0.036 C 
ATOM     31  C   UNL     1       3.351   2.728  -0.443  1.00  0.00     0.009 C 
ENDBRANCH  24  30
ENDBRANCH  19  21
ENDBRANCH   9  19
ENDBRANCH   7   8
ENDBRANCH   4   7
ENDBRANCH   2   3
ENDBRANCH   1   2
BRANCH   1  32
ATOM     32  C   UNL     1      11.525   2.427   4.903  1.00  0.00     0.002 C 
BRANCH  32  33
ATOM     33  C   UNL     1      13.037   2.244   5.076  1.00  0.00     0.002 C 
BRANCH  33  34
ATOM     34  C   UNL     1      13.900   2.923   4.010  1.00  0.00     0.021 C 
BRANCH  34  35
ATOM     35  C   UNL     1      13.756   4.440   3.951  1.00  0.00     0.116 C 
BRANCH  35  36
ATOM     36  N   UNL     1      14.243   5.083   5.165  1.00  0.00    -0.352 N 
ATOM     37  C   UNL     1      15.171   6.089   5.292  1.00  0.00     0.251 C 
ATOM     38  H   UNL     1      13.856   4.752   6.007  1.00  0.00     0.163 HD
ATOM     39  O   UNL     1      15.614   6.394   6.395  1.00  0.00    -0.269 OA
BRANCH  37  40
ATOM     40  C   UNL     1      15.644   6.789   4.080  1.00  0.00     0.039 A 
ATOM     41  C   UNL     1      17.017   6.942   3.868  1.00  0.00     0.014 A 
ATOM     42  C   UNL     1      14.724   7.261   3.140  1.00  0.00     0.014 A 
ATOM     43  C   UNL     1      17.471   7.507   2.673  1.00  0.00     0.010 A 
ATOM     44  C   UNL     1      15.179   7.760   1.925  1.00  0.00     0.010 A 
ATOM     45  C   UNL     1      16.556   7.887   1.678  1.00  0.00    -0.014 A 
BRANCH  45  46
ATOM     46  C   UNL     1      16.996   8.409   0.360  1.00  0.00     0.031 A 
ATOM     47  C   UNL     1      16.613   9.803  -0.055  1.00  0.00     0.074 A 
ATOM     48  C   UNL     1      17.626   7.593  -0.507  1.00  0.00     0.049 A 
ATOM     49  N   UNL     1      16.762  10.391  -1.213  1.00  0.00    -0.248 NA
ATOM     50  C   UNL     1      15.943  10.635   0.959  1.00  0.00     0.031 C 
ATOM     51  C   UNL     1      18.000   6.202  -0.243  1.00  0.00     0.029 A 
ATOM     52  N   UNL     1      18.027   7.802  -1.804  1.00  0.00    -0.354 N 
ATOM     53  C   UNL     1      16.167  11.640  -1.082  1.00  0.00     0.074 A 
ATOM     54  C   UNL     1      15.629  11.715   0.259  1.00  0.00     0.031 C 
ATOM     55  C   UNL     1      18.568   5.682  -1.343  1.00  0.00     0.029 A 
ATOM     56  C   UNL     1      18.565   6.686  -2.402  1.00  0.00     0.049 A 
ATOM     57  H   UNL     1      17.938   8.669  -2.262  1.00  0.00     0.167 HD
ATOM     58  C   UNL     1      16.097  12.644  -1.988  1.00  0.00     0.034 A 
ATOM     59  C   UNL     1      18.989   6.488  -3.666  1.00  0.00     0.034 A 
ATOM     60  C   UNL     1      16.674  12.581  -3.303  1.00  0.00     0.049 A 
ATOM     61  C   UNL     1      18.919   7.628  -4.647  1.00  0.00     0.074 A 
ATOM     62  C   UNL     1      16.730  13.572  -4.266  1.00  0.00     0.029 A 
ATOM     63  N   UNL     1      17.292  11.463  -3.841  1.00  0.00    -0.354 N 
ATOM     64  N   UNL     1      18.480   8.849  -4.463  1.00  0.00    -0.248 NA
ATOM     65  C   UNL     1      19.430   7.373  -6.003  1.00  0.00     0.031 C 
ATOM     66  C   UNL     1      17.365  13.047  -5.395  1.00  0.00     0.029 A 
ATOM     67  C   UNL     1      17.727  11.736  -5.125  1.00  0.00     0.049 A 
ATOM     68  H   UNL     1      17.405  10.601  -3.378  1.00  0.00     0.167 HD
ATOM     69  C   UNL     1      18.701   9.520  -5.660  1.00  0.00     0.074 A 
ATOM     70  C   UNL     1      19.322   8.572  -6.562  1.00  0.00     0.031 C 
ATOM     71  C   UNL     1      18.406  10.802  -5.987  1.00  0.00     0.034 A 
BRANCH  58  72
ATOM     72  C   UNL     1      15.415  13.919  -1.566  1.00  0.00     0.023 A 
ATOM     73  C   UNL     1      16.038  14.760  -0.621  1.00  0.00     0.012 A 
ATOM     74  C   UNL     1      14.187  14.311  -2.134  1.00  0.00     0.148 A 
ATOM     75  C   UNL     1      15.434  15.950  -0.219  1.00  0.00     0.002 A 
ATOM     76  C   UNL     1      13.612  15.521  -1.762  1.00  0.00     0.091 A 
ATOM     77  F   UNL     1      13.597  13.490  -3.014  1.00  0.00    -0.205 F 
ATOM     78  C   UNL     1      14.227  16.334  -0.796  1.00  0.00     0.022 A 
BRANCH  76  79
ATOM     79  S   UNL     1      12.099  16.142  -2.506  1.00  0.00     0.127 S 
ATOM     80  O   UNL     1      11.137  15.950  -1.422  1.00  0.00    -0.237 OA
ATOM     81  O   UNL     1      12.439  17.538  -2.779  1.00  0.00    -0.237 OA
ATOM     82  O   UNL     1      11.875  15.330  -3.694  1.00  0.00    -0.744 OA
ENDBRANCH  76  79
ENDBRANCH  58  72
BRANCH  59  83
ATOM     83  C   UNL     1      19.581   5.177  -4.058  1.00  0.00     0.023 A 
ATOM     84  C   UNL     1      20.963   5.098  -4.315  1.00  0.00     0.012 A 
ATOM     85  C   UNL     1      18.798   4.009  -4.149  1.00  0.00     0.148 A 
ATOM     86  C   UNL     1      21.552   3.889  -4.687  1.00  0.00     0.002 A 
ATOM     87  C   UNL     1      19.400   2.796  -4.468  1.00  0.00     0.091 A 
ATOM     88  F   UNL     1      17.483   4.105  -3.911  1.00  0.00    -0.205 F 
ATOM     89  C   UNL     1      20.773   2.737  -4.754  1.00  0.00     0.022 A 
BRANCH  87  90
ATOM     90  S   UNL     1      18.501   1.241  -4.455  1.00  0.00     0.127 S 
ATOM     91  O   UNL     1      18.437   0.919  -5.878  1.00  0.00    -0.237 OA
ATOM     92  O   UNL     1      19.389   0.384  -3.668  1.00  0.00    -0.237 OA
ATOM     93  O   UNL     1      17.225   1.528  -3.813  1.00  0.00    -0.744 OA
ENDBRANCH  87  90
ENDBRANCH  59  83
BRANCH  71  94
ATOM     94  C   UNL     1      18.794  11.289  -7.358  1.00  0.00     0.023 A 
ATOM     95  C   UNL     1      18.051  10.884  -8.483  1.00  0.00     0.012 A 
ATOM     96  C   UNL     1      19.827  12.235  -7.511  1.00  0.00     0.148 A 
ATOM     97  C   UNL     1      18.342  11.400  -9.745  1.00  0.00     0.002 A 
ATOM     98  C   UNL     1      20.080  12.781  -8.763  1.00  0.00     0.091 A 
ATOM     99  F   UNL     1      20.531  12.593  -6.428  1.00  0.00    -0.205 F 
ATOM    100  C   UNL     1      19.345  12.358  -9.883  1.00  0.00     0.022 A 
BRANCH  98 101
ATOM    101  S   UNL     1      21.282  14.091  -9.021  1.00  0.00     0.127 S 
ATOM    102  O   UNL     1      22.313  13.400  -9.795  1.00  0.00    -0.237 OA
ATOM    103  O   UNL     1      20.508  15.075  -9.778  1.00  0.00    -0.237 OA
ATOM    104  O   UNL     1      21.691  14.531  -7.695  1.00  0.00    -0.744 OA
ENDBRANCH  98 101
ENDBRANCH  71  94
ENDBRANCH  45  46
ENDBRANCH  37  40
ENDBRANCH  35  36
ENDBRANCH  34  35
ENDBRANCH  33  34
ENDBRANCH  32  33
ENDBRANCH   1  32
TORSDOF 22
