REMARK SMILES C[C@H]1CC[C@@](Nc2ccc(C(N)=O)nn2)(C(=O)NCCCCCCNC(=O)c2ccc(-c3c4nc(c(-c5cccc(S(=O)(=O)[O-])c5F)c5ccc([nH]5)c(-c5cccc(S(=O)(=O)[O-])c5F)c5nc(c(-c6cccc(S(=O)(=O)[O-])c6F)c6ccc3[nH]6)C=C5)C=C4)cc2)CC1
REMARK SMILES IDX 21 1 20 2 19 3 18 4 16 5 17 6 5 8 1 9 2 10 92 11 3 12 91 13
REMARK SMILES IDX 4 14 6 15 7 17 8 18 15 19 9 20 14 21 10 22 11 23 12 24 13 25
REMARK SMILES IDX 22 28 23 29 24 30 25 31 26 32 27 34 28 35 29 36 90 37 30 38
REMARK SMILES IDX 89 39 31 40 32 41 33 42 83 43 34 44 88 45 82 46 84 47 35 48
REMARK SMILES IDX 87 49 81 50 80 51 36 53 68 54 48 55 67 56 49 57 52 58 66 59
REMARK SMILES IDX 85 60 50 61 51 62 65 64 86 65 53 66 37 67 38 68 46 69 39 70
REMARK SMILES IDX 41 71 47 72 40 73 42 74 43 75 44 76 45 77 69 78 70 79 78 80
REMARK SMILES IDX 71 81 73 82 79 83 72 84 74 85 75 86 76 87 77 88 54 89 55 90
REMARK SMILES IDX 63 91 56 92 58 93 64 94 57 95 59 96 60 97 61 98 62 99
REMARK H PARENT 18 7 6 16 12 26 12 27 25 33 84 52 52 63
REMARK Flexibility Score: inf
ROOT
ATOM      1  C   UNL     1      -2.593   3.800  -3.958  1.00  0.00     0.002 C 
ENDROOT
BRANCH   1   2
ATOM      2  C   UNL     1      -2.404   3.568  -2.455  1.00  0.00     0.021 C 
BRANCH   2   3
ATOM      3  C   UNL     1      -3.069   2.287  -1.970  1.00  0.00     0.116 C 
BRANCH   3   4
ATOM      4  N   UNL     1      -2.356   1.131  -2.477  1.00  0.00    -0.354 N 
ATOM      5  C   UNL     1      -1.843   0.046  -1.835  1.00  0.00     0.245 C 
ATOM      6  O   UNL     1      -1.383  -0.842  -2.562  1.00  0.00    -0.272 OA
ATOM      7  H   UNL     1      -2.218   1.131  -3.452  1.00  0.00     0.163 HD
BRANCH   5   8
ATOM      8  C   UNL     1      -1.892  -0.096  -0.271  1.00  0.00     0.118 C 
ATOM      9  C   UNL     1       2.504  -0.116  -0.054  1.00  0.00     0.007 C 
ATOM     10  C   UNL     1       1.055  -0.160   0.433  1.00  0.00    -0.014 C 
ATOM     11  C   UNL     1       0.335  -1.405  -0.102  1.00  0.00     0.006 C 
ATOM     12  C   UNL     1       0.333   1.127   0.035  1.00  0.00     0.006 C 
ATOM     13  C   UNL     1      -1.180  -1.403   0.167  1.00  0.00     0.039 C 
ATOM     14  C   UNL     1      -1.140   1.069   0.426  1.00  0.00     0.039 C 
BRANCH   8  15
ATOM     15  N   UNL     1      -3.292  -0.144   0.249  1.00  0.00    -0.354 N 
ATOM     16  H   UNL     1      -3.432  -0.056   1.220  1.00  0.00     0.163 HD
BRANCH  15  17
ATOM     17  C   UNL     1      -4.402  -0.307  -0.560  1.00  0.00     0.149 A 
ATOM     18  C   UNL     1      -4.493  -1.262  -1.563  1.00  0.00     0.051 A 
ATOM     19  N   UNL     1      -5.386   0.610  -0.421  1.00  0.00    -0.132 NA
ATOM     20  C   UNL     1      -5.526  -1.187  -2.498  1.00  0.00     0.040 A 
ATOM     21  N   UNL     1      -6.406   0.708  -1.345  1.00  0.00    -0.143 NA
ATOM     22  C   UNL     1      -6.447  -0.163  -2.377  1.00  0.00     0.150 A 
BRANCH  22  23
ATOM     23  C   UNL     1      -7.476   0.072  -3.428  1.00  0.00     0.269 C 
ATOM     24  N   UNL     1      -8.254   1.188  -3.287  1.00  0.00    -0.364 N 
ATOM     25  O   UNL     1      -7.601  -0.679  -4.392  1.00  0.00    -0.268 OA
ATOM     26  H   UNL     1      -8.135   1.776  -2.506  1.00  0.00     0.160 HD
ATOM     27  H   UNL     1      -8.932   1.405  -3.966  1.00  0.00     0.160 HD
ENDBRANCH  22  23
ENDBRANCH  15  17
ENDBRANCH   8  15
ENDBRANCH   5   8
ENDBRANCH   3   4
ENDBRANCH   2   3
ENDBRANCH   1   2
BRANCH   1  28
ATOM     28  C   UNL     1      -4.056   3.823  -4.418  1.00  0.00     0.002 C 
BRANCH  28  29
ATOM     29  C   UNL     1      -4.944   4.823  -3.670  1.00  0.00     0.021 C 
BRANCH  29  30
ATOM     30  C   UNL     1      -4.442   6.262  -3.720  1.00  0.00     0.116 C 
BRANCH  30  31
ATOM     31  N   UNL     1      -4.297   6.731  -5.087  1.00  0.00    -0.352 N 
ATOM     32  C   UNL     1      -4.759   7.880  -5.671  1.00  0.00     0.251 C 
ATOM     33  H   UNL     1      -3.791   6.133  -5.683  1.00  0.00     0.163 HD
ATOM     34  O   UNL     1      -4.726   7.992  -6.893  1.00  0.00    -0.269 OA
BRANCH  32  35
ATOM     35  C   UNL     1      -5.300   8.974  -4.838  1.00  0.00     0.039 A 
ATOM     36  C   UNL     1      -6.426   9.661  -5.295  1.00  0.00     0.014 A 
ATOM     37  C   UNL     1      -4.690   9.347  -3.635  1.00  0.00     0.014 A 
ATOM     38  C   UNL     1      -6.956  10.700  -4.531  1.00  0.00     0.010 A 
ATOM     39  C   UNL     1      -5.268  10.330  -2.836  1.00  0.00     0.010 A 
ATOM     40  C   UNL     1      -6.398  11.028  -3.282  1.00  0.00    -0.014 A 
BRANCH  40  41
ATOM     41  C   UNL     1      -7.020  12.085  -2.445  1.00  0.00     0.031 A 
ATOM     42  C   UNL     1      -6.274  13.346  -2.104  1.00  0.00     0.074 A 
ATOM     43  C   UNL     1      -8.265  11.889  -1.968  1.00  0.00     0.049 A 
ATOM     44  N   UNL     1      -6.701  14.402  -1.461  1.00  0.00    -0.248 NA
ATOM     45  C   UNL     1      -4.864  13.428  -2.517  1.00  0.00     0.031 C 
ATOM     46  C   UNL     1      -9.053  10.666  -2.146  1.00  0.00     0.029 A 
ATOM     47  N   UNL     1      -9.085  12.709  -1.237  1.00  0.00    -0.354 N 
ATOM     48  C   UNL     1      -5.613  15.262  -1.372  1.00  0.00     0.074 A 
ATOM     49  C   UNL     1      -4.493  14.587  -1.991  1.00  0.00     0.031 C 
ATOM     50  C   UNL     1     -10.253  10.829  -1.568  1.00  0.00     0.029 A 
ATOM     51  C   UNL     1     -10.312  12.153  -0.958  1.00  0.00     0.049 A 
ATOM     52  H   UNL     1      -8.821  13.610  -0.940  1.00  0.00     0.167 HD
ATOM     53  C   UNL     1      -5.558  16.512  -0.852  1.00  0.00     0.034 A 
ATOM     54  C   UNL     1     -11.369  12.656  -0.292  1.00  0.00     0.034 A 
ATOM     55  C   UNL     1      -6.682  17.189  -0.261  1.00  0.00     0.049 A 
ATOM     56  C   UNL     1     -11.298  14.064   0.229  1.00  0.00     0.074 A 
ATOM     57  C   UNL     1      -6.753  18.486   0.215  1.00  0.00     0.029 A 
ATOM     58  N   UNL     1      -7.928  16.619  -0.050  1.00  0.00    -0.354 N 
ATOM     59  N   UNL     1     -10.315  14.928   0.144  1.00  0.00    -0.248 NA
ATOM     60  C   UNL     1     -12.498  14.581   0.900  1.00  0.00     0.031 C 
ATOM     61  C   UNL     1      -8.032  18.689   0.746  1.00  0.00     0.029 A 
ATOM     62  C   UNL     1      -8.771  17.531   0.565  1.00  0.00     0.049 A 
ATOM     63  H   UNL     1      -8.178  15.700  -0.300  1.00  0.00     0.167 HD
ATOM     64  C   UNL     1     -10.786  16.099   0.726  1.00  0.00     0.074 A 
ATOM     65  C   UNL     1     -12.156  15.842   1.125  1.00  0.00     0.031 C 
ATOM     66  C   UNL     1     -10.140  17.274   0.930  1.00  0.00     0.034 A 
BRANCH  53  67
ATOM     67  C   UNL     1      -4.245  17.251  -0.941  1.00  0.00     0.023 A 
ATOM     68  C   UNL     1      -3.777  17.694  -2.196  1.00  0.00     0.012 A 
ATOM     69  C   UNL     1      -3.506  17.561   0.218  1.00  0.00     0.148 A 
ATOM     70  C   UNL     1      -2.580  18.401  -2.301  1.00  0.00     0.002 A 
ATOM     71  C   UNL     1      -2.338  18.307   0.111  1.00  0.00     0.091 A 
ATOM     72  F   UNL     1      -3.954  17.115   1.400  1.00  0.00    -0.205 F 
ATOM     73  C   UNL     1      -1.867  18.716  -1.148  1.00  0.00     0.022 A 
BRANCH  71  74
ATOM     74  S   UNL     1      -1.388  18.835   1.541  1.00  0.00     0.127 S 
ATOM     75  O   UNL     1      -0.174  18.031   1.402  1.00  0.00    -0.237 OA
ATOM     76  O   UNL     1      -1.207  20.263   1.278  1.00  0.00    -0.237 OA
ATOM     77  O   UNL     1      -2.208  18.530   2.705  1.00  0.00    -0.744 OA
ENDBRANCH  71  74
ENDBRANCH  53  67
BRANCH  54  78
ATOM     78  C   UNL     1     -12.609  11.843  -0.143  1.00  0.00     0.023 A 
ATOM     79  C   UNL     1     -13.778  12.221  -0.831  1.00  0.00     0.012 A 
ATOM     80  C   UNL     1     -12.626  10.684   0.656  1.00  0.00     0.148 A 
ATOM     81  C   UNL     1     -14.953  11.480  -0.697  1.00  0.00     0.002 A 
ATOM     82  C   UNL     1     -13.781   9.917   0.737  1.00  0.00     0.091 A 
ATOM     83  F   UNL     1     -11.505  10.347   1.309  1.00  0.00    -0.205 F 
ATOM     84  C   UNL     1     -14.952  10.323   0.078  1.00  0.00     0.022 A 
BRANCH  82  85
ATOM     85  S   UNL     1     -13.830   8.341   1.596  1.00  0.00     0.127 S 
ATOM     86  O   UNL     1     -14.673   8.653   2.747  1.00  0.00    -0.237 OA
ATOM     87  O   UNL     1     -14.448   7.471   0.595  1.00  0.00    -0.237 OA
ATOM     88  O   UNL     1     -12.442   8.015   1.899  1.00  0.00    -0.744 OA
ENDBRANCH  82  85
ENDBRANCH  54  78
BRANCH  66  89
ATOM     89  C   UNL     1     -10.917  18.379   1.600  1.00  0.00     0.023 A 
ATOM     90  C   UNL     1     -11.273  18.264   2.960  1.00  0.00     0.012 A 
ATOM     91  C   UNL     1     -11.270  19.545   0.892  1.00  0.00     0.148 A 
ATOM     92  C   UNL     1     -12.014  19.264   3.588  1.00  0.00     0.002 A 
ATOM     93  C   UNL     1     -11.960  20.562   1.540  1.00  0.00     0.091 A 
ATOM     94  F   UNL     1     -10.940  19.632  -0.404  1.00  0.00    -0.205 F 
ATOM     95  C   UNL     1     -12.349  20.416   2.882  1.00  0.00     0.022 A 
BRANCH  93  96
ATOM     96  S   UNL     1     -12.348  22.122   0.738  1.00  0.00     0.127 S 
ATOM     97  O   UNL     1     -13.783  21.985   0.498  1.00  0.00    -0.237 OA
ATOM     98  O   UNL     1     -11.992  23.098   1.768  1.00  0.00    -0.237 OA
ATOM     99  O   UNL     1     -11.514  22.175  -0.455  1.00  0.00    -0.744 OA
ENDBRANCH  93  96
ENDBRANCH  66  89
ENDBRANCH  40  41
ENDBRANCH  32  35
ENDBRANCH  30  31
ENDBRANCH  29  30
ENDBRANCH  28  29
ENDBRANCH   1  28
TORSDOF 19
