REMARK SMILES Cc1ccc(-c2cnnc(-n3nc(C)c4c3NC(=O)C[C@@H]4c3ccc(C(=O)NCCCCCCNC(=O)c4ccc(-c5c6nc(c(-c7cccc(S(=O)(=O)[O-])c7F)c7ccc([nH]7)c(-c7cccc(S(=O)(=O)[O-])c7F)c7nc(c(-c8cccc(S(=O)(=O)[O-])c8F)c8ccc5[nH]8)C=C7)C=C6)cc4)cc3)n2)cc1
REMARK SMILES IDX 31 1 30 2 29 3 28 4 26 5 27 6 25 8 22 9 23 10 102 11 24 12
REMARK SMILES IDX 101 13 21 14 11 15 12 16 16 17 13 18 15 19 17 20 14 21 18 22
REMARK SMILES IDX 20 24 19 25 10 26 6 27 7 28 103 29 8 30 9 31 5 32 1 33 2 34
REMARK SMILES IDX 3 35 105 36 4 37 104 38 32 39 33 40 34 41 35 42 36 43 37 45
REMARK SMILES IDX 38 46 39 47 100 48 40 49 99 50 41 51 42 52 43 53 93 54 44 55
REMARK SMILES IDX 98 56 92 57 94 58 45 59 97 60 91 61 90 62 46 64 78 65 58 66
REMARK SMILES IDX 77 67 59 68 62 69 76 70 95 71 60 72 61 73 75 75 96 76 63 77
REMARK SMILES IDX 47 78 48 79 56 80 49 81 51 82 57 83 50 84 52 85 53 86 54 87
REMARK SMILES IDX 55 88 79 89 80 90 88 91 81 92 83 93 89 94 82 95 84 96 85 97
REMARK SMILES IDX 86 98 87 99 64 100 65 101 73 102 66 103 68 104 74 105 67 106
REMARK SMILES IDX 69 107 70 108 71 109 72 110
REMARK H PARENT 28 7 17 23 35 44 94 63 62 74
REMARK Flexibility Score: inf
ROOT
ATOM      1  C   UNL     1     -12.575   7.866  -6.274  1.00  0.00     0.002 C 
ENDROOT
BRANCH   1   2
ATOM      2  C   UNL     1     -11.456   6.884  -5.898  1.00  0.00     0.021 C 
BRANCH   2   3
ATOM      3  C   UNL     1     -11.697   5.459  -6.398  1.00  0.00     0.116 C 
BRANCH   3   4
ATOM      4  N   UNL     1     -11.561   5.382  -7.846  1.00  0.00    -0.352 N 
ATOM      5  C   UNL     1     -10.656   4.718  -8.635  1.00  0.00     0.251 C 
ATOM      6  O   UNL     1     -10.825   4.670  -9.851  1.00  0.00    -0.269 OA
ATOM      7  H   UNL     1     -12.236   5.895  -8.345  1.00  0.00     0.163 HD
BRANCH   5   8
ATOM      8  C   UNL     1      -9.523   3.982  -8.034  1.00  0.00     0.039 A 
ATOM      9  C   UNL     1      -7.694   2.344  -6.680  1.00  0.00    -0.040 A 
ATOM     10  C   UNL     1      -8.308   1.903  -7.867  1.00  0.00     0.005 A 
ATOM     11  C   UNL     1      -7.864   3.685  -6.308  1.00  0.00     0.005 A 
ATOM     12  C   UNL     1      -9.213   2.720  -8.544  1.00  0.00     0.014 A 
ATOM     13  C   UNL     1      -8.780   4.495  -6.974  1.00  0.00     0.014 A 
BRANCH   9  14
ATOM     14  C   UNL     1      -6.932   1.326  -5.859  1.00  0.00     0.064 C 
ATOM     15  N   UNL     1      -5.833   2.109  -2.504  1.00  0.00    -0.180 N 
ATOM     16  N   UNL     1      -7.129   2.471  -2.300  1.00  0.00    -0.168 NA
ATOM     17  C   UNL     1      -5.585   2.107  -3.868  1.00  0.00     0.143 A 
ATOM     18  C   UNL     1      -7.744   2.174  -3.447  1.00  0.00     0.066 A 
ATOM     19  C   UNL     1      -6.804   1.790  -4.444  1.00  0.00     0.026 A 
ATOM     20  N   UNL     1      -4.483   2.368  -4.662  1.00  0.00    -0.310 N 
ATOM     21  C   UNL     1      -9.206   2.420  -3.527  1.00  0.00     0.069 C 
ATOM     22  C   UNL     1      -4.572   2.074  -6.068  1.00  0.00     0.226 C 
ATOM     23  H   UNL     1      -3.659   2.744  -4.276  1.00  0.00     0.171 HD
ATOM     24  C   UNL     1      -5.561   0.996  -6.446  1.00  0.00     0.113 C 
ATOM     25  O   UNL     1      -3.791   2.609  -6.818  1.00  0.00    -0.275 OA
BRANCH  15  26
ATOM     26  C   UNL     1      -5.128   1.385  -1.493  1.00  0.00     0.272 A 
ATOM     27  C   UNL     1      -3.300   0.341  -0.611  1.00  0.00     0.095 A 
ATOM     28  C   UNL     1      -4.116  -0.281   0.320  1.00  0.00     0.164 A 
ATOM     29  N   UNL     1      -3.801   1.149  -1.591  1.00  0.00    -0.208 NA
ATOM     30  N   UNL     1      -5.435  -0.065   0.336  1.00  0.00    -0.153 NA
ATOM     31  N   UNL     1      -5.934   0.814  -0.555  1.00  0.00    -0.109 NA
BRANCH  27  32
ATOM     32  C   UNL     1      -1.841   0.229  -0.498  1.00  0.00     0.002 A 
ATOM     33  C   UNL     1       2.445  -0.027   0.073  1.00  0.00     0.044 C 
ATOM     34  C   UNL     1       0.959   0.067  -0.101  1.00  0.00    -0.051 A 
ATOM     35  C   UNL     1       0.186  -1.096  -0.179  1.00  0.00     0.004 A 
ATOM     36  C   UNL     1       0.327   1.309  -0.203  1.00  0.00     0.004 A 
ATOM     37  C   UNL     1      -1.198  -1.016  -0.373  1.00  0.00     0.011 A 
ATOM     38  C   UNL     1      -1.054   1.387  -0.403  1.00  0.00     0.011 A 
ENDBRANCH  27  32
ENDBRANCH  15  26
ENDBRANCH   9  14
ENDBRANCH   5   8
ENDBRANCH   3   4
ENDBRANCH   2   3
ENDBRANCH   1   2
BRANCH   1  39
ATOM     39  C   UNL     1     -13.989   7.458  -5.831  1.00  0.00     0.002 C 
BRANCH  39  40
ATOM     40  C   UNL     1     -14.122   7.046  -4.365  1.00  0.00     0.021 C 
BRANCH  40  41
ATOM     41  C   UNL     1     -13.886   8.196  -3.409  1.00  0.00     0.116 C 
BRANCH  41  42
ATOM     42  N   UNL     1     -15.062   9.024  -3.241  1.00  0.00    -0.352 N 
ATOM     43  C   UNL     1     -15.360   9.936  -2.249  1.00  0.00     0.251 C 
ATOM     44  H   UNL     1     -15.750   8.921  -3.938  1.00  0.00     0.163 HD
ATOM     45  O   UNL     1     -16.541  10.206  -2.054  1.00  0.00    -0.269 OA
BRANCH  43  46
ATOM     46  C   UNL     1     -14.271  10.718  -1.604  1.00  0.00     0.039 A 
ATOM     47  C   UNL     1     -14.554  12.061  -1.319  1.00  0.00     0.014 A 
ATOM     48  C   UNL     1     -12.951  10.302  -1.700  1.00  0.00     0.014 A 
ATOM     49  C   UNL     1     -13.554  13.012  -1.461  1.00  0.00     0.010 A 
ATOM     50  C   UNL     1     -12.008  11.232  -2.027  1.00  0.00     0.010 A 
ATOM     51  C   UNL     1     -12.334  12.585  -1.957  1.00  0.00    -0.014 A 
BRANCH  51  52
ATOM     52  C   UNL     1     -11.210  13.430  -2.262  1.00  0.00     0.031 A 
ATOM     53  C   UNL     1     -10.277  13.675  -1.143  1.00  0.00     0.074 A 
ATOM     54  C   UNL     1     -10.927  13.628  -3.570  1.00  0.00     0.049 A 
ATOM     55  N   UNL     1      -9.377  14.587  -1.139  1.00  0.00    -0.248 NA
ATOM     56  C   UNL     1     -10.303  12.895   0.100  1.00  0.00     0.031 C 
ATOM     57  C   UNL     1      -9.637  13.973  -4.149  1.00  0.00     0.029 A 
ATOM     58  N   UNL     1     -11.798  13.674  -4.670  1.00  0.00    -0.354 N 
ATOM     59  C   UNL     1      -8.526  14.313  -0.085  1.00  0.00     0.074 A 
ATOM     60  C   UNL     1      -9.209  13.340   0.724  1.00  0.00     0.031 C 
ATOM     61  C   UNL     1      -9.836  14.483  -5.378  1.00  0.00     0.029 A 
ATOM     62  C   UNL     1     -11.272  14.656  -5.528  1.00  0.00     0.049 A 
ATOM     63  H   UNL     1     -12.608  13.133  -4.810  1.00  0.00     0.167 HD
ATOM     64  C   UNL     1      -7.258  14.804  -0.143  1.00  0.00     0.034 A 
ATOM     65  C   UNL     1     -11.887  15.856  -5.775  1.00  0.00     0.034 A 
ATOM     66  C   UNL     1      -7.099  15.568  -1.386  1.00  0.00     0.049 A 
ATOM     67  C   UNL     1     -11.037  17.035  -5.326  1.00  0.00     0.074 A 
ATOM     68  C   UNL     1      -6.621  15.199  -2.632  1.00  0.00     0.029 A 
ATOM     69  N   UNL     1      -7.792  16.757  -1.555  1.00  0.00    -0.354 N 
ATOM     70  N   UNL     1     -10.066  16.932  -4.460  1.00  0.00    -0.248 NA
ATOM     71  C   UNL     1     -11.178  18.399  -5.829  1.00  0.00     0.031 C 
ATOM     72  C   UNL     1      -7.085  16.153  -3.571  1.00  0.00     0.029 A 
ATOM     73  C   UNL     1      -7.823  17.109  -2.893  1.00  0.00     0.049 A 
ATOM     74  H   UNL     1      -8.204  17.277  -0.827  1.00  0.00     0.167 HD
ATOM     75  C   UNL     1      -9.490  18.154  -4.244  1.00  0.00     0.074 A 
ATOM     76  C   UNL     1     -10.204  19.036  -5.151  1.00  0.00     0.031 C 
ATOM     77  C   UNL     1      -8.489  18.330  -3.325  1.00  0.00     0.034 A 
BRANCH  64  78
ATOM     78  C   UNL     1      -6.060  14.372   0.684  1.00  0.00     0.023 A 
ATOM     79  C   UNL     1      -4.790  14.675   0.133  1.00  0.00     0.012 A 
ATOM     80  C   UNL     1      -6.048  13.679   1.916  1.00  0.00     0.148 A 
ATOM     81  C   UNL     1      -3.589  14.261   0.708  1.00  0.00     0.002 A 
ATOM     82  C   UNL     1      -4.842  13.241   2.485  1.00  0.00     0.091 A 
ATOM     83  F   UNL     1      -7.189  13.475   2.579  1.00  0.00    -0.205 F 
ATOM     84  C   UNL     1      -3.615  13.526   1.878  1.00  0.00     0.022 A 
BRANCH  82  85
ATOM     85  S   UNL     1      -4.759  12.253   3.992  1.00  0.00     0.127 S 
ATOM     86  O   UNL     1      -3.989  11.088   3.549  1.00  0.00    -0.237 OA
ATOM     87  O   UNL     1      -4.043  13.138   4.909  1.00  0.00    -0.237 OA
ATOM     88  O   UNL     1      -6.136  11.951   4.361  1.00  0.00    -0.744 OA
ENDBRANCH  82  85
ENDBRANCH  64  78
BRANCH  65  89
ATOM     89  C   UNL     1     -13.378  15.785  -5.711  1.00  0.00     0.023 A 
ATOM     90  C   UNL     1     -14.004  14.964  -6.679  1.00  0.00     0.012 A 
ATOM     91  C   UNL     1     -14.073  16.092  -4.528  1.00  0.00     0.148 A 
ATOM     92  C   UNL     1     -15.189  14.290  -6.382  1.00  0.00     0.002 A 
ATOM     93  C   UNL     1     -15.265  15.425  -4.245  1.00  0.00     0.091 A 
ATOM     94  F   UNL     1     -13.527  16.961  -3.669  1.00  0.00    -0.205 F 
ATOM     95  C   UNL     1     -15.788  14.479  -5.142  1.00  0.00     0.022 A 
BRANCH  93  96
ATOM     96  S   UNL     1     -16.124  15.644  -2.680  1.00  0.00     0.127 S 
ATOM     97  O   UNL     1     -17.128  16.642  -3.035  1.00  0.00    -0.237 OA
ATOM     98  O   UNL     1     -16.655  14.307  -2.422  1.00  0.00    -0.237 OA
ATOM     99  O   UNL     1     -15.096  16.070  -1.743  1.00  0.00    -0.744 OA
ENDBRANCH  93  96
ENDBRANCH  65  89
BRANCH  77 100
ATOM    100  C   UNL     1      -8.004  19.658  -2.771  1.00  0.00     0.023 A 
ATOM    101  C   UNL     1      -8.747  20.843  -2.913  1.00  0.00     0.012 A 
ATOM    102  C   UNL     1      -6.848  19.734  -1.944  1.00  0.00     0.148 A 
ATOM    103  C   UNL     1      -8.335  22.050  -2.338  1.00  0.00     0.002 A 
ATOM    104  C   UNL     1      -6.518  20.902  -1.267  1.00  0.00     0.091 A 
ATOM    105  F   UNL     1      -6.033  18.677  -1.822  1.00  0.00    -0.205 F 
ATOM    106  C   UNL     1      -7.234  22.076  -1.494  1.00  0.00     0.022 A 
BRANCH 104 107
ATOM    107  S   UNL     1      -5.274  20.910   0.033  1.00  0.00     0.127 S 
ATOM    108  O   UNL     1      -4.107  21.434  -0.672  1.00  0.00    -0.237 OA
ATOM    109  O   UNL     1      -5.858  21.827   1.014  1.00  0.00    -0.237 OA
ATOM    110  O   UNL     1      -5.183  19.529   0.488  1.00  0.00    -0.744 OA
ENDBRANCH 104 107
ENDBRANCH  77 100
ENDBRANCH  51  52
ENDBRANCH  43  46
ENDBRANCH  41  42
ENDBRANCH  40  41
ENDBRANCH  39  40
ENDBRANCH   1  39
TORSDOF 19
