REMARK SMILES CC[NH2+][C@]1(C(=O)NCCCCCCNC(=O)c2ccc(-c3c4nc(c(-c5cccc(S(=O)(=O)[O-])c5F)c5ccc([nH]5)c(-c5cccc(S(=O)(=O)[O-])c5F)c5nc(c(-c6cccc(S(=O)(=O)[O-])c6F)c6ccc3[nH]6)C=C5)C=C4)cc2)CCC[C@@H]1CCSc1ccc(C)cc1
REMARK SMILES IDX 10 1 9 2 8 3 7 4 5 5 6 6 4 8 80 9 83 10 81 11 82 12 3 13
REMARK SMILES IDX 2 16 1 17 84 18 85 19 86 20 87 21 88 22 93 23 89 24 92 25
REMARK SMILES IDX 90 26 91 27 11 28 12 29 13 30 14 31 15 32 16 34 17 35 18 36
REMARK SMILES IDX 79 37 19 38 78 39 20 40 21 41 22 42 72 43 23 44 77 45 71 46
REMARK SMILES IDX 73 47 24 48 76 49 70 50 69 51 25 53 57 54 37 55 56 56 38 57
REMARK SMILES IDX 41 58 55 59 74 60 39 61 40 62 54 64 75 65 42 66 26 67 27 68
REMARK SMILES IDX 35 69 28 70 30 71 36 72 29 73 31 74 32 75 33 76 34 77 58 78
REMARK SMILES IDX 59 79 67 80 60 81 62 82 68 83 61 84 63 85 64 86 65 87 66 88
REMARK SMILES IDX 43 89 44 90 52 91 45 92 47 93 53 94 46 95 48 96 49 97 50 98
REMARK SMILES IDX 51 99
REMARK H PARENT 7 7 3 14 3 15 14 33 73 52 41 63
REMARK Flexibility Score: inf
ROOT
ATOM      1  C   UNL     1      -0.372  -2.007  -4.017  1.00  0.00     0.002 C 
ENDROOT
BRANCH   1   2
ATOM      2  C   UNL     1      -0.495  -0.511  -4.310  1.00  0.00     0.021 C 
BRANCH   2   3
ATOM      3  C   UNL     1      -0.794   0.308  -3.068  1.00  0.00     0.116 C 
BRANCH   3   4
ATOM      4  N   UNL     1       0.390   0.489  -2.255  1.00  0.00    -0.351 N 
ATOM      5  C   UNL     1       0.909   1.589  -1.637  1.00  0.00     0.281 C 
ATOM      6  O   UNL     1       1.980   1.417  -1.044  1.00  0.00    -0.268 OA
ATOM      7  H   UNL     1       0.917  -0.332  -2.124  1.00  0.00     0.163 HD
BRANCH   5   8
ATOM      8  C   UNL     1       0.175   2.966  -1.648  1.00  0.00     0.178 C 
ATOM      9  C   UNL     1       0.858   3.899  -0.598  1.00  0.00     0.079 C 
ATOM     10  C   UNL     1       0.443   3.871  -2.918  1.00  0.00     0.061 C 
ATOM     11  C   UNL     1       0.479   5.324  -0.999  1.00  0.00     0.008 C 
ATOM     12  C   UNL     1      -0.122   5.193  -2.392  1.00  0.00     0.011 C 
BRANCH   8  13
ATOM     13  N   UNL     1      -1.291   2.771  -1.396  1.00  0.00    -0.334 N 
ATOM     14  H   UNL     1      -1.792   3.280  -2.124  1.00  0.00     0.347 HD
ATOM     15  H   UNL     1      -1.413   1.759  -1.394  1.00  0.00     0.347 HD
BRANCH  13  16
ATOM     16  C   UNL     1      -1.837   3.203  -0.111  1.00  0.00     0.257 C 
ATOM     17  C   UNL     1      -3.338   2.956  -0.098  1.00  0.00     0.071 C 
ENDBRANCH  13  16
ENDBRANCH   8  13
BRANCH  10  18
ATOM     18  C   UNL     1      -0.035   3.476  -4.329  1.00  0.00     0.022 C 
BRANCH  18  19
ATOM     19  C   UNL     1      -0.411   4.587  -5.335  1.00  0.00     0.075 C 
BRANCH  19  20
ATOM     20  S   UNL     1       0.924   5.433  -6.276  1.00  0.00    -0.126 SA
BRANCH  20  21
ATOM     21  C   UNL     1       1.624   6.498  -5.038  1.00  0.00     0.007 A 
ATOM     22  C   UNL     1       2.803   6.083  -4.418  1.00  0.00     0.015 A 
ATOM     23  C   UNL     1       0.995   7.672  -4.605  1.00  0.00     0.015 A 
ATOM     24  C   UNL     1       3.282   6.752  -3.293  1.00  0.00     0.004 A 
ATOM     25  C   UNL     1       1.475   8.344  -3.470  1.00  0.00     0.004 A 
ATOM     26  C   UNL     1       2.603   7.868  -2.789  1.00  0.00    -0.051 A 
ATOM     27  C   UNL     1       3.014   8.445  -1.466  1.00  0.00     0.044 C 
ENDBRANCH  20  21
ENDBRANCH  19  20
ENDBRANCH  18  19
ENDBRANCH  10  18
ENDBRANCH   5   8
ENDBRANCH   3   4
ENDBRANCH   2   3
ENDBRANCH   1   2
BRANCH   1  28
ATOM     28  C   UNL     1      -1.583  -2.618  -3.300  1.00  0.00     0.002 C 
BRANCH  28  29
ATOM     29  C   UNL     1      -2.935  -2.319  -3.953  1.00  0.00     0.021 C 
BRANCH  29  30
ATOM     30  C   UNL     1      -3.017  -2.727  -5.418  1.00  0.00     0.116 C 
BRANCH  30  31
ATOM     31  N   UNL     1      -2.759  -4.147  -5.589  1.00  0.00    -0.352 N 
ATOM     32  C   UNL     1      -3.535  -5.090  -6.214  1.00  0.00     0.251 C 
ATOM     33  H   UNL     1      -1.914  -4.476  -5.206  1.00  0.00     0.163 HD
ATOM     34  O   UNL     1      -3.298  -6.281  -6.070  1.00  0.00    -0.269 OA
BRANCH  32  35
ATOM     35  C   UNL     1      -4.662  -4.641  -7.054  1.00  0.00     0.039 A 
ATOM     36  C   UNL     1      -5.902  -5.268  -6.920  1.00  0.00     0.014 A 
ATOM     37  C   UNL     1      -4.489  -3.593  -7.963  1.00  0.00     0.014 A 
ATOM     38  C   UNL     1      -6.983  -4.816  -7.676  1.00  0.00     0.010 A 
ATOM     39  C   UNL     1      -5.585  -3.092  -8.652  1.00  0.00     0.010 A 
ATOM     40  C   UNL     1      -6.838  -3.711  -8.531  1.00  0.00    -0.014 A 
BRANCH  40  41
ATOM     41  C   UNL     1      -7.977  -3.197  -9.331  1.00  0.00     0.031 A 
ATOM     42  C   UNL     1      -7.901  -3.218 -10.834  1.00  0.00     0.074 A 
ATOM     43  C   UNL     1      -9.032  -2.636  -8.710  1.00  0.00     0.049 A 
ATOM     44  N   UNL     1      -8.746  -2.739 -11.708  1.00  0.00    -0.248 NA
ATOM     45  C   UNL     1      -6.703  -3.832 -11.434  1.00  0.00     0.031 C 
ATOM     46  C   UNL     1      -9.187  -2.497  -7.260  1.00  0.00     0.029 A 
ATOM     47  N   UNL     1     -10.162  -2.049  -9.221  1.00  0.00    -0.354 N 
ATOM     48  C   UNL     1      -8.166  -2.955 -12.953  1.00  0.00     0.074 A 
ATOM     49  C   UNL     1      -6.882  -3.576 -12.722  1.00  0.00     0.031 C 
ATOM     50  C   UNL     1     -10.344  -1.867  -6.999  1.00  0.00     0.029 A 
ATOM     51  C   UNL     1     -10.993  -1.523  -8.260  1.00  0.00     0.049 A 
ATOM     52  H   UNL     1     -10.360  -2.009 -10.185  1.00  0.00     0.167 HD
ATOM     53  C   UNL     1      -8.670  -2.684 -14.180  1.00  0.00     0.034 A 
ATOM     54  C   UNL     1     -12.141  -0.827  -8.382  1.00  0.00     0.034 A 
ATOM     55  C   UNL     1      -9.965  -2.104 -14.404  1.00  0.00     0.049 A 
ATOM     56  C   UNL     1     -12.691  -0.565  -9.759  1.00  0.00     0.074 A 
ATOM     57  C   UNL     1     -10.603  -1.867 -15.608  1.00  0.00     0.029 A 
ATOM     58  N   UNL     1     -10.817  -1.663 -13.404  1.00  0.00    -0.354 N 
ATOM     59  N   UNL     1     -12.196  -0.907 -10.924  1.00  0.00    -0.248 NA
ATOM     60  C   UNL     1     -13.976   0.144  -9.839  1.00  0.00     0.031 C 
ATOM     61  C   UNL     1     -11.828  -1.250 -15.337  1.00  0.00     0.029 A 
ATOM     62  C   UNL     1     -11.972  -1.145 -13.963  1.00  0.00     0.049 A 
ATOM     63  H   UNL     1     -10.628  -1.711 -12.439  1.00  0.00     0.167 HD
ATOM     64  C   UNL     1     -13.129  -0.498 -11.870  1.00  0.00     0.074 A 
ATOM     65  C   UNL     1     -14.225   0.107 -11.141  1.00  0.00     0.031 C 
ATOM     66  C   UNL     1     -13.081  -0.605 -13.220  1.00  0.00     0.034 A 
BRANCH  53  67
ATOM     67  C   UNL     1      -7.836  -3.049 -15.380  1.00  0.00     0.023 A 
ATOM     68  C   UNL     1      -7.643  -4.406 -15.713  1.00  0.00     0.012 A 
ATOM     69  C   UNL     1      -7.301  -2.050 -16.216  1.00  0.00     0.148 A 
ATOM     70  C   UNL     1      -6.903  -4.763 -16.839  1.00  0.00     0.002 A 
ATOM     71  C   UNL     1      -6.607  -2.413 -17.364  1.00  0.00     0.091 A 
ATOM     72  F   UNL     1      -7.478  -0.766 -15.873  1.00  0.00    -0.205 F 
ATOM     73  C   UNL     1      -6.395  -3.768 -17.670  1.00  0.00     0.022 A 
BRANCH  71  74
ATOM     74  S   UNL     1      -5.987  -1.210 -18.545  1.00  0.00     0.127 S 
ATOM     75  O   UNL     1      -4.541  -1.355 -18.381  1.00  0.00    -0.237 OA
ATOM     76  O   UNL     1      -6.512  -1.724 -19.810  1.00  0.00    -0.237 OA
ATOM     77  O   UNL     1      -6.534   0.076 -18.136  1.00  0.00    -0.744 OA
ENDBRANCH  71  74
ENDBRANCH  53  67
BRANCH  54  78
ATOM     78  C   UNL     1     -12.874  -0.369  -7.168  1.00  0.00     0.023 A 
ATOM     79  C   UNL     1     -14.117  -0.949  -6.847  1.00  0.00     0.012 A 
ATOM     80  C   UNL     1     -12.345   0.629  -6.327  1.00  0.00     0.148 A 
ATOM     81  C   UNL     1     -14.840  -0.512  -5.736  1.00  0.00     0.002 A 
ATOM     82  C   UNL     1     -13.043   1.018  -5.190  1.00  0.00     0.091 A 
ATOM     83  F   UNL     1     -11.164   1.174  -6.653  1.00  0.00    -0.205 F 
ATOM     84  C   UNL     1     -14.300   0.464  -4.904  1.00  0.00     0.022 A 
BRANCH  82  85
ATOM     85  S   UNL     1     -12.366   2.174  -3.993  1.00  0.00     0.127 S 
ATOM     86  O   UNL     1     -13.216   3.345  -4.194  1.00  0.00    -0.237 OA
ATOM     87  O   UNL     1     -12.583   1.463  -2.732  1.00  0.00    -0.237 OA
ATOM     88  O   UNL     1     -10.965   2.339  -4.354  1.00  0.00    -0.744 OA
ENDBRANCH  82  85
ENDBRANCH  54  78
BRANCH  66  89
ATOM     89  C   UNL     1     -14.270  -0.125 -14.008  1.00  0.00     0.023 A 
ATOM     90  C   UNL     1     -14.526   1.254 -14.139  1.00  0.00     0.012 A 
ATOM     91  C   UNL     1     -15.082  -1.049 -14.696  1.00  0.00     0.148 A 
ATOM     92  C   UNL     1     -15.590   1.704 -14.920  1.00  0.00     0.002 A 
ATOM     93  C   UNL     1     -16.106  -0.592 -15.515  1.00  0.00     0.091 A 
ATOM     94  F   UNL     1     -14.831  -2.358 -14.543  1.00  0.00    -0.205 F 
ATOM     95  C   UNL     1     -16.370   0.783 -15.617  1.00  0.00     0.022 A 
BRANCH  93  96
ATOM     96  S   UNL     1     -17.093  -1.696 -16.531  1.00  0.00     0.127 S 
ATOM     97  O   UNL     1     -18.396  -1.621 -15.871  1.00  0.00    -0.237 OA
ATOM     98  O   UNL     1     -17.034  -1.045 -17.840  1.00  0.00    -0.237 OA
ATOM     99  O   UNL     1     -16.439  -2.995 -16.469  1.00  0.00    -0.744 OA
ENDBRANCH  93  96
ENDBRANCH  66  89
ENDBRANCH  40  41
ENDBRANCH  32  35
ENDBRANCH  30  31
ENDBRANCH  29  30
ENDBRANCH  28  29
ENDBRANCH   1  28
TORSDOF 22
