REMARK SMILES C[C@H]1[C@@H](C(=O)NCCCCCCNC(=O)c2ccc(-c3c4nc(c(-c5cccc(S(=O)(=O)[O-])c5F)c5ccc([nH]5)c(-c5cccc(S(=O)(=O)[O-])c5F)c5nc(c(-c6cccc(S(=O)(=O)[O-])c6F)c6ccc3[nH]6)C=C5)C=C4)cc2)CC[N@@H+]1CC(=O)NNC(=O)c1cccs1
REMARK SMILES IDX 9 1 8 2 7 3 6 4 4 5 5 6 3 8 1 9 2 10 81 11 79 12 80 13 82 15
REMARK SMILES IDX 83 16 84 17 85 18 86 20 87 21 88 23 89 24 90 25 93 26 91 27
REMARK SMILES IDX 92 28 10 29 11 30 12 31 13 32 14 33 15 35 16 36 17 37 78 38
REMARK SMILES IDX 18 39 77 40 19 41 20 42 21 43 71 44 22 45 76 46 70 47 72 48
REMARK SMILES IDX 23 49 75 50 69 51 68 52 24 54 56 55 36 56 55 57 37 58 40 59
REMARK SMILES IDX 54 60 73 61 38 62 39 63 53 65 74 66 41 67 25 68 26 69 34 70
REMARK SMILES IDX 27 71 29 72 35 73 28 74 30 75 31 76 32 77 33 78 57 79 58 80
REMARK SMILES IDX 66 81 59 82 61 83 67 84 60 85 62 86 63 87 64 88 65 89 42 90
REMARK SMILES IDX 43 91 51 92 44 93 46 94 52 95 45 96 47 97 48 98 49 99 50 100
REMARK H PARENT 6 7 81 14 85 19 86 22 13 34 72 53 40 64
REMARK Flexibility Score: inf
ROOT
ATOM      1  C   UNL     1       4.405   1.247  -3.216  1.00  0.00     0.002 C 
ENDROOT
BRANCH   1   2
ATOM      2  C   UNL     1       3.564   0.636  -2.098  1.00  0.00     0.021 C 
BRANCH   2   3
ATOM      3  C   UNL     1       2.839   1.655  -1.213  1.00  0.00     0.116 C 
BRANCH   3   4
ATOM      4  N   UNL     1       1.581   1.994  -1.841  1.00  0.00    -0.356 N 
ATOM      5  C   UNL     1       0.329   1.518  -1.601  1.00  0.00     0.229 C 
ATOM      6  O   UNL     1      -0.511   1.732  -2.479  1.00  0.00    -0.275 OA
ATOM      7  H   UNL     1       1.639   2.674  -2.551  1.00  0.00     0.163 HD
BRANCH   5   8
ATOM      8  C   UNL     1      -0.041   0.907  -0.246  1.00  0.00     0.142 C 
ATOM      9  C   UNL     1       1.374  -1.298  -0.713  1.00  0.00     0.076 C 
ATOM     10  C   UNL     1       0.545  -0.441   0.232  1.00  0.00     0.194 C 
ATOM     11  N   UNL     1      -0.590  -1.289   0.617  1.00  0.00    -0.324 N 
ATOM     12  C   UNL     1      -1.566   0.717  -0.125  1.00  0.00     0.081 C 
ATOM     13  C   UNL     1      -1.766  -0.783  -0.075  1.00  0.00     0.263 C 
ATOM     14  H   UNL     1      -0.419  -2.244   0.304  1.00  0.00     0.348 HD
BRANCH  11  15
ATOM     15  C   UNL     1      -0.729  -1.581   2.049  1.00  0.00     0.365 C 
BRANCH  15  16
ATOM     16  C   UNL     1      -1.375  -0.480   2.889  1.00  0.00     0.293 C 
ATOM     17  O   UNL     1      -2.603  -0.389   2.994  1.00  0.00    -0.267 OA
ATOM     18  N   UNL     1      -0.603   0.429   3.566  1.00  0.00    -0.262 N 
ATOM     19  H   UNL     1      -1.066   1.042   4.182  1.00  0.00     0.191 HD
BRANCH  18  20
ATOM     20  N   UNL     1       0.784   0.561   3.458  1.00  0.00    -0.263 N 
ATOM     21  C   UNL     1       1.404   1.787   3.245  1.00  0.00     0.279 C 
ATOM     22  H   UNL     1       1.343  -0.245   3.536  1.00  0.00     0.191 HD
ATOM     23  O   UNL     1       2.443   1.792   2.579  1.00  0.00    -0.266 OA
BRANCH  21  24
ATOM     24  C   UNL     1       0.801   2.975   3.828  1.00  0.00     0.094 A 
ATOM     25  C   UNL     1       0.111   3.116   5.021  1.00  0.00     0.026 A 
ATOM     26  S   UNL     1       0.989   4.488   3.043  1.00  0.00    -0.139 S 
ATOM     27  C   UNL     1      -0.293   4.459   5.266  1.00  0.00     0.012 A 
ATOM     28  C   UNL     1       0.129   5.311   4.272  1.00  0.00     0.065 A 
ENDBRANCH  21  24
ENDBRANCH  18  20
ENDBRANCH  15  16
ENDBRANCH  11  15
ENDBRANCH   5   8
ENDBRANCH   3   4
ENDBRANCH   2   3
ENDBRANCH   1   2
BRANCH   1  29
ATOM     29  C   UNL     1       5.670   1.953  -2.731  1.00  0.00     0.002 C 
BRANCH  29  30
ATOM     30  C   UNL     1       6.569   1.116  -1.815  1.00  0.00     0.021 C 
BRANCH  30  31
ATOM     31  C   UNL     1       6.944  -0.259  -2.364  1.00  0.00     0.116 C 
BRANCH  31  32
ATOM     32  N   UNL     1       7.630  -0.158  -3.642  1.00  0.00    -0.352 N 
ATOM     33  C   UNL     1       8.932  -0.457  -3.954  1.00  0.00     0.251 C 
ATOM     34  H   UNL     1       7.082   0.172  -4.390  1.00  0.00     0.163 HD
ATOM     35  O   UNL     1       9.417  -0.066  -5.008  1.00  0.00    -0.269 OA
BRANCH  33  36
ATOM     36  C   UNL     1       9.745  -1.250  -3.008  1.00  0.00     0.039 A 
ATOM     37  C   UNL     1      11.051  -0.842  -2.729  1.00  0.00     0.014 A 
ATOM     38  C   UNL     1       9.223  -2.403  -2.414  1.00  0.00     0.014 A 
ATOM     39  C   UNL     1      11.818  -1.566  -1.815  1.00  0.00     0.010 A 
ATOM     40  C   UNL     1       9.962  -3.078  -1.447  1.00  0.00     0.010 A 
ATOM     41  C   UNL     1      11.271  -2.674  -1.146  1.00  0.00    -0.014 A 
BRANCH  41  42
ATOM     42  C   UNL     1      12.053  -3.417  -0.125  1.00  0.00     0.031 A 
ATOM     43  C   UNL     1      12.400  -4.865  -0.339  1.00  0.00     0.074 A 
ATOM     44  C   UNL     1      12.386  -2.806   1.029  1.00  0.00     0.049 A 
ATOM     45  N   UNL     1      13.040  -5.685   0.455  1.00  0.00    -0.248 NA
ATOM     46  C   UNL     1      11.947  -5.483  -1.597  1.00  0.00     0.031 C 
ATOM     47  C   UNL     1      12.040  -1.428   1.386  1.00  0.00     0.029 A 
ATOM     48  N   UNL     1      13.066  -3.271   2.126  1.00  0.00    -0.354 N 
ATOM     49  C   UNL     1      13.038  -6.917  -0.188  1.00  0.00     0.074 A 
ATOM     50  C   UNL     1      12.302  -6.747  -1.421  1.00  0.00     0.031 C 
ATOM     51  C   UNL     1      12.517  -1.158   2.611  1.00  0.00     0.029 A 
ATOM     52  C   UNL     1      13.171  -2.350   3.141  1.00  0.00     0.049 A 
ATOM     53  H   UNL     1      13.444  -4.179   2.180  1.00  0.00     0.167 HD
ATOM     54  C   UNL     1      13.621  -8.077   0.198  1.00  0.00     0.034 A 
ATOM     55  C   UNL     1      13.723  -2.455   4.366  1.00  0.00     0.034 A 
ATOM     56  C   UNL     1      14.380  -8.231   1.410  1.00  0.00     0.049 A 
ATOM     57  C   UNL     1      14.384  -3.748   4.760  1.00  0.00     0.074 A 
ATOM     58  C   UNL     1      15.082  -9.340   1.849  1.00  0.00     0.029 A 
ATOM     59  N   UNL     1      14.525  -7.255   2.383  1.00  0.00    -0.354 N 
ATOM     60  N   UNL     1      14.510  -4.855   4.069  1.00  0.00    -0.248 NA
ATOM     61  C   UNL     1      15.010  -3.795   6.089  1.00  0.00     0.031 C 
ATOM     62  C   UNL     1      15.622  -9.045   3.105  1.00  0.00     0.029 A 
ATOM     63  C   UNL     1      15.290  -7.739   3.430  1.00  0.00     0.049 A 
ATOM     64  H   UNL     1      14.140  -6.350   2.336  1.00  0.00     0.167 HD
ATOM     65  C   UNL     1      15.258  -5.717   4.863  1.00  0.00     0.074 A 
ATOM     66  C   UNL     1      15.576  -4.995   6.077  1.00  0.00     0.031 C 
ATOM     67  C   UNL     1      15.636  -6.995   4.615  1.00  0.00     0.034 A 
BRANCH  54  68
ATOM     68  C   UNL     1      13.495  -9.264  -0.723  1.00  0.00     0.023 A 
ATOM     69  C   UNL     1      14.180  -9.268  -1.956  1.00  0.00     0.012 A 
ATOM     70  C   UNL     1      12.746 -10.396  -0.348  1.00  0.00     0.148 A 
ATOM     71  C   UNL     1      14.088 -10.360  -2.818  1.00  0.00     0.002 A 
ATOM     72  C   UNL     1      12.699 -11.501  -1.190  1.00  0.00     0.091 A 
ATOM     73  F   UNL     1      12.086 -10.369   0.819  1.00  0.00    -0.205 F 
ATOM     74  C   UNL     1      13.357 -11.480  -2.430  1.00  0.00     0.022 A 
BRANCH  72  75
ATOM     75  S   UNL     1      11.853 -13.023  -0.748  1.00  0.00     0.127 S 
ATOM     76  O   UNL     1      10.721 -13.010  -1.673  1.00  0.00    -0.237 OA
ATOM     77  O   UNL     1      12.869 -14.035  -1.042  1.00  0.00    -0.237 OA
ATOM     78  O   UNL     1      11.509 -12.898   0.661  1.00  0.00    -0.744 OA
ENDBRANCH  72  75
ENDBRANCH  54  68
BRANCH  55  79
ATOM     79  C   UNL     1      13.722  -1.284   5.287  1.00  0.00     0.023 A 
ATOM     80  C   UNL     1      14.935  -0.630   5.578  1.00  0.00     0.012 A 
ATOM     81  C   UNL     1      12.527  -0.800   5.854  1.00  0.00     0.148 A 
ATOM     82  C   UNL     1      14.963   0.463   6.445  1.00  0.00     0.002 A 
ATOM     83  C   UNL     1      12.555   0.324   6.671  1.00  0.00     0.091 A 
ATOM     84  F   UNL     1      11.385  -1.441   5.570  1.00  0.00    -0.205 F 
ATOM     85  C   UNL     1      13.773   0.946   6.983  1.00  0.00     0.022 A 
BRANCH  83  86
ATOM     86  S   UNL     1      11.060   1.092   7.306  1.00  0.00     0.127 S 
ATOM     87  O   UNL     1      11.166   0.818   8.736  1.00  0.00    -0.237 OA
ATOM     88  O   UNL     1      11.258   2.492   6.929  1.00  0.00    -0.237 OA
ATOM     89  O   UNL     1       9.956   0.435   6.618  1.00  0.00    -0.744 OA
ENDBRANCH  83  86
ENDBRANCH  55  79
BRANCH  67  90
ATOM     90  C   UNL     1      16.469  -7.693   5.660  1.00  0.00     0.023 A 
ATOM     91  C   UNL     1      15.883  -8.086   6.879  1.00  0.00     0.012 A 
ATOM     92  C   UNL     1      17.814  -8.021   5.401  1.00  0.00     0.148 A 
ATOM     93  C   UNL     1      16.634  -8.763   7.840  1.00  0.00     0.002 A 
ATOM     94  C   UNL     1      18.541  -8.743   6.340  1.00  0.00     0.091 A 
ATOM     95  F   UNL     1      18.358  -7.624   4.242  1.00  0.00    -0.205 F 
ATOM     96  C   UNL     1      17.957  -9.102   7.566  1.00  0.00     0.022 A 
BRANCH  94  97
ATOM     97  S   UNL     1      20.218  -9.309   6.036  1.00  0.00     0.127 S 
ATOM     98  O   UNL     1      20.987  -8.467   6.950  1.00  0.00    -0.237 OA
ATOM     99  O   UNL     1      20.142 -10.719   6.423  1.00  0.00    -0.237 OA
ATOM    100  O   UNL     1      20.469  -9.083   4.619  1.00  0.00    -0.744 OA
ENDBRANCH  94  97
ENDBRANCH  67  90
ENDBRANCH  41  42
ENDBRANCH  33  36
ENDBRANCH  31  32
ENDBRANCH  30  31
ENDBRANCH  29  30
ENDBRANCH   1  29
TORSDOF 20
