REMARK SMILES Cc1ccc(C(=O)NCCCCCCNC(=O)c2ccc(-c3c4nc(c(-c5cccc(S(=O)(=O)[O-])c5F)c5ccc([nH]5)c(-c5cccc(S(=O)(=O)[O-])c5F)c5nc(c(-c6cccc(S(=O)(=O)[O-])c6F)c6ccc3[nH]6)C=C5)C=C4)cc2)cc1/[NH+]=C1\NCCS1
REMARK SMILES IDX 12 1 11 2 10 3 9 4 8 5 6 6 7 7 5 9 1 10 2 11 3 12 82 13 4 14
REMARK SMILES IDX 81 15 83 16 84 17 85 19 88 20 86 21 87 23 13 24 14 25 15 26
REMARK SMILES IDX 16 27 17 29 18 30 19 31 80 32 20 33 79 34 21 35 22 36 23 37
REMARK SMILES IDX 73 38 24 39 78 40 72 41 74 42 25 43 77 44 71 45 70 46 26 48
REMARK SMILES IDX 58 49 38 50 57 51 39 52 42 53 56 54 75 55 40 56 41 57 55 59
REMARK SMILES IDX 76 60 43 61 27 62 28 63 36 64 29 65 31 66 37 67 30 68 32 69
REMARK SMILES IDX 33 70 34 71 35 72 59 73 60 74 68 75 61 76 63 77 69 78 62 79
REMARK SMILES IDX 64 80 65 81 66 82 67 83 44 84 45 85 53 86 46 87 48 88 54 89
REMARK SMILES IDX 47 90 49 91 50 92 51 93 52 94
REMARK H PARENT 8 8 83 18 85 22 15 28 74 47 42 58
REMARK Flexibility Score: inf
ROOT
ATOM      1  C   UNL     1      -6.216   4.118   0.153  1.00  0.00     0.002 C 
ENDROOT
BRANCH   1   2
ATOM      2  C   UNL     1      -5.537   3.490  -1.079  1.00  0.00     0.002 C 
BRANCH   2   3
ATOM      3  C   UNL     1      -4.031   3.203  -0.960  1.00  0.00     0.021 C 
BRANCH   3   4
ATOM      4  C   UNL     1      -3.645   2.356   0.256  1.00  0.00     0.116 C 
BRANCH   4   5
ATOM      5  N   UNL     1      -3.839   0.945  -0.008  1.00  0.00    -0.352 N 
ATOM      6  C   UNL     1      -3.011  -0.137  -0.136  1.00  0.00     0.251 C 
ATOM      7  O   UNL     1      -3.571  -1.228  -0.282  1.00  0.00    -0.269 OA
ATOM      8  H   UNL     1      -4.788   0.709  -0.121  1.00  0.00     0.163 HD
BRANCH   6   9
ATOM      9  C   UNL     1      -1.518  -0.110  -0.077  1.00  0.00     0.044 A 
ATOM     10  C   UNL     1       2.796  -0.474   0.246  1.00  0.00     0.049 C 
ATOM     11  C   UNL     1       1.305  -0.317   0.138  1.00  0.00    -0.004 A 
ATOM     12  C   UNL     1       0.505  -1.462   0.170  1.00  0.00     0.008 A 
ATOM     13  C   UNL     1       0.691   0.933  -0.055  1.00  0.00     0.129 A 
ATOM     14  C   UNL     1      -0.885  -1.355   0.083  1.00  0.00     0.014 A 
ATOM     15  C   UNL     1      -0.706   1.018  -0.191  1.00  0.00     0.065 A 
BRANCH  13  16
ATOM     16  N   UNL     1       1.422   2.130  -0.035  1.00  0.00    -0.235 N 
ATOM     17  C   UNL     1       2.094   2.470  -1.076  1.00  0.00     0.309 C 
ATOM     18  H   UNL     1       1.419   2.702   0.766  1.00  0.00     0.313 HD
ATOM     19  N   UNL     1       2.240   1.865  -2.286  1.00  0.00    -0.268 N 
ATOM     20  S   UNL     1       3.043   3.951  -1.015  1.00  0.00    -0.035 SA
ATOM     21  C   UNL     1       2.995   2.579  -3.289  1.00  0.00     0.246 C 
ATOM     22  H   UNL     1       1.850   0.980  -2.470  1.00  0.00     0.305 HD
ATOM     23  C   UNL     1       3.938   3.515  -2.538  1.00  0.00     0.128 C 
ENDBRANCH  13  16
ENDBRANCH   6   9
ENDBRANCH   4   5
ENDBRANCH   3   4
ENDBRANCH   2   3
ENDBRANCH   1   2
BRANCH   1  24
ATOM     24  C   UNL     1      -5.433   5.223   0.866  1.00  0.00     0.021 C 
BRANCH  24  25
ATOM     25  C   UNL     1      -5.249   6.484   0.036  1.00  0.00     0.116 C 
BRANCH  25  26
ATOM     26  N   UNL     1      -6.165   7.553   0.398  1.00  0.00    -0.352 N 
ATOM     27  C   UNL     1      -6.279   8.824  -0.130  1.00  0.00     0.251 C 
ATOM     28  H   UNL     1      -6.796   7.340   1.123  1.00  0.00     0.163 HD
ATOM     29  O   UNL     1      -6.974   9.651   0.458  1.00  0.00    -0.269 OA
BRANCH  27  30
ATOM     30  C   UNL     1      -5.674   9.130  -1.448  1.00  0.00     0.039 A 
ATOM     31  C   UNL     1      -6.480   9.760  -2.405  1.00  0.00     0.014 A 
ATOM     32  C   UNL     1      -4.436   8.606  -1.813  1.00  0.00     0.014 A 
ATOM     33  C   UNL     1      -6.168   9.636  -3.757  1.00  0.00     0.010 A 
ATOM     34  C   UNL     1      -4.168   8.404  -3.148  1.00  0.00     0.010 A 
ATOM     35  C   UNL     1      -5.070   8.860  -4.113  1.00  0.00    -0.014 A 
BRANCH  35  36
ATOM     36  C   UNL     1      -4.798   8.396  -5.460  1.00  0.00     0.031 A 
ATOM     37  C   UNL     1      -3.909   9.161  -6.345  1.00  0.00     0.074 A 
ATOM     38  C   UNL     1      -5.227   7.164  -5.812  1.00  0.00     0.049 A 
ATOM     39  N   UNL     1      -3.908   9.054  -7.628  1.00  0.00    -0.248 NA
ATOM     40  C   UNL     1      -2.945  10.124  -5.830  1.00  0.00     0.031 C 
ATOM     41  C   UNL     1      -4.773   6.348  -6.930  1.00  0.00     0.029 A 
ATOM     42  N   UNL     1      -6.343   6.482  -5.320  1.00  0.00    -0.354 N 
ATOM     43  C   UNL     1      -2.774   9.690  -8.081  1.00  0.00     0.074 A 
ATOM     44  C   UNL     1      -2.255  10.409  -6.939  1.00  0.00     0.031 C 
ATOM     45  C   UNL     1      -5.732   5.456  -7.226  1.00  0.00     0.029 A 
ATOM     46  C   UNL     1      -6.891   5.801  -6.420  1.00  0.00     0.049 A 
ATOM     47  H   UNL     1      -6.677   6.478  -4.394  1.00  0.00     0.167 HD
ATOM     48  C   UNL     1      -2.287   9.392  -9.317  1.00  0.00     0.034 A 
ATOM     49  C   UNL     1      -8.150   6.032  -6.896  1.00  0.00     0.034 A 
ATOM     50  C   UNL     1      -3.126   8.397  -9.994  1.00  0.00     0.049 A 
ATOM     51  C   UNL     1      -8.166   6.436  -8.360  1.00  0.00     0.074 A 
ATOM     52  C   UNL     1      -3.034   7.019 -10.117  1.00  0.00     0.029 A 
ATOM     53  N   UNL     1      -4.410   8.739 -10.399  1.00  0.00    -0.354 N 
ATOM     54  N   UNL     1      -7.102   6.741  -9.050  1.00  0.00    -0.248 NA
ATOM     55  C   UNL     1      -9.382   6.548  -9.157  1.00  0.00     0.031 C 
ATOM     56  C   UNL     1      -4.290   6.526 -10.552  1.00  0.00     0.029 A 
ATOM     57  C   UNL     1      -5.143   7.604 -10.714  1.00  0.00     0.049 A 
ATOM     58  H   UNL     1      -4.753   9.660 -10.456  1.00  0.00     0.167 HD
ATOM     59  C   UNL     1      -7.455   7.183 -10.302  1.00  0.00     0.074 A 
ATOM     60  C   UNL     1      -8.894   6.971 -10.337  1.00  0.00     0.031 C 
ATOM     61  C   UNL     1      -6.529   7.720 -11.161  1.00  0.00     0.034 A 
BRANCH  48  62
ATOM     62  C   UNL     1      -0.862   9.709  -9.723  1.00  0.00     0.023 A 
ATOM     63  C   UNL     1      -0.187   8.773 -10.536  1.00  0.00     0.012 A 
ATOM     64  C   UNL     1      -0.111  10.828  -9.299  1.00  0.00     0.148 A 
ATOM     65  C   UNL     1       1.179   8.868 -10.816  1.00  0.00     0.002 A 
ATOM     66  C   UNL     1       1.270  10.887  -9.515  1.00  0.00     0.091 A 
ATOM     67  F   UNL     1      -0.740  11.868  -8.734  1.00  0.00    -0.205 F 
ATOM     68  C   UNL     1       1.918   9.905 -10.270  1.00  0.00     0.022 A 
BRANCH  66  69
ATOM     69  S   UNL     1       2.314  12.127  -8.729  1.00  0.00     0.127 S 
ATOM     70  O   UNL     1       3.449  11.328  -8.259  1.00  0.00    -0.237 OA
ATOM     71  O   UNL     1       2.625  13.028  -9.835  1.00  0.00    -0.237 OA
ATOM     72  O   UNL     1       1.509  12.691  -7.652  1.00  0.00    -0.744 OA
ENDBRANCH  66  69
ENDBRANCH  48  62
BRANCH  49  73
ATOM     73  C   UNL     1      -9.106   6.507  -5.849  1.00  0.00     0.023 A 
ATOM     74  C   UNL     1      -9.326   5.642  -4.747  1.00  0.00     0.012 A 
ATOM     75  C   UNL     1      -9.447   7.864  -5.719  1.00  0.00     0.148 A 
ATOM     76  C   UNL     1      -9.716   6.145  -3.505  1.00  0.00     0.002 A 
ATOM     77  C   UNL     1      -9.854   8.355  -4.478  1.00  0.00     0.091 A 
ATOM     78  F   UNL     1      -9.299   8.670  -6.778  1.00  0.00    -0.205 F 
ATOM     79  C   UNL     1      -9.943   7.508  -3.361  1.00  0.00     0.022 A 
BRANCH  77  80
ATOM     80  S   UNL     1     -10.165  10.109  -4.231  1.00  0.00     0.127 S 
ATOM     81  O   UNL     1     -11.586  10.201  -4.555  1.00  0.00    -0.237 OA
ATOM     82  O   UNL     1      -9.846  10.297  -2.817  1.00  0.00    -0.237 OA
ATOM     83  O   UNL     1      -9.244  10.772  -5.142  1.00  0.00    -0.744 OA
ENDBRANCH  77  80
ENDBRANCH  49  73
BRANCH  61  84
ATOM     84  C   UNL     1      -6.796   8.415 -12.495  1.00  0.00     0.023 A 
ATOM     85  C   UNL     1      -8.079   8.805 -12.916  1.00  0.00     0.012 A 
ATOM     86  C   UNL     1      -5.718   8.812 -13.339  1.00  0.00     0.148 A 
ATOM     87  C   UNL     1      -8.293   9.519 -14.104  1.00  0.00     0.002 A 
ATOM     88  C   UNL     1      -5.924   9.618 -14.458  1.00  0.00     0.091 A 
ATOM     89  F   UNL     1      -4.473   8.383 -13.091  1.00  0.00    -0.205 F 
ATOM     90  C   UNL     1      -7.215   9.953 -14.859  1.00  0.00     0.022 A 
BRANCH  88  91
ATOM     91  S   UNL     1      -4.541  10.371 -15.330  1.00  0.00     0.127 S 
ATOM     92  O   UNL     1      -4.322   9.427 -16.424  1.00  0.00    -0.237 OA
ATOM     93  O   UNL     1      -5.097  11.662 -15.743  1.00  0.00    -0.237 OA
ATOM     94  O   UNL     1      -3.477  10.471 -14.341  1.00  0.00    -0.744 OA
ENDBRANCH  88  91
ENDBRANCH  61  84
ENDBRANCH  35  36
ENDBRANCH  27  30
ENDBRANCH  25  26
ENDBRANCH  24  25
ENDBRANCH   1  24
TORSDOF 17
