REMARK SMILES Cc1c(C(=O)NCCCCCCNC(=O)c2ccc(-c3c4nc(c(-c5cccc(S(=O)(=O)[O-])c5F)c5ccc([nH]5)c(-c5cccc(S(=O)(=O)[O-])c5F)c5nc(c(-c6cccc(S(=O)(=O)[O-])c6F)c6ccc3[nH]6)C=C5)C=C4)cc2)oc2c1/C(=N/NC(=O)C(c1ccccc1)c1ccccc1)CCC2
REMARK SMILES IDX 9 1 8 2 7 3 6 4 4 5 5 6 3 8 1 9 2 10 81 11 79 12 80 13 82 14
REMARK SMILES IDX 102 15 83 16 100 17 101 18 84 19 85 20 86 22 87 23 88 24
REMARK SMILES IDX 89 25 93 26 90 27 92 28 91 29 94 30 95 31 99 32 96 33 98 34
REMARK SMILES IDX 97 35 10 36 11 37 12 38 13 39 14 40 15 42 16 43 17 44 78 45
REMARK SMILES IDX 18 46 77 47 19 48 20 49 21 50 71 51 22 52 76 53 70 54 72 55
REMARK SMILES IDX 23 56 75 57 69 58 68 59 24 61 56 62 36 63 55 64 37 65 40 66
REMARK SMILES IDX 54 67 73 68 38 69 39 70 53 72 74 73 41 74 25 75 26 76 34 77
REMARK SMILES IDX 27 78 29 79 35 80 28 81 30 82 31 83 32 84 33 85 57 86 58 87
REMARK SMILES IDX 66 88 59 89 61 90 67 91 60 92 62 93 63 94 64 95 65 96 42 97
REMARK SMILES IDX 43 98 51 99 44 100 46 101 52 102 45 103 47 104 48 105 49 106
REMARK SMILES IDX 50 107
REMARK H PARENT 6 7 84 21 13 41 72 60 40 71
REMARK Flexibility Score: inf
ROOT
ATOM      1  C   UNL     1      -4.591   3.132  -4.881  1.00  0.00     0.002 C 
ENDROOT
BRANCH   1   2
ATOM      2  C   UNL     1      -3.351   3.459  -4.045  1.00  0.00     0.021 C 
BRANCH   2   3
ATOM      3  C   UNL     1      -3.437   2.874  -2.635  1.00  0.00     0.116 C 
BRANCH   3   4
ATOM      4  N   UNL     1      -3.115   1.440  -2.600  1.00  0.00    -0.349 N 
ATOM      5  C   UNL     1      -2.008   0.746  -2.108  1.00  0.00     0.287 C 
ATOM      6  O   UNL     1      -2.061  -0.476  -2.100  1.00  0.00    -0.266 OA
ATOM      7  H   UNL     1      -3.807   0.863  -2.997  1.00  0.00     0.163 HD
BRANCH   5   8
ATOM      8  C   UNL     1      -0.905   1.513  -1.565  1.00  0.00     0.195 A 
ATOM      9  C   UNL     1       0.760  -0.068  -0.359  1.00  0.00     0.049 C 
ATOM     10  C   UNL     1       0.227   1.249  -0.783  1.00  0.00     0.010 A 
ATOM     11  C   UNL     1       0.692   2.543  -0.359  1.00  0.00     0.043 A 
ATOM     12  O   UNL     1      -0.973   2.836  -1.804  1.00  0.00    -0.455 OA
ATOM     13  C   UNL     1      -0.167   3.438  -0.955  1.00  0.00     0.114 A 
ATOM     14  C   UNL     1       1.705   3.075   0.549  1.00  0.00     0.072 C 
ATOM     15  C   UNL     1      -0.400   4.876  -0.755  1.00  0.00     0.076 C 
ATOM     16  N   UNL     1       2.687   2.286   0.877  1.00  0.00    -0.177 NA
ATOM     17  C   UNL     1       1.314   4.472   0.984  1.00  0.00     0.059 C 
ATOM     18  C   UNL     1       0.840   5.423  -0.114  1.00  0.00     0.014 C 
BRANCH  16  19
ATOM     19  N   UNL     1       3.835   2.403   1.630  1.00  0.00    -0.246 N 
ATOM     20  C   UNL     1       4.632   3.372   2.219  1.00  0.00     0.252 C 
ATOM     21  H   UNL     1       4.210   1.510   1.807  1.00  0.00     0.193 HD
ATOM     22  O   UNL     1       5.702   2.989   2.720  1.00  0.00    -0.272 OA
BRANCH  20  23
ATOM     23  C   UNL     1       4.234   4.856   2.348  1.00  0.00     0.140 C 
BRANCH  23  24
ATOM     24  C   UNL     1       4.240   5.478   0.891  1.00  0.00    -0.031 A 
ATOM     25  C   UNL     1       3.929   6.816   0.603  1.00  0.00     0.005 A 
ATOM     26  C   UNL     1       4.541   4.667  -0.244  1.00  0.00     0.005 A 
ATOM     27  C   UNL     1       3.798   7.261  -0.736  1.00  0.00     0.000 A 
ATOM     28  C   UNL     1       4.369   5.091  -1.565  1.00  0.00     0.000 A 
ATOM     29  C   UNL     1       3.982   6.392  -1.813  1.00  0.00     0.000 A 
ENDBRANCH  23  24
BRANCH  23  30
ATOM     30  C   UNL     1       3.014   4.902   3.375  1.00  0.00    -0.031 A 
ATOM     31  C   UNL     1       2.152   5.999   3.544  1.00  0.00     0.005 A 
ATOM     32  C   UNL     1       2.632   3.708   4.054  1.00  0.00     0.005 A 
ATOM     33  C   UNL     1       0.881   5.825   4.139  1.00  0.00     0.000 A 
ATOM     34  C   UNL     1       1.362   3.525   4.605  1.00  0.00     0.000 A 
ATOM     35  C   UNL     1       0.466   4.578   4.613  1.00  0.00     0.000 A 
ENDBRANCH  23  30
ENDBRANCH  20  23
ENDBRANCH  16  19
ENDBRANCH   5   8
ENDBRANCH   3   4
ENDBRANCH   2   3
ENDBRANCH   1   2
BRANCH   1  36
ATOM     36  C   UNL     1      -5.932   3.526  -4.235  1.00  0.00     0.002 C 
BRANCH  36  37
ATOM     37  C   UNL     1      -6.075   4.995  -3.804  1.00  0.00     0.021 C 
BRANCH  37  38
ATOM     38  C   UNL     1      -6.133   5.952  -4.981  1.00  0.00     0.116 C 
BRANCH  38  39
ATOM     39  N   UNL     1      -7.313   5.711  -5.821  1.00  0.00    -0.352 N 
ATOM     40  C   UNL     1      -7.673   6.324  -7.006  1.00  0.00     0.251 C 
ATOM     41  H   UNL     1      -7.933   5.019  -5.495  1.00  0.00     0.163 HD
ATOM     42  O   UNL     1      -8.823   6.271  -7.421  1.00  0.00    -0.269 OA
BRANCH  40  43
ATOM     43  C   UNL     1      -6.629   7.027  -7.766  1.00  0.00     0.039 A 
ATOM     44  C   UNL     1      -6.864   8.245  -8.409  1.00  0.00     0.014 A 
ATOM     45  C   UNL     1      -5.369   6.443  -7.779  1.00  0.00     0.014 A 
ATOM     46  C   UNL     1      -5.790   8.894  -9.012  1.00  0.00     0.010 A 
ATOM     47  C   UNL     1      -4.291   7.186  -8.153  1.00  0.00     0.010 A 
ATOM     48  C   UNL     1      -4.505   8.353  -8.869  1.00  0.00    -0.014 A 
BRANCH  48  49
ATOM     49  C   UNL     1      -3.322   9.015  -9.394  1.00  0.00     0.031 A 
ATOM     50  C   UNL     1      -3.091  10.371  -8.833  1.00  0.00     0.074 A 
ATOM     51  C   UNL     1      -2.395   8.333 -10.105  1.00  0.00     0.049 A 
ATOM     52  N   UNL     1      -3.181  11.505  -9.443  1.00  0.00    -0.248 NA
ATOM     53  C   UNL     1      -2.909  10.492  -7.377  1.00  0.00     0.031 C 
ATOM     54  C   UNL     1      -2.349   6.888 -10.389  1.00  0.00     0.029 A 
ATOM     55  N   UNL     1      -1.199   8.758 -10.585  1.00  0.00    -0.354 N 
ATOM     56  C   UNL     1      -2.800  12.461  -8.502  1.00  0.00     0.074 A 
ATOM     57  C   UNL     1      -2.896  11.818  -7.220  1.00  0.00     0.031 C 
ATOM     58  C   UNL     1      -1.091   6.532 -10.727  1.00  0.00     0.029 A 
ATOM     59  C   UNL     1      -0.297   7.735 -10.867  1.00  0.00     0.049 A 
ATOM     60  H   UNL     1      -0.987   9.710 -10.722  1.00  0.00     0.167 HD
ATOM     61  C   UNL     1      -2.155  13.600  -8.879  1.00  0.00     0.034 A 
ATOM     62  C   UNL     1       1.024   7.874 -11.137  1.00  0.00     0.034 A 
ATOM     63  C   UNL     1      -2.252  13.800 -10.305  1.00  0.00     0.049 A 
ATOM     64  C   UNL     1       1.238   9.287 -11.523  1.00  0.00     0.074 A 
ATOM     65  C   UNL     1      -3.289  13.933 -11.207  1.00  0.00     0.029 A 
ATOM     66  N   UNL     1      -1.145  13.467 -11.049  1.00  0.00    -0.354 N 
ATOM     67  N   UNL     1       0.722   9.826 -12.593  1.00  0.00    -0.248 NA
ATOM     68  C   UNL     1       1.631  10.216 -10.477  1.00  0.00     0.031 C 
ATOM     69  C   UNL     1      -2.866  13.201 -12.357  1.00  0.00     0.029 A 
ATOM     70  C   UNL     1      -1.570  12.735 -12.124  1.00  0.00     0.049 A 
ATOM     71  H   UNL     1      -0.214  13.712 -10.845  1.00  0.00     0.167 HD
ATOM     72  C   UNL     1       0.297  11.080 -12.173  1.00  0.00     0.074 A 
ATOM     73  C   UNL     1       0.976  11.302 -10.896  1.00  0.00     0.031 C 
ATOM     74  C   UNL     1      -0.789  11.684 -12.741  1.00  0.00     0.034 A 
BRANCH  61  75
ATOM     75  C   UNL     1      -1.100  14.322  -8.062  1.00  0.00     0.023 A 
ATOM     76  C   UNL     1      -0.616  15.544  -8.584  1.00  0.00     0.012 A 
ATOM     77  C   UNL     1      -0.369  13.755  -6.992  1.00  0.00     0.148 A 
ATOM     78  C   UNL     1       0.566  16.129  -8.118  1.00  0.00     0.002 A 
ATOM     79  C   UNL     1       0.764  14.380  -6.480  1.00  0.00     0.091 A 
ATOM     80  F   UNL     1      -0.672  12.540  -6.534  1.00  0.00    -0.205 F 
ATOM     81  C   UNL     1       1.256  15.548  -7.063  1.00  0.00     0.022 A 
BRANCH  79  82
ATOM     82  S   UNL     1       1.669  13.696  -5.084  1.00  0.00     0.127 S 
ATOM     83  O   UNL     1       2.877  13.198  -5.736  1.00  0.00    -0.237 OA
ATOM     84  O   UNL     1       1.858  14.878  -4.243  1.00  0.00    -0.237 OA
ATOM     85  O   UNL     1       0.793  12.686  -4.503  1.00  0.00    -0.744 OA
ENDBRANCH  79  82
ENDBRANCH  61  75
BRANCH  62  86
ATOM     86  C   UNL     1       2.153   6.974 -10.799  1.00  0.00     0.023 A 
ATOM     87  C   UNL     1       3.364   7.070 -11.512  1.00  0.00     0.012 A 
ATOM     88  C   UNL     1       2.143   6.227  -9.599  1.00  0.00     0.148 A 
ATOM     89  C   UNL     1       4.534   6.467 -11.031  1.00  0.00     0.002 A 
ATOM     90  C   UNL     1       3.307   5.627  -9.127  1.00  0.00     0.091 A 
ATOM     91  F   UNL     1       1.015   6.186  -8.877  1.00  0.00    -0.205 F 
ATOM     92  C   UNL     1       4.508   5.754  -9.835  1.00  0.00     0.022 A 
BRANCH  90  93
ATOM     93  S   UNL     1       3.355   4.718  -7.574  1.00  0.00     0.127 S 
ATOM     94  O   UNL     1       3.998   3.468  -7.978  1.00  0.00    -0.237 OA
ATOM     95  O   UNL     1       4.177   5.588  -6.737  1.00  0.00    -0.237 OA
ATOM     96  O   UNL     1       1.967   4.573  -7.156  1.00  0.00    -0.744 OA
ENDBRANCH  90  93
ENDBRANCH  62  86
BRANCH  74  97
ATOM     97  C   UNL     1      -1.372  11.072 -13.991  1.00  0.00     0.023 A 
ATOM     98  C   UNL     1      -1.982   9.799 -14.007  1.00  0.00     0.012 A 
ATOM     99  C   UNL     1      -1.471  11.884 -15.132  1.00  0.00     0.148 A 
ATOM    100  C   UNL     1      -2.661   9.343 -15.142  1.00  0.00     0.002 A 
ATOM    101  C   UNL     1      -2.186  11.447 -16.240  1.00  0.00     0.091 A 
ATOM    102  F   UNL     1      -0.890  13.092 -15.098  1.00  0.00    -0.205 F 
ATOM    103  C   UNL     1      -2.776  10.173 -16.254  1.00  0.00     0.022 A 
BRANCH 101 104
ATOM    104  S   UNL     1      -2.477  12.521 -17.646  1.00  0.00     0.127 S 
ATOM    105  O   UNL     1      -1.591  11.946 -18.657  1.00  0.00    -0.237 OA
ATOM    106  O   UNL     1      -3.905  12.326 -17.901  1.00  0.00    -0.237 OA
ATOM    107  O   UNL     1      -2.131  13.867 -17.203  1.00  0.00    -0.744 OA
ENDBRANCH 101 104
ENDBRANCH  74  97
ENDBRANCH  48  49
ENDBRANCH  40  43
ENDBRANCH  38  39
ENDBRANCH  37  38
ENDBRANCH  36  37
ENDBRANCH   1  36
TORSDOF 20
