REMARK SMILES O=C(NCCCCCCNC(=O)[C@@]1(Cl)C=CC=C(c2ccccc2)[C@H]1Cl)c1ccc(-c2c3nc(c(-c4cccc(S(=O)(=O)[O-])c4F)c4ccc([nH]4)c(-c4cccc(S(=O)(=O)[O-])c4F)c4nc(c(-c5cccc(S(=O)(=O)[O-])c5F)c5ccc2[nH]5)C=C4)C=C3)cc1
REMARK SMILES IDX 5 1 4 2 3 3 1 4 2 5 27 7 28 8 89 9 29 10 88 11 30 12 31 13
REMARK SMILES IDX 32 14 82 15 33 16 87 17 81 18 83 19 34 20 86 21 80 22 79 23
REMARK SMILES IDX 35 25 67 26 47 27 66 28 48 29 51 30 65 31 84 32 49 33 50 34
REMARK SMILES IDX 64 36 85 37 52 38 36 39 37 40 45 41 38 42 40 43 46 44 39 45
REMARK SMILES IDX 41 46 42 47 43 48 44 49 68 50 69 51 77 52 70 53 72 54 78 55
REMARK SMILES IDX 71 56 73 57 74 58 75 59 76 60 53 61 54 62 62 63 55 64 57 65
REMARK SMILES IDX 63 66 56 67 58 68 59 69 60 70 61 71 6 72 7 73 8 74 9 75
REMARK SMILES IDX 10 76 11 77 12 79 13 80 14 81 15 82 25 83 16 84 18 85 26 86
REMARK SMILES IDX 17 87 19 88 20 89 24 90 21 91 23 92 22 93
REMARK H PARENT 3 6 83 24 51 35 10 78
REMARK Flexibility Score: inf
ROOT
ATOM      1  C   UNL     1       4.454   2.649   0.067  1.00  0.00     0.021 C 
ENDROOT
BRANCH   1   2
ATOM      2  C   UNL     1       4.290   1.177   0.421  1.00  0.00     0.116 C 
BRANCH   2   3
ATOM      3  N   UNL     1       2.887   0.819   0.550  1.00  0.00    -0.352 N 
ATOM      4  O   UNL     1       0.976  -0.190  -0.092  1.00  0.00    -0.269 OA
ATOM      5  C   UNL     1       2.203  -0.172  -0.107  1.00  0.00     0.251 C 
ATOM      6  H   UNL     1       2.363   1.353   1.190  1.00  0.00     0.163 HD
BRANCH   5   7
ATOM      7  C   UNL     1       2.970  -1.204  -0.833  1.00  0.00     0.039 A 
ATOM      8  C   UNL     1       4.083  -1.797  -0.227  1.00  0.00     0.014 A 
ATOM      9  C   UNL     1       2.569  -1.591  -2.113  1.00  0.00     0.014 A 
ATOM     10  C   UNL     1       4.853  -2.706  -0.938  1.00  0.00     0.010 A 
ATOM     11  C   UNL     1       3.296  -2.569  -2.794  1.00  0.00     0.010 A 
ATOM     12  C   UNL     1       4.444  -3.131  -2.212  1.00  0.00    -0.014 A 
BRANCH  12  13
ATOM     13  C   UNL     1       5.138  -4.279  -2.841  1.00  0.00     0.031 A 
ATOM     14  C   UNL     1       5.895  -4.137  -4.128  1.00  0.00     0.074 A 
ATOM     15  C   UNL     1       5.036  -5.478  -2.231  1.00  0.00     0.049 A 
ATOM     16  N   UNL     1       6.543  -5.054  -4.797  1.00  0.00    -0.248 NA
ATOM     17  C   UNL     1       5.929  -2.804  -4.751  1.00  0.00     0.031 C 
ATOM     18  C   UNL     1       4.273  -5.734  -1.005  1.00  0.00     0.029 A 
ATOM     19  N   UNL     1       5.554  -6.703  -2.558  1.00  0.00    -0.354 N 
ATOM     20  C   UNL     1       7.025  -4.428  -5.939  1.00  0.00     0.074 A 
ATOM     21  C   UNL     1       6.604  -3.045  -5.869  1.00  0.00     0.031 C 
ATOM     22  C   UNL     1       4.377  -7.029  -0.680  1.00  0.00     0.029 A 
ATOM     23  C   UNL     1       5.160  -7.707  -1.704  1.00  0.00     0.049 A 
ATOM     24  H   UNL     1       6.150  -6.851  -3.328  1.00  0.00     0.167 HD
ATOM     25  C   UNL     1       7.756  -4.964  -6.945  1.00  0.00     0.034 A 
ATOM     26  C   UNL     1       5.370  -9.035  -1.758  1.00  0.00     0.034 A 
ATOM     27  C   UNL     1       8.194  -6.335  -6.982  1.00  0.00     0.049 A 
ATOM     28  C   UNL     1       6.195  -9.587  -2.882  1.00  0.00     0.074 A 
ATOM     29  C   UNL     1       9.025  -6.944  -7.906  1.00  0.00     0.029 A 
ATOM     30  N   UNL     1       7.818  -7.315  -6.077  1.00  0.00    -0.354 N 
ATOM     31  N   UNL     1       6.790  -8.946  -3.858  1.00  0.00    -0.248 NA
ATOM     32  C   UNL     1       6.396 -11.042  -2.904  1.00  0.00     0.031 C 
ATOM     33  C   UNL     1       9.121  -8.301  -7.580  1.00  0.00     0.029 A 
ATOM     34  C   UNL     1       8.374  -8.531  -6.437  1.00  0.00     0.049 A 
ATOM     35  H   UNL     1       7.241  -7.168  -5.292  1.00  0.00     0.167 HD
ATOM     36  C   UNL     1       7.448  -9.915  -4.602  1.00  0.00     0.074 A 
ATOM     37  C   UNL     1       7.212 -11.182  -3.939  1.00  0.00     0.031 C 
ATOM     38  C   UNL     1       8.161  -9.775  -5.745  1.00  0.00     0.034 A 
BRANCH  25  39
ATOM     39  C   UNL     1       8.165  -4.075  -8.090  1.00  0.00     0.023 A 
ATOM     40  C   UNL     1       9.215  -3.153  -7.917  1.00  0.00     0.012 A 
ATOM     41  C   UNL     1       7.597  -4.249  -9.368  1.00  0.00     0.148 A 
ATOM     42  C   UNL     1       9.690  -2.410  -8.998  1.00  0.00     0.002 A 
ATOM     43  C   UNL     1       8.100  -3.532 -10.448  1.00  0.00     0.091 A 
ATOM     44  F   UNL     1       6.588  -5.120  -9.505  1.00  0.00    -0.205 F 
ATOM     45  C   UNL     1       9.142  -2.609 -10.263  1.00  0.00     0.022 A 
BRANCH  43  46
ATOM     46  S   UNL     1       7.519  -3.771 -12.131  1.00  0.00     0.127 S 
ATOM     47  O   UNL     1       6.896  -2.478 -12.412  1.00  0.00    -0.237 OA
ATOM     48  O   UNL     1       8.768  -4.015 -12.853  1.00  0.00    -0.237 OA
ATOM     49  O   UNL     1       6.605  -4.903 -12.087  1.00  0.00    -0.744 OA
ENDBRANCH  43  46
ENDBRANCH  25  39
BRANCH  26  50
ATOM     50  C   UNL     1       4.789  -9.924  -0.714  1.00  0.00     0.023 A 
ATOM     51  C   UNL     1       5.640 -10.595   0.184  1.00  0.00     0.012 A 
ATOM     52  C   UNL     1       3.395 -10.089  -0.594  1.00  0.00     0.148 A 
ATOM     53  C   UNL     1       5.114 -11.443   1.160  1.00  0.00     0.002 A 
ATOM     54  C   UNL     1       2.876 -10.884   0.420  1.00  0.00     0.091 A 
ATOM     55  F   UNL     1       2.600  -9.457  -1.469  1.00  0.00    -0.205 F 
ATOM     56  C   UNL     1       3.733 -11.578   1.286  1.00  0.00     0.022 A 
BRANCH  54  57
ATOM     57  S   UNL     1       1.111 -10.985   0.735  1.00  0.00     0.127 S 
ATOM     58  O   UNL     1       0.773 -12.272   0.136  1.00  0.00    -0.237 OA
ATOM     59  O   UNL     1       1.057 -10.951   2.198  1.00  0.00    -0.237 OA
ATOM     60  O   UNL     1       0.538  -9.808   0.094  1.00  0.00    -0.744 OA
ENDBRANCH  54  57
ENDBRANCH  26  50
BRANCH  38  61
ATOM     61  C   UNL     1       8.745 -11.024  -6.348  1.00  0.00     0.023 A 
ATOM     62  C   UNL     1       7.894 -11.954  -6.978  1.00  0.00     0.012 A 
ATOM     63  C   UNL     1      10.135 -11.248  -6.342  1.00  0.00     0.148 A 
ATOM     64  C   UNL     1       8.415 -13.107  -7.562  1.00  0.00     0.002 A 
ATOM     65  C   UNL     1      10.652 -12.373  -6.971  1.00  0.00     0.091 A 
ATOM     66  F   UNL     1      10.923 -10.358  -5.722  1.00  0.00    -0.205 F 
ATOM     67  C   UNL     1       9.793 -13.310  -7.570  1.00  0.00     0.022 A 
BRANCH  65  68
ATOM     68  S   UNL     1      12.417 -12.673  -7.112  1.00  0.00     0.127 S 
ATOM     69  O   UNL     1      12.599 -13.809  -6.209  1.00  0.00    -0.237 OA
ATOM     70  O   UNL     1      12.564 -12.992  -8.532  1.00  0.00    -0.237 OA
ATOM     71  O   UNL     1      13.069 -11.438  -6.698  1.00  0.00    -0.744 OA
ENDBRANCH  65  68
ENDBRANCH  38  61
ENDBRANCH  12  13
ENDBRANCH   5   7
ENDBRANCH   2   3
ENDBRANCH   1   2
BRANCH   1  72
ATOM     72  C   UNL     1       3.976   3.600   1.165  1.00  0.00     0.002 C 
BRANCH  72  73
ATOM     73  C   UNL     1       4.685   3.423   2.513  1.00  0.00     0.002 C 
BRANCH  73  74
ATOM     74  C   UNL     1       6.215   3.515   2.441  1.00  0.00     0.021 C 
BRANCH  74  75
ATOM     75  C   UNL     1       6.699   4.883   1.967  1.00  0.00     0.116 C 
BRANCH  75  76
ATOM     76  N   UNL     1       6.547   5.849   3.037  1.00  0.00    -0.354 N 
ATOM     77  C   UNL     1       7.471   6.511   3.796  1.00  0.00     0.247 C 
ATOM     78  H   UNL     1       5.612   6.066   3.257  1.00  0.00     0.163 HD
ATOM     79  O   UNL     1       7.005   7.186   4.721  1.00  0.00    -0.273 OA
BRANCH  77  80
ATOM     80  C   UNL     1       8.995   6.483   3.457  1.00  0.00     0.161 C 
ATOM     81  Cl  UNL     1       9.866   7.104   4.968  1.00  0.00    -0.102 Cl
ATOM     82  C   UNL     1       9.528   5.063   3.339  1.00  0.00     0.008 C 
ATOM     83  C   UNL     1       9.373   7.443   2.274  1.00  0.00     0.146 C 
ATOM     84  C   UNL     1      10.248   4.636   2.292  1.00  0.00    -0.002 C 
ATOM     85  C   UNL     1      10.181   6.792   1.156  1.00  0.00    -0.020 C 
ATOM     86  Cl  UNL     1       7.956   8.305   1.533  1.00  0.00    -0.115 Cl
ATOM     87  C   UNL     1      10.566   5.504   1.186  1.00  0.00     0.006 C 
BRANCH  85  88
ATOM     88  C   UNL     1      10.629   7.656   0.047  1.00  0.00    -0.021 A 
ATOM     89  C   UNL     1      10.111   7.494  -1.244  1.00  0.00     0.008 A 
ATOM     90  C   UNL     1      11.537   8.693   0.295  1.00  0.00     0.008 A 
ATOM     91  C   UNL     1      10.476   8.376  -2.264  1.00  0.00     0.001 A 
ATOM     92  C   UNL     1      11.904   9.570  -0.727  1.00  0.00     0.001 A 
ATOM     93  C   UNL     1      11.368   9.415  -2.003  1.00  0.00     0.000 A 
ENDBRANCH  85  88
ENDBRANCH  77  80
ENDBRANCH  75  76
ENDBRANCH  74  75
ENDBRANCH  73  74
ENDBRANCH  72  73
ENDBRANCH   1  72
TORSDOF 17
