REMARK SMILES CSc1nc(C2CC2)nc(C)c1C(=O)NCCCCCCNC(=O)c1ccc(-c2c3nc(c(-c4cccc(S(=O)(=O)[O-])c4F)c4ccc([nH]4)c(-c4cccc(S(=O)(=O)[O-])c4F)c4nc(c(-c5cccc(S(=O)(=O)[O-])c5F)c5ccc2[nH]5)C=C4)C=C3)cc1
REMARK SMILES IDX 19 1 18 2 17 3 16 4 15 5 13 6 14 7 12 9 3 10 4 11 5 12 10 13
REMARK SMILES IDX 9 14 11 15 2 16 1 17 6 18 7 19 8 20 20 21 21 22 22 23 23 24
REMARK SMILES IDX 24 26 25 27 26 28 87 29 27 30 86 31 28 32 29 33 30 34 80 35
REMARK SMILES IDX 31 36 85 37 79 38 81 39 32 40 84 41 78 42 77 43 33 45 65 46
REMARK SMILES IDX 45 47 64 48 46 49 49 50 63 51 82 52 47 53 48 54 62 56 83 57
REMARK SMILES IDX 50 58 34 59 35 60 43 61 36 62 38 63 44 64 37 65 39 66 40 67
REMARK SMILES IDX 41 68 42 69 66 70 67 71 75 72 68 73 70 74 76 75 69 76 71 77
REMARK SMILES IDX 72 78 73 79 74 80 51 81 52 82 60 83 53 84 55 85 61 86 54 87
REMARK SMILES IDX 56 88 57 89 58 90 59 91
REMARK H PARENT 15 8 22 25 81 44 49 55
REMARK Flexibility Score: inf
ROOT
ATOM      1  C   UNL     1      -4.120   7.318  -3.577  1.00  0.00     0.002 C 
ENDROOT
BRANCH   1   2
ATOM      2  C   UNL     1      -3.264   6.527  -4.571  1.00  0.00     0.002 C 
BRANCH   2   3
ATOM      3  C   UNL     1      -1.761   6.403  -4.304  1.00  0.00     0.021 C 
BRANCH   3   4
ATOM      4  C   UNL     1      -1.305   5.980  -2.912  1.00  0.00     0.116 C 
BRANCH   4   5
ATOM      5  N   UNL     1      -1.663   4.645  -2.489  1.00  0.00    -0.352 N 
ATOM      6  C   UNL     1      -1.073   3.816  -1.554  1.00  0.00     0.255 C 
ATOM      7  O   UNL     1      -1.754   2.874  -1.145  1.00  0.00    -0.269 OA
ATOM      8  H   UNL     1      -2.452   4.266  -2.938  1.00  0.00     0.163 HD
BRANCH   6   9
ATOM      9  C   UNL     1       0.315   3.975  -1.031  1.00  0.00     0.093 A 
ATOM     10  C   UNL     1       1.163   2.866  -0.937  1.00  0.00     0.113 A 
ATOM     11  N   UNL     1       2.404   2.904  -0.378  1.00  0.00    -0.225 NA
ATOM     12  C   UNL     1       2.836   4.064   0.128  1.00  0.00     0.133 A 
ATOM     13  C   UNL     1       0.828   5.118  -0.433  1.00  0.00     0.055 A 
ATOM     14  N   UNL     1       2.079   5.167   0.098  1.00  0.00    -0.237 NA
ATOM     15  C   UNL     1       0.107   6.415  -0.249  1.00  0.00     0.068 C 
BRANCH  10  16
ATOM     16  S   UNL     1       0.775   1.229  -1.568  1.00  0.00    -0.109 SA
ATOM     17  C   UNL     1       1.130   0.268  -0.068  1.00  0.00     0.092 C 
ENDBRANCH  10  16
BRANCH  12  18
ATOM     18  C   UNL     1       4.188   4.167   0.794  1.00  0.00     0.058 C 
ATOM     19  C   UNL     1       4.976   2.950   1.218  1.00  0.00     0.012 C 
ATOM     20  C   UNL     1       5.439   3.767   0.046  1.00  0.00     0.012 C 
ENDBRANCH  12  18
ENDBRANCH   6   9
ENDBRANCH   4   5
ENDBRANCH   3   4
ENDBRANCH   2   3
ENDBRANCH   1   2
BRANCH   1  21
ATOM     21  C   UNL     1      -3.644   8.717  -3.179  1.00  0.00     0.021 C 
BRANCH  21  22
ATOM     22  C   UNL     1      -3.324   9.685  -4.313  1.00  0.00     0.116 C 
BRANCH  22  23
ATOM     23  N   UNL     1      -4.448   9.918  -5.201  1.00  0.00    -0.352 N 
ATOM     24  C   UNL     1      -4.987  11.102  -5.644  1.00  0.00     0.251 C 
ATOM     25  H   UNL     1      -4.891   9.105  -5.537  1.00  0.00     0.163 HD
ATOM     26  O   UNL     1      -6.030  11.086  -6.292  1.00  0.00    -0.269 OA
BRANCH  24  27
ATOM     27  C   UNL     1      -4.332  12.395  -5.335  1.00  0.00     0.039 A 
ATOM     28  C   UNL     1      -5.130  13.479  -4.954  1.00  0.00     0.014 A 
ATOM     29  C   UNL     1      -2.949  12.558  -5.455  1.00  0.00     0.014 A 
ATOM     30  C   UNL     1      -4.539  14.710  -4.653  1.00  0.00     0.010 A 
ATOM     31  C   UNL     1      -2.356  13.765  -5.087  1.00  0.00     0.010 A 
ATOM     32  C   UNL     1      -3.144  14.859  -4.698  1.00  0.00    -0.014 A 
BRANCH  32  33
ATOM     33  C   UNL     1      -2.493  16.153  -4.364  1.00  0.00     0.031 A 
ATOM     34  C   UNL     1      -1.714  16.900  -5.415  1.00  0.00     0.074 A 
ATOM     35  C   UNL     1      -2.531  16.615  -3.098  1.00  0.00     0.049 A 
ATOM     36  N   UNL     1      -1.023  18.005  -5.301  1.00  0.00    -0.248 NA
ATOM     37  C   UNL     1      -1.685  16.314  -6.766  1.00  0.00     0.031 C 
ATOM     38  C   UNL     1      -3.188  15.947  -1.973  1.00  0.00     0.029 A 
ATOM     39  N   UNL     1      -1.980  17.741  -2.539  1.00  0.00    -0.354 N 
ATOM     40  C   UNL     1      -0.446  18.223  -6.547  1.00  0.00     0.074 A 
ATOM     41  C   UNL     1      -0.842  17.120  -7.394  1.00  0.00     0.031 C 
ATOM     42  C   UNL     1      -3.002  16.675  -0.860  1.00  0.00     0.029 A 
ATOM     43  C   UNL     1      -2.192  17.845  -1.183  1.00  0.00     0.049 A 
ATOM     44  H   UNL     1      -1.480  18.412  -3.058  1.00  0.00     0.167 HD
ATOM     45  C   UNL     1       0.319  19.262  -6.959  1.00  0.00     0.034 A 
ATOM     46  C   UNL     1      -1.776  18.774  -0.300  1.00  0.00     0.034 A 
ATOM     47  C   UNL     1       0.665  20.385  -6.130  1.00  0.00     0.049 A 
ATOM     48  C   UNL     1      -0.973  19.947  -0.796  1.00  0.00     0.074 A 
ATOM     49  C   UNL     1       1.359  21.530  -6.478  1.00  0.00     0.029 A 
ATOM     50  N   UNL     1       0.346  20.503  -4.786  1.00  0.00    -0.354 N 
ATOM     51  N   UNL     1      -0.568  20.213  -2.015  1.00  0.00    -0.248 NA
ATOM     52  C   UNL     1      -0.601  20.967   0.195  1.00  0.00     0.031 C 
ATOM     53  C   UNL     1       1.475  22.334  -5.339  1.00  0.00     0.029 A 
ATOM     54  C   UNL     1       0.831  21.700  -4.288  1.00  0.00     0.049 A 
ATOM     55  H   UNL     1      -0.152  19.834  -4.263  1.00  0.00     0.167 HD
ATOM     56  C   UNL     1       0.068  21.448  -1.944  1.00  0.00     0.074 A 
ATOM     57  C   UNL     1      -0.021  21.885  -0.566  1.00  0.00     0.031 C 
ATOM     58  C   UNL     1       0.682  22.149  -2.928  1.00  0.00     0.034 A 
BRANCH  45  59
ATOM     59  C   UNL     1       0.787  19.264  -8.392  1.00  0.00     0.023 A 
ATOM     60  C   UNL     1      -0.143  19.494  -9.427  1.00  0.00     0.012 A 
ATOM     61  C   UNL     1       2.148  19.096  -8.712  1.00  0.00     0.148 A 
ATOM     62  C   UNL     1       0.267  19.520 -10.759  1.00  0.00     0.002 A 
ATOM     63  C   UNL     1       2.557  19.170 -10.040  1.00  0.00     0.091 A 
ATOM     64  F   UNL     1       3.016  18.859  -7.718  1.00  0.00    -0.205 F 
ATOM     65  C   UNL     1       1.617  19.369 -11.064  1.00  0.00     0.022 A 
BRANCH  63  66
ATOM     66  S   UNL     1       4.282  19.067 -10.530  1.00  0.00     0.127 S 
ATOM     67  O   UNL     1       4.327  17.756 -11.176  1.00  0.00    -0.237 OA
ATOM     68  O   UNL     1       4.410  20.202 -11.445  1.00  0.00    -0.237 OA
ATOM     69  O   UNL     1       5.056  19.186  -9.303  1.00  0.00    -0.744 OA
ENDBRANCH  63  66
ENDBRANCH  45  59
BRANCH  46  70
ATOM     70  C   UNL     1      -2.175  18.672   1.133  1.00  0.00     0.023 A 
ATOM     71  C   UNL     1      -3.104  19.591   1.658  1.00  0.00     0.012 A 
ATOM     72  C   UNL     1      -1.664  17.660   1.968  1.00  0.00     0.148 A 
ATOM     73  C   UNL     1      -3.491  19.526   2.997  1.00  0.00     0.002 A 
ATOM     74  C   UNL     1      -2.095  17.567   3.286  1.00  0.00     0.091 A 
ATOM     75  F   UNL     1      -0.772  16.802   1.453  1.00  0.00    -0.205 F 
ATOM     76  C   UNL     1      -2.995  18.509   3.808  1.00  0.00     0.022 A 
BRANCH  74  77
ATOM     77  S   UNL     1      -1.611  16.213   4.363  1.00  0.00     0.127 S 
ATOM     78  O   UNL     1      -0.702  16.879   5.291  1.00  0.00    -0.237 OA
ATOM     79  O   UNL     1      -2.894  15.809   4.938  1.00  0.00    -0.237 OA
ATOM     80  O   UNL     1      -1.007  15.215   3.490  1.00  0.00    -0.744 OA
ENDBRANCH  74  77
ENDBRANCH  46  70
BRANCH  58  81
ATOM     81  C   UNL     1       1.273  23.488  -2.570  1.00  0.00     0.023 A 
ATOM     82  C   UNL     1       2.452  23.553  -1.803  1.00  0.00     0.012 A 
ATOM     83  C   UNL     1       0.701  24.678  -3.064  1.00  0.00     0.148 A 
ATOM     84  C   UNL     1       3.037  24.784  -1.506  1.00  0.00     0.002 A 
ATOM     85  C   UNL     1       1.316  25.897  -2.805  1.00  0.00     0.091 A 
ATOM     86  F   UNL     1      -0.432  24.596  -3.775  1.00  0.00    -0.205 F 
ATOM     87  C   UNL     1       2.477  25.953  -2.017  1.00  0.00     0.022 A 
BRANCH  85  88
ATOM     88  S   UNL     1       0.721  27.441  -3.505  1.00  0.00     0.127 S 
ATOM     89  O   UNL     1       0.122  28.085  -2.337  1.00  0.00    -0.237 OA
ATOM     90  O   UNL     1       1.957  28.065  -3.978  1.00  0.00    -0.237 OA
ATOM     91  O   UNL     1      -0.209  27.069  -4.562  1.00  0.00    -0.744 OA
ENDBRANCH  85  88
ENDBRANCH  58  81
ENDBRANCH  32  33
ENDBRANCH  24  27
ENDBRANCH  22  23
ENDBRANCH  21  22
ENDBRANCH   1  21
TORSDOF 18
