REMARK SMILES C[C@@H]1[C@@H](C(=O)NCCCCCCNC(=O)c2ccc(-c3c4nc(c(-c5cccc(S(=O)(=O)[O-])c5F)c5ccc([nH]5)c(-c5cccc(S(=O)(=O)[O-])c5F)c5nc(c(-c6cccc(S(=O)(=O)[O-])c6F)c6ccc3[nH]6)C=C5)C=C4)cc2)CCN1C(=O)N1CCCCC1
REMARK SMILES IDX 10 1 9 2 8 3 7 4 6 5 4 6 5 7 3 9 1 10 2 11 81 12 79 13 80 14
REMARK SMILES IDX 82 15 83 16 84 17 85 18 89 19 86 20 88 21 87 22 11 23 12 24
REMARK SMILES IDX 13 25 14 26 15 28 16 29 17 30 78 31 18 32 77 33 19 34 20 35
REMARK SMILES IDX 21 36 71 37 22 38 76 39 70 40 72 41 23 42 75 43 69 44 68 45
REMARK SMILES IDX 24 47 56 48 36 49 55 50 37 51 40 52 54 53 73 54 38 55 39 56
REMARK SMILES IDX 53 58 74 59 41 60 25 61 26 62 34 63 27 64 29 65 35 66 28 67
REMARK SMILES IDX 30 68 31 69 32 70 33 71 57 72 58 73 66 74 59 75 61 76 67 77
REMARK SMILES IDX 60 78 62 79 63 80 64 81 65 82 42 83 43 84 51 85 44 86 46 87
REMARK SMILES IDX 52 88 45 89 47 90 48 91 49 92 50 93
REMARK H PARENT 6 8 13 27 72 46 40 57
REMARK Flexibility Score: inf
ROOT
ATOM      1  C   UNL     1      -5.064   3.417  -2.555  1.00  0.00     0.002 C 
ENDROOT
BRANCH   1   2
ATOM      2  C   UNL     1      -3.782   4.246  -2.671  1.00  0.00     0.002 C 
BRANCH   2   3
ATOM      3  C   UNL     1      -2.855   4.233  -1.452  1.00  0.00     0.021 C 
BRANCH   3   4
ATOM      4  C   UNL     1      -2.459   2.853  -0.937  1.00  0.00     0.116 C 
BRANCH   4   5
ATOM      5  N   UNL     1      -1.751   2.059  -1.921  1.00  0.00    -0.356 N 
ATOM      6  C   UNL     1      -0.763   1.135  -1.737  1.00  0.00     0.225 C 
ATOM      7  O   UNL     1      -0.321   0.567  -2.736  1.00  0.00    -0.275 OA
ATOM      8  H   UNL     1      -2.020   2.208  -2.857  1.00  0.00     0.163 HD
BRANCH   6   9
ATOM      9  C   UNL     1      -0.186   0.927  -0.339  1.00  0.00     0.102 C 
ATOM     10  C   UNL     1       1.952   0.223   0.745  1.00  0.00     0.032 C 
ATOM     11  C   UNL     1       0.917  -0.161  -0.321  1.00  0.00     0.096 C 
ATOM     12  N   UNL     1       0.181  -1.406  -0.010  1.00  0.00    -0.321 N 
ATOM     13  C   UNL     1      -1.186   0.392   0.690  1.00  0.00     0.037 C 
ATOM     14  C   UNL     1      -1.157  -1.105   0.466  1.00  0.00     0.122 C 
BRANCH  12  15
ATOM     15  C   UNL     1       0.363  -2.649  -0.593  1.00  0.00     0.320 C 
ATOM     16  O   UNL     1      -0.566  -3.449  -0.718  1.00  0.00    -0.248 OA
ATOM     17  N   UNL     1       1.613  -2.941  -1.088  1.00  0.00    -0.325 N 
ATOM     18  C   UNL     1       1.715  -3.756  -2.291  1.00  0.00     0.121 C 
ATOM     19  C   UNL     1       2.797  -2.872  -0.248  1.00  0.00     0.121 C 
ATOM     20  C   UNL     1       2.226  -5.160  -1.984  1.00  0.00     0.022 C 
ATOM     21  C   UNL     1       3.376  -4.257   0.047  1.00  0.00     0.022 C 
ATOM     22  C   UNL     1       3.546  -5.088  -1.220  1.00  0.00     0.004 C 
ENDBRANCH  12  15
ENDBRANCH   6   9
ENDBRANCH   4   5
ENDBRANCH   3   4
ENDBRANCH   2   3
ENDBRANCH   1   2
BRANCH   1  23
ATOM     23  C   UNL     1      -5.953   3.716  -1.345  1.00  0.00     0.021 C 
BRANCH  23  24
ATOM     24  C   UNL     1      -6.339   5.179  -1.148  1.00  0.00     0.116 C 
BRANCH  24  25
ATOM     25  N   UNL     1      -7.041   5.738  -2.289  1.00  0.00    -0.352 N 
ATOM     26  C   UNL     1      -8.187   6.494  -2.330  1.00  0.00     0.251 C 
ATOM     27  H   UNL     1      -6.634   5.547  -3.165  1.00  0.00     0.163 HD
ATOM     28  O   UNL     1      -8.689   6.767  -3.417  1.00  0.00    -0.269 OA
BRANCH  26  29
ATOM     29  C   UNL     1      -8.832   6.960  -1.080  1.00  0.00     0.039 A 
ATOM     30  C   UNL     1     -10.226   6.900  -0.988  1.00  0.00     0.014 A 
ATOM     31  C   UNL     1      -8.087   7.481  -0.018  1.00  0.00     0.014 A 
ATOM     32  C   UNL     1     -10.866   7.317   0.182  1.00  0.00     0.010 A 
ATOM     33  C   UNL     1      -8.722   7.831   1.174  1.00  0.00     0.010 A 
ATOM     34  C   UNL     1     -10.119   7.764   1.284  1.00  0.00    -0.014 A 
BRANCH  34  35
ATOM     35  C   UNL     1     -10.789   8.164   2.549  1.00  0.00     0.031 A 
ATOM     36  C   UNL     1     -10.707   9.583   3.045  1.00  0.00     0.074 A 
ATOM     37  C   UNL     1     -11.424   7.232   3.288  1.00  0.00     0.049 A 
ATOM     38  N   UNL     1     -11.221  10.110   4.127  1.00  0.00    -0.248 NA
ATOM     39  C   UNL     1      -9.925  10.531   2.233  1.00  0.00     0.031 C 
ATOM     40  C   UNL     1     -11.507   5.807   2.962  1.00  0.00     0.029 A 
ATOM     41  N   UNL     1     -12.104   7.340   4.476  1.00  0.00    -0.354 N 
ATOM     42  C   UNL     1     -10.803  11.435   4.143  1.00  0.00     0.074 A 
ATOM     43  C   UNL     1      -9.961  11.625   2.981  1.00  0.00     0.031 C 
ATOM     44  C   UNL     1     -12.204   5.176   3.921  1.00  0.00     0.029 A 
ATOM     45  C   UNL     1     -12.599   6.143   4.940  1.00  0.00     0.049 A 
ATOM     46  H   UNL     1     -12.226   8.194   4.951  1.00  0.00     0.167 HD
ATOM     47  C   UNL     1     -11.116  12.416   5.024  1.00  0.00     0.034 A 
ATOM     48  C   UNL     1     -13.293   5.856   6.059  1.00  0.00     0.034 A 
ATOM     49  C   UNL     1     -11.990  12.238   6.152  1.00  0.00     0.049 A 
ATOM     50  C   UNL     1     -13.666   6.973   6.997  1.00  0.00     0.074 A 
ATOM     51  C   UNL     1     -12.443  13.191   7.048  1.00  0.00     0.029 A 
ATOM     52  N   UNL     1     -12.541  11.028   6.544  1.00  0.00    -0.354 N 
ATOM     53  N   UNL     1     -13.403   8.253   6.901  1.00  0.00    -0.248 NA
ATOM     54  C   UNL     1     -14.465   6.610   8.177  1.00  0.00     0.031 C 
ATOM     55  C   UNL     1     -13.250  12.552   7.995  1.00  0.00     0.029 A 
ATOM     56  C   UNL     1     -13.319  11.206   7.676  1.00  0.00     0.049 A 
ATOM     57  H   UNL     1     -12.399  10.168   6.086  1.00  0.00     0.167 HD
ATOM     58  C   UNL     1     -14.030   8.853   7.988  1.00  0.00     0.074 A 
ATOM     59  C   UNL     1     -14.708   7.799   8.713  1.00  0.00     0.031 C 
ATOM     60  C   UNL     1     -14.030  10.157   8.361  1.00  0.00     0.034 A 
BRANCH  47  61
ATOM     61  C   UNL     1     -10.556  13.792   4.768  1.00  0.00     0.023 A 
ATOM     62  C   UNL     1     -11.060  14.556   3.695  1.00  0.00     0.012 A 
ATOM     63  C   UNL     1      -9.584  14.353   5.619  1.00  0.00     0.148 A 
ATOM     64  C   UNL     1     -10.580  15.842   3.450  1.00  0.00     0.002 A 
ATOM     65  C   UNL     1      -9.142  15.652   5.395  1.00  0.00     0.091 A 
ATOM     66  F   UNL     1      -9.102  13.605   6.622  1.00  0.00    -0.205 F 
ATOM     67  C   UNL     1      -9.630  16.393   4.306  1.00  0.00     0.022 A 
BRANCH  65  68
ATOM     68  S   UNL     1      -7.977  16.481   6.482  1.00  0.00     0.127 S 
ATOM     69  O   UNL     1      -6.775  16.523   5.651  1.00  0.00    -0.237 OA
ATOM     70  O   UNL     1      -8.619  17.779   6.690  1.00  0.00    -0.237 OA
ATOM     71  O   UNL     1      -7.883  15.652   7.676  1.00  0.00    -0.744 OA
ENDBRANCH  65  68
ENDBRANCH  47  61
BRANCH  48  72
ATOM     72  C   UNL     1     -13.744   4.459   6.317  1.00  0.00     0.023 A 
ATOM     73  C   UNL     1     -15.114   4.147   6.224  1.00  0.00     0.012 A 
ATOM     74  C   UNL     1     -12.826   3.438   6.628  1.00  0.00     0.148 A 
ATOM     75  C   UNL     1     -15.566   2.849   6.466  1.00  0.00     0.002 A 
ATOM     76  C   UNL     1     -13.277   2.136   6.814  1.00  0.00     0.091 A 
ATOM     77  F   UNL     1     -11.528   3.758   6.726  1.00  0.00    -0.205 F 
ATOM     78  C   UNL     1     -14.648   1.842   6.751  1.00  0.00     0.022 A 
BRANCH  76  79
ATOM     79  S   UNL     1     -12.152   0.755   7.054  1.00  0.00     0.127 S 
ATOM     80  O   UNL     1     -12.355   0.446   8.466  1.00  0.00    -0.237 OA
ATOM     81  O   UNL     1     -12.687  -0.237   6.121  1.00  0.00    -0.237 OA
ATOM     82  O   UNL     1     -10.833   1.260   6.698  1.00  0.00    -0.744 OA
ENDBRANCH  76  79
ENDBRANCH  48  72
BRANCH  60  83
ATOM     83  C   UNL     1     -14.806  10.529   9.598  1.00  0.00     0.023 A 
ATOM     84  C   UNL     1     -14.316  10.162  10.867  1.00  0.00     0.012 A 
ATOM     85  C   UNL     1     -15.981  11.301   9.508  1.00  0.00     0.148 A 
ATOM     86  C   UNL     1     -15.001  10.527  12.025  1.00  0.00     0.002 A 
ATOM     87  C   UNL     1     -16.632  11.704  10.668  1.00  0.00     0.091 A 
ATOM     88  F   UNL     1     -16.442  11.626   8.291  1.00  0.00    -0.205 F 
ATOM     89  C   UNL     1     -16.151  11.307  11.927  1.00  0.00     0.022 A 
BRANCH  87  90
ATOM     90  S   UNL     1     -18.064  12.788  10.641  1.00  0.00     0.127 S 
ATOM     91  O   UNL     1     -19.146  11.861  10.972  1.00  0.00    -0.237 OA
ATOM     92  O   UNL     1     -17.744  13.752  11.694  1.00  0.00    -0.237 OA
ATOM     93  O   UNL     1     -18.112  13.354   9.300  1.00  0.00    -0.744 OA
ENDBRANCH  87  90
ENDBRANCH  60  83
ENDBRANCH  34  35
ENDBRANCH  26  29
ENDBRANCH  24  25
ENDBRANCH  23  24
ENDBRANCH   1  23
TORSDOF 17
