REMARK SMILES C[C@@H](C(=O)NCCCCCCNC(=O)c1ccc(-c2c3nc(c(-c4cccc(S(=O)(=O)[O-])c4F)c4ccc([nH]4)c(-c4cccc(S(=O)(=O)[O-])c4F)c4nc(c(-c5cccc(S(=O)(=O)[O-])c5F)c5ccc2[nH]5)C=C4)C=C3)cc1)c1ccc2c(c1)[nH]c1ccc(Cl)cc12
REMARK SMILES IDX 9 1 8 2 7 3 6 4 5 5 3 6 4 7 2 9 1 10 78 11 79 12 83 13 80 14
REMARK SMILES IDX 82 15 81 16 84 17 91 18 85 19 90 21 86 22 88 23 87 24 89 25
REMARK SMILES IDX 10 26 11 27 12 28 13 29 14 31 15 32 16 33 77 34 17 35 76 36
REMARK SMILES IDX 18 37 19 38 20 39 70 40 21 41 75 42 69 43 71 44 22 45 74 46
REMARK SMILES IDX 68 47 67 48 23 50 55 51 35 52 54 53 36 54 39 55 53 56 72 57
REMARK SMILES IDX 37 58 38 59 52 61 73 62 40 63 24 64 25 65 33 66 26 67 28 68
REMARK SMILES IDX 34 69 27 70 29 71 30 72 31 73 32 74 56 75 57 76 65 77 58 78
REMARK SMILES IDX 60 79 66 80 59 81 61 82 62 83 63 84 64 85 41 86 42 87 50 88
REMARK SMILES IDX 43 89 45 90 51 91 44 92 46 93 47 94 48 95 49 96
REMARK H PARENT 5 8 84 20 12 30 71 49 39 60
REMARK Flexibility Score: inf
ROOT
ATOM      1  C   UNL     1       5.949   1.040   3.103  1.00  0.00     0.002 C 
ENDROOT
BRANCH   1   2
ATOM      2  C   UNL     1       4.968   1.816   2.217  1.00  0.00     0.002 C 
BRANCH   2   3
ATOM      3  C   UNL     1       4.177   0.962   1.217  1.00  0.00     0.021 C 
BRANCH   3   4
ATOM      4  C   UNL     1       3.280  -0.093   1.865  1.00  0.00     0.116 C 
BRANCH   4   5
ATOM      5  N   UNL     1       2.178   0.534   2.575  1.00  0.00    -0.356 N 
ATOM      6  C   UNL     1       0.852   0.600   2.252  1.00  0.00     0.227 C 
ATOM      7  O   UNL     1       0.138   1.329   2.944  1.00  0.00    -0.274 OA
ATOM      8  H   UNL     1       2.425   0.980   3.418  1.00  0.00     0.163 HD
BRANCH   6   9
ATOM      9  C   UNL     1       0.324  -0.224   1.070  1.00  0.00     0.105 C 
ATOM     10  C   UNL     1       0.633   0.456  -0.265  1.00  0.00     0.023 C 
BRANCH   9  11
ATOM     11  C   UNL     1      -1.158  -0.564   1.206  1.00  0.00    -0.034 A 
ATOM     12  C   UNL     1      -2.163   0.388   0.982  1.00  0.00     0.005 A 
ATOM     13  C   UNL     1      -1.515  -1.867   1.594  1.00  0.00     0.031 A 
ATOM     14  C   UNL     1      -3.522   0.057   1.097  1.00  0.00     0.011 A 
ATOM     15  C   UNL     1      -2.873  -2.163   1.751  1.00  0.00     0.047 A 
ATOM     16  C   UNL     1      -3.887  -1.245   1.492  1.00  0.00     0.007 A 
ATOM     17  N   UNL     1      -3.472  -3.321   2.181  1.00  0.00    -0.355 N 
ATOM     18  C   UNL     1      -5.133  -1.907   1.741  1.00  0.00     0.009 A 
ATOM     19  C   UNL     1      -4.836  -3.172   2.249  1.00  0.00     0.047 A 
ATOM     20  H   UNL     1      -2.989  -4.148   2.409  1.00  0.00     0.167 HD
ATOM     21  C   UNL     1      -6.488  -1.533   1.617  1.00  0.00     0.031 A 
ATOM     22  C   UNL     1      -5.813  -4.055   2.718  1.00  0.00     0.028 A 
ATOM     23  C   UNL     1      -7.476  -2.421   2.054  1.00  0.00     0.041 A 
ATOM     24  C   UNL     1      -7.147  -3.650   2.620  1.00  0.00     0.022 A 
ATOM     25  Cl  UNL     1      -9.136  -1.982   1.897  1.00  0.00    -0.084 Cl
ENDBRANCH   9  11
ENDBRANCH   6   9
ENDBRANCH   4   5
ENDBRANCH   3   4
ENDBRANCH   2   3
ENDBRANCH   1   2
BRANCH   1  26
ATOM     26  C   UNL     1       6.993   0.212   2.349  1.00  0.00     0.021 C 
BRANCH  26  27
ATOM     27  C   UNL     1       7.890   1.012   1.407  1.00  0.00     0.116 C 
BRANCH  27  28
ATOM     28  N   UNL     1       8.712   1.980   2.119  1.00  0.00    -0.352 N 
ATOM     29  C   UNL     1      10.081   2.117   2.144  1.00  0.00     0.251 C 
ATOM     30  H   UNL     1       8.215   2.634   2.663  1.00  0.00     0.163 HD
ATOM     31  O   UNL     1      10.608   2.875   2.947  1.00  0.00    -0.269 OA
BRANCH  29  32
ATOM     32  C   UNL     1      10.915   1.323   1.213  1.00  0.00     0.039 A 
ATOM     33  C   UNL     1      12.025   0.639   1.717  1.00  0.00     0.014 A 
ATOM     34  C   UNL     1      10.595   1.240  -0.144  1.00  0.00     0.014 A 
ATOM     35  C   UNL     1      12.761  -0.200   0.876  1.00  0.00     0.010 A 
ATOM     36  C   UNL     1      11.290   0.354  -0.965  1.00  0.00     0.010 A 
ATOM     37  C   UNL     1      12.368  -0.389  -0.460  1.00  0.00    -0.014 A 
BRANCH  37  38
ATOM     38  C   UNL     1      13.017  -1.417  -1.316  1.00  0.00     0.031 A 
ATOM     39  C   UNL     1      13.744  -1.026  -2.573  1.00  0.00     0.074 A 
ATOM     40  C   UNL     1      12.844  -2.722  -1.017  1.00  0.00     0.049 A 
ATOM     41  N   UNL     1      14.289  -1.796  -3.479  1.00  0.00    -0.248 NA
ATOM     42  C   UNL     1      13.857   0.413  -2.864  1.00  0.00     0.031 C 
ATOM     43  C   UNL     1      12.088  -3.233   0.129  1.00  0.00     0.029 A 
ATOM     44  N   UNL     1      13.253  -3.858  -1.674  1.00  0.00    -0.354 N 
ATOM     45  C   UNL     1      14.769  -0.944  -4.466  1.00  0.00     0.074 A 
ATOM     46  C   UNL     1      14.447   0.405  -4.053  1.00  0.00     0.031 C 
ATOM     47  C   UNL     1      12.073  -4.575   0.086  1.00  0.00     0.029 A 
ATOM     48  C   UNL     1      12.781  -5.021  -1.109  1.00  0.00     0.049 A 
ATOM     49  H   UNL     1      13.829  -3.842  -2.472  1.00  0.00     0.167 HD
ATOM     50  C   UNL     1      15.431  -1.258  -5.605  1.00  0.00     0.034 A 
ATOM     51  C   UNL     1      12.876  -6.302  -1.520  1.00  0.00     0.034 A 
ATOM     52  C   UNL     1      15.790  -2.596  -5.991  1.00  0.00     0.049 A 
ATOM     53  C   UNL     1      13.639  -6.614  -2.778  1.00  0.00     0.074 A 
ATOM     54  C   UNL     1      16.575  -2.998  -7.058  1.00  0.00     0.029 A 
ATOM     55  N   UNL     1      15.368  -3.748  -5.349  1.00  0.00    -0.354 N 
ATOM     56  N   UNL     1      14.266  -5.795  -3.586  1.00  0.00    -0.248 NA
ATOM     57  C   UNL     1      13.733  -8.029  -3.169  1.00  0.00     0.031 C 
ATOM     58  C   UNL     1      16.588  -4.394  -7.090  1.00  0.00     0.029 A 
ATOM     59  C   UNL     1      15.842  -4.862  -6.021  1.00  0.00     0.049 A 
ATOM     60  H   UNL     1      14.813  -3.772  -4.536  1.00  0.00     0.167 HD
ATOM     61  C   UNL     1      14.845  -6.595  -4.565  1.00  0.00     0.074 A 
ATOM     62  C   UNL     1      14.524  -7.966  -4.231  1.00  0.00     0.031 C 
ATOM     63  C   UNL     1      15.557  -6.225  -5.657  1.00  0.00     0.034 A 
BRANCH  50  64
ATOM     64  C   UNL     1      15.853  -0.140  -6.520  1.00  0.00     0.023 A 
ATOM     65  C   UNL     1      16.939   0.684  -6.165  1.00  0.00     0.012 A 
ATOM     66  C   UNL     1      15.254   0.010  -7.787  1.00  0.00     0.148 A 
ATOM     67  C   UNL     1      17.415   1.649  -7.051  1.00  0.00     0.002 A 
ATOM     68  C   UNL     1      15.761   0.944  -8.681  1.00  0.00     0.091 A 
ATOM     69  F   UNL     1      14.212  -0.774  -8.097  1.00  0.00    -0.205 F 
ATOM     70  C   UNL     1      16.837   1.769  -8.312  1.00  0.00     0.022 A 
BRANCH  68  71
ATOM     71  S   UNL     1      15.142   1.121 -10.358  1.00  0.00     0.127 S 
ATOM     72  O   UNL     1      14.562   2.463 -10.318  1.00  0.00    -0.237 OA
ATOM     73  O   UNL     1      16.368   1.010 -11.149  1.00  0.00    -0.237 OA
ATOM     74  O   UNL     1      14.187   0.039 -10.553  1.00  0.00    -0.744 OA
ENDBRANCH  68  71
ENDBRANCH  50  64
BRANCH  51  75
ATOM     75  C   UNL     1      12.235  -7.394  -0.732  1.00  0.00     0.023 A 
ATOM     76  C   UNL     1      13.038  -8.351  -0.082  1.00  0.00     0.012 A 
ATOM     77  C   UNL     1      10.833  -7.494  -0.630  1.00  0.00     0.148 A 
ATOM     78  C   UNL     1      12.458  -9.412   0.615  1.00  0.00     0.002 A 
ATOM     79  C   UNL     1      10.263  -8.517   0.118  1.00  0.00     0.091 A 
ATOM     80  F   UNL     1      10.082  -6.585  -1.268  1.00  0.00    -0.205 F 
ATOM     81  C   UNL     1      11.072  -9.490   0.723  1.00  0.00     0.022 A 
BRANCH  79  82
ATOM     82  S   UNL     1       8.495  -8.605   0.422  1.00  0.00     0.127 S 
ATOM     83  O   UNL     1       8.093  -9.700  -0.457  1.00  0.00    -0.237 OA
ATOM     84  O   UNL     1       8.445  -8.912   1.852  1.00  0.00    -0.237 OA
ATOM     85  O   UNL     1       7.973  -7.288   0.078  1.00  0.00    -0.744 OA
ENDBRANCH  79  82
ENDBRANCH  51  75
BRANCH  63  86
ATOM     86  C   UNL     1      16.059  -7.312  -6.571  1.00  0.00     0.023 A 
ATOM     87  C   UNL     1      15.149  -8.003  -7.396  1.00  0.00     0.012 A 
ATOM     88  C   UNL     1      17.436  -7.589  -6.675  1.00  0.00     0.148 A 
ATOM     89  C   UNL     1      15.600  -8.973  -8.290  1.00  0.00     0.002 A 
ATOM     90  C   UNL     1      17.883  -8.521  -7.604  1.00  0.00     0.091 A 
ATOM     91  F   UNL     1      18.283  -6.929  -5.871  1.00  0.00    -0.205 F 
ATOM     92  C   UNL     1      16.965  -9.222  -8.403  1.00  0.00     0.022 A 
BRANCH  90  93
ATOM     93  S   UNL     1      19.626  -8.844  -7.891  1.00  0.00     0.127 S 
ATOM     94  O   UNL     1      19.757 -10.219  -7.413  1.00  0.00    -0.237 OA
ATOM     95  O   UNL     1      19.734  -8.689  -9.341  1.00  0.00    -0.237 OA
ATOM     96  O   UNL     1      20.355  -7.848  -7.117  1.00  0.00    -0.744 OA
ENDBRANCH  90  93
ENDBRANCH  63  86
ENDBRANCH  37  38
ENDBRANCH  29  32
ENDBRANCH  27  28
ENDBRANCH  26  27
ENDBRANCH   1  26
TORSDOF 17
