REMARK SMILES Cc1nn(-c2ccc(Cl)c(F)c2)cc1C(=O)NCCCCCCNC(=O)c1ccc(-c2c3nc(c(-c4cccc(S(=O)(=O)[O-])c4F)c4ccc([nH]4)c(-c4cccc(S(=O)(=O)[O-])c4F)c4nc(c(-c5cccc(S(=O)(=O)[O-])c5F)c5ccc2[nH]5)C=C4)C=C3)cc1
REMARK SMILES IDX 21 1 20 2 19 3 18 4 17 5 15 6 16 7 14 9 1 10 2 11 3 12 4 13
REMARK SMILES IDX 13 14 5 15 6 16 12 17 7 18 10 19 8 20 11 21 9 22 22 23 23 24
REMARK SMILES IDX 24 25 25 26 26 28 27 29 28 30 89 31 29 32 88 33 30 34 31 35
REMARK SMILES IDX 32 36 82 37 33 38 87 39 81 40 83 41 34 42 86 43 80 44 79 45
REMARK SMILES IDX 35 47 67 48 47 49 66 50 48 51 51 52 65 53 84 54 49 55 50 56
REMARK SMILES IDX 64 58 85 59 52 60 36 61 37 62 45 63 38 64 40 65 46 66 39 67
REMARK SMILES IDX 41 68 42 69 43 70 44 71 68 72 69 73 77 74 70 75 72 76 78 77
REMARK SMILES IDX 71 78 73 79 74 80 75 81 76 82 53 83 54 84 62 85 55 86 57 87
REMARK SMILES IDX 63 88 56 89 58 90 59 91 60 92 61 93
REMARK H PARENT 17 8 24 27 83 46 51 57
REMARK Flexibility Score: inf
ROOT
ATOM      1  C   UNL     1       4.020   7.304   2.220  1.00  0.00     0.002 C 
ENDROOT
BRANCH   1   2
ATOM      2  C   UNL     1       2.829   6.569   2.854  1.00  0.00     0.002 C 
BRANCH   2   3
ATOM      3  C   UNL     1       1.753   6.089   1.879  1.00  0.00     0.021 C 
BRANCH   3   4
ATOM      4  C   UNL     1       2.287   5.265   0.712  1.00  0.00     0.116 C 
BRANCH   4   5
ATOM      5  N   UNL     1       2.624   3.908   1.091  1.00  0.00    -0.352 N 
ATOM      6  C   UNL     1       2.140   2.674   0.738  1.00  0.00     0.254 C 
ATOM      7  O   UNL     1       2.675   1.710   1.292  1.00  0.00    -0.269 OA
ATOM      8  H   UNL     1       3.361   3.861   1.743  1.00  0.00     0.163 HD
BRANCH   6   9
ATOM      9  C   UNL     1       1.064   2.481  -0.227  1.00  0.00     0.081 A 
ATOM     10  C   UNL     1       0.728  -0.109  -0.020  1.00  0.00     0.069 C 
ATOM     11  C   UNL     1       0.396   1.249  -0.528  1.00  0.00     0.073 A 
ATOM     12  N   UNL     1      -0.634   1.409  -1.377  1.00  0.00    -0.173 NA
ATOM     13  N   UNL     1      -0.551   2.699  -1.750  1.00  0.00    -0.240 N 
ATOM     14  C   UNL     1       0.463   3.357  -1.101  1.00  0.00     0.129 A 
BRANCH  13  15
ATOM     15  C   UNL     1      -1.383   3.278  -2.734  1.00  0.00     0.068 A 
ATOM     16  C   UNL     1      -2.742   2.958  -2.789  1.00  0.00     0.030 A 
ATOM     17  C   UNL     1      -0.840   4.230  -3.610  1.00  0.00     0.069 A 
ATOM     18  C   UNL     1      -3.568   3.638  -3.694  1.00  0.00     0.026 A 
ATOM     19  C   UNL     1      -1.662   4.857  -4.537  1.00  0.00     0.143 A 
ATOM     20  C   UNL     1      -3.025   4.579  -4.574  1.00  0.00     0.076 A 
ATOM     21  F   UNL     1      -1.105   5.724  -5.396  1.00  0.00    -0.205 F 
ATOM     22  Cl  UNL     1      -4.043   5.375  -5.710  1.00  0.00    -0.081 Cl
ENDBRANCH  13  15
ENDBRANCH   6   9
ENDBRANCH   4   5
ENDBRANCH   3   4
ENDBRANCH   2   3
ENDBRANCH   1   2
BRANCH   1  23
ATOM     23  C   UNL     1       3.677   8.439   1.242  1.00  0.00     0.021 C 
BRANCH  23  24
ATOM     24  C   UNL     1       2.950   9.605   1.894  1.00  0.00     0.116 C 
BRANCH  24  25
ATOM     25  N   UNL     1       3.802  10.293   2.857  1.00  0.00    -0.352 N 
ATOM     26  C   UNL     1       3.506  11.393   3.633  1.00  0.00     0.251 C 
ATOM     27  H   UNL     1       4.707   9.924   2.967  1.00  0.00     0.163 HD
ATOM     28  O   UNL     1       4.401  12.053   4.134  1.00  0.00    -0.269 OA
BRANCH  26  29
ATOM     29  C   UNL     1       2.094  11.766   3.836  1.00  0.00     0.039 A 
ATOM     30  C   UNL     1       1.718  13.111   3.787  1.00  0.00     0.014 A 
ATOM     31  C   UNL     1       1.149  10.767   4.072  1.00  0.00     0.014 A 
ATOM     32  C   UNL     1       0.371  13.438   3.901  1.00  0.00     0.010 A 
ATOM     33  C   UNL     1      -0.191  11.081   4.077  1.00  0.00     0.010 A 
ATOM     34  C   UNL     1      -0.583  12.416   4.024  1.00  0.00    -0.014 A 
BRANCH  34  35
ATOM     35  C   UNL     1      -2.004  12.741   3.943  1.00  0.00     0.031 A 
ATOM     36  C   UNL     1      -2.399  13.462   2.701  1.00  0.00     0.074 A 
ATOM     37  C   UNL     1      -2.926  12.252   4.798  1.00  0.00     0.049 A 
ATOM     38  N   UNL     1      -2.852  14.668   2.600  1.00  0.00    -0.248 NA
ATOM     39  C   UNL     1      -2.122  12.820   1.405  1.00  0.00     0.031 C 
ATOM     40  C   UNL     1      -2.715  11.277   5.875  1.00  0.00     0.029 A 
ATOM     41  N   UNL     1      -4.282  12.399   4.785  1.00  0.00    -0.354 N 
ATOM     42  C   UNL     1      -3.155  14.843   1.250  1.00  0.00     0.074 A 
ATOM     43  C   UNL     1      -2.492  13.776   0.551  1.00  0.00     0.031 C 
ATOM     44  C   UNL     1      -3.898  10.726   6.217  1.00  0.00     0.029 A 
ATOM     45  C   UNL     1      -4.957  11.419   5.509  1.00  0.00     0.049 A 
ATOM     46  H   UNL     1      -4.740  13.128   4.308  1.00  0.00     0.167 HD
ATOM     47  C   UNL     1      -4.150  15.687   0.858  1.00  0.00     0.034 A 
ATOM     48  C   UNL     1      -6.285  11.155   5.479  1.00  0.00     0.034 A 
ATOM     49  C   UNL     1      -4.530  16.577   1.929  1.00  0.00     0.049 A 
ATOM     50  C   UNL     1      -6.962  12.370   4.976  1.00  0.00     0.074 A 
ATOM     51  C   UNL     1      -3.882  17.504   2.720  1.00  0.00     0.029 A 
ATOM     52  N   UNL     1      -5.711  16.292   2.569  1.00  0.00    -0.354 N 
ATOM     53  N   UNL     1      -6.998  13.496   5.629  1.00  0.00    -0.248 NA
ATOM     54  C   UNL     1      -7.271  12.457   3.559  1.00  0.00     0.031 C 
ATOM     55  C   UNL     1      -4.487  17.378   4.006  1.00  0.00     0.029 A 
ATOM     56  C   UNL     1      -5.510  16.431   3.914  1.00  0.00     0.049 A 
ATOM     57  H   UNL     1      -6.556  16.032   2.135  1.00  0.00     0.167 HD
ATOM     58  C   UNL     1      -6.848  14.462   4.646  1.00  0.00     0.074 A 
ATOM     59  C   UNL     1      -7.170  13.778   3.396  1.00  0.00     0.031 C 
ATOM     60  C   UNL     1      -6.187  15.629   4.909  1.00  0.00     0.034 A 
BRANCH  47  61
ATOM     61  C   UNL     1      -5.076  15.461  -0.324  1.00  0.00     0.023 A 
ATOM     62  C   UNL     1      -6.013  16.484  -0.608  1.00  0.00     0.012 A 
ATOM     63  C   UNL     1      -5.286  14.217  -0.964  1.00  0.00     0.148 A 
ATOM     64  C   UNL     1      -7.141  16.255  -1.405  1.00  0.00     0.002 A 
ATOM     65  C   UNL     1      -6.365  14.018  -1.819  1.00  0.00     0.091 A 
ATOM     66  F   UNL     1      -4.525  13.165  -0.659  1.00  0.00    -0.205 F 
ATOM     67  C   UNL     1      -7.317  15.020  -2.012  1.00  0.00     0.022 A 
BRANCH  65  68
ATOM     68  S   UNL     1      -6.615  12.454  -2.670  1.00  0.00     0.127 S 
ATOM     69  O   UNL     1      -7.745  11.899  -1.932  1.00  0.00    -0.237 OA
ATOM     70  O   UNL     1      -6.919  12.902  -4.030  1.00  0.00    -0.237 OA
ATOM     71  O   UNL     1      -5.353  11.736  -2.547  1.00  0.00    -0.744 OA
ENDBRANCH  65  68
ENDBRANCH  47  61
BRANCH  48  72
ATOM     72  C   UNL     1      -6.997   9.864   5.616  1.00  0.00     0.023 A 
ATOM     73  C   UNL     1      -8.379   9.859   5.894  1.00  0.00     0.012 A 
ATOM     74  C   UNL     1      -6.400   8.658   5.188  1.00  0.00     0.148 A 
ATOM     75  C   UNL     1      -9.149   8.705   5.705  1.00  0.00     0.002 A 
ATOM     76  C   UNL     1      -7.167   7.511   5.008  1.00  0.00     0.091 A 
ATOM     77  F   UNL     1      -5.101   8.658   4.862  1.00  0.00    -0.205 F 
ATOM     78  C   UNL     1      -8.546   7.535   5.252  1.00  0.00     0.022 A 
BRANCH  76  79
ATOM     79  S   UNL     1      -6.455   5.977   4.398  1.00  0.00     0.127 S 
ATOM     80  O   UNL     1      -7.034   4.989   5.309  1.00  0.00    -0.237 OA
ATOM     81  O   UNL     1      -6.969   5.927   3.032  1.00  0.00    -0.237 OA
ATOM     82  O   UNL     1      -5.011   6.132   4.525  1.00  0.00    -0.744 OA
ENDBRANCH  76  79
ENDBRANCH  48  72
BRANCH  60  83
ATOM     83  C   UNL     1      -5.916  15.978   6.352  1.00  0.00     0.023 A 
ATOM     84  C   UNL     1      -5.117  15.175   7.193  1.00  0.00     0.012 A 
ATOM     85  C   UNL     1      -6.358  17.224   6.827  1.00  0.00     0.148 A 
ATOM     86  C   UNL     1      -4.797  15.590   8.489  1.00  0.00     0.002 A 
ATOM     87  C   UNL     1      -5.997  17.656   8.097  1.00  0.00     0.091 A 
ATOM     88  F   UNL     1      -7.113  17.981   6.016  1.00  0.00    -0.205 F 
ATOM     89  C   UNL     1      -5.226  16.837   8.936  1.00  0.00     0.022 A 
BRANCH  87  90
ATOM     90  S   UNL     1      -6.416  19.300   8.676  1.00  0.00     0.127 S 
ATOM     91  O   UNL     1      -7.542  19.033   9.569  1.00  0.00    -0.237 OA
ATOM     92  O   UNL     1      -5.187  19.722   9.351  1.00  0.00    -0.237 OA
ATOM     93  O   UNL     1      -6.730  20.075   7.481  1.00  0.00    -0.744 OA
ENDBRANCH  87  90
ENDBRANCH  60  83
ENDBRANCH  34  35
ENDBRANCH  26  29
ENDBRANCH  24  25
ENDBRANCH  23  24
ENDBRANCH   1  23
TORSDOF 17
