REMARK SMILES CC[C@@H]1C=CCN1S(=O)(=O)c1sc2c(c1C(=O)NCCCCCCNC(=O)c1ccc(-c3c4nc(c(-c5cccc(S(=O)(=O)[O-])c5F)c5ccc([nH]5)c(-c5cccc(S(=O)(=O)[O-])c5F)c5nc(c(-c6cccc(S(=O)(=O)[O-])c6F)c6ccc3[nH]6)C=C5)C=C4)cc1)CC[NH2+]C2
REMARK SMILES IDX 21 1 20 2 19 3 18 4 16 5 17 6 15 8 11 9 12 10 13 11 14 12
REMARK SMILES IDX 94 13 91 14 93 15 92 16 8 19 9 20 10 21 7 22 3 23 4 24 5 25
REMARK SMILES IDX 6 26 2 27 1 28 22 29 23 30 24 31 25 32 26 33 27 35 28 36
REMARK SMILES IDX 29 37 90 38 30 39 89 40 31 41 32 42 33 43 83 44 34 45 88 46
REMARK SMILES IDX 82 47 84 48 35 49 87 50 81 51 80 52 36 54 68 55 48 56 67 57
REMARK SMILES IDX 49 58 52 59 66 60 85 61 50 62 51 63 65 65 86 66 53 67 37 68
REMARK SMILES IDX 38 69 46 70 39 71 41 72 47 73 40 74 42 75 43 76 44 77 45 78
REMARK SMILES IDX 69 79 70 80 78 81 71 82 73 83 79 84 72 85 74 86 75 87 76 88
REMARK SMILES IDX 77 89 54 90 55 91 63 92 56 93 58 94 64 95 57 96 59 97 60 98
REMARK SMILES IDX 61 99 62 100
REMARK H PARENT 18 7 93 17 93 18 25 34 84 53 52 64
REMARK Flexibility Score: inf
ROOT
ATOM      1  C   UNL     1      -3.060   1.538   5.950  1.00  0.00     0.002 C 
ENDROOT
BRANCH   1   2
ATOM      2  C   UNL     1      -2.203   2.556   5.179  1.00  0.00     0.021 C 
BRANCH   2   3
ATOM      3  C   UNL     1      -2.576   2.905   3.743  1.00  0.00     0.116 C 
BRANCH   3   4
ATOM      4  N   UNL     1      -3.615   3.882   3.583  1.00  0.00    -0.352 N 
ATOM      5  C   UNL     1      -3.885   4.798   2.601  1.00  0.00     0.253 C 
ATOM      6  O   UNL     1      -4.986   5.344   2.759  1.00  0.00    -0.269 OA
ATOM      7  H   UNL     1      -4.262   3.896   4.324  1.00  0.00     0.163 HD
BRANCH   5   8
ATOM      8  C   UNL     1      -3.003   5.245   1.486  1.00  0.00     0.074 A 
ATOM      9  C   UNL     1      -2.041   4.583   0.689  1.00  0.00     0.148 A 
ATOM     10  S   UNL     1      -1.429   5.635  -0.555  1.00  0.00    -0.120 S 
ATOM     11  C   UNL     1      -2.325   6.950  -0.068  1.00  0.00     0.064 A 
ATOM     12  C   UNL     1      -3.163   6.646   0.980  1.00  0.00    -0.009 A 
ATOM     13  C   UNL     1      -2.228   8.259  -0.792  1.00  0.00     0.308 C 
ATOM     14  C   UNL     1      -4.083   7.741   1.485  1.00  0.00     0.099 C 
ATOM     15  N   UNL     1      -2.839   9.351  -0.016  1.00  0.00    -0.342 N 
ATOM     16  C   UNL     1      -4.157   8.929   0.490  1.00  0.00     0.265 C 
ATOM     17  H   UNL     1      -2.234   9.587   0.771  1.00  0.00     0.346 HD
ATOM     18  H   UNL     1      -2.955  10.167  -0.617  1.00  0.00     0.346 HD
BRANCH   9  19
ATOM     19  S   UNL     1      -1.244   2.948   0.468  1.00  0.00     0.254 S 
ATOM     20  O   UNL     1      -1.190   2.717  -0.961  1.00  0.00    -0.206 OA
ATOM     21  O   UNL     1      -1.998   2.015   1.276  1.00  0.00    -0.206 OA
BRANCH  19  22
ATOM     22  N   UNL     1       0.348   3.061   1.063  1.00  0.00    -0.186 NA
ATOM     23  C   UNL     1       1.072   1.787   1.390  1.00  0.00     0.096 C 
ATOM     24  C   UNL     1       2.334   1.879   0.599  1.00  0.00    -0.010 C 
ATOM     25  C   UNL     1       2.469   3.074   0.030  1.00  0.00    -0.013 C 
ATOM     26  C   UNL     1       1.284   3.927   0.280  1.00  0.00     0.130 C 
BRANCH  23  27
ATOM     27  C   UNL     1       1.444   1.786   2.882  1.00  0.00     0.021 C 
ATOM     28  C   UNL     1       0.629   0.774   3.652  1.00  0.00     0.006 C 
ENDBRANCH  23  27
ENDBRANCH  19  22
ENDBRANCH   9  19
ENDBRANCH   5   8
ENDBRANCH   3   4
ENDBRANCH   2   3
ENDBRANCH   1   2
BRANCH   1  29
ATOM     29  C   UNL     1      -3.687   0.316   5.250  1.00  0.00     0.002 C 
BRANCH  29  30
ATOM     30  C   UNL     1      -2.813  -0.647   4.435  1.00  0.00     0.021 C 
BRANCH  30  31
ATOM     31  C   UNL     1      -1.593  -1.209   5.149  1.00  0.00     0.116 C 
BRANCH  31  32
ATOM     32  N   UNL     1      -1.887  -2.170   6.205  1.00  0.00    -0.352 N 
ATOM     33  C   UNL     1      -0.983  -2.899   6.959  1.00  0.00     0.251 C 
ATOM     34  H   UNL     1      -2.839  -2.317   6.407  1.00  0.00     0.163 HD
ATOM     35  O   UNL     1      -1.353  -3.900   7.567  1.00  0.00    -0.269 OA
BRANCH  33  36
ATOM     36  C   UNL     1       0.436  -2.478   7.024  1.00  0.00     0.039 A 
ATOM     37  C   UNL     1       1.467  -3.424   7.075  1.00  0.00     0.014 A 
ATOM     38  C   UNL     1       0.743  -1.120   7.052  1.00  0.00     0.014 A 
ATOM     39  C   UNL     1       2.795  -2.991   7.074  1.00  0.00     0.010 A 
ATOM     40  C   UNL     1       2.045  -0.698   6.911  1.00  0.00     0.010 A 
ATOM     41  C   UNL     1       3.081  -1.621   6.971  1.00  0.00    -0.014 A 
BRANCH  41  42
ATOM     42  C   UNL     1       4.456  -1.152   6.796  1.00  0.00     0.031 A 
ATOM     43  C   UNL     1       5.178  -1.767   5.646  1.00  0.00     0.074 A 
ATOM     44  C   UNL     1       4.968  -0.085   7.452  1.00  0.00     0.049 A 
ATOM     45  N   UNL     1       6.226  -2.522   5.681  1.00  0.00    -0.248 NA
ATOM     46  C   UNL     1       4.588  -1.631   4.304  1.00  0.00     0.031 C 
ATOM     47  C   UNL     1       4.274   0.829   8.370  1.00  0.00     0.029 A 
ATOM     48  N   UNL     1       6.189   0.508   7.315  1.00  0.00    -0.354 N 
ATOM     49  C   UNL     1       6.567  -2.758   4.350  1.00  0.00     0.074 A 
ATOM     50  C   UNL     1       5.426  -2.363   3.567  1.00  0.00     0.031 C 
ATOM     51  C   UNL     1       4.977   1.977   8.481  1.00  0.00     0.029 A 
ATOM     52  C   UNL     1       6.242   1.817   7.793  1.00  0.00     0.049 A 
ATOM     53  H   UNL     1       6.963   0.052   6.914  1.00  0.00     0.167 HD
ATOM     54  C   UNL     1       7.853  -3.014   3.981  1.00  0.00     0.034 A 
ATOM     55  C   UNL     1       7.235   2.719   7.595  1.00  0.00     0.034 A 
ATOM     56  C   UNL     1       8.665  -3.377   5.115  1.00  0.00     0.049 A 
ATOM     57  C   UNL     1       8.442   1.961   7.200  1.00  0.00     0.074 A 
ATOM     58  C   UNL     1       8.596  -4.344   6.099  1.00  0.00     0.029 A 
ATOM     59  N   UNL     1       9.544  -2.431   5.585  1.00  0.00    -0.354 N 
ATOM     60  N   UNL     1       9.087   1.164   8.004  1.00  0.00    -0.248 NA
ATOM     61  C   UNL     1       8.692   1.767   5.783  1.00  0.00     0.031 C 
ATOM     62  C   UNL     1       9.022  -3.683   7.289  1.00  0.00     0.029 A 
ATOM     63  C   UNL     1       9.397  -2.383   6.945  1.00  0.00     0.049 A 
ATOM     64  H   UNL     1      10.163  -1.889   5.045  1.00  0.00     0.167 HD
ATOM     65  C   UNL     1       9.436   0.087   7.202  1.00  0.00     0.074 A 
ATOM     66  C   UNL     1       9.273   0.566   5.830  1.00  0.00     0.031 C 
ATOM     67  C   UNL     1       9.537  -1.172   7.721  1.00  0.00     0.034 A 
BRANCH  54  68
ATOM     68  C   UNL     1       8.483  -2.579   2.675  1.00  0.00     0.023 A 
ATOM     69  C   UNL     1       9.791  -3.042   2.397  1.00  0.00     0.012 A 
ATOM     70  C   UNL     1       7.992  -1.535   1.857  1.00  0.00     0.148 A 
ATOM     71  C   UNL     1      10.585  -2.457   1.404  1.00  0.00     0.002 A 
ATOM     72  C   UNL     1       8.752  -1.015   0.816  1.00  0.00     0.091 A 
ATOM     73  F   UNL     1       6.839  -0.932   2.158  1.00  0.00    -0.205 F 
ATOM     74  C   UNL     1      10.063  -1.447   0.607  1.00  0.00     0.022 A 
BRANCH  72  75
ATOM     75  S   UNL     1       8.099   0.254  -0.278  1.00  0.00     0.127 S 
ATOM     76  O   UNL     1       8.823   1.435   0.178  1.00  0.00    -0.237 OA
ATOM     77  O   UNL     1       8.497  -0.252  -1.592  1.00  0.00    -0.237 OA
ATOM     78  O   UNL     1       6.657   0.258  -0.054  1.00  0.00    -0.744 OA
ENDBRANCH  72  75
ENDBRANCH  54  68
BRANCH  55  79
ATOM     79  C   UNL     1       7.200   4.198   7.507  1.00  0.00     0.023 A 
ATOM     80  C   UNL     1       8.393   4.929   7.687  1.00  0.00     0.012 A 
ATOM     81  C   UNL     1       6.088   4.866   6.950  1.00  0.00     0.148 A 
ATOM     82  C   UNL     1       8.492   6.264   7.279  1.00  0.00     0.002 A 
ATOM     83  C   UNL     1       6.191   6.195   6.546  1.00  0.00     0.091 A 
ATOM     84  F   UNL     1       4.965   4.171   6.726  1.00  0.00    -0.205 F 
ATOM     85  C   UNL     1       7.396   6.894   6.697  1.00  0.00     0.022 A 
BRANCH  83  86
ATOM     86  S   UNL     1       4.830   7.060   5.749  1.00  0.00     0.127 S 
ATOM     87  O   UNL     1       4.815   8.335   6.468  1.00  0.00    -0.237 OA
ATOM     88  O   UNL     1       5.290   7.141   4.366  1.00  0.00    -0.237 OA
ATOM     89  O   UNL     1       3.649   6.234   5.974  1.00  0.00    -0.744 OA
ENDBRANCH  83  86
ENDBRANCH  55  79
BRANCH  67  90
ATOM     90  C   UNL     1       9.534  -1.331   9.221  1.00  0.00     0.023 A 
ATOM     91  C   UNL     1       8.453  -0.921  10.031  1.00  0.00     0.012 A 
ATOM     92  C   UNL     1      10.582  -2.056   9.810  1.00  0.00     0.148 A 
ATOM     93  C   UNL     1       8.435  -1.203  11.400  1.00  0.00     0.002 A 
ATOM     94  C   UNL     1      10.538  -2.378  11.161  1.00  0.00     0.091 A 
ATOM     95  F   UNL     1      11.605  -2.441   9.031  1.00  0.00    -0.205 F 
ATOM     96  C   UNL     1       9.472  -1.944  11.963  1.00  0.00     0.022 A 
BRANCH  94  97
ATOM     97  S   UNL     1      11.783  -3.433  11.905  1.00  0.00     0.127 S 
ATOM     98  O   UNL     1      12.631  -2.465  12.596  1.00  0.00    -0.237 OA
ATOM     99  O   UNL     1      10.987  -4.290  12.787  1.00  0.00    -0.237 OA
ATOM    100  O   UNL     1      12.411  -4.146  10.799  1.00  0.00    -0.744 OA
ENDBRANCH  94  97
ENDBRANCH  67  90
ENDBRANCH  41  42
ENDBRANCH  33  36
ENDBRANCH  31  32
ENDBRANCH  30  31
ENDBRANCH  29  30
ENDBRANCH   1  29
TORSDOF 19
