REMARK SMILES Cc1ccc(S(=O)(=O)n2cc(C(=O)C(=O)N[C@H](Cc3c[nH]c4ccccc34)C(=O)NCC(=O)NCCCCCCNC(=O)c3ccc(-c4c5nc(c(-c6cccc(S(=O)(=O)[O-])c6F)c6ccc([nH]6)c(-c6cccc(S(=O)(=O)[O-])c6F)c6nc(c(-c7cccc(S(=O)(=O)[O-])c7F)c7ccc4[nH]7)C=C6)C=C5)cc3)c3ccccc32)cc1
REMARK SMILES IDX 35 1 34 2 32 3 33 4 31 6 30 7 28 8 29 9 17 11 16 12 14 13
REMARK SMILES IDX 15 14 12 16 13 17 11 18 9 19 10 20 112 21 107 22 111 23
REMARK SMILES IDX 108 24 110 25 109 26 6 27 7 28 8 29 5 30 1 31 2 32 3 33
REMARK SMILES IDX 114 34 4 35 113 36 18 37 19 38 20 39 27 40 21 41 22 42 26 43
REMARK SMILES IDX 23 45 25 46 24 47 36 48 37 49 38 50 39 51 40 52 41 53 42 54
REMARK SMILES IDX 43 56 44 57 45 58 106 59 46 60 105 61 47 62 48 63 49 64
REMARK SMILES IDX 99 65 50 66 104 67 98 68 100 69 51 70 103 71 97 72 96 73
REMARK SMILES IDX 52 75 84 76 64 77 83 78 65 79 68 80 82 81 101 82 66 83 67 84
REMARK SMILES IDX 81 86 102 87 69 88 53 89 54 90 62 91 55 92 57 93 63 94 56 95
REMARK SMILES IDX 58 96 59 97 60 98 61 99 85 100 86 101 94 102 87 103 89 104
REMARK SMILES IDX 95 105 88 106 90 107 91 108 92 109 93 110 70 111 71 112
REMARK SMILES IDX 79 113 72 114 74 115 80 116 73 117 75 118 76 119 77 120
REMARK SMILES IDX 78 121
REMARK H PARENT 34 5 30 10 16 15 21 44 41 55 100 74 68 85
REMARK Flexibility Score: inf
ROOT
ATOM      1  C   UNL     1     -10.557   4.617  -2.905  1.00  0.00     0.116 C 
ENDROOT
BRANCH   1   2
ATOM      2  N   UNL     1     -11.882   5.189  -3.112  1.00  0.00    -0.355 N 
ATOM      3  C   UNL     1     -13.073   4.906  -2.503  1.00  0.00     0.239 C 
ATOM      4  O   UNL     1     -13.990   5.722  -2.655  1.00  0.00    -0.273 OA
ATOM      5  H   UNL     1     -11.926   5.891  -3.801  1.00  0.00     0.163 HD
BRANCH   3   6
ATOM      6  C   UNL     1     -13.263   3.737  -1.519  1.00  0.00     0.216 C 
BRANCH   6   7
ATOM      7  N   UNL     1     -12.652   2.483  -1.881  1.00  0.00    -0.345 N 
ATOM      8  C   UNL     1     -12.013   1.513  -1.196  1.00  0.00     0.243 C 
ATOM      9  O   UNL     1     -11.857   0.469  -1.846  1.00  0.00    -0.273 OA
ATOM     10  H   UNL     1     -12.717   2.290  -2.844  1.00  0.00     0.164 HD
BRANCH   8  11
ATOM     11  C   UNL     1     -11.425   1.597   0.250  1.00  0.00     0.176 C 
BRANCH  11  12
ATOM     12  N   UNL     1     -12.174   2.262   1.374  1.00  0.00    -0.337 N 
ATOM     13  C   UNL     1     -12.227   3.539   1.918  1.00  0.00     0.293 C 
ATOM     14  O   UNL     1     -12.889   3.740   2.932  1.00  0.00    -0.265 OA
ATOM     15  H   UNL     1     -12.775   1.636   1.839  1.00  0.00     0.164 HD
BRANCH  13  16
ATOM     16  C   UNL     1     -11.499   4.706   1.258  1.00  0.00     0.252 C 
ATOM     17  O   UNL     1     -10.836   4.399   0.265  1.00  0.00    -0.283 OA
BRANCH  16  18
ATOM     18  C   UNL     1     -11.499   6.118   1.697  1.00  0.00     0.054 A 
ATOM     19  N   UNL     1     -11.424   8.147   2.709  1.00  0.00    -0.240 N 
ATOM     20  C   UNL     1     -11.988   6.848   2.789  1.00  0.00     0.117 A 
ATOM     21  C   UNL     1     -10.363   8.030   1.794  1.00  0.00     0.065 A 
ATOM     22  C   UNL     1     -10.882   7.115   0.893  1.00  0.00     0.012 A 
ATOM     23  C   UNL     1      -9.322   8.902   1.442  1.00  0.00     0.028 A 
ATOM     24  C   UNL     1     -10.637   7.300  -0.471  1.00  0.00     0.011 A 
ATOM     25  C   UNL     1      -9.069   9.045   0.070  1.00  0.00     0.002 A 
ATOM     26  C   UNL     1      -9.780   8.315  -0.876  1.00  0.00     0.001 A 
BRANCH  19  27
ATOM     27  S   UNL     1     -12.394   9.604   2.332  1.00  0.00     0.268 S 
ATOM     28  O   UNL     1     -13.399   9.154   1.389  1.00  0.00    -0.201 OA
ATOM     29  O   UNL     1     -11.380  10.580   1.953  1.00  0.00    -0.201 OA
BRANCH  27  30
ATOM     30  C   UNL     1     -13.241  10.461   3.616  1.00  0.00     0.088 A 
ATOM     31  C   UNL     1     -15.202  13.204   6.305  1.00  0.00     0.044 C 
ATOM     32  C   UNL     1     -14.569  12.216   5.369  1.00  0.00    -0.051 A 
ATOM     33  C   UNL     1     -14.044  12.705   4.180  1.00  0.00     0.005 A 
ATOM     34  C   UNL     1     -14.440  10.841   5.662  1.00  0.00     0.005 A 
ATOM     35  C   UNL     1     -13.406  11.834   3.316  1.00  0.00     0.022 A 
ATOM     36  C   UNL     1     -13.773   9.950   4.788  1.00  0.00     0.022 A 
ENDBRANCH  27  30
ENDBRANCH  19  27
ENDBRANCH  16  18
ENDBRANCH  13  16
ENDBRANCH  11  12
BRANCH  11  37
ATOM     37  C   UNL     1      -9.867   1.620   0.373  1.00  0.00     0.072 C 
BRANCH  37  38
ATOM     38  C   UNL     1      -9.054   1.440  -0.881  1.00  0.00    -0.020 A 
ATOM     39  C   UNL     1      -8.375   2.456  -1.523  1.00  0.00     0.087 A 
ATOM     40  C   UNL     1      -8.781   0.242  -1.636  1.00  0.00     0.003 A 
ATOM     41  N   UNL     1      -7.830   1.958  -2.671  1.00  0.00    -0.361 N 
ATOM     42  C   UNL     1      -8.077   0.618  -2.780  1.00  0.00     0.046 A 
ATOM     43  C   UNL     1      -9.096  -1.125  -1.492  1.00  0.00     0.010 A 
ATOM     44  H   UNL     1      -7.329   2.491  -3.330  1.00  0.00     0.166 HD
ATOM     45  C   UNL     1      -7.735  -0.268  -3.807  1.00  0.00     0.026 A 
ATOM     46  C   UNL     1      -8.738  -2.034  -2.502  1.00  0.00     0.001 A 
ATOM     47  C   UNL     1      -8.083  -1.607  -3.652  1.00  0.00     0.002 A 
ENDBRANCH  37  38
ENDBRANCH  11  37
ENDBRANCH   8  11
ENDBRANCH   6   7
ENDBRANCH   3   6
ENDBRANCH   1   2
BRANCH   1  48
ATOM     48  C   UNL     1      -9.713   4.559  -4.180  1.00  0.00     0.021 C 
BRANCH  48  49
ATOM     49  C   UNL     1      -8.921   5.815  -4.572  1.00  0.00     0.002 C 
BRANCH  49  50
ATOM     50  C   UNL     1      -7.885   6.418  -3.608  1.00  0.00     0.002 C 
BRANCH  50  51
ATOM     51  C   UNL     1      -6.683   5.612  -3.105  1.00  0.00     0.021 C 
BRANCH  51  52
ATOM     52  C   UNL     1      -5.907   4.765  -4.108  1.00  0.00     0.116 C 
BRANCH  52  53
ATOM     53  N   UNL     1      -4.523   5.162  -4.325  1.00  0.00    -0.352 N 
ATOM     54  C   UNL     1      -3.513   4.485  -4.996  1.00  0.00     0.251 C 
ATOM     55  H   UNL     1      -4.268   6.033  -3.944  1.00  0.00     0.163 HD
ATOM     56  O   UNL     1      -2.361   4.910  -4.925  1.00  0.00    -0.269 OA
BRANCH  54  57
ATOM     57  C   UNL     1      -3.853   3.349  -5.893  1.00  0.00     0.039 A 
ATOM     58  C   UNL     1      -3.355   3.368  -7.202  1.00  0.00     0.014 A 
ATOM     59  C   UNL     1      -4.836   2.431  -5.544  1.00  0.00     0.014 A 
ATOM     60  C   UNL     1      -4.038   2.687  -8.211  1.00  0.00     0.010 A 
ATOM     61  C   UNL     1      -5.579   1.850  -6.548  1.00  0.00     0.010 A 
ATOM     62  C   UNL     1      -5.224   2.039  -7.885  1.00  0.00    -0.014 A 
BRANCH  62  63
ATOM     63  C   UNL     1      -6.205   1.540  -8.836  1.00  0.00     0.031 A 
ATOM     64  C   UNL     1      -6.199   0.118  -9.223  1.00  0.00     0.074 A 
ATOM     65  C   UNL     1      -7.233   2.343  -9.191  1.00  0.00     0.049 A 
ATOM     66  N   UNL     1      -6.930  -0.375 -10.160  1.00  0.00    -0.248 NA
ATOM     67  C   UNL     1      -5.339  -0.863  -8.578  1.00  0.00     0.031 C 
ATOM     68  C   UNL     1      -8.500   1.954  -9.801  1.00  0.00     0.029 A 
ATOM     69  N   UNL     1      -7.231   3.738  -9.284  1.00  0.00    -0.354 N 
ATOM     70  C   UNL     1      -6.826  -1.747 -10.103  1.00  0.00     0.074 A 
ATOM     71  C   UNL     1      -5.779  -1.994  -9.139  1.00  0.00     0.031 C 
ATOM     72  C   UNL     1      -8.993   3.007 -10.470  1.00  0.00     0.029 A 
ATOM     73  C   UNL     1      -7.967   4.035 -10.448  1.00  0.00     0.049 A 
ATOM     74  H   UNL     1      -6.806   4.377  -8.667  1.00  0.00     0.167 HD
ATOM     75  C   UNL     1      -7.721  -2.494 -10.811  1.00  0.00     0.034 A 
ATOM     76  C   UNL     1      -7.412   4.628 -11.547  1.00  0.00     0.034 A 
ATOM     77  C   UNL     1      -8.536  -1.640 -11.689  1.00  0.00     0.049 A 
ATOM     78  C   UNL     1      -7.523   3.792 -12.819  1.00  0.00     0.074 A 
ATOM     79  C   UNL     1      -9.804  -1.084 -11.630  1.00  0.00     0.029 A 
ATOM     80  N   UNL     1      -7.899  -1.020 -12.746  1.00  0.00    -0.354 N 
ATOM     81  N   UNL     1      -8.109   2.628 -12.897  1.00  0.00    -0.248 NA
ATOM     82  C   UNL     1      -6.895   4.173 -14.086  1.00  0.00     0.031 C 
ATOM     83  C   UNL     1      -9.893  -0.082 -12.647  1.00  0.00     0.029 A 
ATOM     84  C   UNL     1      -8.692  -0.052 -13.333  1.00  0.00     0.049 A 
ATOM     85  H   UNL     1      -6.988  -1.241 -13.046  1.00  0.00     0.167 HD
ATOM     86  C   UNL     1      -7.815   2.046 -14.105  1.00  0.00     0.074 A 
ATOM     87  C   UNL     1      -7.091   3.073 -14.833  1.00  0.00     0.031 C 
ATOM     88  C   UNL     1      -8.114   0.746 -14.406  1.00  0.00     0.034 A 
BRANCH  75  89
ATOM     89  C   UNL     1      -8.015  -3.972 -10.613  1.00  0.00     0.023 A 
ATOM     90  C   UNL     1      -9.239  -4.458 -11.129  1.00  0.00     0.012 A 
ATOM     91  C   UNL     1      -7.229  -4.915  -9.912  1.00  0.00     0.148 A 
ATOM     92  C   UNL     1      -9.696  -5.760 -10.894  1.00  0.00     0.002 A 
ATOM     93  C   UNL     1      -7.707  -6.197  -9.624  1.00  0.00     0.091 A 
ATOM     94  F   UNL     1      -5.976  -4.618  -9.573  1.00  0.00    -0.205 F 
ATOM     95  C   UNL     1      -8.944  -6.622 -10.114  1.00  0.00     0.022 A 
BRANCH  93  96
ATOM     96  S   UNL     1      -6.817  -7.347  -8.558  1.00  0.00     0.127 S 
ATOM     97  O   UNL     1      -7.810  -7.625  -7.518  1.00  0.00    -0.237 OA
ATOM     98  O   UNL     1      -6.549  -8.468  -9.456  1.00  0.00    -0.237 OA
ATOM     99  O   UNL     1      -5.638  -6.636  -8.079  1.00  0.00    -0.744 OA
ENDBRANCH  93  96
ENDBRANCH  75  89
BRANCH  76 100
ATOM    100  C   UNL     1      -6.273   5.537 -11.207  1.00  0.00     0.023 A 
ATOM    101  C   UNL     1      -6.554   6.617 -10.332  1.00  0.00     0.012 A 
ATOM    102  C   UNL     1      -4.934   5.151 -11.389  1.00  0.00     0.148 A 
ATOM    103  C   UNL     1      -5.552   7.180  -9.542  1.00  0.00     0.002 A 
ATOM    104  C   UNL     1      -3.935   5.740 -10.617  1.00  0.00     0.091 A 
ATOM    105  F   UNL     1      -4.658   4.165 -12.252  1.00  0.00    -0.205 F 
ATOM    106  C   UNL     1      -4.247   6.716  -9.659  1.00  0.00     0.022 A 
BRANCH 104 107
ATOM    107  S   UNL     1      -2.225   5.198 -10.742  1.00  0.00     0.127 S 
ATOM    108  O   UNL     1      -1.703   6.116 -11.750  1.00  0.00    -0.237 OA
ATOM    109  O   UNL     1      -1.722   5.419  -9.387  1.00  0.00    -0.237 OA
ATOM    110  O   UNL     1      -2.313   3.796 -11.122  1.00  0.00    -0.744 OA
ENDBRANCH 104 107
ENDBRANCH  76 100
BRANCH  88 111
ATOM    111  C   UNL     1      -7.859   0.118 -15.762  1.00  0.00     0.023 A 
ATOM    112  C   UNL     1      -8.118   0.844 -16.941  1.00  0.00     0.012 A 
ATOM    113  C   UNL     1      -7.509  -1.249 -15.913  1.00  0.00     0.148 A 
ATOM    114  C   UNL     1      -7.989   0.261 -18.207  1.00  0.00     0.002 A 
ATOM    115  C   UNL     1      -7.481  -1.850 -17.168  1.00  0.00     0.091 A 
ATOM    116  F   UNL     1      -7.151  -1.967 -14.843  1.00  0.00    -0.205 F 
ATOM    117  C   UNL     1      -7.692  -1.091 -18.320  1.00  0.00     0.022 A 
BRANCH 115 118
ATOM    118  S   UNL     1      -7.302  -3.629 -17.377  1.00  0.00     0.127 S 
ATOM    119  O   UNL     1      -8.397  -3.933 -18.301  1.00  0.00    -0.237 OA
ATOM    120  O   UNL     1      -5.967  -3.729 -17.961  1.00  0.00    -0.237 OA
ATOM    121  O   UNL     1      -7.463  -4.204 -16.049  1.00  0.00    -0.744 OA
ENDBRANCH 115 118
ENDBRANCH  88 111
ENDBRANCH  62  63
ENDBRANCH  54  57
ENDBRANCH  52  53
ENDBRANCH  51  52
ENDBRANCH  50  51
ENDBRANCH  49  50
ENDBRANCH  48  49
ENDBRANCH   1  48
TORSDOF 25
