REMARK SMILES O=C(NCCCCCCNC(=O)[C@H]1CC[C@@H](CNc2ccccc2[N+](=O)[O-])O1)c1ccc(-c2c3nc(c(-c4cccc(S(=O)(=O)[O-])c4F)c4ccc([nH]4)c(-c4cccc(S(=O)(=O)[O-])c4F)c4nc(c(-c5cccc(S(=O)(=O)[O-])c5F)c5ccc2[nH]5)C=C4)C=C3)cc1
REMARK SMILES IDX 7 1 6 2 5 3 4 4 3 5 1 6 2 7 29 9 30 10 91 11 31 12 90 13
REMARK SMILES IDX 32 14 33 15 34 16 84 17 35 18 89 19 83 20 85 21 36 22 88 23
REMARK SMILES IDX 82 24 81 25 37 27 69 28 49 29 68 30 50 31 53 32 67 33 86 34
REMARK SMILES IDX 51 35 52 36 66 38 87 39 54 40 38 41 39 42 47 43 40 44 42 45
REMARK SMILES IDX 48 46 41 47 43 48 44 49 45 50 46 51 70 52 71 53 79 54 72 55
REMARK SMILES IDX 74 56 80 57 73 58 75 59 76 60 77 61 78 62 55 63 56 64 64 65
REMARK SMILES IDX 57 66 59 67 65 68 58 69 60 70 61 71 62 72 63 73 8 74 9 75
REMARK SMILES IDX 10 76 11 77 12 79 13 80 14 81 28 82 15 83 16 84 17 85 18 86
REMARK SMILES IDX 19 88 20 89 24 90 21 91 23 92 22 93 25 94 26 95 27 96
REMARK H PARENT 3 8 85 26 53 37 10 78 18 87
REMARK Flexibility Score: inf
ROOT
ATOM      1  C   UNL     1       7.940  -8.494   0.341  1.00  0.00     0.002 C 
ENDROOT
BRANCH   1   2
ATOM      2  C   UNL     1       6.592  -8.045   0.913  1.00  0.00     0.002 C 
BRANCH   2   3
ATOM      3  C   UNL     1       5.383  -8.889   0.512  1.00  0.00     0.021 C 
BRANCH   3   4
ATOM      4  C   UNL     1       5.495 -10.380   0.810  1.00  0.00     0.116 C 
BRANCH   4   5
ATOM      5  N   UNL     1       5.559 -10.673   2.232  1.00  0.00    -0.352 N 
ATOM      6  O   UNL     1       4.921 -11.581   4.195  1.00  0.00    -0.269 OA
ATOM      7  C   UNL     1       4.813 -11.563   2.971  1.00  0.00     0.251 C 
ATOM      8  H   UNL     1       6.231 -10.163   2.739  1.00  0.00     0.163 HD
BRANCH   7   9
ATOM      9  C   UNL     1       3.853 -12.465   2.293  1.00  0.00     0.039 A 
ATOM     10  C   UNL     1       4.211 -13.147   1.127  1.00  0.00     0.014 A 
ATOM     11  C   UNL     1       2.568 -12.615   2.821  1.00  0.00     0.014 A 
ATOM     12  C   UNL     1       3.241 -13.836   0.405  1.00  0.00     0.010 A 
ATOM     13  C   UNL     1       1.617 -13.381   2.137  1.00  0.00     0.010 A 
ATOM     14  C   UNL     1       1.930 -13.957   0.896  1.00  0.00    -0.014 A 
BRANCH  14  15
ATOM     15  C   UNL     1       0.922 -14.712   0.105  1.00  0.00     0.031 A 
ATOM     16  C   UNL     1      -0.296 -14.031  -0.463  1.00  0.00     0.074 A 
ATOM     17  C   UNL     1       1.124 -16.024  -0.126  1.00  0.00     0.049 A 
ATOM     18  N   UNL     1      -1.226 -14.527  -1.240  1.00  0.00    -0.248 NA
ATOM     19  C   UNL     1      -0.508 -12.618  -0.110  1.00  0.00     0.031 C 
ATOM     20  C   UNL     1       2.236 -16.810   0.413  1.00  0.00     0.029 A 
ATOM     21  N   UNL     1       0.414 -16.927  -0.876  1.00  0.00    -0.354 N 
ATOM     22  C   UNL     1      -2.153 -13.509  -1.432  1.00  0.00     0.074 A 
ATOM     23  C   UNL     1      -1.677 -12.365  -0.684  1.00  0.00     0.031 C 
ATOM     24  C   UNL     1       2.157 -18.064  -0.055  1.00  0.00     0.029 A 
ATOM     25  C   UNL     1       0.970 -18.184  -0.895  1.00  0.00     0.049 A 
ATOM     26  H   UNL     1      -0.415 -16.696  -1.355  1.00  0.00     0.167 HD
ATOM     27  C   UNL     1      -3.284 -13.517  -2.178  1.00  0.00     0.034 A 
ATOM     28  C   UNL     1       0.576 -19.309  -1.522  1.00  0.00     0.034 A 
ATOM     29  C   UNL     1      -3.727 -14.637  -2.966  1.00  0.00     0.049 A 
ATOM     30  C   UNL     1      -0.648 -19.270  -2.393  1.00  0.00     0.074 A 
ATOM     31  C   UNL     1      -4.819 -14.715  -3.814  1.00  0.00     0.029 A 
ATOM     32  N   UNL     1      -3.103 -15.874  -3.006  1.00  0.00    -0.354 N 
ATOM     33  N   UNL     1      -1.426 -18.253  -2.674  1.00  0.00    -0.248 NA
ATOM     34  C   UNL     1      -1.029 -20.523  -3.058  1.00  0.00     0.031 C 
ATOM     35  C   UNL     1      -4.859 -16.003  -4.360  1.00  0.00     0.029 A 
ATOM     36  C   UNL     1      -3.786 -16.723  -3.861  1.00  0.00     0.049 A 
ATOM     37  H   UNL     1      -2.292 -16.114  -2.502  1.00  0.00     0.167 HD
ATOM     38  C   UNL     1      -2.372 -18.736  -3.570  1.00  0.00     0.074 A 
ATOM     39  C   UNL     1      -2.052 -20.130  -3.804  1.00  0.00     0.031 C 
ATOM     40  C   UNL     1      -3.423 -18.090  -4.131  1.00  0.00     0.034 A 
BRANCH  27  41
ATOM     41  C   UNL     1      -4.107 -12.256  -2.223  1.00  0.00     0.023 A 
ATOM     42  C   UNL     1      -3.659 -11.162  -2.991  1.00  0.00     0.012 A 
ATOM     43  C   UNL     1      -5.354 -12.177  -1.572  1.00  0.00     0.148 A 
ATOM     44  C   UNL     1      -4.425 -10.001  -3.090  1.00  0.00     0.002 A 
ATOM     45  C   UNL     1      -6.130 -11.029  -1.705  1.00  0.00     0.091 A 
ATOM     46  F   UNL     1      -5.756 -13.216  -0.827  1.00  0.00    -0.205 F 
ATOM     47  C   UNL     1      -5.663  -9.938  -2.457  1.00  0.00     0.022 A 
BRANCH  45  48
ATOM     48  S   UNL     1      -7.770 -10.887  -0.986  1.00  0.00     0.127 S 
ATOM     49  O   UNL     1      -7.511 -10.040   0.176  1.00  0.00    -0.237 OA
ATOM     50  O   UNL     1      -8.526 -10.236  -2.057  1.00  0.00    -0.237 OA
ATOM     51  O   UNL     1      -8.193 -12.250  -0.693  1.00  0.00    -0.744 OA
ENDBRANCH  45  48
ENDBRANCH  27  41
BRANCH  28  52
ATOM     52  C   UNL     1       1.403 -20.543  -1.410  1.00  0.00     0.023 A 
ATOM     53  C   UNL     1       2.130 -20.989  -2.531  1.00  0.00     0.012 A 
ATOM     54  C   UNL     1       1.518 -21.241  -0.194  1.00  0.00     0.148 A 
ATOM     55  C   UNL     1       2.940 -22.121  -2.447  1.00  0.00     0.002 A 
ATOM     56  C   UNL     1       2.372 -22.334  -0.102  1.00  0.00     0.091 A 
ATOM     57  F   UNL     1       0.803 -20.814   0.857  1.00  0.00    -0.205 F 
ATOM     58  C   UNL     1       3.072 -22.785  -1.230  1.00  0.00     0.022 A 
BRANCH  56  59
ATOM     59  S   UNL     1       2.705 -23.151   1.464  1.00  0.00     0.127 S 
ATOM     60  O   UNL     1       1.889 -24.356   1.352  1.00  0.00    -0.237 OA
ATOM     61  O   UNL     1       4.149 -23.375   1.393  1.00  0.00    -0.237 OA
ATOM     62  O   UNL     1       2.301 -22.197   2.488  1.00  0.00    -0.744 OA
ENDBRANCH  56  59
ENDBRANCH  28  52
BRANCH  40  63
ATOM     63  C   UNL     1      -4.294 -18.873  -5.076  1.00  0.00     0.023 A 
ATOM     64  C   UNL     1      -5.189 -19.833  -4.564  1.00  0.00     0.012 A 
ATOM     65  C   UNL     1      -4.272 -18.618  -6.461  1.00  0.00     0.148 A 
ATOM     66  C   UNL     1      -6.026 -20.550  -5.418  1.00  0.00     0.002 A 
ATOM     67  C   UNL     1      -5.139 -19.306  -7.302  1.00  0.00     0.091 A 
ATOM     68  F   UNL     1      -3.397 -17.718  -6.935  1.00  0.00    -0.205 F 
ATOM     69  C   UNL     1      -6.009 -20.279  -6.785  1.00  0.00     0.022 A 
BRANCH  67  70
ATOM     70  S   UNL     1      -5.238 -18.946  -9.060  1.00  0.00     0.127 S 
ATOM     71  O   UNL     1      -4.408 -20.005  -9.630  1.00  0.00    -0.237 OA
ATOM     72  O   UNL     1      -6.670 -19.081  -9.332  1.00  0.00    -0.237 OA
ATOM     73  O   UNL     1      -4.727 -17.590  -9.210  1.00  0.00    -0.744 OA
ENDBRANCH  67  70
ENDBRANCH  40  63
ENDBRANCH  14  15
ENDBRANCH   7   9
ENDBRANCH   4   5
ENDBRANCH   3   4
ENDBRANCH   2   3
ENDBRANCH   1   2
BRANCH   1  74
ATOM     74  C   UNL     1       8.001  -8.682  -1.180  1.00  0.00     0.021 C 
BRANCH  74  75
ATOM     75  C   UNL     1       7.560  -7.479  -2.012  1.00  0.00     0.116 C 
BRANCH  75  76
ATOM     76  N   UNL     1       8.380  -6.310  -1.768  1.00  0.00    -0.354 N 
ATOM     77  C   UNL     1       8.934  -5.459  -2.682  1.00  0.00     0.249 C 
ATOM     78  H   UNL     1       8.562  -6.102  -0.823  1.00  0.00     0.163 HD
ATOM     79  O   UNL     1       9.541  -4.471  -2.264  1.00  0.00    -0.272 OA
BRANCH  77  80
ATOM     80  C   UNL     1       8.763  -5.766  -4.187  1.00  0.00     0.207 C 
ATOM     81  C   UNL     1       9.248  -4.630  -5.070  1.00  0.00     0.045 C 
ATOM     82  O   UNL     1       9.543  -6.915  -4.562  1.00  0.00    -0.363 OA
ATOM     83  C   UNL     1      10.714  -4.951  -5.207  1.00  0.00     0.037 C 
ATOM     84  C   UNL     1      10.710  -6.472  -5.295  1.00  0.00     0.138 C 
BRANCH  84  85
ATOM     85  C   UNL     1      11.967  -7.186  -4.759  1.00  0.00     0.145 C 
BRANCH  85  86
ATOM     86  N   UNL     1      13.192  -6.396  -4.910  1.00  0.00    -0.377 N 
ATOM     87  H   UNL     1      13.475  -6.075  -5.797  1.00  0.00     0.160 HD
BRANCH  86  88
ATOM     88  C   UNL     1      13.949  -6.109  -3.776  1.00  0.00     0.113 A 
ATOM     89  C   UNL     1      14.029  -4.765  -3.373  1.00  0.00     0.033 A 
ATOM     90  C   UNL     1      14.525  -7.061  -2.916  1.00  0.00     0.292 A 
ATOM     91  C   UNL     1      14.630  -4.391  -2.165  1.00  0.00     0.003 A 
ATOM     92  C   UNL     1      15.139  -6.696  -1.703  1.00  0.00     0.088 A 
ATOM     93  C   UNL     1      15.181  -5.356  -1.328  1.00  0.00     0.007 A 
BRANCH  90  94
ATOM     94  N   UNL     1      14.572  -8.472  -3.276  1.00  0.00     0.064 N 
ATOM     95  O   UNL     1      14.294  -9.289  -2.384  1.00  0.00    -0.258 OA
ATOM     96  O   UNL     1      14.941  -8.774  -4.420  1.00  0.00    -0.258 OA
ENDBRANCH  90  94
ENDBRANCH  86  88
ENDBRANCH  85  86
ENDBRANCH  84  85
ENDBRANCH  77  80
ENDBRANCH  75  76
ENDBRANCH  74  75
ENDBRANCH   1  74
TORSDOF 20
