REMARK SMILES Cc1ccnc(C(=O)c2[nH]c3ccc(OC(F)(F)F)cc3c2CC(=O)NCCCCCCNC(=O)c2ccc(-c3c4nc(c(-c5cccc(S(=O)(=O)[O-])c5F)c5ccc([nH]5)c(-c5cccc(S(=O)(=O)[O-])c5F)c5nc(c(-c6cccc(S(=O)(=O)[O-])c6F)c6ccc3[nH]6)C=C5)C=C4)cc2)c1
REMARK SMILES IDX 29 1 28 2 27 3 26 4 24 5 25 6 23 8 22 9 9 10 10 11 11 12
REMARK SMILES IDX 21 14 12 15 20 16 13 17 14 18 7 19 8 20 6 21 1 22 2 23 3 24
REMARK SMILES IDX 99 25 4 26 5 27 15 28 16 29 17 30 18 31 19 32 30 33 31 34
REMARK SMILES IDX 32 35 33 36 34 37 35 39 36 40 37 41 98 42 38 43 97 44 39 45
REMARK SMILES IDX 40 46 41 47 91 48 42 49 96 50 90 51 92 52 43 53 95 54 89 55
REMARK SMILES IDX 88 56 44 58 76 59 56 60 75 61 57 62 60 63 74 64 93 65 58 66
REMARK SMILES IDX 59 67 73 69 94 70 61 71 45 72 46 73 54 74 47 75 49 76 55 77
REMARK SMILES IDX 48 78 50 79 51 80 52 81 53 82 77 83 78 84 86 85 79 86 81 87
REMARK SMILES IDX 87 88 80 89 82 90 83 91 84 92 85 93 62 94 63 95 71 96 64 97
REMARK SMILES IDX 66 98 72 99 65 100 67 101 68 102 69 103 70 104
REMARK H PARENT 26 7 10 13 33 38 92 57 60 68
REMARK Flexibility Score: inf
ROOT
ATOM      1  C   UNL     1       4.811  -6.877  -1.448  1.00  0.00     0.002 C 
ENDROOT
BRANCH   1   2
ATOM      2  C   UNL     1       3.452  -6.809  -0.739  1.00  0.00     0.021 C 
BRANCH   2   3
ATOM      3  C   UNL     1       3.529  -6.827   0.788  1.00  0.00     0.116 C 
BRANCH   3   4
ATOM      4  N   UNL     1       4.078  -5.598   1.325  1.00  0.00    -0.356 N 
ATOM      5  C   UNL     1       3.445  -4.566   1.956  1.00  0.00     0.224 C 
ATOM      6  O   UNL     1       4.140  -3.658   2.424  1.00  0.00    -0.275 OA
ATOM      7  H   UNL     1       5.051  -5.491   1.220  1.00  0.00     0.163 HD
BRANCH   5   8
ATOM      8  C   UNL     1       1.944  -4.596   2.200  1.00  0.00     0.138 C 
BRANCH   8   9
ATOM      9  C   UNL     1       1.085  -4.650   0.968  1.00  0.00    -0.002 A 
ATOM     10  C   UNL     1       1.012  -3.716  -0.061  1.00  0.00     0.093 A 
ATOM     11  N   UNL     1       0.169  -4.229  -1.021  1.00  0.00    -0.352 N 
ATOM     12  C   UNL     1      -0.419  -5.388  -0.581  1.00  0.00     0.046 A 
ATOM     13  H   UNL     1       0.010  -3.821  -1.902  1.00  0.00     0.167 HD
ATOM     14  C   UNL     1       0.123  -5.673   0.667  1.00  0.00     0.008 A 
ATOM     15  C   UNL     1      -1.369  -6.210  -1.197  1.00  0.00     0.030 A 
ATOM     16  C   UNL     1      -0.321  -6.833   1.336  1.00  0.00     0.057 A 
ATOM     17  C   UNL     1      -1.785  -7.360  -0.512  1.00  0.00     0.049 A 
ATOM     18  C   UNL     1      -1.271  -7.677   0.744  1.00  0.00     0.130 A 
BRANCH  10  19
ATOM     19  C   UNL     1       1.725  -2.459  -0.217  1.00  0.00     0.227 C 
ATOM     20  O   UNL     1       2.933  -2.439  -0.427  1.00  0.00    -0.285 OA
BRANCH  19  21
ATOM     21  C   UNL     1       0.937  -1.169  -0.143  1.00  0.00     0.113 A 
ATOM     22  C   UNL     1      -2.606   0.154   0.194  1.00  0.00     0.044 C 
ATOM     23  C   UNL     1      -1.115   0.081   0.051  1.00  0.00    -0.047 A 
ATOM     24  C   UNL     1      -0.365   1.250  -0.076  1.00  0.00     0.023 A 
ATOM     25  C   UNL     1      -0.447  -1.149   0.036  1.00  0.00     0.036 A 
ATOM     26  C   UNL     1       1.006   1.144  -0.230  1.00  0.00     0.112 A 
ATOM     27  N   UNL     1       1.666  -0.030  -0.280  1.00  0.00    -0.253 NA
ENDBRANCH  19  21
ENDBRANCH  10  19
BRANCH  18  28
ATOM     28  O   UNL     1      -1.594  -8.766   1.504  1.00  0.00    -0.406 OA
BRANCH  28  29
ATOM     29  C   UNL     1      -2.523  -9.698   0.973  1.00  0.00     0.573 C 
ATOM     30  F   UNL     1      -3.720  -9.108   0.763  1.00  0.00    -0.132 F 
ATOM     31  F   UNL     1      -2.071 -10.228  -0.181  1.00  0.00    -0.132 F 
ATOM     32  F   UNL     1      -2.697 -10.690   1.871  1.00  0.00    -0.132 F 
ENDBRANCH  28  29
ENDBRANCH  18  28
ENDBRANCH   8   9
ENDBRANCH   5   8
ENDBRANCH   3   4
ENDBRANCH   2   3
ENDBRANCH   1   2
BRANCH   1  33
ATOM     33  C   UNL     1       5.669  -8.107  -1.130  1.00  0.00     0.002 C 
BRANCH  33  34
ATOM     34  C   UNL     1       4.990  -9.464  -1.336  1.00  0.00     0.021 C 
BRANCH  34  35
ATOM     35  C   UNL     1       4.511  -9.748  -2.759  1.00  0.00     0.116 C 
BRANCH  35  36
ATOM     36  N   UNL     1       5.612  -9.844  -3.705  1.00  0.00    -0.352 N 
ATOM     37  C   UNL     1       5.870 -10.807  -4.650  1.00  0.00     0.251 C 
ATOM     38  H   UNL     1       6.268  -9.112  -3.661  1.00  0.00     0.163 HD
ATOM     39  O   UNL     1       6.944 -10.801  -5.247  1.00  0.00    -0.269 OA
BRANCH  37  40
ATOM     40  C   UNL     1       4.873 -11.863  -4.942  1.00  0.00     0.039 A 
ATOM     41  C   UNL     1       5.311 -13.185  -5.073  1.00  0.00     0.014 A 
ATOM     42  C   UNL     1       3.522 -11.554  -5.126  1.00  0.00     0.014 A 
ATOM     43  C   UNL     1       4.389 -14.204  -5.333  1.00  0.00     0.010 A 
ATOM     44  C   UNL     1       2.598 -12.576  -5.341  1.00  0.00     0.010 A 
ATOM     45  C   UNL     1       3.022 -13.910  -5.448  1.00  0.00    -0.014 A 
BRANCH  45  46
ATOM     46  C   UNL     1       2.017 -14.981  -5.671  1.00  0.00     0.031 A 
ATOM     47  C   UNL     1       1.265 -15.056  -6.971  1.00  0.00     0.074 A 
ATOM     48  C   UNL     1       1.717 -15.830  -4.669  1.00  0.00     0.049 A 
ATOM     49  N   UNL     1       0.297 -15.865  -7.316  1.00  0.00    -0.248 NA
ATOM     50  C   UNL     1       1.635 -14.083  -8.012  1.00  0.00     0.031 C 
ATOM     51  C   UNL     1       2.326 -15.815  -3.337  1.00  0.00     0.029 A 
ATOM     52  N   UNL     1       0.802 -16.851  -4.604  1.00  0.00    -0.354 N 
ATOM     53  C   UNL     1      -0.083 -15.479  -8.595  1.00  0.00     0.074 A 
ATOM     54  C   UNL     1       0.749 -14.352  -8.961  1.00  0.00     0.031 C 
ATOM     55  C   UNL     1       1.761 -16.774  -2.585  1.00  0.00     0.029 A 
ATOM     56  C   UNL     1       0.742 -17.461  -3.373  1.00  0.00     0.049 A 
ATOM     57  H   UNL     1       0.241 -17.121  -5.367  1.00  0.00     0.167 HD
ATOM     58  C   UNL     1      -1.018 -16.029  -9.405  1.00  0.00     0.034 A 
ATOM     59  C   UNL     1      -0.045 -18.461  -2.929  1.00  0.00     0.034 A 
ATOM     60  C   UNL     1      -1.804 -17.186  -9.068  1.00  0.00     0.049 A 
ATOM     61  C   UNL     1      -1.026 -19.100  -3.874  1.00  0.00     0.074 A 
ATOM     62  C   UNL     1      -2.730 -17.855  -9.849  1.00  0.00     0.029 A 
ATOM     63  N   UNL     1      -1.747 -17.852  -7.854  1.00  0.00    -0.354 N 
ATOM     64  N   UNL     1      -1.268 -18.811  -5.130  1.00  0.00    -0.248 NA
ATOM     65  C   UNL     1      -1.814 -20.228  -3.356  1.00  0.00     0.031 C 
ATOM     66  C   UNL     1      -3.226 -18.935  -9.110  1.00  0.00     0.029 A 
ATOM     67  C   UNL     1      -2.613 -18.932  -7.867  1.00  0.00     0.049 A 
ATOM     68  H   UNL     1      -1.175 -17.596  -7.095  1.00  0.00     0.167 HD
ATOM     69  C   UNL     1      -2.211 -19.736  -5.559  1.00  0.00     0.074 A 
ATOM     70  C   UNL     1      -2.483 -20.610  -4.437  1.00  0.00     0.031 C 
ATOM     71  C   UNL     1      -2.817 -19.837  -6.767  1.00  0.00     0.034 A 
BRANCH  58  72
ATOM     72  C   UNL     1      -1.189 -15.436 -10.776  1.00  0.00     0.023 A 
ATOM     73  C   UNL     1      -0.245 -15.745 -11.775  1.00  0.00     0.012 A 
ATOM     74  C   UNL     1      -2.301 -14.634 -11.097  1.00  0.00     0.148 A 
ATOM     75  C   UNL     1      -0.393 -15.251 -13.069  1.00  0.00     0.002 A 
ATOM     76  C   UNL     1      -2.458 -14.169 -12.399  1.00  0.00     0.091 A 
ATOM     77  F   UNL     1      -3.174 -14.329 -10.126  1.00  0.00    -0.205 F 
ATOM     78  C   UNL     1      -1.503 -14.472 -13.384  1.00  0.00     0.022 A 
BRANCH  76  79
ATOM     79  S   UNL     1      -3.888 -13.207 -12.910  1.00  0.00     0.127 S 
ATOM     80  O   UNL     1      -3.330 -11.857 -12.966  1.00  0.00    -0.237 OA
ATOM     81  O   UNL     1      -4.206 -13.789 -14.216  1.00  0.00    -0.237 OA
ATOM     82  O   UNL     1      -4.901 -13.430 -11.889  1.00  0.00    -0.744 OA
ENDBRANCH  76  79
ENDBRANCH  58  72
BRANCH  59  83
ATOM     83  C   UNL     1       0.128 -18.978  -1.544  1.00  0.00     0.023 A 
ATOM     84  C   UNL     1       0.744 -20.230  -1.352  1.00  0.00     0.012 A 
ATOM     85  C   UNL     1      -0.271 -18.232  -0.420  1.00  0.00     0.148 A 
ATOM     86  C   UNL     1       0.937 -20.740  -0.068  1.00  0.00     0.002 A 
ATOM     87  C   UNL     1      -0.031 -18.724   0.860  1.00  0.00     0.091 A 
ATOM     88  F   UNL     1      -0.875 -17.050  -0.615  1.00  0.00    -0.205 F 
ATOM     89  C   UNL     1       0.560 -19.983   1.039  1.00  0.00     0.022 A 
BRANCH  87  90
ATOM     90  S   UNL     1      -0.378 -17.726   2.313  1.00  0.00     0.127 S 
ATOM     91  O   UNL     1      -1.761 -18.087   2.607  1.00  0.00    -0.237 OA
ATOM     92  O   UNL     1       0.604 -18.216   3.281  1.00  0.00    -0.237 OA
ATOM     93  O   UNL     1      -0.143 -16.355   1.877  1.00  0.00    -0.744 OA
ENDBRANCH  87  90
ENDBRANCH  59  83
BRANCH  71  94
ATOM     94  C   UNL     1      -3.820 -20.942  -6.955  1.00  0.00     0.023 A 
ATOM     95  C   UNL     1      -5.114 -20.795  -6.420  1.00  0.00     0.012 A 
ATOM     96  C   UNL     1      -3.513 -22.079  -7.727  1.00  0.00     0.148 A 
ATOM     97  C   UNL     1      -6.084 -21.773  -6.635  1.00  0.00     0.002 A 
ATOM     98  C   UNL     1      -4.495 -23.034  -7.966  1.00  0.00     0.091 A 
ATOM     99  F   UNL     1      -2.267 -22.214  -8.206  1.00  0.00    -0.205 F 
ATOM    100  C   UNL     1      -5.779 -22.885  -7.417  1.00  0.00     0.022 A 
BRANCH  98 101
ATOM    101  S   UNL     1      -4.195 -24.451  -9.029  1.00  0.00     0.127 S 
ATOM    102  O   UNL     1      -3.848 -25.486  -8.059  1.00  0.00    -0.237 OA
ATOM    103  O   UNL     1      -5.490 -24.640  -9.684  1.00  0.00    -0.237 OA
ATOM    104  O   UNL     1      -3.126 -24.039  -9.930  1.00  0.00    -0.744 OA
ENDBRANCH  98 101
ENDBRANCH  71  94
ENDBRANCH  45  46
ENDBRANCH  37  40
ENDBRANCH  35  36
ENDBRANCH  34  35
ENDBRANCH  33  34
ENDBRANCH   1  33
TORSDOF 21
