REMARK SMILES C[N@@H+]1CCN(C(=O)c2ccc3[nH]c4c(c3c2)CSCC4)C[C@H]1C(=O)NCCCCCCNC(=O)c1ccc(-c2c3nc(c(-c4cccc(S(=O)(=O)[O-])c4F)c4ccc([nH]4)c(-c4cccc(S(=O)(=O)[O-])c4F)c4nc(c(-c5cccc(S(=O)(=O)[O-])c5F)c5ccc2[nH]5)C=C4)C=C3)cc1
REMARK SMILES IDX 29 1 28 2 27 3 26 4 25 5 23 6 24 7 22 9 1 10 2 11 3 12 4 14
REMARK SMILES IDX 21 15 5 16 6 17 7 18 8 19 9 20 16 21 10 22 15 23 11 24 14 25
REMARK SMILES IDX 12 26 13 27 17 28 20 30 18 31 19 32 30 33 31 34 32 35 33 36
REMARK SMILES IDX 34 38 35 39 36 40 97 41 37 42 96 43 38 44 39 45 40 46 90 47
REMARK SMILES IDX 41 48 95 49 89 50 91 51 42 52 94 53 88 54 87 55 43 57 75 58
REMARK SMILES IDX 55 59 74 60 56 61 59 62 73 63 92 64 57 65 58 66 72 68 93 69
REMARK SMILES IDX 60 70 44 71 45 72 53 73 46 74 48 75 54 76 47 77 49 78 50 79
REMARK SMILES IDX 51 80 52 81 76 82 77 83 85 84 78 85 80 86 86 87 79 88 81 89
REMARK SMILES IDX 82 90 83 91 84 92 61 93 62 94 70 95 63 96 65 97 71 98 64 99
REMARK SMILES IDX 66 100 67 101 68 102 69 103
REMARK H PARENT 25 8 2 13 12 29 32 37 91 56 59 67
REMARK Flexibility Score: inf
ROOT
ATOM      1  C   UNL     1       1.387  -3.264  -5.373  1.00  0.00     0.002 C 
ENDROOT
BRANCH   1   2
ATOM      2  C   UNL     1       2.394  -2.574  -4.451  1.00  0.00     0.002 C 
BRANCH   2   3
ATOM      3  C   UNL     1       1.840  -1.396  -3.644  1.00  0.00     0.021 C 
BRANCH   3   4
ATOM      4  C   UNL     1       0.653  -1.749  -2.754  1.00  0.00     0.116 C 
BRANCH   4   5
ATOM      5  N   UNL     1       1.042  -2.642  -1.678  1.00  0.00    -0.351 N 
ATOM      6  C   UNL     1       1.001  -2.443  -0.330  1.00  0.00     0.280 C 
ATOM      7  O   UNL     1       1.464  -3.323   0.404  1.00  0.00    -0.268 OA
ATOM      8  H   UNL     1       1.385  -3.520  -1.963  1.00  0.00     0.163 HD
BRANCH   6   9
ATOM      9  C   UNL     1       0.358  -1.186   0.274  1.00  0.00     0.293 C 
ATOM     10  C   UNL     1       2.420   0.129   0.194  1.00  0.00     0.333 C 
ATOM     11  N   UNL     1       1.009   0.076  -0.196  1.00  0.00    -0.324 N 
ATOM     12  C   UNL     1       0.282   1.236   0.369  1.00  0.00     0.284 C 
ATOM     13  H   UNL     1       0.968   0.103  -1.215  1.00  0.00     0.348 HD
ATOM     14  C   UNL     1      -1.227   1.213   0.061  1.00  0.00     0.181 C 
ATOM     15  C   UNL     1      -1.159  -1.245  -0.004  1.00  0.00     0.195 C 
ATOM     16  N   UNL     1      -1.854  -0.043   0.472  1.00  0.00    -0.326 N 
BRANCH  16  17
ATOM     17  C   UNL     1      -3.152  -0.012   0.973  1.00  0.00     0.254 C 
ATOM     18  O   UNL     1      -3.777   1.028   1.172  1.00  0.00    -0.269 OA
BRANCH  17  19
ATOM     19  C   UNL     1      -3.834  -1.292   1.266  1.00  0.00     0.040 A 
ATOM     20  C   UNL     1      -3.303  -2.179   2.206  1.00  0.00     0.016 A 
ATOM     21  C   UNL     1      -5.029  -1.577   0.592  1.00  0.00     0.024 A 
ATOM     22  C   UNL     1      -3.907  -3.417   2.437  1.00  0.00     0.027 A 
ATOM     23  C   UNL     1      -5.670  -2.808   0.835  1.00  0.00     0.004 A 
ATOM     24  C   UNL     1      -5.085  -3.702   1.735  1.00  0.00     0.046 A 
ATOM     25  C   UNL     1      -6.878  -3.408   0.360  1.00  0.00    -0.009 A 
ATOM     26  N   UNL     1      -5.878  -4.827   1.765  1.00  0.00    -0.358 N 
ATOM     27  C   UNL     1      -6.981  -4.639   0.981  1.00  0.00     0.021 A 
ATOM     28  C   UNL     1      -7.877  -2.811  -0.581  1.00  0.00     0.107 C 
ATOM     29  H   UNL     1      -5.681  -5.645   2.276  1.00  0.00     0.166 HD
ATOM     30  C   UNL     1      -8.087  -5.627   0.848  1.00  0.00     0.065 C 
ATOM     31  S   UNL     1      -9.250  -3.929  -1.034  1.00  0.00    -0.157 SA
ATOM     32  C   UNL     1      -9.395  -4.912   0.498  1.00  0.00     0.076 C 
ENDBRANCH  17  19
ENDBRANCH  16  17
ENDBRANCH   6   9
ENDBRANCH   4   5
ENDBRANCH   3   4
ENDBRANCH   2   3
ENDBRANCH   1   2
BRANCH   1  33
ATOM     33  C   UNL     1       0.654  -2.343  -6.353  1.00  0.00     0.021 C 
BRANCH  33  34
ATOM     34  C   UNL     1       1.567  -1.493  -7.240  1.00  0.00     0.116 C 
BRANCH  34  35
ATOM     35  N   UNL     1       2.506  -2.258  -8.032  1.00  0.00    -0.352 N 
ATOM     36  C   UNL     1       2.437  -2.926  -9.225  1.00  0.00     0.251 C 
ATOM     37  H   UNL     1       3.398  -2.310  -7.619  1.00  0.00     0.163 HD
ATOM     38  O   UNL     1       3.507  -3.362  -9.658  1.00  0.00    -0.269 OA
BRANCH  36  39
ATOM     39  C   UNL     1       1.183  -3.205  -9.978  1.00  0.00     0.039 A 
ATOM     40  C   UNL     1      -0.074  -2.687  -9.671  1.00  0.00     0.014 A 
ATOM     41  C   UNL     1       1.291  -4.099 -11.062  1.00  0.00     0.014 A 
ATOM     42  C   UNL     1      -1.203  -3.120 -10.354  1.00  0.00     0.010 A 
ATOM     43  C   UNL     1       0.167  -4.513 -11.772  1.00  0.00     0.010 A 
ATOM     44  C   UNL     1      -1.087  -4.048 -11.390  1.00  0.00    -0.014 A 
BRANCH  44  45
ATOM     45  C   UNL     1      -2.308  -4.391 -12.111  1.00  0.00     0.031 A 
ATOM     46  C   UNL     1      -2.990  -3.245 -12.773  1.00  0.00     0.074 A 
ATOM     47  C   UNL     1      -2.787  -5.641 -12.251  1.00  0.00     0.049 A 
ATOM     48  N   UNL     1      -4.148  -2.742 -12.486  1.00  0.00    -0.248 NA
ATOM     49  C   UNL     1      -2.247  -2.503 -13.800  1.00  0.00     0.031 C 
ATOM     50  C   UNL     1      -2.131  -6.901 -11.905  1.00  0.00     0.029 A 
ATOM     51  N   UNL     1      -3.942  -6.043 -12.857  1.00  0.00    -0.354 N 
ATOM     52  C   UNL     1      -4.373  -1.750 -13.437  1.00  0.00     0.074 A 
ATOM     53  C   UNL     1      -3.123  -1.550 -14.125  1.00  0.00     0.031 C 
ATOM     54  C   UNL     1      -2.781  -7.916 -12.518  1.00  0.00     0.029 A 
ATOM     55  C   UNL     1      -3.957  -7.392 -13.191  1.00  0.00     0.049 A 
ATOM     56  H   UNL     1      -4.694  -5.434 -13.041  1.00  0.00     0.167 HD
ATOM     57  C   UNL     1      -5.622  -1.302 -13.735  1.00  0.00     0.034 A 
ATOM     58  C   UNL     1      -4.833  -8.001 -14.027  1.00  0.00     0.034 A 
ATOM     59  C   UNL     1      -6.591  -1.671 -12.743  1.00  0.00     0.049 A 
ATOM     60  C   UNL     1      -6.053  -7.158 -14.065  1.00  0.00     0.074 A 
ATOM     61  C   UNL     1      -6.734  -1.456 -11.387  1.00  0.00     0.029 A 
ATOM     62  N   UNL     1      -7.462  -2.684 -13.060  1.00  0.00    -0.354 N 
ATOM     63  N   UNL     1      -6.857  -6.995 -13.051  1.00  0.00    -0.248 NA
ATOM     64  C   UNL     1      -6.198  -6.190 -15.140  1.00  0.00     0.031 C 
ATOM     65  C   UNL     1      -7.312  -2.657 -10.886  1.00  0.00     0.029 A 
ATOM     66  C   UNL     1      -7.516  -3.512 -11.972  1.00  0.00     0.049 A 
ATOM     67  H   UNL     1      -7.952  -2.794 -13.906  1.00  0.00     0.167 HD
ATOM     68  C   UNL     1      -7.291  -5.682 -13.159  1.00  0.00     0.074 A 
ATOM     69  C   UNL     1      -6.954  -5.281 -14.521  1.00  0.00     0.031 C 
ATOM     70  C   UNL     1      -7.618  -4.952 -12.054  1.00  0.00     0.034 A 
BRANCH  57  71
ATOM     71  C   UNL     1      -6.046  -0.805 -15.092  1.00  0.00     0.023 A 
ATOM     72  C   UNL     1      -7.274  -0.114 -15.193  1.00  0.00     0.012 A 
ATOM     73  C   UNL     1      -5.438  -1.224 -16.295  1.00  0.00     0.148 A 
ATOM     74  C   UNL     1      -7.878   0.125 -16.432  1.00  0.00     0.002 A 
ATOM     75  C   UNL     1      -6.001  -0.914 -17.526  1.00  0.00     0.091 A 
ATOM     76  F   UNL     1      -4.383  -2.045 -16.255  1.00  0.00    -0.205 F 
ATOM     77  C   UNL     1      -7.234  -0.263 -17.602  1.00  0.00     0.022 A 
BRANCH  75  78
ATOM     78  S   UNL     1      -5.181  -1.352 -19.062  1.00  0.00     0.127 S 
ATOM     79  O   UNL     1      -5.949  -2.518 -19.483  1.00  0.00    -0.237 OA
ATOM     80  O   UNL     1      -5.383  -0.148 -19.867  1.00  0.00    -0.237 OA
ATOM     81  O   UNL     1      -3.789  -1.594 -18.696  1.00  0.00    -0.744 OA
ENDBRANCH  75  78
ENDBRANCH  57  71
BRANCH  58  82
ATOM     82  C   UNL     1      -4.632  -9.145 -14.955  1.00  0.00     0.023 A 
ATOM     83  C   UNL     1      -5.754  -9.730 -15.581  1.00  0.00     0.012 A 
ATOM     84  C   UNL     1      -3.354  -9.502 -15.441  1.00  0.00     0.148 A 
ATOM     85  C   UNL     1      -5.611 -10.596 -16.672  1.00  0.00     0.002 A 
ATOM     86  C   UNL     1      -3.216 -10.385 -16.510  1.00  0.00     0.091 A 
ATOM     87  F   UNL     1      -2.268  -8.906 -14.932  1.00  0.00    -0.205 F 
ATOM     88  C   UNL     1      -4.343 -10.921 -17.141  1.00  0.00     0.022 A 
BRANCH  86  89
ATOM     89  S   UNL     1      -1.595 -10.846 -17.141  1.00  0.00     0.127 S 
ATOM     90  O   UNL     1      -1.780 -12.259 -17.475  1.00  0.00    -0.237 OA
ATOM     91  O   UNL     1      -1.452  -9.959 -18.292  1.00  0.00    -0.237 OA
ATOM     92  O   UNL     1      -0.671 -10.616 -16.037  1.00  0.00    -0.744 OA
ENDBRANCH  86  89
ENDBRANCH  58  82
BRANCH  70  93
ATOM     93  C   UNL     1      -7.781  -5.660 -10.737  1.00  0.00     0.023 A 
ATOM     94  C   UNL     1      -6.687  -6.264 -10.084  1.00  0.00     0.012 A 
ATOM     95  C   UNL     1      -8.987  -5.484 -10.038  1.00  0.00     0.148 A 
ATOM     96  C   UNL     1      -6.795  -6.681  -8.755  1.00  0.00     0.002 A 
ATOM     97  C   UNL     1      -9.075  -5.857  -8.704  1.00  0.00     0.091 A 
ATOM     98  F   UNL     1     -10.007  -4.891 -10.678  1.00  0.00    -0.205 F 
ATOM     99  C   UNL     1      -7.983  -6.461  -8.059  1.00  0.00     0.022 A 
BRANCH  97 100
ATOM    100  S   UNL     1     -10.518  -5.480  -7.705  1.00  0.00     0.127 S 
ATOM    101  O   UNL     1     -11.005  -6.813  -7.357  1.00  0.00    -0.237 OA
ATOM    102  O   UNL     1      -9.931  -4.731  -6.594  1.00  0.00    -0.237 OA
ATOM    103  O   UNL     1     -11.409  -4.699  -8.554  1.00  0.00    -0.744 OA
ENDBRANCH  97 100
ENDBRANCH  70  93
ENDBRANCH  44  45
ENDBRANCH  36  39
ENDBRANCH  34  35
ENDBRANCH  33  34
ENDBRANCH   1  33
TORSDOF 18
