REMARK SMILES CC1=C(CC(=O)NCCCCCCNC(=O)c2ccc(-c3c4nc(c(-c5cccc(S(=O)(=O)[O-])c5F)c5ccc([nH]5)c(-c5cccc(S(=O)(=O)[O-])c5F)c5nc(c(-c6cccc(S(=O)(=O)[O-])c6F)c6ccc3[nH]6)C=C5)C=C4)cc2)c2cc(F)ccc2/C1=C\c1ccc([S@@+](C)[O-])cc1
REMARK SMILES IDX 10 1 9 2 8 3 7 4 5 5 6 6 4 8 3 9 1 10 2 11 87 12 80 13 86 14
REMARK SMILES IDX 88 15 81 16 85 17 82 18 84 19 83 20 89 21 90 22 97 23 91 24
REMARK SMILES IDX 96 25 92 26 93 27 94 28 95 29 11 30 12 31 13 32 14 33 15 34
REMARK SMILES IDX 16 36 17 37 18 38 79 39 19 40 78 41 20 42 21 43 22 44 72 45
REMARK SMILES IDX 23 46 77 47 71 48 73 49 24 50 76 51 70 52 69 53 25 55 57 56
REMARK SMILES IDX 37 57 56 58 38 59 41 60 55 61 74 62 39 63 40 64 54 66 75 67
REMARK SMILES IDX 42 68 26 69 27 70 35 71 28 72 30 73 36 74 29 75 31 76 32 77
REMARK SMILES IDX 33 78 34 79 58 80 59 81 67 82 60 83 62 84 68 85 61 86 63 87
REMARK SMILES IDX 64 88 65 89 66 90 43 91 44 92 52 93 45 94 47 95 53 96 46 97
REMARK SMILES IDX 48 98 49 99 50 100 51 101
REMARK H PARENT 7 7 14 35 73 54 41 65
REMARK Flexibility Score: inf
ROOT
ATOM      1  C   UNL     1       3.520  -2.533   4.372  1.00  0.00     0.002 C 
ENDROOT
BRANCH   1   2
ATOM      2  C   UNL     1       2.687  -1.940   3.227  1.00  0.00     0.021 C 
BRANCH   2   3
ATOM      3  C   UNL     1       3.508  -1.537   2.001  1.00  0.00     0.116 C 
BRANCH   3   4
ATOM      4  N   UNL     1       4.010  -2.700   1.298  1.00  0.00    -0.356 N 
ATOM      5  C   UNL     1       3.563  -3.259   0.138  1.00  0.00     0.224 C 
ATOM      6  O   UNL     1       4.086  -4.310  -0.244  1.00  0.00    -0.275 OA
ATOM      7  H   UNL     1       4.780  -3.149   1.716  1.00  0.00     0.163 HD
BRANCH   5   8
ATOM      8  C   UNL     1       2.483  -2.568  -0.691  1.00  0.00     0.136 C 
BRANCH   8   9
ATOM      9  C   UNL     1       1.130  -2.546  -0.054  1.00  0.00    -0.027 C 
ATOM     10  C   UNL     1       0.606  -0.038  -0.018  1.00  0.00     0.045 C 
ATOM     11  C   UNL     1       0.340  -1.485   0.242  1.00  0.00    -0.039 C 
ATOM     12  C   UNL     1      -0.898  -1.953   0.886  1.00  0.00    -0.014 C 
ATOM     13  C   UNL     1       0.396  -3.769   0.316  1.00  0.00    -0.011 A 
ATOM     14  C   UNL     1      -0.864  -3.428   0.843  1.00  0.00    -0.010 A 
ATOM     15  C   UNL     1      -1.816  -1.142   1.449  1.00  0.00     0.017 C 
ATOM     16  C   UNL     1       0.768  -5.100   0.179  1.00  0.00     0.048 A 
ATOM     17  C   UNL     1      -1.781  -4.418   1.172  1.00  0.00     0.012 A 
ATOM     18  C   UNL     1      -0.138  -6.083   0.566  1.00  0.00     0.123 A 
ATOM     19  C   UNL     1      -1.406  -5.756   1.048  1.00  0.00     0.040 A 
ATOM     20  F   UNL     1       0.203  -7.374   0.457  1.00  0.00    -0.207 F 
BRANCH  15  21
ATOM     21  C   UNL     1      -3.019  -1.584   2.159  1.00  0.00    -0.025 A 
ATOM     22  C   UNL     1      -2.923  -2.255   3.384  1.00  0.00     0.013 A 
ATOM     23  C   UNL     1      -4.270  -1.422   1.560  1.00  0.00     0.013 A 
ATOM     24  C   UNL     1      -4.048  -2.875   3.935  1.00  0.00     0.061 A 
ATOM     25  C   UNL     1      -5.398  -2.022   2.124  1.00  0.00     0.061 A 
ATOM     26  C   UNL     1      -5.289  -2.788   3.292  1.00  0.00     0.152 A 
BRANCH  26  27
ATOM     27  S   UNL     1      -6.689  -3.790   3.847  1.00  0.00    -0.018 S 
ATOM     28  C   UNL     1      -6.774  -3.263   5.569  1.00  0.00     0.346 C 
ATOM     29  O   UNL     1      -7.968  -3.258   3.106  1.00  0.00    -0.612 OA
ENDBRANCH  26  27
ENDBRANCH  15  21
ENDBRANCH   8   9
ENDBRANCH   5   8
ENDBRANCH   3   4
ENDBRANCH   2   3
ENDBRANCH   1   2
BRANCH   1  30
ATOM     30  C   UNL     1       4.632  -1.627   4.914  1.00  0.00     0.002 C 
BRANCH  30  31
ATOM     31  C   UNL     1       4.187  -0.226   5.336  1.00  0.00     0.021 C 
BRANCH  31  32
ATOM     32  C   UNL     1       3.130  -0.194   6.435  1.00  0.00     0.116 C 
BRANCH  32  33
ATOM     33  N   UNL     1       3.631  -0.696   7.705  1.00  0.00    -0.352 N 
ATOM     34  C   UNL     1       3.578  -0.111   8.949  1.00  0.00     0.251 C 
ATOM     35  H   UNL     1       4.068  -1.578   7.670  1.00  0.00     0.163 HD
ATOM     36  O   UNL     1       4.193  -0.607   9.889  1.00  0.00    -0.269 OA
BRANCH  34  37
ATOM     37  C   UNL     1       2.805   1.137   9.134  1.00  0.00     0.039 A 
ATOM     38  C   UNL     1       1.513   1.252   8.615  1.00  0.00     0.014 A 
ATOM     39  C   UNL     1       3.394   2.215   9.801  1.00  0.00     0.014 A 
ATOM     40  C   UNL     1       0.878   2.489   8.618  1.00  0.00     0.010 A 
ATOM     41  C   UNL     1       2.720   3.438   9.869  1.00  0.00     0.010 A 
ATOM     42  C   UNL     1       1.479   3.600   9.234  1.00  0.00    -0.014 A 
BRANCH  42  43
ATOM     43  C   UNL     1       0.792   4.917   9.193  1.00  0.00     0.031 A 
ATOM     44  C   UNL     1       1.391   6.079   8.445  1.00  0.00     0.074 A 
ATOM     45  C   UNL     1      -0.406   5.052   9.794  1.00  0.00     0.049 A 
ATOM     46  N   UNL     1       0.905   7.282   8.275  1.00  0.00    -0.248 NA
ATOM     47  C   UNL     1       2.700   5.870   7.804  1.00  0.00     0.031 C 
ATOM     48  C   UNL     1      -1.084   4.005  10.562  1.00  0.00     0.029 A 
ATOM     49  N   UNL     1      -1.274   6.113   9.839  1.00  0.00    -0.354 N 
ATOM     50  C   UNL     1       1.858   7.981   7.546  1.00  0.00     0.074 A 
ATOM     51  C   UNL     1       2.957   7.072   7.306  1.00  0.00     0.031 C 
ATOM     52  C   UNL     1      -2.281   4.459  10.960  1.00  0.00     0.029 A 
ATOM     53  C   UNL     1      -2.437   5.842  10.519  1.00  0.00     0.049 A 
ATOM     54  H   UNL     1      -1.082   6.985   9.424  1.00  0.00     0.167 HD
ATOM     55  C   UNL     1       1.813   9.257   7.096  1.00  0.00     0.034 A 
ATOM     56  C   UNL     1      -3.512   6.616  10.765  1.00  0.00     0.034 A 
ATOM     57  C   UNL     1       0.700  10.147   7.284  1.00  0.00     0.049 A 
ATOM     58  C   UNL     1      -3.541   8.023  10.246  1.00  0.00     0.074 A 
ATOM     59  C   UNL     1       0.552  11.444   6.825  1.00  0.00     0.029 A 
ATOM     60  N   UNL     1      -0.456   9.833   7.980  1.00  0.00    -0.354 N 
ATOM     61  N   UNL     1      -2.658   8.639   9.500  1.00  0.00    -0.248 NA
ATOM     62  C   UNL     1      -4.714   8.838  10.594  1.00  0.00     0.031 C 
ATOM     63  C   UNL     1      -0.696  11.915   7.243  1.00  0.00     0.029 A 
ATOM     64  C   UNL     1      -1.324  10.910   7.961  1.00  0.00     0.049 A 
ATOM     65  H   UNL     1      -0.634   8.971   8.421  1.00  0.00     0.167 HD
ATOM     66  C   UNL     1      -3.169   9.912   9.281  1.00  0.00     0.074 A 
ATOM     67  C   UNL     1      -4.451   9.972   9.954  1.00  0.00     0.031 C 
ATOM     68  C   UNL     1      -2.614  10.943   8.600  1.00  0.00     0.034 A 
BRANCH  55  69
ATOM     69  C   UNL     1       2.981   9.764   6.295  1.00  0.00     0.023 A 
ATOM     70  C   UNL     1       3.074   9.424   4.931  1.00  0.00     0.012 A 
ATOM     71  C   UNL     1       3.923  10.645   6.858  1.00  0.00     0.148 A 
ATOM     72  C   UNL     1       4.096   9.946   4.139  1.00  0.00     0.002 A 
ATOM     73  C   UNL     1       4.924  11.182   6.056  1.00  0.00     0.091 A 
ATOM     74  F   UNL     1       3.821  10.941   8.162  1.00  0.00    -0.205 F 
ATOM     75  C   UNL     1       5.013  10.831   4.699  1.00  0.00     0.022 A 
BRANCH  73  76
ATOM     76  S   UNL     1       6.126  12.371   6.664  1.00  0.00     0.127 S 
ATOM     77  O   UNL     1       7.361  11.590   6.615  1.00  0.00    -0.237 OA
ATOM     78  O   UNL     1       6.038  13.436   5.665  1.00  0.00    -0.237 OA
ATOM     79  O   UNL     1       5.681  12.748   7.998  1.00  0.00    -0.744 OA
ENDBRANCH  73  76
ENDBRANCH  55  69
BRANCH  56  80
ATOM     80  C   UNL     1      -4.670   6.032  11.493  1.00  0.00     0.023 A 
ATOM     81  C   UNL     1      -5.828   5.685  10.771  1.00  0.00     0.012 A 
ATOM     82  C   UNL     1      -4.593   5.732  12.866  1.00  0.00     0.148 A 
ATOM     83  C   UNL     1      -6.892   5.045  11.407  1.00  0.00     0.002 A 
ATOM     84  C   UNL     1      -5.637   5.055  13.483  1.00  0.00     0.091 A 
ATOM     85  F   UNL     1      -3.480   6.080  13.527  1.00  0.00    -0.205 F 
ATOM     86  C   UNL     1      -6.792   4.719  12.758  1.00  0.00     0.022 A 
BRANCH  84  87
ATOM     87  S   UNL     1      -5.551   4.484  15.184  1.00  0.00     0.127 S 
ATOM     88  O   UNL     1      -6.627   5.248  15.810  1.00  0.00    -0.237 OA
ATOM     89  O   UNL     1      -5.818   3.054  15.030  1.00  0.00    -0.237 OA
ATOM     90  O   UNL     1      -4.207   4.804  15.643  1.00  0.00    -0.744 OA
ENDBRANCH  84  87
ENDBRANCH  56  80
BRANCH  68  91
ATOM     91  C   UNL     1      -3.373  12.238   8.543  1.00  0.00     0.023 A 
ATOM     92  C   UNL     1      -3.316  13.114   9.643  1.00  0.00     0.012 A 
ATOM     93  C   UNL     1      -4.033  12.639   7.365  1.00  0.00     0.148 A 
ATOM     94  C   UNL     1      -3.913  14.372   9.576  1.00  0.00     0.002 A 
ATOM     95  C   UNL     1      -4.599  13.906   7.294  1.00  0.00     0.091 A 
ATOM     96  F   UNL     1      -4.080  11.780   6.337  1.00  0.00    -0.205 F 
ATOM     97  C   UNL     1      -4.543  14.772   8.399  1.00  0.00     0.022 A 
BRANCH  95  98
ATOM     98  S   UNL     1      -5.369  14.540   5.801  1.00  0.00     0.127 S 
ATOM     99  O   UNL     1      -6.772  14.630   6.204  1.00  0.00    -0.237 OA
ATOM    100  O   UNL     1      -4.698  15.829   5.631  1.00  0.00    -0.237 OA
ATOM    101  O   UNL     1      -5.086  13.566   4.755  1.00  0.00    -0.744 OA
ENDBRANCH  95  98
ENDBRANCH  68  91
ENDBRANCH  42  43
ENDBRANCH  34  37
ENDBRANCH  32  33
ENDBRANCH  31  32
ENDBRANCH  30  31
ENDBRANCH   1  30
TORSDOF 19
