REMARK SMILES O=C(C[C@@H]([NH2+]C[C@H]1CCCO1)C(=O)NCCCCCCNC(=O)c1ccc(-c2c3nc(c(-c4cccc(S(=O)(=O)[O-])c4F)c4ccc([nH]4)c(-c4cccc(S(=O)(=O)[O-])c4F)c4nc(c(-c5cccc(S(=O)(=O)[O-])c5F)c5ccc2[nH]5)C=C4)C=C3)cc1)Nc1cccc(Cl)c1
REMARK SMILES IDX 17 1 16 2 15 3 14 4 12 5 13 6 4 8 3 9 2 10 1 11 87 12 88 14
REMARK SMILES IDX 89 15 94 16 90 17 92 18 91 19 93 20 5 21 6 24 7 25 8 26
REMARK SMILES IDX 11 27 9 28 10 29 18 30 19 31 20 32 21 33 22 34 23 36 24 37
REMARK SMILES IDX 25 38 86 39 26 40 85 41 27 42 28 43 29 44 79 45 30 46 84 47
REMARK SMILES IDX 78 48 80 49 31 50 83 51 77 52 76 53 32 55 64 56 44 57 63 58
REMARK SMILES IDX 45 59 48 60 62 61 81 62 46 63 47 64 61 66 82 67 49 68 33 69
REMARK SMILES IDX 34 70 42 71 35 72 37 73 43 74 36 75 38 76 39 77 40 78 41 79
REMARK SMILES IDX 65 80 66 81 74 82 67 83 69 84 75 85 68 86 70 87 71 88 72 89
REMARK SMILES IDX 73 90 50 91 51 92 59 93 52 94 54 95 60 96 53 97 55 98 56 99
REMARK SMILES IDX 57 100 58 101
REMARK H PARENT 14 7 87 13 5 22 5 23 21 35 80 54 48 65
REMARK Flexibility Score: inf
ROOT
ATOM      1  C   UNL     1       5.083   2.506   8.306  1.00  0.00     0.002 C 
ENDROOT
BRANCH   1   2
ATOM      2  C   UNL     1       6.139   1.968   7.331  1.00  0.00     0.021 C 
BRANCH   2   3
ATOM      3  C   UNL     1       5.768   0.612   6.724  1.00  0.00     0.116 C 
BRANCH   3   4
ATOM      4  N   UNL     1       4.662   0.777   5.802  1.00  0.00    -0.351 N 
ATOM      5  C   UNL     1       4.639   0.725   4.440  1.00  0.00     0.278 C 
ATOM      6  O   UNL     1       3.600   1.076   3.873  1.00  0.00    -0.268 OA
ATOM      7  H   UNL     1       3.790   0.954   6.225  1.00  0.00     0.163 HD
BRANCH   5   8
ATOM      8  C   UNL     1       5.859   0.240   3.631  1.00  0.00     0.282 C 
BRANCH   8   9
ATOM      9  C   UNL     1       6.990   1.276   3.742  1.00  0.00     0.175 C 
BRANCH   9  10
ATOM     10  C   UNL     1       8.192   0.971   2.881  1.00  0.00     0.230 C 
ATOM     11  O   UNL     1       8.481   1.677   1.919  1.00  0.00    -0.274 OA
ATOM     12  N   UNL     1       8.879  -0.163   3.284  1.00  0.00    -0.326 N 
ATOM     13  H   UNL     1       8.515  -0.672   4.044  1.00  0.00     0.169 HD
BRANCH  12  14
ATOM     14  C   UNL     1      10.057  -0.637   2.686  1.00  0.00     0.042 A 
ATOM     15  C   UNL     1      10.247  -2.020   2.598  1.00  0.00     0.026 A 
ATOM     16  C   UNL     1      11.041   0.232   2.212  1.00  0.00     0.046 A 
ATOM     17  C   UNL     1      11.391  -2.531   1.979  1.00  0.00     0.004 A 
ATOM     18  C   UNL     1      12.206  -0.285   1.649  1.00  0.00     0.043 A 
ATOM     19  C   UNL     1      12.376  -1.662   1.511  1.00  0.00     0.020 A 
ATOM     20  Cl  UNL     1      13.453   0.783   1.133  1.00  0.00    -0.084 Cl
ENDBRANCH  12  14
ENDBRANCH   9  10
ENDBRANCH   8   9
BRANCH   8  21
ATOM     21  N   UNL     1       6.281  -1.147   4.015  1.00  0.00    -0.333 N 
ATOM     22  H   UNL     1       6.668  -1.118   4.958  1.00  0.00     0.347 HD
ATOM     23  H   UNL     1       6.968  -1.456   3.328  1.00  0.00     0.347 HD
BRANCH  21  24
ATOM     24  C   UNL     1       5.165  -2.124   3.992  1.00  0.00     0.293 C 
BRANCH  24  25
ATOM     25  C   UNL     1       4.726  -2.515   2.559  1.00  0.00     0.173 C 
ATOM     26  C   UNL     1       4.845  -4.005   2.273  1.00  0.00     0.040 C 
ATOM     27  O   UNL     1       3.339  -2.174   2.382  1.00  0.00    -0.372 OA
ATOM     28  C   UNL     1       3.471  -4.520   2.618  1.00  0.00     0.031 C 
ATOM     29  C   UNL     1       2.588  -3.375   2.175  1.00  0.00     0.161 C 
ENDBRANCH  24  25
ENDBRANCH  21  24
ENDBRANCH   8  21
ENDBRANCH   5   8
ENDBRANCH   3   4
ENDBRANCH   2   3
ENDBRANCH   1   2
BRANCH   1  30
ATOM     30  C   UNL     1       4.795   1.589   9.499  1.00  0.00     0.002 C 
BRANCH  30  31
ATOM     31  C   UNL     1       6.029   1.206  10.319  1.00  0.00     0.021 C 
BRANCH  31  32
ATOM     32  C   UNL     1       6.778   2.395  10.911  1.00  0.00     0.116 C 
BRANCH  32  33
ATOM     33  N   UNL     1       5.951   3.137  11.851  1.00  0.00    -0.352 N 
ATOM     34  C   UNL     1       6.209   3.458  13.159  1.00  0.00     0.251 C 
ATOM     35  H   UNL     1       5.087   3.453  11.500  1.00  0.00     0.163 HD
ATOM     36  O   UNL     1       5.309   3.892  13.877  1.00  0.00    -0.269 OA
BRANCH  34  37
ATOM     37  C   UNL     1       7.568   3.266  13.703  1.00  0.00     0.039 A 
ATOM     38  C   UNL     1       7.721   2.673  14.958  1.00  0.00     0.014 A 
ATOM     39  C   UNL     1       8.690   3.668  12.971  1.00  0.00     0.014 A 
ATOM     40  C   UNL     1       9.003   2.435  15.456  1.00  0.00     0.010 A 
ATOM     41  C   UNL     1       9.964   3.358  13.434  1.00  0.00     0.010 A 
ATOM     42  C   UNL     1      10.135   2.748  14.685  1.00  0.00    -0.014 A 
BRANCH  42  43
ATOM     43  C   UNL     1      11.504   2.435  15.168  1.00  0.00     0.031 A 
ATOM     44  C   UNL     1      12.498   3.540  15.404  1.00  0.00     0.074 A 
ATOM     45  C   UNL     1      11.878   1.148  15.318  1.00  0.00     0.049 A 
ATOM     46  N   UNL     1      13.748   3.457  15.779  1.00  0.00    -0.248 NA
ATOM     47  C   UNL     1      12.036   4.917  15.162  1.00  0.00     0.031 C 
ATOM     48  C   UNL     1      11.030  -0.015  15.046  1.00  0.00     0.029 A 
ATOM     49  N   UNL     1      13.074   0.602  15.710  1.00  0.00    -0.354 N 
ATOM     50  C   UNL     1      14.231   4.761  15.784  1.00  0.00     0.074 A 
ATOM     51  C   UNL     1      13.149   5.613  15.341  1.00  0.00     0.031 C 
ATOM     52  C   UNL     1      11.730  -1.135  15.286  1.00  0.00     0.029 A 
ATOM     53  C   UNL     1      13.085  -0.773  15.692  1.00  0.00     0.049 A 
ATOM     54  H   UNL     1      13.852   1.143  15.978  1.00  0.00     0.167 HD
ATOM     55  C   UNL     1      15.454   5.212  16.151  1.00  0.00     0.034 A 
ATOM     56  C   UNL     1      14.076  -1.646  15.961  1.00  0.00     0.034 A 
ATOM     57  C   UNL     1      16.515   4.364  16.624  1.00  0.00     0.049 A 
ATOM     58  C   UNL     1      15.417  -1.117  16.392  1.00  0.00     0.074 A 
ATOM     59  C   UNL     1      17.760   4.732  17.102  1.00  0.00     0.029 A 
ATOM     60  N   UNL     1      16.464   2.979  16.664  1.00  0.00    -0.354 N 
ATOM     61  N   UNL     1      15.804   0.126  16.544  1.00  0.00    -0.248 NA
ATOM     62  C   UNL     1      16.448  -2.112  16.723  1.00  0.00     0.031 C 
ATOM     63  C   UNL     1      18.476   3.567  17.398  1.00  0.00     0.029 A 
ATOM     64  C   UNL     1      17.661   2.475  17.143  1.00  0.00     0.049 A 
ATOM     65  H   UNL     1      15.691   2.434  16.392  1.00  0.00     0.167 HD
ATOM     66  C   UNL     1      17.108   0.063  17.023  1.00  0.00     0.074 A 
ATOM     67  C   UNL     1      17.436  -1.341  17.156  1.00  0.00     0.031 C 
ATOM     68  C   UNL     1      17.960   1.077  17.315  1.00  0.00     0.034 A 
BRANCH  55  69
ATOM     69  C   UNL     1      15.700   6.698  16.095  1.00  0.00     0.023 A 
ATOM     70  C   UNL     1      15.054   7.549  17.017  1.00  0.00     0.012 A 
ATOM     71  C   UNL     1      16.613   7.246  15.173  1.00  0.00     0.148 A 
ATOM     72  C   UNL     1      15.284   8.924  16.996  1.00  0.00     0.002 A 
ATOM     73  C   UNL     1      16.874   8.611  15.191  1.00  0.00     0.091 A 
ATOM     74  F   UNL     1      17.202   6.425  14.292  1.00  0.00    -0.205 F 
ATOM     75  C   UNL     1      16.201   9.452  16.092  1.00  0.00     0.022 A 
BRANCH  73  76
ATOM     76  S   UNL     1      18.099   9.379  14.126  1.00  0.00     0.127 S 
ATOM     77  O   UNL     1      17.255  10.164  13.226  1.00  0.00    -0.237 OA
ATOM     78  O   UNL     1      18.878  10.171  15.077  1.00  0.00    -0.237 OA
ATOM     79  O   UNL     1      18.830   8.286  13.500  1.00  0.00    -0.744 OA
ENDBRANCH  73  76
ENDBRANCH  55  69
BRANCH  56  80
ATOM     80  C   UNL     1      13.821  -3.112  15.880  1.00  0.00     0.023 A 
ATOM     81  C   UNL     1      13.801  -3.879  17.062  1.00  0.00     0.012 A 
ATOM     82  C   UNL     1      13.577  -3.745  14.646  1.00  0.00     0.148 A 
ATOM     83  C   UNL     1      13.580  -5.256  17.012  1.00  0.00     0.002 A 
ATOM     84  C   UNL     1      13.300  -5.107  14.609  1.00  0.00     0.091 A 
ATOM     85  F   UNL     1      13.607  -2.999  13.533  1.00  0.00    -0.205 F 
ATOM     86  C   UNL     1      13.320  -5.868  15.788  1.00  0.00     0.022 A 
BRANCH  84  87
ATOM     87  S   UNL     1      12.823  -5.952  13.098  1.00  0.00     0.127 S 
ATOM     88  O   UNL     1      13.981  -6.810  12.857  1.00  0.00    -0.237 OA
ATOM     89  O   UNL     1      11.611  -6.657  13.516  1.00  0.00    -0.237 OA
ATOM     90  O   UNL     1      12.598  -4.904  12.112  1.00  0.00    -0.744 OA
ENDBRANCH  84  87
ENDBRANCH  56  80
BRANCH  68  91
ATOM     91  C   UNL     1      19.322   0.715  17.850  1.00  0.00     0.023 A 
ATOM     92  C   UNL     1      20.283   0.134  16.999  1.00  0.00     0.012 A 
ATOM     93  C   UNL     1      19.671   1.019  19.181  1.00  0.00     0.148 A 
ATOM     94  C   UNL     1      21.558  -0.171  17.474  1.00  0.00     0.002 A 
ATOM     95  C   UNL     1      20.959   0.762  19.632  1.00  0.00     0.091 A 
ATOM     96  F   UNL     1      18.737   1.556  19.980  1.00  0.00    -0.205 F 
ATOM     97  C   UNL     1      21.900   0.154  18.784  1.00  0.00     0.022 A 
BRANCH  95  98
ATOM     98  S   UNL     1      21.520   1.236  21.271  1.00  0.00     0.127 S 
ATOM     99  O   UNL     1      21.662  -0.064  21.924  1.00  0.00    -0.237 OA
ATOM    100  O   UNL     1      22.784   1.914  20.980  1.00  0.00    -0.237 OA
ATOM    101  O   UNL     1      20.482   2.099  21.818  1.00  0.00    -0.744 OA
ENDBRANCH  95  98
ENDBRANCH  68  91
ENDBRANCH  42  43
ENDBRANCH  34  37
ENDBRANCH  32  33
ENDBRANCH  31  32
ENDBRANCH  30  31
ENDBRANCH   1  30
TORSDOF 22
