REMARK SMILES O=C1O[C@@H](c2ccc(O)c(O)c2)[C@H](C(=O)NCCCCCCNC(=O)c2ccc(-c3c4nc(c(-c5cccc(S(=O)(=O)[O-])c5F)c5ccc([nH]5)c(-c5cccc(S(=O)(=O)[O-])c5F)c5nc(c(-c6cccc(S(=O)(=O)[O-])c6F)c6ccc3[nH]6)C=C5)C=C4)cc2)/C1=C\c1ccc(O)c(O)c1
REMARK SMILES IDX 20 1 19 2 18 3 17 4 16 5 14 6 15 7 13 9 1 10 2 11 3 12 89 13
REMARK SMILES IDX 4 14 90 15 5 16 6 17 12 18 7 19 10 20 8 21 11 22 9 24 91 26
REMARK SMILES IDX 92 27 98 28 93 29 96 30 94 31 97 32 95 34 21 36 22 37 23 38
REMARK SMILES IDX 24 39 25 41 26 42 27 43 88 44 28 45 87 46 29 47 30 48 31 49
REMARK SMILES IDX 81 50 32 51 86 52 80 53 82 54 33 55 85 56 79 57 78 58 34 60
REMARK SMILES IDX 66 61 46 62 65 63 47 64 50 65 64 66 83 67 48 68 49 69 63 71
REMARK SMILES IDX 84 72 51 73 35 74 36 75 44 76 37 77 39 78 45 79 38 80 40 81
REMARK SMILES IDX 41 82 42 83 43 84 67 85 68 86 76 87 69 88 71 89 77 90 70 91
REMARK SMILES IDX 72 92 73 93 74 94 75 95 52 96 53 97 61 98 54 99 56 100
REMARK SMILES IDX 62 101 55 102 57 103 58 104 59 105 60 106
REMARK H PARENT 16 8 11 23 9 25 97 33 95 35 23 40 82 59 50 70
REMARK Flexibility Score: inf
ROOT
ATOM      1  C   UNL     1       6.114   0.514   3.764  1.00  0.00     0.002 C 
ENDROOT
BRANCH   1   2
ATOM      2  C   UNL     1       5.696   1.821   3.082  1.00  0.00     0.002 C 
BRANCH   2   3
ATOM      3  C   UNL     1       5.158   1.665   1.660  1.00  0.00     0.021 C 
BRANCH   3   4
ATOM      4  C   UNL     1       4.027   0.656   1.524  1.00  0.00     0.116 C 
BRANCH   4   5
ATOM      5  N   UNL     1       2.802   1.076   2.171  1.00  0.00    -0.355 N 
ATOM      6  C   UNL     1       1.521   1.133   1.699  1.00  0.00     0.231 C 
ATOM      7  O   UNL     1       0.644   1.411   2.520  1.00  0.00    -0.274 OA
ATOM      8  H   UNL     1       2.909   1.370   3.105  1.00  0.00     0.163 HD
BRANCH   6   9
ATOM      9  C   UNL     1       1.231   0.962   0.202  1.00  0.00     0.161 C 
ATOM     10  O   UNL     1      -1.856  -0.811  -0.099  1.00  0.00    -0.247 OA
ATOM     11  C   UNL     1      -0.701  -0.423  -0.123  1.00  0.00     0.335 C 
ATOM     12  O   UNL     1       0.392  -1.215  -0.237  1.00  0.00    -0.453 OA
ATOM     13  C   UNL     1      -0.241   0.974  -0.051  1.00  0.00     0.054 C 
ATOM     14  C   UNL     1       1.591  -0.423  -0.329  1.00  0.00     0.224 C 
ATOM     15  C   UNL     1      -1.115   1.976  -0.223  1.00  0.00     0.020 C 
BRANCH  14  16
ATOM     16  C   UNL     1       2.173  -0.434  -1.747  1.00  0.00    -0.002 A 
ATOM     17  C   UNL     1       3.233   0.430  -2.112  1.00  0.00     0.012 A 
ATOM     18  C   UNL     1       1.741  -1.371  -2.698  1.00  0.00     0.057 A 
ATOM     19  C   UNL     1       3.861   0.344  -3.359  1.00  0.00     0.050 A 
ATOM     20  C   UNL     1       2.351  -1.431  -3.947  1.00  0.00     0.157 A 
ATOM     21  C   UNL     1       3.414  -0.594  -4.272  1.00  0.00     0.157 A 
BRANCH  20  22
ATOM     22  O   UNL     1       1.909  -2.346  -4.859  1.00  0.00    -0.504 OA
ATOM     23  H   UNL     1       2.311  -2.397  -5.704  1.00  0.00     0.293 HD
ENDBRANCH  20  22
BRANCH  21  24
ATOM     24  O   UNL     1       3.991  -0.736  -5.502  1.00  0.00    -0.504 OA
ATOM     25  H   UNL     1       4.709  -0.187  -5.748  1.00  0.00     0.293 HD
ENDBRANCH  21  24
ENDBRANCH  14  16
BRANCH  15  26
ATOM     26  C   UNL     1      -0.764   3.394  -0.180  1.00  0.00    -0.021 A 
ATOM     27  C   UNL     1       0.106   3.952  -1.130  1.00  0.00     0.012 A 
ATOM     28  C   UNL     1      -1.336   4.210   0.801  1.00  0.00     0.058 A 
ATOM     29  C   UNL     1       0.431   5.311  -1.084  1.00  0.00     0.051 A 
ATOM     30  C   UNL     1      -1.016   5.560   0.833  1.00  0.00     0.157 A 
ATOM     31  C   UNL     1      -0.134   6.107  -0.096  1.00  0.00     0.157 A 
BRANCH  30  32
ATOM     32  O   UNL     1      -1.578   6.358   1.789  1.00  0.00    -0.504 OA
ATOM     33  H   UNL     1      -1.369   7.271   1.819  1.00  0.00     0.293 HD
ENDBRANCH  30  32
BRANCH  31  34
ATOM     34  O   UNL     1       0.144   7.443   0.001  1.00  0.00    -0.504 OA
ATOM     35  H   UNL     1       0.733   7.844  -0.608  1.00  0.00     0.293 HD
ENDBRANCH  31  34
ENDBRANCH  15  26
ENDBRANCH   6   9
ENDBRANCH   4   5
ENDBRANCH   3   4
ENDBRANCH   2   3
ENDBRANCH   1   2
BRANCH   1  36
ATOM     36  C   UNL     1       7.116  -0.340   2.982  1.00  0.00     0.021 C 
BRANCH  36  37
ATOM     37  C   UNL     1       8.416   0.370   2.628  1.00  0.00     0.116 C 
BRANCH  37  38
ATOM     38  N   UNL     1       9.138   0.807   3.812  1.00  0.00    -0.352 N 
ATOM     39  C   UNL     1      10.440   0.559   4.170  1.00  0.00     0.251 C 
ATOM     40  H   UNL     1       8.622   1.359   4.443  1.00  0.00     0.163 HD
ATOM     41  O   UNL     1      10.830   0.834   5.300  1.00  0.00    -0.269 OA
BRANCH  39  42
ATOM     42  C   UNL     1      11.360  -0.053   3.190  1.00  0.00     0.039 A 
ATOM     43  C   UNL     1      12.188  -1.102   3.597  1.00  0.00     0.014 A 
ATOM     44  C   UNL     1      11.398   0.405   1.870  1.00  0.00     0.014 A 
ATOM     45  C   UNL     1      13.019  -1.725   2.664  1.00  0.00     0.010 A 
ATOM     46  C   UNL     1      12.164  -0.271   0.927  1.00  0.00     0.010 A 
ATOM     47  C   UNL     1      12.992  -1.334   1.315  1.00  0.00    -0.014 A 
BRANCH  47  48
ATOM     48  C   UNL     1      13.829  -2.015   0.295  1.00  0.00     0.031 A 
ATOM     49  C   UNL     1      14.874  -1.239  -0.462  1.00  0.00     0.074 A 
ATOM     50  C   UNL     1      13.593  -3.306  -0.012  1.00  0.00     0.049 A 
ATOM     51  N   UNL     1      15.645  -1.633  -1.441  1.00  0.00    -0.248 NA
ATOM     52  C   UNL     1      15.056   0.174  -0.089  1.00  0.00     0.031 C 
ATOM     53  C   UNL     1      12.564  -4.148   0.603  1.00  0.00     0.029 A 
ATOM     54  N   UNL     1      14.184  -4.129  -0.938  1.00  0.00    -0.354 N 
ATOM     55  C   UNL     1      16.374  -0.514  -1.825  1.00  0.00     0.074 A 
ATOM     56  C   UNL     1      15.925   0.585  -0.999  1.00  0.00     0.031 C 
ATOM     57  C   UNL     1      12.600  -5.367   0.041  1.00  0.00     0.029 A 
ATOM     58  C   UNL     1      13.623  -5.384  -0.998  1.00  0.00     0.049 A 
ATOM     59  H   UNL     1      14.938  -3.848  -1.506  1.00  0.00     0.167 HD
ATOM     60  C   UNL     1      17.347  -0.414  -2.760  1.00  0.00     0.034 A 
ATOM     61  C   UNL     1      13.892  -6.425  -1.810  1.00  0.00     0.034 A 
ATOM     62  C   UNL     1      17.814  -1.517  -3.555  1.00  0.00     0.049 A 
ATOM     63  C   UNL     1      14.990  -6.293  -2.831  1.00  0.00     0.074 A 
ATOM     64  C   UNL     1      18.849  -1.537  -4.473  1.00  0.00     0.029 A 
ATOM     65  N   UNL     1      17.271  -2.792  -3.537  1.00  0.00    -0.354 N 
ATOM     66  N   UNL     1      15.762  -5.264  -3.084  1.00  0.00    -0.248 NA
ATOM     67  C   UNL     1      15.278  -7.476  -3.655  1.00  0.00     0.031 C 
ATOM     68  C   UNL     1      18.906  -2.815  -5.039  1.00  0.00     0.029 A 
ATOM     69  C   UNL     1      17.939  -3.604  -4.437  1.00  0.00     0.049 A 
ATOM     70  H   UNL     1      16.521  -3.078  -2.967  1.00  0.00     0.167 HD
ATOM     71  C   UNL     1      16.655  -5.689  -4.061  1.00  0.00     0.074 A 
ATOM     72  C   UNL     1      16.336  -7.073  -4.345  1.00  0.00     0.031 C 
ATOM     73  C   UNL     1      17.645  -4.994  -4.673  1.00  0.00     0.034 A 
BRANCH  60  74
ATOM     74  C   UNL     1      18.000   0.931  -2.953  1.00  0.00     0.023 A 
ATOM     75  C   UNL     1      18.836   1.456  -1.946  1.00  0.00     0.012 A 
ATOM     76  C   UNL     1      17.829   1.650  -4.152  1.00  0.00     0.148 A 
ATOM     77  C   UNL     1      19.460   2.692  -2.112  1.00  0.00     0.002 A 
ATOM     78  C   UNL     1      18.495   2.857  -4.331  1.00  0.00     0.091 A 
ATOM     79  F   UNL     1      17.015   1.146  -5.090  1.00  0.00    -0.205 F 
ATOM     80  C   UNL     1      19.298   3.386  -3.308  1.00  0.00     0.022 A 
BRANCH  78  81
ATOM     81  S   UNL     1      18.416   3.788  -5.864  1.00  0.00     0.127 S 
ATOM     82  O   UNL     1      17.657   4.969  -5.453  1.00  0.00    -0.237 OA
ATOM     83  O   UNL     1      19.830   4.039  -6.143  1.00  0.00    -0.237 OA
ATOM     84  O   UNL     1      17.749   2.925  -6.828  1.00  0.00    -0.744 OA
ENDBRANCH  78  81
ENDBRANCH  60  74
BRANCH  61  85
ATOM     85  C   UNL     1      13.138  -7.702  -1.663  1.00  0.00     0.023 A 
ATOM     86  C   UNL     1      13.799  -8.848  -1.179  1.00  0.00     0.012 A 
ATOM     87  C   UNL     1      11.771  -7.783  -1.987  1.00  0.00     0.148 A 
ATOM     88  C   UNL     1      13.121 -10.062  -1.059  1.00  0.00     0.002 A 
ATOM     89  C   UNL     1      11.087  -8.980  -1.810  1.00  0.00     0.091 A 
ATOM     90  F   UNL     1      11.163  -6.683  -2.453  1.00  0.00    -0.205 F 
ATOM     91  C   UNL     1      11.764 -10.126  -1.365  1.00  0.00     0.022 A 
BRANCH  89  92
ATOM     92  S   UNL     1       9.314  -9.121  -2.055  1.00  0.00     0.127 S 
ATOM     93  O   UNL     1       9.244  -9.986  -3.230  1.00  0.00    -0.237 OA
ATOM     94  O   UNL     1       8.888  -9.744  -0.802  1.00  0.00    -0.237 OA
ATOM     95  O   UNL     1       8.833  -7.759  -2.245  1.00  0.00    -0.744 OA
ENDBRANCH  89  92
ENDBRANCH  61  85
BRANCH  73  96
ATOM     96  C   UNL     1      18.504  -5.726  -5.671  1.00  0.00     0.023 A 
ATOM     97  C   UNL     1      17.980  -6.094  -6.926  1.00  0.00     0.012 A 
ATOM     98  C   UNL     1      19.862  -5.976  -5.388  1.00  0.00     0.148 A 
ATOM     99  C   UNL     1      18.785  -6.732  -7.870  1.00  0.00     0.002 A 
ATOM    100  C   UNL     1      20.671  -6.561  -6.354  1.00  0.00     0.091 A 
ATOM    101  F   UNL     1      20.337  -5.633  -4.182  1.00  0.00    -0.205 F 
ATOM    102  C   UNL     1      20.131  -6.952  -7.589  1.00  0.00     0.022 A 
BRANCH 100 103
ATOM    103  S   UNL     1      22.438  -6.789  -6.121  1.00  0.00     0.127 S 
ATOM    104  O   UNL     1      22.538  -8.244  -6.020  1.00  0.00    -0.237 OA
ATOM    105  O   UNL     1      22.986  -6.223  -7.354  1.00  0.00    -0.237 OA
ATOM    106  O   UNL     1      22.784  -6.056  -4.912  1.00  0.00    -0.744 OA
ENDBRANCH 100 103
ENDBRANCH  73  96
ENDBRANCH  47  48
ENDBRANCH  39  42
ENDBRANCH  37  38
ENDBRANCH  36  37
ENDBRANCH   1  36
TORSDOF 22
