REMARK SMILES CCCCOCc1cc(C(=O)NCCCCCCNC(=O)c2ccc(-c3c4nc(c(-c5cccc(S(=O)(=O)[O-])c5F)c5ccc([nH]5)c(-c5cccc(S(=O)(=O)[O-])c5F)c5nc(c(-c6cccc(S(=O)(=O)[O-])c6F)c6ccc3[nH]6)C=C5)C=C4)cc2)[nH]n1
REMARK SMILES IDX 14 1 13 2 12 3 10 4 11 5 9 7 7 8 8 9 86 10 85 11 6 13 5 14
REMARK SMILES IDX 4 15 3 16 2 17 1 18 15 19 16 20 17 21 18 22 19 23 20 24
REMARK SMILES IDX 21 26 22 27 23 28 84 29 24 30 83 31 25 32 26 33 27 34 77 35
REMARK SMILES IDX 28 36 82 37 76 38 78 39 29 40 81 41 75 42 74 43 30 45 62 46
REMARK SMILES IDX 42 47 61 48 43 49 46 50 60 51 79 52 44 53 45 54 59 56 80 57
REMARK SMILES IDX 47 58 31 59 32 60 40 61 33 62 35 63 41 64 34 65 36 66 37 67
REMARK SMILES IDX 38 68 39 69 63 70 64 71 72 72 65 73 67 74 73 75 66 76 68 77
REMARK SMILES IDX 69 78 70 79 71 80 48 81 49 82 57 83 50 84 52 85 58 86 51 87
REMARK SMILES IDX 53 88 54 89 55 90 56 91
REMARK H PARENT 12 6 85 12 19 25 78 44 46 55
REMARK Flexibility Score: inf
ROOT
ATOM      1  C   UNL     1       0.761  -0.361   4.074  1.00  0.00     0.021 C 
ENDROOT
BRANCH   1   2
ATOM      2  C   UNL     1       1.296  -1.134   2.873  1.00  0.00     0.116 C 
BRANCH   2   3
ATOM      3  N   UNL     1       0.950  -2.541   2.942  1.00  0.00    -0.351 N 
ATOM      4  C   UNL     1       0.265  -3.338   2.063  1.00  0.00     0.269 C 
ATOM      5  O   UNL     1       0.282  -4.551   2.270  1.00  0.00    -0.268 OA
ATOM      6  H   UNL     1       1.259  -2.999   3.757  1.00  0.00     0.163 HD
BRANCH   4   7
ATOM      7  C   UNL     1      -0.392  -2.787   0.908  1.00  0.00     0.123 A 
ATOM      8  C   UNL     1      -1.274  -1.645  -0.795  1.00  0.00     0.089 A 
ATOM      9  C   UNL     1      -0.939  -1.562   0.580  1.00  0.00     0.061 A 
ATOM     10  N   UNL     1      -1.122  -2.896  -1.250  1.00  0.00    -0.178 NA
ATOM     11  N   UNL     1      -0.623  -3.563  -0.198  1.00  0.00    -0.273 N 
ATOM     12  H   UNL     1      -0.438  -4.530  -0.218  1.00  0.00     0.190 HD
BRANCH   8  13
ATOM     13  C   UNL     1      -1.717  -0.519  -1.683  1.00  0.00     0.218 C 
BRANCH  13  14
ATOM     14  O   UNL     1      -0.983  -0.356  -2.904  1.00  0.00    -0.375 OA
BRANCH  14  15
ATOM     15  C   UNL     1       0.436  -0.258  -2.800  1.00  0.00     0.160 C 
BRANCH  15  16
ATOM     16  C   UNL     1       0.943   1.156  -2.503  1.00  0.00     0.028 C 
BRANCH  16  17
ATOM     17  C   UNL     1       1.002   1.562  -1.029  1.00  0.00    -0.001 C 
ATOM     18  C   UNL     1       1.971   0.730  -0.207  1.00  0.00     0.004 C 
ENDBRANCH  16  17
ENDBRANCH  15  16
ENDBRANCH  14  15
ENDBRANCH  13  14
ENDBRANCH   8  13
ENDBRANCH   4   7
ENDBRANCH   2   3
ENDBRANCH   1   2
BRANCH   1  19
ATOM     19  C   UNL     1       1.593  -0.552   5.347  1.00  0.00     0.002 C 
BRANCH  19  20
ATOM     20  C   UNL     1       3.041  -0.054   5.256  1.00  0.00     0.002 C 
BRANCH  20  21
ATOM     21  C   UNL     1       3.208   1.415   4.855  1.00  0.00     0.021 C 
BRANCH  21  22
ATOM     22  C   UNL     1       2.508   2.416   5.771  1.00  0.00     0.116 C 
BRANCH  22  23
ATOM     23  N   UNL     1       2.998   2.345   7.139  1.00  0.00    -0.352 N 
ATOM     24  C   UNL     1       3.524   3.332   7.934  1.00  0.00     0.251 C 
ATOM     25  H   UNL     1       2.943   1.455   7.558  1.00  0.00     0.163 HD
ATOM     26  O   UNL     1       4.062   3.037   8.998  1.00  0.00    -0.269 OA
BRANCH  24  27
ATOM     27  C   UNL     1       3.459   4.746   7.505  1.00  0.00     0.039 A 
ATOM     28  C   UNL     1       4.593   5.550   7.653  1.00  0.00     0.014 A 
ATOM     29  C   UNL     1       2.284   5.282   6.971  1.00  0.00     0.014 A 
ATOM     30  C   UNL     1       4.567   6.873   7.205  1.00  0.00     0.010 A 
ATOM     31  C   UNL     1       2.283   6.578   6.460  1.00  0.00     0.010 A 
ATOM     32  C   UNL     1       3.423   7.388   6.573  1.00  0.00    -0.014 A 
BRANCH  32  33
ATOM     33  C   UNL     1       3.409   8.759   6.000  1.00  0.00     0.031 A 
ATOM     34  C   UNL     1       2.460   9.799   6.529  1.00  0.00     0.074 A 
ATOM     35  C   UNL     1       4.192   9.041   4.939  1.00  0.00     0.049 A 
ATOM     36  N   UNL     1       2.266  11.024   6.114  1.00  0.00    -0.248 NA
ATOM     37  C   UNL     1       1.599   9.404   7.655  1.00  0.00     0.031 C 
ATOM     38  C   UNL     1       5.103   8.097   4.287  1.00  0.00     0.029 A 
ATOM     39  N   UNL     1       4.327  10.193   4.205  1.00  0.00    -0.354 N 
ATOM     40  C   UNL     1       1.241  11.536   6.902  1.00  0.00     0.074 A 
ATOM     41  C   UNL     1       0.832  10.475   7.798  1.00  0.00     0.031 C 
ATOM     42  C   UNL     1       5.704   8.708   3.254  1.00  0.00     0.029 A 
ATOM     43  C   UNL     1       5.198  10.073   3.147  1.00  0.00     0.049 A 
ATOM     44  H   UNL     1       3.847  11.026   4.416  1.00  0.00     0.167 HD
ATOM     45  C   UNL     1       0.707  12.781   6.900  1.00  0.00     0.034 A 
ATOM     46  C   UNL     1       5.541  10.957   2.189  1.00  0.00     0.034 A 
ATOM     47  C   UNL     1       1.138  13.841   6.029  1.00  0.00     0.049 A 
ATOM     48  C   UNL     1       4.947  12.338   2.220  1.00  0.00     0.074 A 
ATOM     49  C   UNL     1       0.721  15.161   6.009  1.00  0.00     0.029 A 
ATOM     50  N   UNL     1       2.072  13.704   5.014  1.00  0.00    -0.354 N 
ATOM     51  N   UNL     1       4.095  12.851   3.074  1.00  0.00    -0.248 NA
ATOM     52  C   UNL     1       5.386  13.273   1.174  1.00  0.00     0.031 C 
ATOM     53  C   UNL     1       1.378  15.812   4.959  1.00  0.00     0.029 A 
ATOM     54  C   UNL     1       2.232  14.908   4.348  1.00  0.00     0.049 A 
ATOM     55  H   UNL     1       2.552  12.871   4.798  1.00  0.00     0.167 HD
ATOM     56  C   UNL     1       3.921  14.176   2.689  1.00  0.00     0.074 A 
ATOM     57  C   UNL     1       4.775  14.392   1.539  1.00  0.00     0.031 C 
ATOM     58  C   UNL     1       3.116  15.124   3.231  1.00  0.00     0.034 A 
BRANCH  45  59
ATOM     59  C   UNL     1      -0.379  13.076   7.903  1.00  0.00     0.023 A 
ATOM     60  C   UNL     1      -0.058  13.161   9.274  1.00  0.00     0.012 A 
ATOM     61  C   UNL     1      -1.703  13.320   7.489  1.00  0.00     0.148 A 
ATOM     62  C   UNL     1      -1.044  13.441  10.220  1.00  0.00     0.002 A 
ATOM     63  C   UNL     1      -2.671  13.646   8.432  1.00  0.00     0.091 A 
ATOM     64  F   UNL     1      -1.995  13.217   6.184  1.00  0.00    -0.205 F 
ATOM     65  C   UNL     1      -2.346  13.694   9.798  1.00  0.00     0.022 A 
BRANCH  63  66
ATOM     66  S   UNL     1      -4.359  14.067   7.984  1.00  0.00     0.127 S 
ATOM     67  O   UNL     1      -5.091  12.896   8.465  1.00  0.00    -0.237 OA
ATOM     68  O   UNL     1      -4.587  15.288   8.757  1.00  0.00    -0.237 OA
ATOM     69  O   UNL     1      -4.356  14.253   6.540  1.00  0.00    -0.744 OA
ENDBRANCH  63  66
ENDBRANCH  45  59
BRANCH  46  70
ATOM     70  C   UNL     1       6.541  10.576   1.151  1.00  0.00     0.023 A 
ATOM     71  C   UNL     1       7.817  11.171   1.169  1.00  0.00     0.012 A 
ATOM     72  C   UNL     1       6.247   9.609   0.170  1.00  0.00     0.148 A 
ATOM     73  C   UNL     1       8.773  10.834   0.210  1.00  0.00     0.002 A 
ATOM     74  C   UNL     1       7.223   9.236  -0.747  1.00  0.00     0.091 A 
ATOM     75  F   UNL     1       5.024   9.061   0.166  1.00  0.00    -0.205 F 
ATOM     76  C   UNL     1       8.480   9.860  -0.741  1.00  0.00     0.022 A 
BRANCH  74  77
ATOM     77  S   UNL     1       6.981   7.897  -1.920  1.00  0.00     0.127 S 
ATOM     78  O   UNL     1       6.951   8.616  -3.191  1.00  0.00    -0.237 OA
ATOM     79  O   UNL     1       8.177   7.084  -1.698  1.00  0.00    -0.237 OA
ATOM     80  O   UNL     1       5.735   7.250  -1.530  1.00  0.00    -0.744 OA
ENDBRANCH  74  77
ENDBRANCH  46  70
BRANCH  58  81
ATOM     81  C   UNL     1       3.135  16.496   2.607  1.00  0.00     0.023 A 
ATOM     82  C   UNL     1       2.551  16.700   1.341  1.00  0.00     0.012 A 
ATOM     83  C   UNL     1       3.672  17.595   3.305  1.00  0.00     0.148 A 
ATOM     84  C   UNL     1       2.533  17.970   0.765  1.00  0.00     0.002 A 
ATOM     85  C   UNL     1       3.604  18.867   2.748  1.00  0.00     0.091 A 
ATOM     86  F   UNL     1       4.239  17.378   4.501  1.00  0.00    -0.205 F 
ATOM     87  C   UNL     1       3.048  19.054   1.472  1.00  0.00     0.022 A 
BRANCH  85  88
ATOM     88  S   UNL     1       4.153  20.335   3.624  1.00  0.00     0.127 S 
ATOM     89  O   UNL     1       5.354  20.698   2.875  1.00  0.00    -0.237 OA
ATOM     90  O   UNL     1       3.022  21.245   3.441  1.00  0.00    -0.237 OA
ATOM     91  O   UNL     1       4.379  19.921   5.003  1.00  0.00    -0.744 OA
ENDBRANCH  85  88
ENDBRANCH  58  81
ENDBRANCH  32  33
ENDBRANCH  24  27
ENDBRANCH  22  23
ENDBRANCH  21  22
ENDBRANCH  20  21
ENDBRANCH  19  20
ENDBRANCH   1  19
TORSDOF 21
