REMARK SMILES Cc1cc(Br)cc2c1O[C@H](C(F)(F)F)C(C(=O)NCCCCCCNC(=O)c1ccc(-c3c4nc(c(-c5cccc(S(=O)(=O)[O-])c5F)c5ccc([nH]5)c(-c5cccc(S(=O)(=O)[O-])c5F)c5nc(c(-c6cccc(S(=O)(=O)[O-])c6F)c6ccc3[nH]6)C=C5)C=C4)cc1)=C2
REMARK SMILES IDX 22 1 21 2 20 3 19 4 18 5 16 6 17 7 15 9 1 10 2 11 3 12 8 13
REMARK SMILES IDX 4 14 7 15 9 16 5 17 6 18 91 19 10 20 11 21 12 22 13 23 14 24
REMARK SMILES IDX 23 25 24 26 25 27 26 28 27 30 28 31 29 32 90 33 30 34 89 35
REMARK SMILES IDX 31 36 32 37 33 38 83 39 34 40 88 41 82 42 84 43 35 44 87 45
REMARK SMILES IDX 81 46 80 47 36 49 68 50 48 51 67 52 49 53 52 54 66 55 85 56
REMARK SMILES IDX 50 57 51 58 65 60 86 61 53 62 37 63 38 64 46 65 39 66 41 67
REMARK SMILES IDX 47 68 40 69 42 70 43 71 44 72 45 73 69 74 70 75 78 76 71 77
REMARK SMILES IDX 73 78 79 79 72 80 74 81 75 82 76 83 77 84 54 85 55 86 63 87
REMARK SMILES IDX 56 88 58 89 64 90 57 91 59 92 60 93 61 94 62 95
REMARK H PARENT 18 8 25 29 84 48 52 59
REMARK Flexibility Score: inf
ROOT
ATOM      1  C   UNL     1      -3.788  -4.504   7.398  1.00  0.00     0.002 C 
ENDROOT
BRANCH   1   2
ATOM      2  C   UNL     1      -2.489  -3.779   7.775  1.00  0.00     0.002 C 
BRANCH   2   3
ATOM      3  C   UNL     1      -1.686  -3.236   6.591  1.00  0.00     0.021 C 
BRANCH   3   4
ATOM      4  C   UNL     1      -2.486  -2.301   5.689  1.00  0.00     0.116 C 
BRANCH   4   5
ATOM      5  N   UNL     1      -2.478  -0.934   6.184  1.00  0.00    -0.352 N 
ATOM      6  C   UNL     1      -2.086   0.281   5.735  1.00  0.00     0.251 C 
ATOM      7  O   UNL     1      -2.308   1.225   6.502  1.00  0.00    -0.270 OA
ATOM      8  H   UNL     1      -2.859  -0.877   7.090  1.00  0.00     0.163 HD
BRANCH   6   9
ATOM      9  C   UNL     1      -1.424   0.541   4.421  1.00  0.00     0.067 C 
ATOM     10  C   UNL     1       1.093   0.271  -0.077  1.00  0.00     0.048 C 
ATOM     11  C   UNL     1       0.692   1.365   0.875  1.00  0.00    -0.007 A 
ATOM     12  C   UNL     1       1.026   2.691   0.575  1.00  0.00     0.023 A 
ATOM     13  C   UNL     1       0.014   1.097   2.072  1.00  0.00     0.130 A 
ATOM     14  C   UNL     1       0.684   3.717   1.456  1.00  0.00     0.019 A 
ATOM     15  C   UNL     1      -0.321   2.123   2.962  1.00  0.00     0.019 A 
ATOM     16  O   UNL     1      -0.255  -0.210   2.350  1.00  0.00    -0.475 OA
ATOM     17  Br  UNL     1       1.150   5.502   1.036  1.00  0.00    -0.051 Br
ATOM     18  C   UNL     1       0.016   3.442   2.649  1.00  0.00     0.027 A 
ATOM     19  C   UNL     1      -0.970   1.793   4.228  1.00  0.00     0.025 C 
ATOM     20  C   UNL     1      -1.282  -0.483   3.333  1.00  0.00     0.314 C 
BRANCH  20  21
ATOM     21  C   UNL     1      -2.616  -0.771   2.619  1.00  0.00     0.429 C 
ATOM     22  F   UNL     1      -2.538  -1.919   1.905  1.00  0.00    -0.167 F 
ATOM     23  F   UNL     1      -3.645  -0.926   3.486  1.00  0.00    -0.167 F 
ATOM     24  F   UNL     1      -2.969   0.219   1.768  1.00  0.00    -0.167 F 
ENDBRANCH  20  21
ENDBRANCH   6   9
ENDBRANCH   4   5
ENDBRANCH   3   4
ENDBRANCH   2   3
ENDBRANCH   1   2
BRANCH   1  25
ATOM     25  C   UNL     1      -3.645  -5.598   6.334  1.00  0.00     0.021 C 
BRANCH  25  26
ATOM     26  C   UNL     1      -2.677  -6.719   6.700  1.00  0.00     0.116 C 
BRANCH  26  27
ATOM     27  N   UNL     1      -3.070  -7.387   7.931  1.00  0.00    -0.352 N 
ATOM     28  C   UNL     1      -3.260  -8.721   8.169  1.00  0.00     0.251 C 
ATOM     29  H   UNL     1      -3.220  -6.795   8.703  1.00  0.00     0.163 HD
ATOM     30  O   UNL     1      -3.810  -9.085   9.212  1.00  0.00    -0.269 OA
BRANCH  28  31
ATOM     31  C   UNL     1      -2.812  -9.720   7.181  1.00  0.00     0.039 A 
ATOM     32  C   UNL     1      -3.656 -10.788   6.865  1.00  0.00     0.014 A 
ATOM     33  C   UNL     1      -1.549  -9.618   6.588  1.00  0.00     0.014 A 
ATOM     34  C   UNL     1      -3.252 -11.731   5.918  1.00  0.00     0.010 A 
ATOM     35  C   UNL     1      -1.173 -10.525   5.603  1.00  0.00     0.010 A 
ATOM     36  C   UNL     1      -2.018 -11.593   5.264  1.00  0.00    -0.014 A 
BRANCH  36  37
ATOM     37  C   UNL     1      -1.584 -12.546   4.214  1.00  0.00     0.031 A 
ATOM     38  C   UNL     1      -0.379 -13.416   4.440  1.00  0.00     0.074 A 
ATOM     39  C   UNL     1      -2.221 -12.558   3.027  1.00  0.00     0.049 A 
ATOM     40  N   UNL     1       0.221 -14.224   3.607  1.00  0.00    -0.248 NA
ATOM     41  C   UNL     1       0.246 -13.355   5.772  1.00  0.00     0.031 C 
ATOM     42  C   UNL     1      -3.373 -11.723   2.679  1.00  0.00     0.029 A 
ATOM     43  N   UNL     1      -1.971 -13.273   1.883  1.00  0.00    -0.354 N 
ATOM     44  C   UNL     1       1.308 -14.745   4.299  1.00  0.00     0.074 A 
ATOM     45  C   UNL     1       1.302 -14.141   5.613  1.00  0.00     0.031 C 
ATOM     46  C   UNL     1      -3.727 -11.971   1.409  1.00  0.00     0.029 A 
ATOM     47  C   UNL     1      -2.808 -12.952   0.840  1.00  0.00     0.049 A 
ATOM     48  H   UNL     1      -1.261 -13.952   1.816  1.00  0.00     0.167 HD
ATOM     49  C   UNL     1       2.211 -15.664   3.884  1.00  0.00     0.034 A 
ATOM     50  C   UNL     1      -2.824 -13.388  -0.435  1.00  0.00     0.034 A 
ATOM     51  C   UNL     1       2.188 -16.284   2.586  1.00  0.00     0.049 A 
ATOM     52  C   UNL     1      -1.818 -14.422  -0.863  1.00  0.00     0.074 A 
ATOM     53  C   UNL     1       3.030 -17.262   2.087  1.00  0.00     0.029 A 
ATOM     54  N   UNL     1       1.277 -15.992   1.583  1.00  0.00    -0.354 N 
ATOM     55  N   UNL     1      -0.864 -14.984  -0.161  1.00  0.00    -0.248 NA
ATOM     56  C   UNL     1      -1.912 -14.911  -2.246  1.00  0.00     0.031 C 
ATOM     57  C   UNL     1       2.641 -17.547   0.775  1.00  0.00     0.029 A 
ATOM     58  C   UNL     1       1.535 -16.771   0.468  1.00  0.00     0.049 A 
ATOM     59  H   UNL     1       0.553 -15.329   1.652  1.00  0.00     0.167 HD
ATOM     60  C   UNL     1      -0.272 -15.921  -1.001  1.00  0.00     0.074 A 
ATOM     61  C   UNL     1      -0.989 -15.862  -2.259  1.00  0.00     0.031 C 
ATOM     62  C   UNL     1       0.778 -16.744  -0.758  1.00  0.00     0.034 A 
BRANCH  49  63
ATOM     63  C   UNL     1       3.273 -16.107   4.858  1.00  0.00     0.023 A 
ATOM     64  C   UNL     1       2.914 -16.928   5.946  1.00  0.00     0.012 A 
ATOM     65  C   UNL     1       4.631 -15.802   4.641  1.00  0.00     0.148 A 
ATOM     66  C   UNL     1       3.887 -17.425   6.813  1.00  0.00     0.002 A 
ATOM     67  C   UNL     1       5.600 -16.340   5.481  1.00  0.00     0.091 A 
ATOM     68  F   UNL     1       4.950 -15.002   3.613  1.00  0.00    -0.205 F 
ATOM     69  C   UNL     1       5.229 -17.143   6.572  1.00  0.00     0.022 A 
BRANCH  67  70
ATOM     70  S   UNL     1       7.361 -16.113   5.207  1.00  0.00     0.127 S 
ATOM     71  O   UNL     1       7.739 -15.310   6.370  1.00  0.00    -0.237 OA
ATOM     72  O   UNL     1       7.854 -17.490   5.231  1.00  0.00    -0.237 OA
ATOM     73  O   UNL     1       7.487 -15.440   3.922  1.00  0.00    -0.744 OA
ENDBRANCH  67  70
ENDBRANCH  49  63
BRANCH  50  74
ATOM     74  C   UNL     1      -3.878 -12.901  -1.371  1.00  0.00     0.023 A 
ATOM     75  C   UNL     1      -4.889 -13.787  -1.791  1.00  0.00     0.012 A 
ATOM     76  C   UNL     1      -3.917 -11.561  -1.803  1.00  0.00     0.148 A 
ATOM     77  C   UNL     1      -5.904 -13.356  -2.644  1.00  0.00     0.002 A 
ATOM     78  C   UNL     1      -4.966 -11.123  -2.604  1.00  0.00     0.091 A 
ATOM     79  F   UNL     1      -2.940 -10.735  -1.403  1.00  0.00    -0.205 F 
ATOM     80  C   UNL     1      -5.951 -12.023  -3.040  1.00  0.00     0.022 A 
BRANCH  78  81
ATOM     81  S   UNL     1      -5.189  -9.394  -3.041  1.00  0.00     0.127 S 
ATOM     82  O   UNL     1      -4.910  -9.409  -4.474  1.00  0.00    -0.237 OA
ATOM     83  O   UNL     1      -6.591  -9.173  -2.687  1.00  0.00    -0.237 OA
ATOM     84  O   UNL     1      -4.239  -8.655  -2.219  1.00  0.00    -0.744 OA
ENDBRANCH  78  81
ENDBRANCH  50  74
BRANCH  62  85
ATOM     85  C   UNL     1       1.200 -17.688  -1.854  1.00  0.00     0.023 A 
ATOM     86  C   UNL     1       1.843 -17.187  -3.003  1.00  0.00     0.012 A 
ATOM     87  C   UNL     1       1.038 -19.080  -1.704  1.00  0.00     0.148 A 
ATOM     88  C   UNL     1       2.287 -18.054  -4.001  1.00  0.00     0.002 A 
ATOM     89  C   UNL     1       1.532 -19.941  -2.677  1.00  0.00     0.091 A 
ATOM     90  F   UNL     1       0.407 -19.537  -0.613  1.00  0.00    -0.205 F 
ATOM     91  C   UNL     1       2.144 -19.430  -3.832  1.00  0.00     0.022 A 
BRANCH  89  92
ATOM     92  S   UNL     1       1.489 -21.727  -2.488  1.00  0.00     0.127 S 
ATOM     93  O   UNL     1       0.419 -22.098  -3.413  1.00  0.00    -0.237 OA
ATOM     94  O   UNL     1       2.832 -22.118  -2.921  1.00  0.00    -0.237 OA
ATOM     95  O   UNL     1       1.215 -21.974  -1.079  1.00  0.00    -0.744 OA
ENDBRANCH  89  92
ENDBRANCH  62  85
ENDBRANCH  36  37
ENDBRANCH  28  31
ENDBRANCH  26  27
ENDBRANCH  25  26
ENDBRANCH   1  25
TORSDOF 17
