REMARK SMILES COc1ccc(C(=O)N[C@@H](C(=O)NCCCCCCNC(=O)c2ccc(-c3c4nc(c(-c5cccc(S(=O)(=O)[O-])c5F)c5ccc([nH]5)c(-c5cccc(S(=O)(=O)[O-])c5F)c5nc(c(-c6cccc(S(=O)(=O)[O-])c6F)c6ccc3[nH]6)C=C5)C=C4)cc2)C(C)C)cc1O
REMARK SMILES IDX 16 1 15 2 14 3 13 4 11 5 12 6 10 8 9 9 7 10 8 11 6 13 3 14
REMARK SMILES IDX 4 15 90 16 5 17 89 18 2 19 1 20 91 21 86 23 87 24 88 25
REMARK SMILES IDX 17 26 18 27 19 28 20 29 21 30 22 32 23 33 24 34 85 35 25 36
REMARK SMILES IDX 84 37 26 38 27 39 28 40 78 41 29 42 83 43 77 44 79 45 30 46
REMARK SMILES IDX 82 47 76 48 75 49 31 51 63 52 43 53 62 54 44 55 47 56 61 57
REMARK SMILES IDX 80 58 45 59 46 60 60 62 81 63 48 64 32 65 33 66 41 67 34 68
REMARK SMILES IDX 36 69 42 70 35 71 37 72 38 73 39 74 40 75 64 76 65 77 73 78
REMARK SMILES IDX 66 79 68 80 74 81 67 82 69 83 70 84 71 85 72 86 49 87 50 88
REMARK SMILES IDX 58 89 51 90 53 91 59 92 52 93 54 94 55 95 56 96 57 97
REMARK H PARENT 13 7 9 12 91 22 20 31 79 50 47 61
REMARK Flexibility Score: inf
ROOT
ATOM      1  C   UNL     1       4.077  -6.256   5.533  1.00  0.00     0.002 C 
ENDROOT
BRANCH   1   2
ATOM      2  C   UNL     1       2.682  -5.683   5.255  1.00  0.00     0.021 C 
BRANCH   2   3
ATOM      3  C   UNL     1       2.383  -5.551   3.765  1.00  0.00     0.116 C 
BRANCH   3   4
ATOM      4  N   UNL     1       2.126  -6.860   3.195  1.00  0.00    -0.354 N 
ATOM      5  C   UNL     1       0.976  -7.348   2.642  1.00  0.00     0.242 C 
ATOM      6  O   UNL     1       0.946  -8.545   2.352  1.00  0.00    -0.273 OA
ATOM      7  H   UNL     1       2.887  -7.484   3.207  1.00  0.00     0.163 HD
BRANCH   5   8
ATOM      8  C   UNL     1      -0.174  -6.364   2.304  1.00  0.00     0.174 C 
BRANCH   8   9
ATOM      9  N   UNL     1      -0.783  -5.811   3.520  1.00  0.00    -0.340 N 
ATOM     10  C   UNL     1      -1.112  -4.537   3.921  1.00  0.00     0.252 C 
ATOM     11  O   UNL     1      -1.688  -4.427   5.004  1.00  0.00    -0.269 OA
ATOM     12  H   UNL     1      -1.002  -6.498   4.191  1.00  0.00     0.164 HD
BRANCH  10  13
ATOM     13  C   UNL     1      -0.730  -3.293   3.179  1.00  0.00     0.043 A 
ATOM     14  C   UNL     1       0.285  -0.918   2.002  1.00  0.00     0.160 A 
ATOM     15  C   UNL     1      -0.103  -0.939   3.343  1.00  0.00     0.051 A 
ATOM     16  C   UNL     1       0.138  -2.087   1.262  1.00  0.00     0.158 A 
ATOM     17  C   UNL     1      -0.587  -2.116   3.931  1.00  0.00     0.018 A 
ATOM     18  C   UNL     1      -0.443  -3.229   1.817  1.00  0.00     0.064 A 
BRANCH  14  19
ATOM     19  O   UNL     1       0.815   0.265   1.579  1.00  0.00    -0.493 OA
ATOM     20  C   UNL     1       0.738   0.581   0.194  1.00  0.00     0.278 C 
ENDBRANCH  14  19
BRANCH  16  21
ATOM     21  O   UNL     1       0.638  -2.246  -0.001  1.00  0.00    -0.504 OA
ATOM     22  H   UNL     1       1.044  -1.523  -0.439  1.00  0.00     0.293 HD
ENDBRANCH  16  21
ENDBRANCH  10  13
ENDBRANCH   8   9
BRANCH   8  23
ATOM     23  C   UNL     1      -1.249  -7.044   1.411  1.00  0.00     0.015 C 
ATOM     24  C   UNL     1      -2.600  -6.317   1.391  1.00  0.00     0.010 C 
ATOM     25  C   UNL     1      -0.737  -7.180  -0.029  1.00  0.00     0.010 C 
ENDBRANCH   8  23
ENDBRANCH   5   8
ENDBRANCH   3   4
ENDBRANCH   2   3
ENDBRANCH   1   2
BRANCH   1  26
ATOM     26  C   UNL     1       5.230  -5.383   5.025  1.00  0.00     0.002 C 
BRANCH  26  27
ATOM     27  C   UNL     1       5.252  -3.959   5.590  1.00  0.00     0.021 C 
BRANCH  27  28
ATOM     28  C   UNL     1       5.312  -3.886   7.113  1.00  0.00     0.116 C 
BRANCH  28  29
ATOM     29  N   UNL     1       6.483  -4.571   7.638  1.00  0.00    -0.352 N 
ATOM     30  C   UNL     1       7.414  -4.138   8.546  1.00  0.00     0.251 C 
ATOM     31  H   UNL     1       6.627  -5.480   7.291  1.00  0.00     0.163 HD
ATOM     32  O   UNL     1       8.449  -4.779   8.705  1.00  0.00    -0.269 OA
BRANCH  30  33
ATOM     33  C   UNL     1       7.178  -2.902   9.322  1.00  0.00     0.039 A 
ATOM     34  C   UNL     1       8.249  -2.031   9.534  1.00  0.00     0.014 A 
ATOM     35  C   UNL     1       5.922  -2.617   9.866  1.00  0.00     0.014 A 
ATOM     36  C   UNL     1       8.051  -0.859  10.265  1.00  0.00     0.010 A 
ATOM     37  C   UNL     1       5.709  -1.411  10.528  1.00  0.00     0.010 A 
ATOM     38  C   UNL     1       6.775  -0.529  10.752  1.00  0.00    -0.014 A 
BRANCH  38  39
ATOM     39  C   UNL     1       6.555   0.742  11.485  1.00  0.00     0.031 A 
ATOM     40  C   UNL     1       6.126   0.736  12.926  1.00  0.00     0.074 A 
ATOM     41  C   UNL     1       6.688   1.910  10.828  1.00  0.00     0.049 A 
ATOM     42  N   UNL     1       5.939   1.750  13.732  1.00  0.00    -0.248 NA
ATOM     43  C   UNL     1       5.840  -0.573  13.535  1.00  0.00     0.031 C 
ATOM     44  C   UNL     1       6.988   2.044   9.402  1.00  0.00     0.029 A 
ATOM     45  N   UNL     1       6.569   3.204  11.267  1.00  0.00    -0.354 N 
ATOM     46  C   UNL     1       5.489   1.207  14.929  1.00  0.00     0.074 A 
ATOM     47  C   UNL     1       5.387  -0.222  14.730  1.00  0.00     0.031 C 
ATOM     48  C   UNL     1       7.043   3.347   9.086  1.00  0.00     0.029 A 
ATOM     49  C   UNL     1       6.766   4.140  10.280  1.00  0.00     0.049 A 
ATOM     50  H   UNL     1       6.363   3.440  12.201  1.00  0.00     0.167 HD
ATOM     51  C   UNL     1       5.219   1.835  16.099  1.00  0.00     0.034 A 
ATOM     52  C   UNL     1       6.737   5.486  10.331  1.00  0.00     0.034 A 
ATOM     53  C   UNL     1       5.356   3.252  16.298  1.00  0.00     0.049 A 
ATOM     54  C   UNL     1       6.516   6.161  11.655  1.00  0.00     0.074 A 
ATOM     55  C   UNL     1       5.207   3.977  17.468  1.00  0.00     0.029 A 
ATOM     56  N   UNL     1       5.660   4.165  15.299  1.00  0.00    -0.354 N 
ATOM     57  N   UNL     1       6.281   5.620  12.826  1.00  0.00    -0.248 NA
ATOM     58  C   UNL     1       6.605   7.627  11.678  1.00  0.00     0.031 C 
ATOM     59  C   UNL     1       5.397   5.331  17.169  1.00  0.00     0.029 A 
ATOM     60  C   UNL     1       5.694   5.447  15.821  1.00  0.00     0.049 A 
ATOM     61  H   UNL     1       5.827   3.935  14.357  1.00  0.00     0.167 HD
ATOM     62  C   UNL     1       6.224   6.673  13.730  1.00  0.00     0.074 A 
ATOM     63  C   UNL     1       6.471   7.884  12.972  1.00  0.00     0.031 C 
ATOM     64  C   UNL     1       5.981   6.641  15.064  1.00  0.00     0.034 A 
BRANCH  51  65
ATOM     65  C   UNL     1       4.799   0.977  17.266  1.00  0.00     0.023 A 
ATOM     66  C   UNL     1       5.735   0.104  17.861  1.00  0.00     0.012 A 
ATOM     67  C   UNL     1       3.495   1.048  17.793  1.00  0.00     0.148 A 
ATOM     68  C   UNL     1       5.368  -0.718  18.925  1.00  0.00     0.002 A 
ATOM     69  C   UNL     1       3.150   0.261  18.887  1.00  0.00     0.091 A 
ATOM     70  F   UNL     1       2.609   1.864  17.205  1.00  0.00    -0.205 F 
ATOM     71  C   UNL     1       4.079  -0.633  19.444  1.00  0.00     0.022 A 
BRANCH  69  72
ATOM     72  S   UNL     1       1.540   0.363  19.676  1.00  0.00     0.127 S 
ATOM     73  O   UNL     1       0.886  -0.844  19.173  1.00  0.00    -0.237 OA
ATOM     74  O   UNL     1       1.886   0.321  21.097  1.00  0.00    -0.237 OA
ATOM     75  O   UNL     1       0.962   1.625  19.234  1.00  0.00    -0.744 OA
ENDBRANCH  69  72
ENDBRANCH  51  65
BRANCH  52  76
ATOM     76  C   UNL     1       7.017   6.264   9.093  1.00  0.00     0.023 A 
ATOM     77  C   UNL     1       8.251   6.928   8.954  1.00  0.00     0.012 A 
ATOM     78  C   UNL     1       6.104   6.276   8.021  1.00  0.00     0.148 A 
ATOM     79  C   UNL     1       8.564   7.606   7.775  1.00  0.00     0.002 A 
ATOM     80  C   UNL     1       6.445   6.904   6.829  1.00  0.00     0.091 A 
ATOM     81  F   UNL     1       4.934   5.640   8.178  1.00  0.00    -0.205 F 
ATOM     82  C   UNL     1       7.668   7.583   6.709  1.00  0.00     0.022 A 
BRANCH  80  83
ATOM     83  S   UNL     1       5.420   6.803   5.357  1.00  0.00     0.127 S 
ATOM     84  O   UNL     1       4.986   8.189   5.199  1.00  0.00    -0.237 OA
ATOM     85  O   UNL     1       6.381   6.340   4.355  1.00  0.00    -0.237 OA
ATOM     86  O   UNL     1       4.369   5.845   5.670  1.00  0.00    -0.744 OA
ENDBRANCH  80  83
ENDBRANCH  52  76
BRANCH  64  87
ATOM     87  C   UNL     1       5.992   7.952  15.808  1.00  0.00     0.023 A 
ATOM     88  C   UNL     1       4.934   8.866  15.635  1.00  0.00     0.012 A 
ATOM     89  C   UNL     1       7.013   8.243  16.734  1.00  0.00     0.148 A 
ATOM     90  C   UNL     1       4.910  10.065  16.347  1.00  0.00     0.002 A 
ATOM     91  C   UNL     1       6.957   9.416  17.476  1.00  0.00     0.091 A 
ATOM     92  F   UNL     1       8.022   7.370  16.870  1.00  0.00    -0.205 F 
ATOM     93  C   UNL     1       5.914  10.334  17.276  1.00  0.00     0.022 A 
BRANCH  91  94
ATOM     94  S   UNL     1       8.154   9.797  18.761  1.00  0.00     0.127 S 
ATOM     95  O   UNL     1       8.960  10.834  18.119  1.00  0.00    -0.237 OA
ATOM     96  O   UNL     1       7.301  10.275  19.850  1.00  0.00    -0.237 OA
ATOM     97  O   UNL     1       8.848   8.548  19.044  1.00  0.00    -0.744 OA
ENDBRANCH  91  94
ENDBRANCH  64  87
ENDBRANCH  38  39
ENDBRANCH  30  33
ENDBRANCH  28  29
ENDBRANCH  27  28
ENDBRANCH  26  27
ENDBRANCH   1  26
TORSDOF 21
