REMARK SMILES CC[C@H]1CO[C@@H](C)CN1c1cccc(F)c1C(=O)NCCCCCCNC(=O)c1ccc(-c2c3nc(c(-c4cccc(S(=O)(=O)[O-])c4F)c4ccc([nH]4)c(-c4cccc(S(=O)(=O)[O-])c4F)c4nc(c(-c5cccc(S(=O)(=O)[O-])c5F)c5ccc2[nH]5)C=C4)C=C3)cc1
REMARK SMILES IDX 23 1 22 2 21 3 20 4 19 5 17 6 18 7 16 9 10 10 11 11 12 12
REMARK SMILES IDX 14 13 13 14 15 15 9 16 3 17 4 18 5 19 8 20 6 21 7 22 2 23
REMARK SMILES IDX 1 24 24 25 25 26 26 27 27 28 28 30 29 31 30 32 91 33 31 34
REMARK SMILES IDX 90 35 32 36 33 37 34 38 84 39 35 40 89 41 83 42 85 43 36 44
REMARK SMILES IDX 88 45 82 46 81 47 37 49 69 50 49 51 68 52 50 53 53 54 67 55
REMARK SMILES IDX 86 56 51 57 52 58 66 60 87 61 54 62 38 63 39 64 47 65 40 66
REMARK SMILES IDX 42 67 48 68 41 69 43 70 44 71 45 72 46 73 70 74 71 75 79 76
REMARK SMILES IDX 72 77 74 78 80 79 73 80 75 81 76 82 77 83 78 84 55 85 56 86
REMARK SMILES IDX 64 87 57 88 59 89 65 90 58 91 60 92 61 93 62 94 63 95
REMARK H PARENT 19 8 26 29 85 48 53 59
REMARK Flexibility Score: inf
ROOT
ATOM      1  C   UNL     1       2.407  10.712  -3.123  1.00  0.00     0.002 C 
ENDROOT
BRANCH   1   2
ATOM      2  C   UNL     1       0.986  10.318  -2.720  1.00  0.00     0.002 C 
BRANCH   2   3
ATOM      3  C   UNL     1       0.313   9.185  -3.494  1.00  0.00     0.021 C 
BRANCH   3   4
ATOM      4  C   UNL     1       1.104   7.902  -3.727  1.00  0.00     0.116 C 
BRANCH   4   5
ATOM      5  N   UNL     1       1.636   7.265  -2.537  1.00  0.00    -0.352 N 
ATOM      6  C   UNL     1       1.827   5.916  -2.300  1.00  0.00     0.256 C 
ATOM      7  O   UNL     1       2.635   5.581  -1.435  1.00  0.00    -0.269 OA
ATOM      8  H   UNL     1       1.893   7.871  -1.805  1.00  0.00     0.163 HD
BRANCH   6   9
ATOM      9  C   UNL     1       1.016   4.900  -3.019  1.00  0.00     0.098 A 
ATOM     10  C   UNL     1       0.204   3.997  -2.296  1.00  0.00     0.053 A 
ATOM     11  C   UNL     1      -0.680   3.170  -3.015  1.00  0.00     0.027 A 
ATOM     12  C   UNL     1      -0.687   3.162  -4.412  1.00  0.00     0.005 A 
ATOM     13  C   UNL     1       1.060   4.818  -4.411  1.00  0.00     0.138 A 
ATOM     14  C   UNL     1       0.209   3.965  -5.110  1.00  0.00     0.040 A 
ATOM     15  F   UNL     1       1.920   5.566  -5.116  1.00  0.00    -0.206 F 
BRANCH  10  16
ATOM     16  N   UNL     1       0.300   3.875  -0.919  1.00  0.00    -0.363 N 
ATOM     17  C   UNL     1       0.954   2.702  -0.287  1.00  0.00     0.108 C 
ATOM     18  C   UNL     1       1.411   3.136   1.136  1.00  0.00     0.185 C 
ATOM     19  O   UNL     1       0.341   3.679   1.929  1.00  0.00    -0.375 OA
ATOM     20  C   UNL     1      -0.783   4.467  -0.125  1.00  0.00     0.148 C 
ATOM     21  C   UNL     1      -0.292   4.808   1.297  1.00  0.00     0.134 C 
ATOM     22  C   UNL     1       0.588   6.058   1.345  1.00  0.00     0.040 C 
BRANCH  17  23
ATOM     23  C   UNL     1       2.192   2.128  -1.014  1.00  0.00     0.024 C 
ATOM     24  C   UNL     1       1.928   1.355  -2.301  1.00  0.00     0.006 C 
ENDBRANCH  17  23
ENDBRANCH  10  16
ENDBRANCH   6   9
ENDBRANCH   4   5
ENDBRANCH   3   4
ENDBRANCH   2   3
ENDBRANCH   1   2
BRANCH   1  25
ATOM     25  C   UNL     1       2.668  10.987  -4.605  1.00  0.00     0.021 C 
BRANCH  25  26
ATOM     26  C   UNL     1       1.752  12.000  -5.284  1.00  0.00     0.116 C 
BRANCH  26  27
ATOM     27  N   UNL     1       1.851  13.333  -4.715  1.00  0.00    -0.352 N 
ATOM     28  C   UNL     1       2.060  14.539  -5.341  1.00  0.00     0.251 C 
ATOM     29  H   UNL     1       1.753  13.380  -3.737  1.00  0.00     0.163 HD
ATOM     30  O   UNL     1       2.232  15.552  -4.667  1.00  0.00    -0.269 OA
BRANCH  28  31
ATOM     31  C   UNL     1       2.106  14.626  -6.821  1.00  0.00     0.039 A 
ATOM     32  C   UNL     1       3.114  15.390  -7.418  1.00  0.00     0.014 A 
ATOM     33  C   UNL     1       1.160  13.979  -7.621  1.00  0.00     0.014 A 
ATOM     34  C   UNL     1       3.210  15.454  -8.812  1.00  0.00     0.010 A 
ATOM     35  C   UNL     1       1.295  13.991  -9.009  1.00  0.00     0.010 A 
ATOM     36  C   UNL     1       2.320  14.729  -9.621  1.00  0.00    -0.014 A 
BRANCH  36  37
ATOM     37  C   UNL     1       2.457  14.716 -11.101  1.00  0.00     0.031 A 
ATOM     38  C   UNL     1       1.373  15.287 -11.975  1.00  0.00     0.074 A 
ATOM     39  C   UNL     1       3.524  14.114 -11.666  1.00  0.00     0.049 A 
ATOM     40  N   UNL     1       1.293  15.308 -13.280  1.00  0.00    -0.248 NA
ATOM     41  C   UNL     1       0.216  15.893 -11.296  1.00  0.00     0.031 C 
ATOM     42  C   UNL     1       4.609  13.460 -10.932  1.00  0.00     0.029 A 
ATOM     43  N   UNL     1       3.860  13.932 -12.985  1.00  0.00    -0.354 N 
ATOM     44  C   UNL     1       0.070  15.895 -13.579  1.00  0.00     0.074 A 
ATOM     45  C   UNL     1      -0.575  16.191 -12.318  1.00  0.00     0.031 C 
ATOM     46  C   UNL     1       5.491  12.955 -11.809  1.00  0.00     0.029 A 
ATOM     47  C   UNL     1       5.024  13.222 -13.166  1.00  0.00     0.049 A 
ATOM     48  H   UNL     1       3.318  14.278 -13.732  1.00  0.00     0.167 HD
ATOM     49  C   UNL     1      -0.457  16.190 -14.791  1.00  0.00     0.034 A 
ATOM     50  C   UNL     1       5.646  12.825 -14.295  1.00  0.00     0.034 A 
ATOM     51  C   UNL     1       0.209  15.946 -16.042  1.00  0.00     0.049 A 
ATOM     52  C   UNL     1       5.063  13.204 -15.629  1.00  0.00     0.074 A 
ATOM     53  C   UNL     1      -0.206  16.292 -17.316  1.00  0.00     0.029 A 
ATOM     54  N   UNL     1       1.426  15.297 -16.181  1.00  0.00    -0.354 N 
ATOM     55  N   UNL     1       3.976  13.890 -15.886  1.00  0.00    -0.248 NA
ATOM     56  C   UNL     1       5.805  12.786 -16.828  1.00  0.00     0.031 C 
ATOM     57  C   UNL     1       0.751  15.837 -18.227  1.00  0.00     0.029 A 
ATOM     58  C   UNL     1       1.774  15.227 -17.519  1.00  0.00     0.049 A 
ATOM     59  H   UNL     1       1.964  14.940 -15.437  1.00  0.00     0.167 HD
ATOM     60  C   UNL     1       3.918  14.013 -17.270  1.00  0.00     0.074 A 
ATOM     61  C   UNL     1       5.091  13.346 -17.797  1.00  0.00     0.031 C 
ATOM     62  C   UNL     1       2.970  14.610 -18.032  1.00  0.00     0.034 A 
BRANCH  49  63
ATOM     63  C   UNL     1      -1.796  16.879 -14.834  1.00  0.00     0.023 A 
ATOM     64  C   UNL     1      -1.883  18.238 -14.467  1.00  0.00     0.012 A 
ATOM     65  C   UNL     1      -2.939  16.221 -15.327  1.00  0.00     0.148 A 
ATOM     66  C   UNL     1      -3.092  18.924 -14.568  1.00  0.00     0.002 A 
ATOM     67  C   UNL     1      -4.131  16.924 -15.466  1.00  0.00     0.091 A 
ATOM     68  F   UNL     1      -2.840  14.924 -15.653  1.00  0.00    -0.205 F 
ATOM     69  C   UNL     1      -4.211  18.272 -15.079  1.00  0.00     0.022 A 
BRANCH  67  70
ATOM     70  S   UNL     1      -5.607  16.199 -16.189  1.00  0.00     0.127 S 
ATOM     71  O   UNL     1      -6.489  16.105 -15.026  1.00  0.00    -0.237 OA
ATOM     72  O   UNL     1      -5.999  17.212 -17.169  1.00  0.00    -0.237 OA
ATOM     73  O   UNL     1      -5.193  14.926 -16.761  1.00  0.00    -0.744 OA
ENDBRANCH  67  70
ENDBRANCH  49  63
BRANCH  50  74
ATOM     74  C   UNL     1       6.942  12.093 -14.200  1.00  0.00     0.023 A 
ATOM     75  C   UNL     1       8.132  12.754 -14.559  1.00  0.00     0.012 A 
ATOM     76  C   UNL     1       7.010  10.780 -13.695  1.00  0.00     0.148 A 
ATOM     77  C   UNL     1       9.366  12.116 -14.432  1.00  0.00     0.002 A 
ATOM     78  C   UNL     1       8.247  10.170 -13.519  1.00  0.00     0.091 A 
ATOM     79  F   UNL     1       5.864  10.164 -13.372  1.00  0.00    -0.205 F 
ATOM     80  C   UNL     1       9.425  10.831 -13.900  1.00  0.00     0.022 A 
BRANCH  78  81
ATOM     81  S   UNL     1       8.432   8.575 -12.714  1.00  0.00     0.127 S 
ATOM     82  O   UNL     1       8.854   7.726 -13.823  1.00  0.00    -0.237 OA
ATOM     83  O   UNL     1       9.469   8.856 -11.721  1.00  0.00    -0.237 OA
ATOM     84  O   UNL     1       7.124   8.268 -12.145  1.00  0.00    -0.744 OA
ENDBRANCH  78  81
ENDBRANCH  50  74
BRANCH  62  85
ATOM     85  C   UNL     1       3.149  14.600 -19.528  1.00  0.00     0.023 A 
ATOM     86  C   UNL     1       2.917  13.411 -20.247  1.00  0.00     0.012 A 
ATOM     87  C   UNL     1       3.420  15.792 -20.229  1.00  0.00     0.148 A 
ATOM     88  C   UNL     1       2.967  13.405 -21.640  1.00  0.00     0.002 A 
ATOM     89  C   UNL     1       3.422  15.788 -21.619  1.00  0.00     0.091 A 
ATOM     90  F   UNL     1       3.655  16.909 -19.524  1.00  0.00    -0.205 F 
ATOM     91  C   UNL     1       3.204  14.594 -22.326  1.00  0.00     0.022 A 
BRANCH  89  92
ATOM     92  S   UNL     1       3.616  17.289 -22.588  1.00  0.00     0.127 S 
ATOM     93  O   UNL     1       4.954  17.110 -23.150  1.00  0.00    -0.237 OA
ATOM     94  O   UNL     1       2.527  17.175 -23.558  1.00  0.00    -0.237 OA
ATOM     95  O   UNL     1       3.477  18.394 -21.649  1.00  0.00    -0.744 OA
ENDBRANCH  89  92
ENDBRANCH  62  85
ENDBRANCH  36  37
ENDBRANCH  28  31
ENDBRANCH  26  27
ENDBRANCH  25  26
ENDBRANCH   1  25
TORSDOF 18
