REMARK SMILES CC/C(C(=O)NCCCCCCNC(=O)c1ccc(-c2c3nc(c(-c4cccc(S(=O)(=O)[O-])c4F)c4ccc([nH]4)c(-c4cccc(S(=O)(=O)[O-])c4F)c4nc(c(-c5cccc(S(=O)(=O)[O-])c5F)c5ccc2[nH]5)C=C4)C=C3)cc1)=C1\CCc2ccccc21
REMARK SMILES IDX 10 1 9 2 8 3 7 4 6 5 4 6 5 7 3 9 79 10 80 11 87 12 81 13
REMARK SMILES IDX 82 14 86 15 83 16 85 17 84 18 2 19 1 20 11 21 12 22 13 23
REMARK SMILES IDX 14 24 15 26 16 27 17 28 78 29 18 30 77 31 19 32 20 33 21 34
REMARK SMILES IDX 71 35 22 36 76 37 70 38 72 39 23 40 75 41 69 42 68 43 24 45
REMARK SMILES IDX 56 46 36 47 55 48 37 49 40 50 54 51 73 52 38 53 39 54 53 56
REMARK SMILES IDX 74 57 41 58 25 59 26 60 34 61 27 62 29 63 35 64 28 65 30 66
REMARK SMILES IDX 31 67 32 68 33 69 57 70 58 71 66 72 59 73 61 74 67 75 60 76
REMARK SMILES IDX 62 77 63 78 64 79 65 80 42 81 43 82 51 83 44 84 46 85 52 86
REMARK SMILES IDX 45 87 47 88 48 89 49 90 50 91
REMARK H PARENT 6 8 13 25 72 44 40 55
REMARK Flexibility Score: inf
ROOT
ATOM      1  C   UNL     1       4.173   7.515  -1.337  1.00  0.00     0.002 C 
ENDROOT
BRANCH   1   2
ATOM      2  C   UNL     1       4.787   6.315  -0.611  1.00  0.00     0.002 C 
BRANCH   2   3
ATOM      3  C   UNL     1       3.832   5.522   0.284  1.00  0.00     0.021 C 
BRANCH   3   4
ATOM      4  C   UNL     1       2.704   4.741  -0.428  1.00  0.00     0.116 C 
BRANCH   4   5
ATOM      5  N   UNL     1       2.875   3.316  -0.165  1.00  0.00    -0.352 N 
ATOM      6  C   UNL     1       2.448   2.490   0.827  1.00  0.00     0.247 C 
ATOM      7  O   UNL     1       3.252   1.614   1.171  1.00  0.00    -0.270 OA
ATOM      8  H   UNL     1       3.412   2.856  -0.850  1.00  0.00     0.163 HD
BRANCH   6   9
ATOM      9  C   UNL     1       1.020   2.369   1.302  1.00  0.00     0.020 C 
ATOM     10  C   UNL     1       0.190   3.301   1.830  1.00  0.00    -0.031 C 
ATOM     11  C   UNL     1      -1.269   3.059   2.232  1.00  0.00     0.041 C 
ATOM     12  C   UNL     1       0.348   4.734   2.107  1.00  0.00    -0.019 A 
ATOM     13  C   UNL     1      -2.008   4.361   1.911  1.00  0.00     0.041 C 
ATOM     14  C   UNL     1      -0.906   5.355   2.054  1.00  0.00    -0.040 A 
ATOM     15  C   UNL     1       1.448   5.474   2.491  1.00  0.00     0.009 A 
ATOM     16  C   UNL     1      -1.052   6.731   2.157  1.00  0.00     0.004 A 
ATOM     17  C   UNL     1       1.317   6.864   2.622  1.00  0.00     0.001 A 
ATOM     18  C   UNL     1       0.083   7.493   2.413  1.00  0.00     0.000 A 
BRANCH   9  19
ATOM     19  C   UNL     1       0.591   0.889   1.300  1.00  0.00     0.038 C 
ATOM     20  C   UNL     1       0.843   0.097   0.018  1.00  0.00     0.009 C 
ENDBRANCH   9  19
ENDBRANCH   6   9
ENDBRANCH   4   5
ENDBRANCH   3   4
ENDBRANCH   2   3
ENDBRANCH   1   2
BRANCH   1  21
ATOM     21  C   UNL     1       3.417   8.534  -0.472  1.00  0.00     0.021 C 
BRANCH  21  22
ATOM     22  C   UNL     1       4.187   9.136   0.706  1.00  0.00     0.116 C 
BRANCH  22  23
ATOM     23  N   UNL     1       5.398   9.821   0.289  1.00  0.00    -0.352 N 
ATOM     24  C   UNL     1       5.754  11.145   0.349  1.00  0.00     0.251 C 
ATOM     25  H   UNL     1       6.082   9.233  -0.105  1.00  0.00     0.163 HD
ATOM     26  O   UNL     1       6.758  11.512  -0.260  1.00  0.00    -0.269 OA
BRANCH  24  27
ATOM     27  C   UNL     1       4.968  12.140   1.119  1.00  0.00     0.039 A 
ATOM     28  C   UNL     1       4.822  13.424   0.583  1.00  0.00     0.014 A 
ATOM     29  C   UNL     1       4.454  11.867   2.391  1.00  0.00     0.014 A 
ATOM     30  C   UNL     1       4.138  14.413   1.296  1.00  0.00     0.010 A 
ATOM     31  C   UNL     1       3.718  12.839   3.078  1.00  0.00     0.010 A 
ATOM     32  C   UNL     1       3.560  14.127   2.544  1.00  0.00    -0.014 A 
BRANCH  32  33
ATOM     33  C   UNL     1       2.777  15.169   3.265  1.00  0.00     0.031 A 
ATOM     34  C   UNL     1       3.244  15.730   4.583  1.00  0.00     0.074 A 
ATOM     35  C   UNL     1       1.610  15.595   2.741  1.00  0.00     0.049 A 
ATOM     36  N   UNL     1       2.715  16.687   5.304  1.00  0.00    -0.248 NA
ATOM     37  C   UNL     1       4.445  15.128   5.182  1.00  0.00     0.031 C 
ATOM     38  C   UNL     1       0.996  15.072   1.519  1.00  0.00     0.029 A 
ATOM     39  N   UNL     1       0.728  16.555   3.171  1.00  0.00    -0.354 N 
ATOM     40  C   UNL     1       3.500  16.788   6.447  1.00  0.00     0.074 A 
ATOM     41  C   UNL     1       4.523  15.770   6.340  1.00  0.00     0.031 C 
ATOM     42  C   UNL     1      -0.154  15.726   1.290  1.00  0.00     0.029 A 
ATOM     43  C   UNL     1      -0.367  16.705   2.352  1.00  0.00     0.049 A 
ATOM     44  H   UNL     1       0.866  17.086   3.988  1.00  0.00     0.167 HD
ATOM     45  C   UNL     1       3.400  17.665   7.476  1.00  0.00     0.034 A 
ATOM     46  C   UNL     1      -1.420  17.542   2.436  1.00  0.00     0.034 A 
ATOM     47  C   UNL     1       2.406  18.703   7.565  1.00  0.00     0.049 A 
ATOM     48  C   UNL     1      -1.472  18.548   3.553  1.00  0.00     0.074 A 
ATOM     49  C   UNL     1       2.283  19.699   8.519  1.00  0.00     0.029 A 
ATOM     50  N   UNL     1       1.359  18.876   6.674  1.00  0.00    -0.354 N 
ATOM     51  N   UNL     1      -0.614  18.748   4.524  1.00  0.00    -0.248 NA
ATOM     52  C   UNL     1      -2.614  19.473   3.560  1.00  0.00     0.031 C 
ATOM     53  C   UNL     1       1.149  20.461   8.215  1.00  0.00     0.029 A 
ATOM     54  C   UNL     1       0.577  19.953   7.060  1.00  0.00     0.049 A 
ATOM     55  H   UNL     1       1.194  18.315   5.881  1.00  0.00     0.167 HD
ATOM     56  C   UNL     1      -1.099  19.835   5.242  1.00  0.00     0.074 A 
ATOM     57  C   UNL     1      -2.307  20.273   4.572  1.00  0.00     0.031 C 
ATOM     58  C   UNL     1      -0.601  20.407   6.367  1.00  0.00     0.034 A 
BRANCH  45  59
ATOM     59  C   UNL     1       4.437  17.584   8.569  1.00  0.00     0.023 A 
ATOM     60  C   UNL     1       5.755  18.009   8.304  1.00  0.00     0.012 A 
ATOM     61  C   UNL     1       4.099  17.159   9.869  1.00  0.00     0.148 A 
ATOM     62  C   UNL     1       6.728  17.980   9.303  1.00  0.00     0.002 A 
ATOM     63  C   UNL     1       5.065  17.172  10.871  1.00  0.00     0.091 A 
ATOM     64  F   UNL     1       2.847  16.741  10.101  1.00  0.00    -0.205 F 
ATOM     65  C   UNL     1       6.380  17.572  10.587  1.00  0.00     0.022 A 
BRANCH  63  66
ATOM     66  S   UNL     1       4.695  16.739  12.576  1.00  0.00     0.127 S 
ATOM     67  O   UNL     1       5.365  15.442  12.700  1.00  0.00    -0.237 OA
ATOM     68  O   UNL     1       5.341  17.827  13.317  1.00  0.00    -0.237 OA
ATOM     69  O   UNL     1       3.249  16.709  12.680  1.00  0.00    -0.744 OA
ENDBRANCH  63  66
ENDBRANCH  45  59
BRANCH  46  70
ATOM     70  C   UNL     1      -2.471  17.517   1.379  1.00  0.00     0.023 A 
ATOM     71  C   UNL     1      -2.566  18.592   0.473  1.00  0.00     0.012 A 
ATOM     72  C   UNL     1      -3.348  16.424   1.242  1.00  0.00     0.148 A 
ATOM     73  C   UNL     1      -3.535  18.592  -0.531  1.00  0.00     0.002 A 
ATOM     74  C   UNL     1      -4.272  16.405   0.205  1.00  0.00     0.091 A 
ATOM     75  F   UNL     1      -3.252  15.419   2.123  1.00  0.00    -0.205 F 
ATOM     76  C   UNL     1      -4.379  17.495  -0.673  1.00  0.00     0.022 A 
BRANCH  74  77
ATOM     77  S   UNL     1      -5.300  14.971  -0.135  1.00  0.00     0.127 S 
ATOM     78  O   UNL     1      -6.610  15.425   0.324  1.00  0.00    -0.237 OA
ATOM     79  O   UNL     1      -5.167  14.837  -1.586  1.00  0.00    -0.237 OA
ATOM     80  O   UNL     1      -4.705  13.877   0.622  1.00  0.00    -0.744 OA
ENDBRANCH  74  77
ENDBRANCH  46  70
BRANCH  58  81
ATOM     81  C   UNL     1      -1.359  21.575   6.944  1.00  0.00     0.023 A 
ATOM     82  C   UNL     1      -2.604  21.357   7.568  1.00  0.00     0.012 A 
ATOM     83  C   UNL     1      -0.826  22.879   6.907  1.00  0.00     0.148 A 
ATOM     84  C   UNL     1      -3.326  22.422   8.108  1.00  0.00     0.002 A 
ATOM     85  C   UNL     1      -1.529  23.928   7.489  1.00  0.00     0.091 A 
ATOM     86  F   UNL     1       0.349  23.074   6.291  1.00  0.00    -0.205 F 
ATOM     87  C   UNL     1      -2.784  23.704   8.077  1.00  0.00     0.022 A 
BRANCH  85  88
ATOM     88  S   UNL     1      -0.862  25.595   7.574  1.00  0.00     0.127 S 
ATOM     89  O   UNL     1      -1.592  26.264   6.500  1.00  0.00    -0.237 OA
ATOM     90  O   UNL     1      -1.242  26.017   8.924  1.00  0.00    -0.237 OA
ATOM     91  O   UNL     1       0.574  25.456   7.371  1.00  0.00    -0.744 OA
ENDBRANCH  85  88
ENDBRANCH  58  81
ENDBRANCH  32  33
ENDBRANCH  24  27
ENDBRANCH  22  23
ENDBRANCH  21  22
ENDBRANCH   1  21
TORSDOF 17
