REMARK SMILES C[C@@H](NC1=[NH+]CCC1)C(=O)NCCCCCCNC(=O)c1ccc(-c2c3nc(c(-c4cccc(S(=O)(=O)[O-])c4F)c4ccc([nH]4)c(-c4cccc(S(=O)(=O)[O-])c4F)c4nc(c(-c5cccc(S(=O)(=O)[O-])c5F)c5ccc2[nH]5)C=C4)C=C3)cc1
REMARK SMILES IDX 15 1 14 2 13 3 12 4 11 5 9 6 10 7 2 9 1 10 3 11 4 12 5 14
REMARK SMILES IDX 8 15 6 16 7 18 16 19 17 20 18 21 19 22 20 24 21 25 22 26
REMARK SMILES IDX 83 27 23 28 82 29 24 30 25 31 26 32 76 33 27 34 81 35 75 36
REMARK SMILES IDX 77 37 28 38 80 39 74 40 73 41 29 43 61 44 41 45 60 46 42 47
REMARK SMILES IDX 45 48 59 49 78 50 43 51 44 52 58 54 79 55 46 56 30 57 31 58
REMARK SMILES IDX 39 59 32 60 34 61 40 62 33 63 35 64 36 65 37 66 38 67 62 68
REMARK SMILES IDX 63 69 71 70 64 71 66 72 72 73 65 74 67 75 68 76 69 77 70 78
REMARK SMILES IDX 47 79 48 80 56 81 49 82 51 83 57 84 50 85 52 86 53 87 54 88
REMARK SMILES IDX 55 89
REMARK H PARENT 11 8 3 13 5 17 18 23 77 42 45 53
REMARK Flexibility Score: inf
ROOT
ATOM      1  C   UNL     1      -3.571   3.712   1.007  1.00  0.00     0.002 C 
ENDROOT
BRANCH   1   2
ATOM      2  C   UNL     1      -3.134   2.936  -0.241  1.00  0.00     0.002 C 
BRANCH   2   3
ATOM      3  C   UNL     1      -1.632   2.643  -0.321  1.00  0.00     0.021 C 
BRANCH   3   4
ATOM      4  C   UNL     1      -1.110   1.828   0.855  1.00  0.00     0.116 C 
BRANCH   4   5
ATOM      5  N   UNL     1      -1.624   0.469   0.799  1.00  0.00    -0.352 N 
ATOM      6  C   UNL     1      -0.983  -0.718   0.984  1.00  0.00     0.264 C 
ATOM      7  O   UNL     1      -1.646  -1.753   0.849  1.00  0.00    -0.270 OA
ATOM      8  H   UNL     1      -2.584   0.396   0.596  1.00  0.00     0.163 HD
BRANCH   6   9
ATOM      9  C   UNL     1       0.513  -0.785   1.335  1.00  0.00     0.258 C 
ATOM     10  C   UNL     1       1.344  -0.464   0.090  1.00  0.00     0.069 C 
BRANCH   9  11
ATOM     11  N   UNL     1       0.905   0.083   2.440  1.00  0.00    -0.267 N 
ATOM     12  C   UNL     1       0.143   0.530   3.477  1.00  0.00     0.243 C 
ATOM     13  H   UNL     1       1.842   0.385   2.437  1.00  0.00     0.305 HD
ATOM     14  N   UNL     1       0.407   1.695   3.993  1.00  0.00    -0.279 N 
ATOM     15  C   UNL     1      -1.009  -0.204   4.104  1.00  0.00     0.131 C 
ATOM     16  C   UNL     1      -0.642   1.946   4.998  1.00  0.00     0.234 C 
ATOM     17  H   UNL     1       1.157   2.289   3.759  1.00  0.00     0.304 HD
ATOM     18  C   UNL     1      -1.764   0.980   4.662  1.00  0.00     0.058 C 
ENDBRANCH   9  11
ENDBRANCH   6   9
ENDBRANCH   4   5
ENDBRANCH   3   4
ENDBRANCH   2   3
ENDBRANCH   1   2
BRANCH   1  19
ATOM     19  C   UNL     1      -2.838   5.037   1.228  1.00  0.00     0.021 C 
BRANCH  19  20
ATOM     20  C   UNL     1      -2.911   5.999   0.047  1.00  0.00     0.116 C 
BRANCH  20  21
ATOM     21  N   UNL     1      -4.284   6.360  -0.274  1.00  0.00    -0.352 N 
ATOM     22  C   UNL     1      -4.829   7.607  -0.438  1.00  0.00     0.251 C 
ATOM     23  H   UNL     1      -4.905   5.606  -0.390  1.00  0.00     0.163 HD
ATOM     24  O   UNL     1      -6.050   7.742  -0.506  1.00  0.00    -0.269 OA
BRANCH  22  25
ATOM     25  C   UNL     1      -3.942   8.784  -0.516  1.00  0.00     0.039 A 
ATOM     26  C   UNL     1      -4.261   9.924   0.225  1.00  0.00     0.014 A 
ATOM     27  C   UNL     1      -2.793   8.758  -1.313  1.00  0.00     0.014 A 
ATOM     28  C   UNL     1      -3.398  11.020   0.208  1.00  0.00     0.010 A 
ATOM     29  C   UNL     1      -1.896   9.820  -1.266  1.00  0.00     0.010 A 
ATOM     30  C   UNL     1      -2.193  10.966  -0.514  1.00  0.00    -0.014 A 
BRANCH  30  31
ATOM     31  C   UNL     1      -1.229  12.095  -0.485  1.00  0.00     0.031 A 
ATOM     32  C   UNL     1      -0.887  12.832  -1.751  1.00  0.00     0.074 A 
ATOM     33  C   UNL     1      -0.606  12.407   0.669  1.00  0.00     0.049 A 
ATOM     34  N   UNL     1      -0.035  13.808  -1.931  1.00  0.00    -0.248 NA
ATOM     35  C   UNL     1      -1.571  12.402  -2.983  1.00  0.00     0.031 C 
ATOM     36  C   UNL     1      -0.796  11.717   1.947  1.00  0.00     0.029 A 
ATOM     37  N   UNL     1       0.333  13.368   0.949  1.00  0.00    -0.354 N 
ATOM     38  C   UNL     1      -0.056  14.087  -3.292  1.00  0.00     0.074 A 
ATOM     39  C   UNL     1      -0.978  13.153  -3.900  1.00  0.00     0.031 C 
ATOM     40  C   UNL     1      -0.005  12.279   2.874  1.00  0.00     0.029 A 
ATOM     41  C   UNL     1       0.775  13.344   2.252  1.00  0.00     0.049 A 
ATOM     42  H   UNL     1       0.659  14.013   0.281  1.00  0.00     0.167 HD
ATOM     43  C   UNL     1       0.609  15.051  -3.972  1.00  0.00     0.034 A 
ATOM     44  C   UNL     1       1.712  14.088   2.872  1.00  0.00     0.034 A 
ATOM     45  C   UNL     1       1.498  15.999  -3.358  1.00  0.00     0.049 A 
ATOM     46  C   UNL     1       2.419  15.166   2.096  1.00  0.00     0.074 A 
ATOM     47  C   UNL     1       2.157  17.064  -3.947  1.00  0.00     0.029 A 
ATOM     48  N   UNL     1       1.864  15.993  -2.022  1.00  0.00    -0.354 N 
ATOM     49  N   UNL     1       2.269  15.514   0.841  1.00  0.00    -0.248 NA
ATOM     50  C   UNL     1       3.399  15.980   2.832  1.00  0.00     0.031 C 
ATOM     51  C   UNL     1       2.948  17.681  -2.973  1.00  0.00     0.029 A 
ATOM     52  C   UNL     1       2.750  17.026  -1.768  1.00  0.00     0.049 A 
ATOM     53  H   UNL     1       1.542  15.348  -1.351  1.00  0.00     0.167 HD
ATOM     54  C   UNL     1       3.104  16.609   0.647  1.00  0.00     0.074 A 
ATOM     55  C   UNL     1       3.740  16.880   1.920  1.00  0.00     0.031 C 
ATOM     56  C   UNL     1       3.335  17.318  -0.485  1.00  0.00     0.034 A 
BRANCH  43  57
ATOM     57  C   UNL     1       0.365  15.162  -5.455  1.00  0.00     0.023 A 
ATOM     58  C   UNL     1      -0.878  15.635  -5.924  1.00  0.00     0.012 A 
ATOM     59  C   UNL     1       1.387  14.870  -6.380  1.00  0.00     0.148 A 
ATOM     60  C   UNL     1      -1.112  15.784  -7.290  1.00  0.00     0.002 A 
ATOM     61  C   UNL     1       1.162  15.067  -7.737  1.00  0.00     0.091 A 
ATOM     62  F   UNL     1       2.555  14.405  -5.916  1.00  0.00    -0.205 F 
ATOM     63  C   UNL     1      -0.089  15.512  -8.195  1.00  0.00     0.022 A 
BRANCH  61  64
ATOM     64  S   UNL     1       2.438  14.824  -8.978  1.00  0.00     0.127 S 
ATOM     65  O   UNL     1       1.923  13.666  -9.708  1.00  0.00    -0.237 OA
ATOM     66  O   UNL     1       2.386  16.084  -9.720  1.00  0.00    -0.237 OA
ATOM     67  O   UNL     1       3.676  14.597  -8.247  1.00  0.00    -0.744 OA
ENDBRANCH  61  64
ENDBRANCH  43  57
BRANCH  44  68
ATOM     68  C   UNL     1       2.008  13.870   4.317  1.00  0.00     0.023 A 
ATOM     69  C   UNL     1       1.660  14.862   5.255  1.00  0.00     0.012 A 
ATOM     70  C   UNL     1       2.627  12.688   4.766  1.00  0.00     0.148 A 
ATOM     71  C   UNL     1       1.961  14.700   6.607  1.00  0.00     0.002 A 
ATOM     72  C   UNL     1       2.871  12.507   6.123  1.00  0.00     0.091 A 
ATOM     73  F   UNL     1       2.959  11.760   3.858  1.00  0.00    -0.205 F 
ATOM     74  C   UNL     1       2.558  13.520   7.042  1.00  0.00     0.022 A 
BRANCH  72  75
ATOM     75  S   UNL     1       3.518  10.969   6.787  1.00  0.00     0.127 S 
ATOM     76  O   UNL     1       4.862  11.364   7.199  1.00  0.00    -0.237 OA
ATOM     77  O   UNL     1       2.588  10.702   7.886  1.00  0.00    -0.237 OA
ATOM     78  O   UNL     1       3.447  10.009   5.694  1.00  0.00    -0.744 OA
ENDBRANCH  72  75
ENDBRANCH  44  68
BRANCH  56  79
ATOM     79  C   UNL     1       4.279  18.489  -0.398  1.00  0.00     0.023 A 
ATOM     80  C   UNL     1       5.661  18.271  -0.234  1.00  0.00     0.012 A 
ATOM     81  C   UNL     1       3.799  19.805  -0.550  1.00  0.00     0.148 A 
ATOM     82  C   UNL     1       6.546  19.347  -0.184  1.00  0.00     0.002 A 
ATOM     83  C   UNL     1       4.693  20.868  -0.554  1.00  0.00     0.091 A 
ATOM     84  F   UNL     1       2.479  19.992  -0.689  1.00  0.00    -0.205 F 
ATOM     85  C   UNL     1       6.065  20.643  -0.356  1.00  0.00     0.022 A 
BRANCH  83  86
ATOM     86  S   UNL     1       4.178  22.560  -0.869  1.00  0.00     0.127 S 
ATOM     87  O   UNL     1       4.359  23.175   0.445  1.00  0.00    -0.237 OA
ATOM     88  O   UNL     1       5.140  22.992  -1.883  1.00  0.00    -0.237 OA
ATOM     89  O   UNL     1       2.800  22.482  -1.336  1.00  0.00    -0.744 OA
ENDBRANCH  83  86
ENDBRANCH  56  79
ENDBRANCH  30  31
ENDBRANCH  22  25
ENDBRANCH  20  21
ENDBRANCH  19  20
ENDBRANCH   1  19
TORSDOF 17
