REMARK SMILES CCc1cc2c(C)cc(=O)oc2cc1O[C@H](C)C(=O)NCCCCCCNC(=O)c1ccc(-c2c3nc(c(-c4cccc(S(=O)(=O)[O-])c4F)c4ccc([nH]4)c(-c4cccc(S(=O)(=O)[O-])c4F)c4nc(c(-c5cccc(S(=O)(=O)[O-])c5F)c5ccc2[nH]5)C=C4)C=C3)cc1
REMARK SMILES IDX 23 1 22 2 21 3 20 4 18 5 19 6 16 8 17 9 15 10 14 11 3 12
REMARK SMILES IDX 4 13 5 14 13 15 6 16 12 17 7 18 8 19 11 20 9 21 10 22 2 23
REMARK SMILES IDX 1 24 24 25 25 26 26 27 27 28 28 29 29 31 30 32 31 33 92 34
REMARK SMILES IDX 32 35 91 36 33 37 34 38 35 39 85 40 36 41 90 42 84 43 86 44
REMARK SMILES IDX 37 45 89 46 83 47 82 48 38 50 70 51 50 52 69 53 51 54 54 55
REMARK SMILES IDX 68 56 87 57 52 58 53 59 67 61 88 62 55 63 39 64 40 65 48 66
REMARK SMILES IDX 41 67 43 68 49 69 42 70 44 71 45 72 46 73 47 74 71 75 72 76
REMARK SMILES IDX 80 77 73 78 75 79 81 80 74 81 76 82 77 83 78 84 79 85 56 86
REMARK SMILES IDX 57 87 65 88 58 89 60 90 66 91 59 92 61 93 62 94 63 95 64 96
REMARK H PARENT 20 7 27 30 86 49 54 60
REMARK Flexibility Score: inf
ROOT
ATOM      1  C   UNL     1       4.694  -0.368  -4.310  1.00  0.00     0.002 C 
ENDROOT
BRANCH   1   2
ATOM      2  C   UNL     1       3.342  -0.043  -3.661  1.00  0.00     0.021 C 
BRANCH   2   3
ATOM      3  C   UNL     1       2.264  -1.118  -3.804  1.00  0.00     0.116 C 
BRANCH   3   4
ATOM      4  N   UNL     1       2.620  -2.355  -3.133  1.00  0.00    -0.353 N 
ATOM      5  C   UNL     1       1.849  -3.412  -2.749  1.00  0.00     0.260 C 
ATOM      6  O   UNL     1       2.451  -4.420  -2.358  1.00  0.00    -0.271 OA
ATOM      7  H   UNL     1       3.577  -2.446  -2.920  1.00  0.00     0.163 HD
BRANCH   5   8
ATOM      8  C   UNL     1       0.290  -3.402  -2.803  1.00  0.00     0.258 C 
ATOM      9  C   UNL     1      -0.318  -2.147  -2.168  1.00  0.00     0.064 C 
BRANCH   8  10
ATOM     10  O   UNL     1      -0.509  -3.868  -3.894  1.00  0.00    -0.480 OA
BRANCH  10  11
ATOM     11  C   UNL     1      -0.193  -3.526  -5.176  1.00  0.00     0.127 A 
ATOM     12  C   UNL     1      -1.228  -3.163  -6.059  1.00  0.00    -0.005 A 
ATOM     13  C   UNL     1      -0.902  -2.752  -7.378  1.00  0.00     0.019 A 
ATOM     14  C   UNL     1       0.415  -2.760  -7.849  1.00  0.00     0.021 A 
ATOM     15  C   UNL     1       1.094  -3.667  -5.686  1.00  0.00     0.094 A 
ATOM     16  C   UNL     1       0.826  -2.309  -9.186  1.00  0.00    -0.033 A 
ATOM     17  C   UNL     1       1.385  -3.259  -6.989  1.00  0.00     0.142 A 
ATOM     18  C   UNL     1      -0.191  -1.782 -10.159  1.00  0.00     0.045 C 
ATOM     19  C   UNL     1       2.127  -2.365  -9.507  1.00  0.00     0.098 A 
ATOM     20  O   UNL     1       2.732  -3.371  -7.379  1.00  0.00    -0.423 OA
ATOM     21  C   UNL     1       3.162  -2.898  -8.607  1.00  0.00     0.336 A 
ATOM     22  O   UNL     1       4.339  -2.915  -8.932  1.00  0.00    -0.246 OA
BRANCH  12  23
ATOM     23  C   UNL     1      -2.697  -3.342  -5.724  1.00  0.00     0.036 C 
ATOM     24  C   UNL     1      -3.234  -2.562  -4.537  1.00  0.00     0.009 C 
ENDBRANCH  12  23
ENDBRANCH  10  11
ENDBRANCH   8  10
ENDBRANCH   5   8
ENDBRANCH   3   4
ENDBRANCH   2   3
ENDBRANCH   1   2
BRANCH   1  25
ATOM     25  C   UNL     1       4.642  -0.830  -5.769  1.00  0.00     0.002 C 
BRANCH  25  26
ATOM     26  C   UNL     1       3.889   0.094  -6.729  1.00  0.00     0.021 C 
BRANCH  26  27
ATOM     27  C   UNL     1       4.470   1.495  -6.866  1.00  0.00     0.116 C 
BRANCH  27  28
ATOM     28  N   UNL     1       5.796   1.485  -7.463  1.00  0.00    -0.352 N 
ATOM     29  C   UNL     1       6.287   2.192  -8.534  1.00  0.00     0.251 C 
ATOM     30  H   UNL     1       6.442   0.878  -7.034  1.00  0.00     0.163 HD
ATOM     31  O   UNL     1       7.394   1.914  -8.988  1.00  0.00    -0.269 OA
BRANCH  29  32
ATOM     32  C   UNL     1       5.487   3.272  -9.155  1.00  0.00     0.039 A 
ATOM     33  C   UNL     1       5.498   3.399 -10.548  1.00  0.00     0.014 A 
ATOM     34  C   UNL     1       4.748   4.170  -8.382  1.00  0.00     0.014 A 
ATOM     35  C   UNL     1       4.724   4.386 -11.165  1.00  0.00     0.010 A 
ATOM     36  C   UNL     1       3.912   5.097  -9.000  1.00  0.00     0.010 A 
ATOM     37  C   UNL     1       3.896   5.220 -10.397  1.00  0.00    -0.014 A 
BRANCH  37  38
ATOM     38  C   UNL     1       2.985   6.205 -11.036  1.00  0.00     0.031 A 
ATOM     39  C   UNL     1       3.129   7.676 -10.752  1.00  0.00     0.074 A 
ATOM     40  C   UNL     1       1.956   5.763 -11.786  1.00  0.00     0.049 A 
ATOM     41  N   UNL     1       2.383   8.670 -11.159  1.00  0.00    -0.248 NA
ATOM     42  C   UNL     1       4.236   8.080  -9.870  1.00  0.00     0.031 C 
ATOM     43  C   UNL     1       1.653   4.355 -12.053  1.00  0.00     0.029 A 
ATOM     44  N   UNL     1       0.953   6.446 -12.427  1.00  0.00    -0.354 N 
ATOM     45  C   UNL     1       2.897   9.807 -10.548  1.00  0.00     0.074 A 
ATOM     46  C   UNL     1       4.004   9.377  -9.722  1.00  0.00     0.031 C 
ATOM     47  C   UNL     1       0.537   4.279 -12.794  1.00  0.00     0.029 A 
ATOM     48  C   UNL     1       0.026   5.626 -13.027  1.00  0.00     0.049 A 
ATOM     49  H   UNL     1       0.902   7.429 -12.455  1.00  0.00     0.167 HD
ATOM     50  C   UNL     1       2.500  11.095 -10.681  1.00  0.00     0.034 A 
ATOM     51  C   UNL     1      -1.118   5.920 -13.675  1.00  0.00     0.034 A 
ATOM     52  C   UNL     1       1.431  11.522 -11.543  1.00  0.00     0.049 A 
ATOM     53  C   UNL     1      -1.502   7.361 -13.863  1.00  0.00     0.074 A 
ATOM     54  C   UNL     1       1.037  12.812 -11.850  1.00  0.00     0.029 A 
ATOM     55  N   UNL     1       0.573  10.670 -12.220  1.00  0.00    -0.354 N 
ATOM     56  N   UNL     1      -0.889   8.438 -13.437  1.00  0.00    -0.248 NA
ATOM     57  C   UNL     1      -2.715   7.630 -14.649  1.00  0.00     0.031 C 
ATOM     58  C   UNL     1      -0.083  12.739 -12.686  1.00  0.00     0.029 A 
ATOM     59  C   UNL     1      -0.368  11.404 -12.924  1.00  0.00     0.049 A 
ATOM     60  H   UNL     1       0.624   9.687 -12.204  1.00  0.00     0.167 HD
ATOM     61  C   UNL     1      -1.627   9.513 -13.916  1.00  0.00     0.074 A 
ATOM     62  C   UNL     1      -2.717   8.957 -14.692  1.00  0.00     0.031 C 
ATOM     63  C   UNL     1      -1.431  10.840 -13.717  1.00  0.00     0.034 A 
BRANCH  50  64
ATOM     64  C   UNL     1       3.255  12.145  -9.905  1.00  0.00     0.023 A 
ATOM     65  C   UNL     1       4.577  12.472 -10.271  1.00  0.00     0.012 A 
ATOM     66  C   UNL     1       2.639  12.844  -8.848  1.00  0.00     0.148 A 
ATOM     67  C   UNL     1       5.288  13.446  -9.571  1.00  0.00     0.002 A 
ATOM     68  C   UNL     1       3.339  13.846  -8.185  1.00  0.00     0.091 A 
ATOM     69  F   UNL     1       1.390  12.506  -8.498  1.00  0.00    -0.205 F 
ATOM     70  C   UNL     1       4.667  14.139  -8.537  1.00  0.00     0.022 A 
BRANCH  68  71
ATOM     71  S   UNL     1       2.598  14.849  -6.892  1.00  0.00     0.127 S 
ATOM     72  O   UNL     1       3.253  14.321  -5.697  1.00  0.00    -0.237 OA
ATOM     73  O   UNL     1       3.017  16.199  -7.271  1.00  0.00    -0.237 OA
ATOM     74  O   UNL     1       1.163  14.614  -6.977  1.00  0.00    -0.744 OA
ENDBRANCH  68  71
ENDBRANCH  50  64
BRANCH  51  75
ATOM     75  C   UNL     1      -1.948   4.814 -14.231  1.00  0.00     0.023 A 
ATOM     76  C   UNL     1      -2.000   4.615 -15.623  1.00  0.00     0.012 A 
ATOM     77  C   UNL     1      -2.624   3.916 -13.382  1.00  0.00     0.148 A 
ATOM     78  C   UNL     1      -2.729   3.553 -16.162  1.00  0.00     0.002 A 
ATOM     79  C   UNL     1      -3.296   2.825 -13.921  1.00  0.00     0.091 A 
ATOM     80  F   UNL     1      -2.570   4.129 -12.059  1.00  0.00    -0.205 F 
ATOM     81  C   UNL     1      -3.365   2.652 -15.312  1.00  0.00     0.022 A 
BRANCH  79  82
ATOM     82  S   UNL     1      -4.008   1.531 -12.897  1.00  0.00     0.127 S 
ATOM     83  O   UNL     1      -5.438   1.724 -13.119  1.00  0.00    -0.237 OA
ATOM     84  O   UNL     1      -3.446   0.323 -13.503  1.00  0.00    -0.237 OA
ATOM     85  O   UNL     1      -3.537   1.791 -11.543  1.00  0.00    -0.744 OA
ENDBRANCH  79  82
ENDBRANCH  51  75
BRANCH  63  86
ATOM     86  C   UNL     1      -2.412  11.793 -14.350  1.00  0.00     0.023 A 
ATOM     87  C   UNL     1      -3.714  11.902 -13.824  1.00  0.00     0.012 A 
ATOM     88  C   UNL     1      -2.023  12.632 -15.412  1.00  0.00     0.148 A 
ATOM     89  C   UNL     1      -4.624  12.809 -14.365  1.00  0.00     0.002 A 
ATOM     90  C   UNL     1      -2.919  13.568 -15.915  1.00  0.00     0.091 A 
ATOM     91  F   UNL     1      -0.785  12.501 -15.911  1.00  0.00    -0.205 F 
ATOM     92  C   UNL     1      -4.224  13.649 -15.401  1.00  0.00     0.022 A 
BRANCH  90  93
ATOM     93  S   UNL     1      -2.464  14.755 -17.184  1.00  0.00     0.127 S 
ATOM     94  O   UNL     1      -3.208  14.257 -18.339  1.00  0.00    -0.237 OA
ATOM     95  O   UNL     1      -2.969  16.011 -16.628  1.00  0.00    -0.237 OA
ATOM     96  O   UNL     1      -1.013  14.685 -17.298  1.00  0.00    -0.744 OA
ENDBRANCH  90  93
ENDBRANCH  63  86
ENDBRANCH  37  38
ENDBRANCH  29  32
ENDBRANCH  27  28
ENDBRANCH  26  27
ENDBRANCH  25  26
ENDBRANCH   1  25
TORSDOF 19
