REMARK SMILES N#Cc1cccnc1N1CC[NH+]([C@@H](C(=O)NCCCCCCNC(=O)c2ccc(-c3c4nc(c(-c5cccc(S(=O)(=O)[O-])c5F)c5ccc([nH]5)c(-c5cccc(S(=O)(=O)[O-])c5F)c5nc(c(-c6cccc(S(=O)(=O)[O-])c6F)c6ccc3[nH]6)C=C5)C=C4)cc2)c2c[nH]c3cc(CO)ccc23)CC1
REMARK SMILES IDX 19 1 18 2 17 3 16 4 14 5 15 6 13 8 12 9 9 10 10 11 101 12
REMARK SMILES IDX 11 13 100 14 8 16 3 17 4 18 5 19 7 20 6 21 2 22 1 23 89 24
REMARK SMILES IDX 90 25 99 26 91 27 92 28 98 29 93 31 97 32 94 33 95 34 96 35
REMARK SMILES IDX 20 37 21 38 22 39 23 40 24 41 25 43 26 44 27 45 88 46 28 47
REMARK SMILES IDX 87 48 29 49 30 50 31 51 81 52 32 53 86 54 80 55 82 56 33 57
REMARK SMILES IDX 85 58 79 59 78 60 34 62 66 63 46 64 65 65 47 66 50 67 64 68
REMARK SMILES IDX 83 69 48 70 49 71 63 73 84 74 51 75 35 76 36 77 44 78 37 79
REMARK SMILES IDX 39 80 45 81 38 82 40 83 41 84 42 85 43 86 67 87 68 88 76 89
REMARK SMILES IDX 69 90 71 91 77 92 70 93 72 94 73 95 74 96 75 97 52 98 53 99
REMARK SMILES IDX 61 100 54 101 56 102 62 103 55 104 57 105 58 106 59 107
REMARK SMILES IDX 60 108
REMARK H PARENT 16 7 12 15 91 30 96 36 23 42 82 61 50 72
REMARK Flexibility Score: inf
ROOT
ATOM      1  C   UNL     1       0.925  -2.195   3.669  1.00  0.00     0.002 C 
ENDROOT
BRANCH   1   2
ATOM      2  C   UNL     1       1.872  -3.361   3.323  1.00  0.00     0.021 C 
BRANCH   2   3
ATOM      3  C   UNL     1       1.221  -4.693   2.853  1.00  0.00     0.116 C 
BRANCH   3   4
ATOM      4  N   UNL     1      -0.026  -4.558   2.107  1.00  0.00    -0.351 N 
ATOM      5  C   UNL     1      -0.469  -4.835   0.839  1.00  0.00     0.283 C 
ATOM      6  O   UNL     1      -1.681  -4.629   0.705  1.00  0.00    -0.268 OA
ATOM      7  H   UNL     1      -0.739  -4.164   2.660  1.00  0.00     0.163 HD
BRANCH   5   8
ATOM      8  C   UNL     1       0.429  -5.409  -0.295  1.00  0.00     0.307 C 
BRANCH   8   9
ATOM      9  N   UNL     1       1.423  -4.468  -0.956  1.00  0.00    -0.318 N 
ATOM     10  N   UNL     1       0.638  -1.605  -0.960  1.00  0.00    -0.344 N 
ATOM     11  C   UNL     1       0.017  -2.569  -1.875  1.00  0.00     0.179 C 
ATOM     12  C   UNL     1       1.260  -2.212   0.232  1.00  0.00     0.179 C 
ATOM     13  C   UNL     1       1.017  -3.700  -2.154  1.00  0.00     0.284 C 
ATOM     14  C   UNL     1       2.090  -3.484  -0.100  1.00  0.00     0.284 C 
ATOM     15  H   UNL     1       2.049  -5.224  -1.235  1.00  0.00     0.349 HD
BRANCH  10  16
ATOM     16  C   UNL     1      -0.135  -0.472  -0.678  1.00  0.00     0.146 A 
ATOM     17  C   UNL     1       0.460   0.743  -0.316  1.00  0.00     0.095 A 
ATOM     18  C   UNL     1      -0.352   1.822   0.050  1.00  0.00     0.025 A 
ATOM     19  C   UNL     1      -1.733   1.675   0.042  1.00  0.00     0.022 A 
ATOM     20  N   UNL     1      -1.486  -0.596  -0.726  1.00  0.00    -0.238 NA
ATOM     21  C   UNL     1      -2.248   0.458  -0.358  1.00  0.00     0.113 A 
BRANCH  17  22
ATOM     22  C   UNL     1       1.886   0.914  -0.327  1.00  0.00     0.103 C 
ATOM     23  N   UNL     1       3.028   1.058  -0.293  1.00  0.00    -0.192 NA
ENDBRANCH  17  22
ENDBRANCH  10  16
ENDBRANCH   8   9
BRANCH   8  24
ATOM     24  C   UNL     1      -0.323  -6.165  -1.430  1.00  0.00     0.044 A 
ATOM     25  C   UNL     1       0.230  -7.215  -2.155  1.00  0.00     0.094 A 
ATOM     26  C   UNL     1      -1.442  -5.736  -2.241  1.00  0.00     0.009 A 
ATOM     27  N   UNL     1      -0.052  -6.937  -3.476  1.00  0.00    -0.361 N 
ATOM     28  C   UNL     1      -1.002  -5.943  -3.552  1.00  0.00     0.046 A 
ATOM     29  C   UNL     1      -2.596  -4.948  -2.067  1.00  0.00     0.011 A 
ATOM     30  H   UNL     1       0.364  -7.383  -4.249  1.00  0.00     0.166 HD
ATOM     31  C   UNL     1      -1.401  -5.108  -4.613  1.00  0.00     0.032 A 
ATOM     32  C   UNL     1      -3.088  -4.195  -3.138  1.00  0.00     0.007 A 
ATOM     33  C   UNL     1      -2.393  -4.147  -4.349  1.00  0.00    -0.021 A 
BRANCH  33  34
ATOM     34  C   UNL     1      -2.689  -3.043  -5.334  1.00  0.00     0.191 C 
BRANCH  34  35
ATOM     35  O   UNL     1      -2.837  -1.779  -4.683  1.00  0.00    -0.392 OA
ATOM     36  H   UNL     1      -3.580  -1.822  -4.060  1.00  0.00     0.211 HD
ENDBRANCH  34  35
ENDBRANCH  33  34
ENDBRANCH   8  24
ENDBRANCH   5   8
ENDBRANCH   3   4
ENDBRANCH   2   3
ENDBRANCH   1   2
BRANCH   1  37
ATOM     37  C   UNL     1       1.094  -1.625   5.080  1.00  0.00     0.002 C 
BRANCH  37  38
ATOM     38  C   UNL     1       2.444  -0.965   5.379  1.00  0.00     0.021 C 
BRANCH  38  39
ATOM     39  C   UNL     1       2.748   0.300   4.577  1.00  0.00     0.116 C 
BRANCH  39  40
ATOM     40  N   UNL     1       1.919   1.427   4.989  1.00  0.00    -0.352 N 
ATOM     41  C   UNL     1       2.294   2.597   5.608  1.00  0.00     0.251 C 
ATOM     42  H   UNL     1       0.958   1.337   4.796  1.00  0.00     0.163 HD
ATOM     43  O   UNL     1       1.442   3.350   6.072  1.00  0.00    -0.269 OA
BRANCH  41  44
ATOM     44  C   UNL     1       3.728   2.939   5.726  1.00  0.00     0.039 A 
ATOM     45  C   UNL     1       4.245   3.313   6.969  1.00  0.00     0.014 A 
ATOM     46  C   UNL     1       4.561   2.891   4.604  1.00  0.00     0.014 A 
ATOM     47  C   UNL     1       5.612   3.580   7.099  1.00  0.00     0.010 A 
ATOM     48  C   UNL     1       5.931   3.097   4.749  1.00  0.00     0.010 A 
ATOM     49  C   UNL     1       6.472   3.448   5.996  1.00  0.00    -0.014 A 
BRANCH  49  50
ATOM     50  C   UNL     1       7.938   3.669   6.124  1.00  0.00     0.031 A 
ATOM     51  C   UNL     1       8.603   4.791   5.372  1.00  0.00     0.074 A 
ATOM     52  C   UNL     1       8.684   2.811   6.848  1.00  0.00     0.049 A 
ATOM     53  N   UNL     1       9.872   5.102   5.305  1.00  0.00    -0.248 NA
ATOM     54  C   UNL     1       7.731   5.665   4.569  1.00  0.00     0.031 C 
ATOM     55  C   UNL     1       8.174   1.634   7.555  1.00  0.00     0.029 A 
ATOM     56  N   UNL     1      10.038   2.774   7.079  1.00  0.00    -0.354 N 
ATOM     57  C   UNL     1       9.955   6.184   4.437  1.00  0.00     0.074 A 
ATOM     58  C   UNL     1       8.612   6.452   3.970  1.00  0.00     0.031 C 
ATOM     59  C   UNL     1       9.200   0.987   8.131  1.00  0.00     0.029 A 
ATOM     60  C   UNL     1      10.443   1.686   7.818  1.00  0.00     0.049 A 
ATOM     61  H   UNL     1      10.659   3.462   6.748  1.00  0.00     0.167 HD
ATOM     62  C   UNL     1      11.041   6.913   4.086  1.00  0.00     0.034 A 
ATOM     63  C   UNL     1      11.676   1.290   8.192  1.00  0.00     0.034 A 
ATOM     64  C   UNL     1      12.370   6.670   4.579  1.00  0.00     0.049 A 
ATOM     65  C   UNL     1      12.862   2.142   7.826  1.00  0.00     0.074 A 
ATOM     66  C   UNL     1      13.524   7.393   4.336  1.00  0.00     0.029 A 
ATOM     67  N   UNL     1      12.724   5.621   5.413  1.00  0.00    -0.354 N 
ATOM     68  N   UNL     1      12.896   3.253   7.131  1.00  0.00    -0.248 NA
ATOM     69  C   UNL     1      14.174   1.711   8.331  1.00  0.00     0.031 C 
ATOM     70  C   UNL     1      14.579   6.774   5.015  1.00  0.00     0.029 A 
ATOM     71  C   UNL     1      14.077   5.678   5.698  1.00  0.00     0.049 A 
ATOM     72  H   UNL     1      12.104   4.937   5.754  1.00  0.00     0.167 HD
ATOM     73  C   UNL     1      14.222   3.671   7.143  1.00  0.00     0.074 A 
ATOM     74  C   UNL     1      14.956   2.707   7.936  1.00  0.00     0.031 C 
ATOM     75  C   UNL     1      14.784   4.746   6.537  1.00  0.00     0.034 A 
BRANCH  62  76
ATOM     76  C   UNL     1      10.824   8.095   3.175  1.00  0.00     0.023 A 
ATOM     77  C   UNL     1      10.169   9.239   3.677  1.00  0.00     0.012 A 
ATOM     78  C   UNL     1      11.315   8.104   1.855  1.00  0.00     0.148 A 
ATOM     79  C   UNL     1       9.975  10.359   2.871  1.00  0.00     0.002 A 
ATOM     80  C   UNL     1      11.156   9.242   1.071  1.00  0.00     0.091 A 
ATOM     81  F   UNL     1      11.920   7.003   1.389  1.00  0.00    -0.205 F 
ATOM     82  C   UNL     1      10.476  10.364   1.573  1.00  0.00     0.022 A 
BRANCH  80  83
ATOM     83  S   UNL     1      11.833   9.384  -0.587  1.00  0.00     0.127 S 
ATOM     84  O   UNL     1      10.620   9.368  -1.404  1.00  0.00    -0.237 OA
ATOM     85  O   UNL     1      12.514  10.678  -0.532  1.00  0.00    -0.237 OA
ATOM     86  O   UNL     1      12.717   8.240  -0.760  1.00  0.00    -0.744 OA
ENDBRANCH  80  83
ENDBRANCH  62  76
BRANCH  63  87
ATOM     87  C   UNL     1      11.846   0.054   9.009  1.00  0.00     0.023 A 
ATOM     88  C   UNL     1      12.238   0.161  10.358  1.00  0.00     0.012 A 
ATOM     89  C   UNL     1      11.599  -1.222   8.466  1.00  0.00     0.148 A 
ATOM     90  C   UNL     1      12.418  -0.981  11.140  1.00  0.00     0.002 A 
ATOM     91  C   UNL     1      11.723  -2.352   9.267  1.00  0.00     0.091 A 
ATOM     92  F   UNL     1      11.240  -1.307   7.178  1.00  0.00    -0.205 F 
ATOM     93  C   UNL     1      12.150  -2.235  10.599  1.00  0.00     0.022 A 
BRANCH  91  94
ATOM     94  S   UNL     1      11.265  -3.990   8.690  1.00  0.00     0.127 S 
ATOM     95  O   UNL     1      12.570  -4.613   8.486  1.00  0.00    -0.237 OA
ATOM     96  O   UNL     1      10.504  -4.513   9.826  1.00  0.00    -0.237 OA
ATOM     97  O   UNL     1      10.468  -3.772   7.490  1.00  0.00    -0.744 OA
ENDBRANCH  91  94
ENDBRANCH  63  87
BRANCH  75  98
ATOM     98  C   UNL     1      16.262   4.966   6.731  1.00  0.00     0.023 A 
ATOM     99  C   UNL     1      17.186   4.126   6.078  1.00  0.00     0.012 A 
ATOM    100  C   UNL     1      16.733   6.050   7.498  1.00  0.00     0.148 A 
ATOM    101  C   UNL     1      18.557   4.344   6.210  1.00  0.00     0.002 A 
ATOM    102  C   UNL     1      18.099   6.289   7.587  1.00  0.00     0.091 A 
ATOM    103  F   UNL     1      15.838   6.826   8.127  1.00  0.00    -0.205 F 
ATOM    104  C   UNL     1      19.013   5.431   6.953  1.00  0.00     0.022 A 
BRANCH 102 105
ATOM    105  S   UNL     1      18.773   7.717   8.443  1.00  0.00     0.127 S 
ATOM    106  O   UNL     1      19.339   7.104   9.644  1.00  0.00    -0.237 OA
ATOM    107  O   UNL     1      19.765   8.214   7.488  1.00  0.00    -0.237 OA
ATOM    108  O   UNL     1      17.650   8.616   8.669  1.00  0.00    -0.744 OA
ENDBRANCH 102 105
ENDBRANCH  75  98
ENDBRANCH  49  50
ENDBRANCH  41  44
ENDBRANCH  39  40
ENDBRANCH  38  39
ENDBRANCH  37  38
ENDBRANCH   1  37
TORSDOF 22
