REMARK SMILES COc1ncccc1COc1cc(C)sc1C(=O)NCCCCCCNC(=O)c1ccc(-c2c3nc(c(-c4cccc(S(=O)(=O)[O-])c4F)c4ccc([nH]4)c(-c4cccc(S(=O)(=O)[O-])c4F)c4nc(c(-c5cccc(S(=O)(=O)[O-])c5F)c5ccc2[nH]5)C=C4)C=C3)cc1
REMARK SMILES IDX 22 1 21 2 20 3 19 4 17 5 18 6 16 8 11 9 12 10 13 11 15 12
REMARK SMILES IDX 14 13 10 14 9 15 8 16 3 17 4 18 5 19 7 20 6 21 2 22 1 23
REMARK SMILES IDX 23 24 24 25 25 26 26 27 27 28 28 30 29 31 30 32 91 33 31 34
REMARK SMILES IDX 90 35 32 36 33 37 34 38 84 39 35 40 89 41 83 42 85 43 36 44
REMARK SMILES IDX 88 45 82 46 81 47 37 49 69 50 49 51 68 52 50 53 53 54 67 55
REMARK SMILES IDX 86 56 51 57 52 58 66 60 87 61 54 62 38 63 39 64 47 65 40 66
REMARK SMILES IDX 42 67 48 68 41 69 43 70 44 71 45 72 46 73 70 74 71 75 79 76
REMARK SMILES IDX 72 77 74 78 80 79 73 80 75 81 76 82 77 83 78 84 55 85 56 86
REMARK SMILES IDX 64 87 57 88 59 89 65 90 58 91 60 92 61 93 62 94 63 95
REMARK H PARENT 19 7 26 29 85 48 53 59
REMARK Flexibility Score: inf
ROOT
ATOM      1  C   UNL     1       5.624   2.247   1.278  1.00  0.00     0.002 C 
ENDROOT
BRANCH   1   2
ATOM      2  C   UNL     1       4.855   1.434   0.228  1.00  0.00     0.021 C 
BRANCH   2   3
ATOM      3  C   UNL     1       3.666   2.197  -0.361  1.00  0.00     0.116 C 
BRANCH   3   4
ATOM      4  N   UNL     1       4.019   2.805  -1.619  1.00  0.00    -0.351 N 
ATOM      5  C   UNL     1       3.842   2.454  -2.931  1.00  0.00     0.265 C 
ATOM      6  O   UNL     1       4.286   3.316  -3.704  1.00  0.00    -0.268 OA
ATOM      7  H   UNL     1       4.491   3.662  -1.512  1.00  0.00     0.163 HD
BRANCH   5   8
ATOM      8  C   UNL     1       3.189   1.233  -3.410  1.00  0.00     0.134 A 
ATOM      9  C   UNL     1       2.776   0.015  -2.876  1.00  0.00     0.143 A 
ATOM     10  C   UNL     1       2.074  -0.785  -3.835  1.00  0.00     0.062 A 
ATOM     11  C   UNL     1       2.058  -0.242  -5.096  1.00  0.00     0.006 A 
ATOM     12  S   UNL     1       2.848   1.254  -5.124  1.00  0.00    -0.132 S 
ATOM     13  C   UNL     1       1.438  -0.791  -6.335  1.00  0.00     0.056 C 
BRANCH   9  14
ATOM     14  O   UNL     1       2.898  -0.289  -1.558  1.00  0.00    -0.487 OA
BRANCH  14  15
ATOM     15  C   UNL     1       3.318  -1.621  -1.221  1.00  0.00     0.271 C 
BRANCH  15  16
ATOM     16  C   UNL     1       2.262  -2.685  -1.340  1.00  0.00     0.052 A 
ATOM     17  C   UNL     1       1.060  -2.640  -0.638  1.00  0.00     0.219 A 
ATOM     18  N   UNL     1       0.057  -3.527  -0.811  1.00  0.00    -0.222 NA
ATOM     19  C   UNL     1       0.273  -4.540  -1.678  1.00  0.00     0.115 A 
ATOM     20  C   UNL     1       2.463  -3.776  -2.199  1.00  0.00     0.014 A 
ATOM     21  C   UNL     1       1.457  -4.718  -2.372  1.00  0.00     0.021 A 
BRANCH  17  22
ATOM     22  O   UNL     1       0.938  -1.822   0.454  1.00  0.00    -0.481 OA
ATOM     23  C   UNL     1       0.402  -0.550   0.123  1.00  0.00     0.280 C 
ENDBRANCH  17  22
ENDBRANCH  15  16
ENDBRANCH  14  15
ENDBRANCH   9  14
ENDBRANCH   5   8
ENDBRANCH   3   4
ENDBRANCH   2   3
ENDBRANCH   1   2
BRANCH   1  24
ATOM     24  C   UNL     1       4.816   2.580   2.539  1.00  0.00     0.002 C 
BRANCH  24  25
ATOM     25  C   UNL     1       4.267   1.369   3.300  1.00  0.00     0.021 C 
BRANCH  25  26
ATOM     26  C   UNL     1       5.334   0.413   3.825  1.00  0.00     0.116 C 
BRANCH  26  27
ATOM     27  N   UNL     1       6.253   1.083   4.733  1.00  0.00    -0.352 N 
ATOM     28  C   UNL     1       6.574   0.785   6.031  1.00  0.00     0.251 C 
ATOM     29  H   UNL     1       6.712   1.869   4.359  1.00  0.00     0.163 HD
ATOM     30  O   UNL     1       7.179   1.611   6.710  1.00  0.00    -0.269 OA
BRANCH  28  31
ATOM     31  C   UNL     1       6.207  -0.525   6.612  1.00  0.00     0.039 A 
ATOM     32  C   UNL     1       5.783  -0.578   7.943  1.00  0.00     0.014 A 
ATOM     33  C   UNL     1       6.340  -1.703   5.872  1.00  0.00     0.014 A 
ATOM     34  C   UNL     1       5.475  -1.810   8.524  1.00  0.00     0.010 A 
ATOM     35  C   UNL     1       5.960  -2.921   6.428  1.00  0.00     0.010 A 
ATOM     36  C   UNL     1       5.554  -2.991   7.768  1.00  0.00    -0.014 A 
BRANCH  36  37
ATOM     37  C   UNL     1       5.256  -4.311   8.378  1.00  0.00     0.031 A 
ATOM     38  C   UNL     1       6.343  -5.347   8.502  1.00  0.00     0.074 A 
ATOM     39  C   UNL     1       3.998  -4.601   8.762  1.00  0.00     0.049 A 
ATOM     40  N   UNL     1       6.274  -6.561   8.985  1.00  0.00    -0.248 NA
ATOM     41  C   UNL     1       7.675  -4.983   7.991  1.00  0.00     0.031 C 
ATOM     42  C   UNL     1       2.843  -3.713   8.616  1.00  0.00     0.029 A 
ATOM     43  N   UNL     1       3.477  -5.733   9.335  1.00  0.00    -0.354 N 
ATOM     44  C   UNL     1       7.536  -7.116   8.801  1.00  0.00     0.074 A 
ATOM     45  C   UNL     1       8.341  -6.121   8.127  1.00  0.00     0.031 C 
ATOM     46  C   UNL     1       1.751  -4.331   9.094  1.00  0.00     0.029 A 
ATOM     47  C   UNL     1       2.123  -5.663   9.562  1.00  0.00     0.049 A 
ATOM     48  H   UNL     1       4.021  -6.521   9.563  1.00  0.00     0.167 HD
ATOM     49  C   UNL     1       7.996  -8.329   9.189  1.00  0.00     0.034 A 
ATOM     50  C   UNL     1       1.278  -6.569  10.091  1.00  0.00     0.034 A 
ATOM     51  C   UNL     1       7.208  -9.294   9.908  1.00  0.00     0.049 A 
ATOM     52  C   UNL     1       1.830  -7.883  10.575  1.00  0.00     0.074 A 
ATOM     53  C   UNL     1       7.603 -10.514  10.427  1.00  0.00     0.029 A 
ATOM     54  N   UNL     1       5.863  -9.147  10.209  1.00  0.00    -0.354 N 
ATOM     55  N   UNL     1       3.065  -8.324  10.542  1.00  0.00    -0.248 NA
ATOM     56  C   UNL     1       0.880  -8.806  11.211  1.00  0.00     0.031 C 
ATOM     57  C   UNL     1       6.491 -11.112  11.030  1.00  0.00     0.029 A 
ATOM     58  C   UNL     1       5.410 -10.255  10.905  1.00  0.00     0.049 A 
ATOM     59  H   UNL     1       5.311  -8.369   9.965  1.00  0.00     0.167 HD
ATOM     60  C   UNL     1       3.046  -9.558  11.181  1.00  0.00     0.074 A 
ATOM     61  C   UNL     1       1.682  -9.781  11.616  1.00  0.00     0.031 C 
ATOM     62  C   UNL     1       4.061 -10.437  11.376  1.00  0.00     0.034 A 
BRANCH  49  63
ATOM     63  C   UNL     1       9.438  -8.655   8.896  1.00  0.00     0.023 A 
ATOM     64  C   UNL     1      10.459  -7.994   9.611  1.00  0.00     0.012 A 
ATOM     65  C   UNL     1       9.787  -9.643   7.954  1.00  0.00     0.148 A 
ATOM     66  C   UNL     1      11.801  -8.280   9.367  1.00  0.00     0.002 A 
ATOM     67  C   UNL     1      11.126  -9.956   7.748  1.00  0.00     0.091 A 
ATOM     68  F   UNL     1       8.806 -10.247   7.268  1.00  0.00    -0.205 F 
ATOM     69  C   UNL     1      12.134  -9.267   8.444  1.00  0.00     0.022 A 
BRANCH  67  70
ATOM     70  S   UNL     1      11.657 -11.264   6.638  1.00  0.00     0.127 S 
ATOM     71  O   UNL     1      12.239 -10.499   5.537  1.00  0.00    -0.237 OA
ATOM     72  O   UNL     1      12.629 -11.989   7.457  1.00  0.00    -0.237 OA
ATOM     73  O   UNL     1      10.458 -12.021   6.308  1.00  0.00    -0.744 OA
ENDBRANCH  67  70
ENDBRANCH  49  63
BRANCH  50  74
ATOM     74  C   UNL     1      -0.161  -6.230  10.271  1.00  0.00     0.023 A 
ATOM     75  C   UNL     1      -0.662  -6.019  11.571  1.00  0.00     0.012 A 
ATOM     76  C   UNL     1      -1.028  -6.091   9.170  1.00  0.00     0.148 A 
ATOM     77  C   UNL     1      -2.008  -5.711  11.774  1.00  0.00     0.002 A 
ATOM     78  C   UNL     1      -2.355  -5.731   9.376  1.00  0.00     0.091 A 
ATOM     79  F   UNL     1      -0.534  -6.306   7.942  1.00  0.00    -0.205 F 
ATOM     80  C   UNL     1      -2.851  -5.558  10.677  1.00  0.00     0.022 A 
BRANCH  78  81
ATOM     81  S   UNL     1      -3.482  -5.387   8.020  1.00  0.00     0.127 S 
ATOM     82  O   UNL     1      -4.371  -6.543   8.070  1.00  0.00    -0.237 OA
ATOM     83  O   UNL     1      -4.087  -4.124   8.443  1.00  0.00    -0.237 OA
ATOM     84  O   UNL     1      -2.643  -5.281   6.833  1.00  0.00    -0.744 OA
ENDBRANCH  78  81
ENDBRANCH  50  74
BRANCH  62  85
ATOM     85  C   UNL     1       3.743 -11.710  12.117  1.00  0.00     0.023 A 
ATOM     86  C   UNL     1       2.972 -12.710  11.493  1.00  0.00     0.012 A 
ATOM     87  C   UNL     1       4.255 -11.938  13.410  1.00  0.00     0.148 A 
ATOM     88  C   UNL     1       2.680 -13.900  12.159  1.00  0.00     0.002 A 
ATOM     89  C   UNL     1       4.001 -13.147  14.048  1.00  0.00     0.091 A 
ATOM     90  F   UNL     1       4.970 -10.967  13.998  1.00  0.00    -0.205 F 
ATOM     91  C   UNL     1       3.203 -14.122  13.430  1.00  0.00     0.022 A 
BRANCH  89  92
ATOM     92  S   UNL     1       4.719 -13.553  15.644  1.00  0.00     0.127 S 
ATOM     93  O   UNL     1       3.586 -13.343  16.543  1.00  0.00    -0.237 OA
ATOM     94  O   UNL     1       5.105 -14.954  15.467  1.00  0.00    -0.237 OA
ATOM     95  O   UNL     1       5.840 -12.639  15.818  1.00  0.00    -0.744 OA
ENDBRANCH  89  92
ENDBRANCH  62  85
ENDBRANCH  36  37
ENDBRANCH  28  31
ENDBRANCH  26  27
ENDBRANCH  25  26
ENDBRANCH  24  25
ENDBRANCH   1  24
TORSDOF 20
