REMARK SMILES O=C(Cc1cccn1-c1ccccc1F)NCCCCCCNC(=O)c1ccc(-c2c3nc(c(-c4cccc(S(=O)(=O)[O-])c4F)c4ccc([nH]4)c(-c4cccc(S(=O)(=O)[O-])c4F)c4nc(c(-c5cccc(S(=O)(=O)[O-])c5F)c5ccc2[nH]5)C=C4)C=C3)cc1
REMARK SMILES IDX 20 1 19 2 18 3 17 4 16 5 1 6 2 7 3 9 4 10 5 11 8 12 6 13
REMARK SMILES IDX 7 14 9 15 10 16 14 17 11 18 13 19 15 20 12 21 21 22 22 23
REMARK SMILES IDX 23 24 24 25 25 27 26 28 27 29 88 30 28 31 87 32 29 33 30 34
REMARK SMILES IDX 31 35 81 36 32 37 86 38 80 39 82 40 33 41 85 42 79 43 78 44
REMARK SMILES IDX 34 46 66 47 46 48 65 49 47 50 50 51 64 52 83 53 48 54 49 55
REMARK SMILES IDX 63 57 84 58 51 59 35 60 36 61 44 62 37 63 39 64 45 65 38 66
REMARK SMILES IDX 40 67 41 68 42 69 43 70 67 71 68 72 76 73 69 74 71 75 77 76
REMARK SMILES IDX 70 77 72 78 73 79 74 80 75 81 52 82 53 83 61 84 54 85 56 86
REMARK SMILES IDX 62 87 55 88 57 89 58 90 59 91 60 92
REMARK H PARENT 16 8 23 26 82 45 50 56
REMARK Flexibility Score: inf
ROOT
ATOM      1  C   UNL     1       4.629   4.010  -1.560  1.00  0.00     0.002 C 
ENDROOT
BRANCH   1   2
ATOM      2  C   UNL     1       4.214   3.758  -0.106  1.00  0.00     0.002 C 
BRANCH   2   3
ATOM      3  C   UNL     1       2.716   3.501   0.115  1.00  0.00     0.021 C 
BRANCH   3   4
ATOM      4  C   UNL     1       2.150   2.297  -0.638  1.00  0.00     0.116 C 
BRANCH   4   5
ATOM      5  N   UNL     1       2.828   1.081  -0.247  1.00  0.00    -0.356 N 
ATOM      6  O   UNL     1       1.007  -0.325  -0.322  1.00  0.00    -0.275 OA
ATOM      7  C   UNL     1       2.201  -0.139  -0.117  1.00  0.00     0.225 C 
ATOM      8  H   UNL     1       3.794   1.127  -0.063  1.00  0.00     0.163 HD
BRANCH   7   9
ATOM      9  C   UNL     1       3.146  -1.239   0.341  1.00  0.00     0.154 C 
BRANCH   9  10
ATOM     10  C   UNL     1       3.937  -1.804  -0.809  1.00  0.00     0.032 A 
ATOM     11  C   UNL     1       4.772  -1.136  -1.696  1.00  0.00     0.024 A 
ATOM     12  N   UNL     1       4.062  -3.163  -1.071  1.00  0.00    -0.318 N 
ATOM     13  C   UNL     1       5.444  -2.094  -2.481  1.00  0.00     0.020 A 
ATOM     14  C   UNL     1       5.024  -3.329  -2.050  1.00  0.00     0.091 A 
BRANCH  12  15
ATOM     15  C   UNL     1       3.429  -4.236  -0.404  1.00  0.00     0.081 A 
ATOM     16  C   UNL     1       4.209  -5.281   0.106  1.00  0.00     0.030 A 
ATOM     17  C   UNL     1       2.044  -4.261  -0.252  1.00  0.00     0.147 A 
ATOM     18  C   UNL     1       3.594  -6.314   0.816  1.00  0.00     0.002 A 
ATOM     19  C   UNL     1       1.431  -5.302   0.439  1.00  0.00     0.041 A 
ATOM     20  F   UNL     1       1.270  -3.321  -0.808  1.00  0.00    -0.205 F 
ATOM     21  C   UNL     1       2.208  -6.324   0.984  1.00  0.00     0.003 A 
ENDBRANCH  12  15
ENDBRANCH   9  10
ENDBRANCH   7   9
ENDBRANCH   4   5
ENDBRANCH   3   4
ENDBRANCH   2   3
ENDBRANCH   1   2
BRANCH   1  22
ATOM     22  C   UNL     1       3.912   5.181  -2.245  1.00  0.00     0.021 C 
BRANCH  22  23
ATOM     23  C   UNL     1       4.147   6.535  -1.572  1.00  0.00     0.116 C 
BRANCH  23  24
ATOM     24  N   UNL     1       5.533   6.952  -1.727  1.00  0.00    -0.352 N 
ATOM     25  C   UNL     1       6.140   8.129  -1.373  1.00  0.00     0.251 C 
ATOM     26  H   UNL     1       6.124   6.288  -2.151  1.00  0.00     0.163 HD
ATOM     27  O   UNL     1       7.202   8.428  -1.918  1.00  0.00    -0.269 OA
BRANCH  25  28
ATOM     28  C   UNL     1       5.554   9.044  -0.369  1.00  0.00     0.039 A 
ATOM     29  C   UNL     1       5.713  10.423  -0.572  1.00  0.00     0.014 A 
ATOM     30  C   UNL     1       4.949   8.574   0.802  1.00  0.00     0.014 A 
ATOM     31  C   UNL     1       5.214  11.326   0.362  1.00  0.00     0.010 A 
ATOM     32  C   UNL     1       4.437   9.475   1.732  1.00  0.00     0.010 A 
ATOM     33  C   UNL     1       4.550  10.850   1.500  1.00  0.00    -0.014 A 
BRANCH  33  34
ATOM     34  C   UNL     1       3.793  11.814   2.335  1.00  0.00     0.031 A 
ATOM     35  C   UNL     1       2.428  12.161   1.667  1.00  0.00     0.074 A 
ATOM     36  C   UNL     1       4.406  12.243   3.484  1.00  0.00     0.049 A 
ATOM     37  N   UNL     1       1.734  13.262   1.666  1.00  0.00    -0.248 NA
ATOM     38  C   UNL     1       1.802  11.155   0.759  1.00  0.00     0.031 C 
ATOM     39  C   UNL     1       5.701  11.734   3.999  1.00  0.00     0.029 A 
ATOM     40  N   UNL     1       4.089  13.169   4.459  1.00  0.00    -0.354 N 
ATOM     41  C   UNL     1       0.515  12.999   0.978  1.00  0.00     0.074 A 
ATOM     42  C   UNL     1       0.687  11.744   0.322  1.00  0.00     0.031 C 
ATOM     43  C   UNL     1       6.085  12.404   5.111  1.00  0.00     0.029 A 
ATOM     44  C   UNL     1       5.085  13.400   5.446  1.00  0.00     0.049 A 
ATOM     45  H   UNL     1       3.224  13.641   4.469  1.00  0.00     0.167 HD
ATOM     46  C   UNL     1      -0.614  13.763   1.118  1.00  0.00     0.034 A 
ATOM     47  C   UNL     1       5.122  14.360   6.428  1.00  0.00     0.034 A 
ATOM     48  C   UNL     1      -0.341  14.822   2.030  1.00  0.00     0.049 A 
ATOM     49  C   UNL     1       3.814  15.023   6.359  1.00  0.00     0.074 A 
ATOM     50  C   UNL     1       0.356  15.995   1.929  1.00  0.00     0.029 A 
ATOM     51  N   UNL     1      -0.547  14.515   3.352  1.00  0.00    -0.354 N 
ATOM     52  N   UNL     1       2.693  14.490   6.747  1.00  0.00    -0.248 NA
ATOM     53  C   UNL     1       3.724  16.322   5.681  1.00  0.00     0.031 C 
ATOM     54  C   UNL     1       0.958  16.116   3.199  1.00  0.00     0.029 A 
ATOM     55  C   UNL     1       0.435  15.147   4.065  1.00  0.00     0.049 A 
ATOM     56  H   UNL     1      -1.265  13.949   3.717  1.00  0.00     0.167 HD
ATOM     57  C   UNL     1       1.775  15.213   6.031  1.00  0.00     0.074 A 
ATOM     58  C   UNL     1       2.404  16.470   5.695  1.00  0.00     0.031 C 
ATOM     59  C   UNL     1       0.802  14.576   5.334  1.00  0.00     0.034 A 
BRANCH  46  60
ATOM     60  C   UNL     1      -2.076  13.591   0.743  1.00  0.00     0.023 A 
ATOM     61  C   UNL     1      -2.875  14.771   0.854  1.00  0.00     0.012 A 
ATOM     62  C   UNL     1      -2.762  12.374   0.595  1.00  0.00     0.148 A 
ATOM     63  C   UNL     1      -4.264  14.737   0.963  1.00  0.00     0.002 A 
ATOM     64  C   UNL     1      -4.163  12.351   0.649  1.00  0.00     0.091 A 
ATOM     65  F   UNL     1      -2.068  11.238   0.480  1.00  0.00    -0.205 F 
ATOM     66  C   UNL     1      -4.908  13.519   0.877  1.00  0.00     0.022 A 
BRANCH  64  67
ATOM     67  S   UNL     1      -5.134  10.851   0.448  1.00  0.00     0.127 S 
ATOM     68  O   UNL     1      -5.638  10.629   1.798  1.00  0.00    -0.237 OA
ATOM     69  O   UNL     1      -6.150  11.279  -0.517  1.00  0.00    -0.237 OA
ATOM     70  O   UNL     1      -4.209   9.849  -0.073  1.00  0.00    -0.744 OA
ENDBRANCH  64  67
ENDBRANCH  46  60
BRANCH  47  71
ATOM     71  C   UNL     1       6.146  14.962   7.376  1.00  0.00     0.023 A 
ATOM     72  C   UNL     1       7.378  14.374   7.693  1.00  0.00     0.012 A 
ATOM     73  C   UNL     1       5.930  16.267   7.924  1.00  0.00     0.148 A 
ATOM     74  C   UNL     1       8.369  15.087   8.405  1.00  0.00     0.002 A 
ATOM     75  C   UNL     1       6.950  17.017   8.499  1.00  0.00     0.091 A 
ATOM     76  F   UNL     1       4.701  16.793   7.923  1.00  0.00    -0.205 F 
ATOM     77  C   UNL     1       8.179  16.423   8.758  1.00  0.00     0.022 A 
BRANCH  75  78
ATOM     78  S   UNL     1       6.789  18.797   8.765  1.00  0.00     0.127 S 
ATOM     79  O   UNL     1       7.229  18.951  10.150  1.00  0.00    -0.237 OA
ATOM     80  O   UNL     1       7.717  19.324   7.764  1.00  0.00    -0.237 OA
ATOM     81  O   UNL     1       5.390  19.124   8.525  1.00  0.00    -0.744 OA
ENDBRANCH  75  78
ENDBRANCH  47  71
BRANCH  59  82
ATOM     82  C   UNL     1       0.424  13.192   5.851  1.00  0.00     0.023 A 
ATOM     83  C   UNL     1      -0.196  13.140   7.112  1.00  0.00     0.012 A 
ATOM     84  C   UNL     1       0.711  11.958   5.215  1.00  0.00     0.148 A 
ATOM     85  C   UNL     1      -0.528  11.923   7.715  1.00  0.00     0.002 A 
ATOM     86  C   UNL     1       0.392  10.738   5.824  1.00  0.00     0.091 A 
ATOM     87  F   UNL     1       1.290  11.974   4.018  1.00  0.00    -0.205 F 
ATOM     88  C   UNL     1      -0.237  10.724   7.073  1.00  0.00     0.022 A 
BRANCH  86  89
ATOM     89  S   UNL     1       0.804   9.123   5.121  1.00  0.00     0.127 S 
ATOM     90  O   UNL     1       1.429   8.435   6.253  1.00  0.00    -0.237 OA
ATOM     91  O   UNL     1      -0.509   8.600   4.757  1.00  0.00    -0.237 OA
ATOM     92  O   UNL     1       1.712   9.371   4.006  1.00  0.00    -0.744 OA
ENDBRANCH  86  89
ENDBRANCH  59  82
ENDBRANCH  33  34
ENDBRANCH  25  28
ENDBRANCH  23  24
ENDBRANCH  22  23
ENDBRANCH   1  22
TORSDOF 18
