REMARK SMILES Nc1ccc(C(=O)NC[C@@H]2CC[C@@H](C(=O)NCCCCCCNC(=O)c3ccc(-c4c5nc(c(-c6cccc(S(=O)(=O)[O-])c6F)c6ccc([nH]6)c(-c6cccc(S(=O)(=O)[O-])c6F)c6nc(c(-c7cccc(S(=O)(=O)[O-])c7F)c7ccc4[nH]7)C=C6)C=C5)cc3)O2)cc1Cl
REMARK SMILES IDX 19 1 18 2 17 3 16 4 14 5 15 6 13 8 10 9 11 10 89 11 12 12
REMARK SMILES IDX 9 13 8 14 6 15 7 16 5 18 2 19 3 20 91 21 4 22 90 23 92 24
REMARK SMILES IDX 1 25 20 28 21 29 22 30 23 31 24 32 25 34 26 35 27 36 88 37
REMARK SMILES IDX 28 38 87 39 29 40 30 41 31 42 81 43 32 44 86 45 80 46 82 47
REMARK SMILES IDX 33 48 85 49 79 50 78 51 34 53 66 54 46 55 65 56 47 57 50 58
REMARK SMILES IDX 64 59 83 60 48 61 49 62 63 64 84 65 51 66 35 67 36 68 44 69
REMARK SMILES IDX 37 70 39 71 45 72 38 73 40 74 41 75 42 76 43 77 67 78 68 79
REMARK SMILES IDX 76 80 69 81 71 82 77 83 70 84 72 85 73 86 74 87 75 88 52 89
REMARK SMILES IDX 53 90 61 91 54 92 56 93 62 94 55 95 57 96 58 97 59 98 60 99
REMARK H PARENT 16 7 8 17 1 26 1 27 23 33 82 52 50 63
REMARK Flexibility Score: inf
ROOT
ATOM      1  C   UNL     1       5.559  -5.244  -3.379  1.00  0.00     0.002 C 
ENDROOT
BRANCH   1   2
ATOM      2  C   UNL     1       4.669  -4.112  -2.854  1.00  0.00     0.021 C 
BRANCH   2   3
ATOM      3  C   UNL     1       5.408  -2.865  -2.377  1.00  0.00     0.116 C 
BRANCH   3   4
ATOM      4  N   UNL     1       6.210  -2.273  -3.431  1.00  0.00    -0.354 N 
ATOM      5  C   UNL     1       6.269  -0.970  -3.832  1.00  0.00     0.249 C 
ATOM      6  O   UNL     1       7.038  -0.686  -4.753  1.00  0.00    -0.272 OA
ATOM      7  H   UNL     1       6.791  -2.896  -3.924  1.00  0.00     0.163 HD
BRANCH   5   8
ATOM      8  C   UNL     1       5.334   0.068  -3.179  1.00  0.00     0.207 C 
ATOM      9  C   UNL     1       5.763   1.361  -1.278  1.00  0.00     0.138 C 
ATOM     10  C   UNL     1       5.349   2.307  -2.391  1.00  0.00     0.037 C 
ATOM     11  O   UNL     1       5.372   0.058  -1.740  1.00  0.00    -0.363 OA
ATOM     12  C   UNL     1       5.679   1.490  -3.614  1.00  0.00     0.045 C 
BRANCH   9  13
ATOM     13  C   UNL     1       5.203   1.650   0.127  1.00  0.00     0.148 C 
BRANCH  13  14
ATOM     14  N   UNL     1       4.076   2.569   0.153  1.00  0.00    -0.349 N 
ATOM     15  C   UNL     1       2.717   2.471   0.066  1.00  0.00     0.251 C 
ATOM     16  O   UNL     1       2.118   3.551   0.049  1.00  0.00    -0.269 OA
ATOM     17  H   UNL     1       4.369   3.503   0.261  1.00  0.00     0.163 HD
BRANCH  15  18
ATOM     18  C   UNL     1       1.918   1.212  -0.002  1.00  0.00     0.041 A 
ATOM     19  C   UNL     1       0.168  -1.035  -0.041  1.00  0.00     0.050 A 
ATOM     20  C   UNL     1       1.554  -1.192  -0.119  1.00  0.00     0.028 A 
ATOM     21  C   UNL     1      -0.338   0.271  -0.012  1.00  0.00     0.064 A 
ATOM     22  C   UNL     1       2.420  -0.085  -0.095  1.00  0.00     0.016 A 
ATOM     23  C   UNL     1       0.521   1.373   0.024  1.00  0.00     0.036 A 
ATOM     24  Cl  UNL     1      -2.045   0.559   0.004  1.00  0.00    -0.082 Cl
BRANCH  19  25
ATOM     25  N   UNL     1      -0.659  -2.151  -0.144  1.00  0.00    -0.398 N 
ATOM     26  H   UNL     1      -0.267  -3.054  -0.161  1.00  0.00     0.156 HD
ATOM     27  H   UNL     1      -1.635  -2.036  -0.200  1.00  0.00     0.156 HD
ENDBRANCH  19  25
ENDBRANCH  15  18
ENDBRANCH  13  14
ENDBRANCH   9  13
ENDBRANCH   5   8
ENDBRANCH   3   4
ENDBRANCH   2   3
ENDBRANCH   1   2
BRANCH   1  28
ATOM     28  C   UNL     1       6.649  -5.730  -2.420  1.00  0.00     0.002 C 
BRANCH  28  29
ATOM     29  C   UNL     1       6.163  -6.173  -1.038  1.00  0.00     0.021 C 
BRANCH  29  30
ATOM     30  C   UNL     1       5.084  -7.252  -1.041  1.00  0.00     0.116 C 
BRANCH  30  31
ATOM     31  N   UNL     1       5.531  -8.486  -1.662  1.00  0.00    -0.352 N 
ATOM     32  C   UNL     1       5.375  -9.782  -1.236  1.00  0.00     0.251 C 
ATOM     33  H   UNL     1       6.016  -8.377  -2.511  1.00  0.00     0.163 HD
ATOM     34  O   UNL     1       5.963 -10.685  -1.826  1.00  0.00    -0.269 OA
BRANCH  32  35
ATOM     35  C   UNL     1       4.519 -10.095  -0.068  1.00  0.00     0.039 A 
ATOM     36  C   UNL     1       4.952 -11.071   0.836  1.00  0.00     0.014 A 
ATOM     37  C   UNL     1       3.280  -9.477   0.118  1.00  0.00     0.014 A 
ATOM     38  C   UNL     1       4.155 -11.407   1.934  1.00  0.00     0.010 A 
ATOM     39  C   UNL     1       2.521  -9.760   1.253  1.00  0.00     0.010 A 
ATOM     40  C   UNL     1       2.936 -10.748   2.158  1.00  0.00    -0.014 A 
BRANCH  40  41
ATOM     41  C   UNL     1       2.065 -11.120   3.304  1.00  0.00     0.031 A 
ATOM     42  C   UNL     1       0.702 -11.714   3.054  1.00  0.00     0.074 A 
ATOM     43  C   UNL     1       2.474 -10.883   4.566  1.00  0.00     0.049 A 
ATOM     44  N   UNL     1      -0.212 -12.078   3.917  1.00  0.00    -0.248 NA
ATOM     45  C   UNL     1       0.300 -11.899   1.648  1.00  0.00     0.031 C 
ATOM     46  C   UNL     1       3.734 -10.240   4.942  1.00  0.00     0.029 A 
ATOM     47  N   UNL     1       1.860 -11.137   5.767  1.00  0.00    -0.354 N 
ATOM     48  C   UNL     1      -1.299 -12.507   3.164  1.00  0.00     0.074 A 
ATOM     49  C   UNL     1      -0.952 -12.315   1.774  1.00  0.00     0.031 C 
ATOM     50  C   UNL     1       3.800 -10.150   6.280  1.00  0.00     0.029 A 
ATOM     51  C   UNL     1       2.583 -10.713   6.858  1.00  0.00     0.049 A 
ATOM     52  H   UNL     1       0.984 -11.581   5.841  1.00  0.00     0.167 HD
ATOM     53  C   UNL     1      -2.466 -13.051   3.586  1.00  0.00     0.034 A 
ATOM     54  C   UNL     1       2.297 -10.773   8.174  1.00  0.00     0.034 A 
ATOM     55  C   UNL     1      -2.792 -13.290   4.965  1.00  0.00     0.049 A 
ATOM     56  C   UNL     1       1.023 -11.444   8.615  1.00  0.00     0.074 A 
ATOM     57  C   UNL     1      -3.923 -13.888   5.493  1.00  0.00     0.029 A 
ATOM     58  N   UNL     1      -1.982 -12.953   6.038  1.00  0.00    -0.354 N 
ATOM     59  N   UNL     1       0.073 -11.975   7.884  1.00  0.00    -0.248 NA
ATOM     60  C   UNL     1       0.805 -11.570  10.063  1.00  0.00     0.031 C 
ATOM     61  C   UNL     1      -3.797 -13.909   6.886  1.00  0.00     0.029 A 
ATOM     62  C   UNL     1      -2.580 -13.340   7.224  1.00  0.00     0.049 A 
ATOM     63  H   UNL     1      -1.109 -12.503   5.966  1.00  0.00     0.167 HD
ATOM     64  C   UNL     1      -0.833 -12.530   8.781  1.00  0.00     0.074 A 
ATOM     65  C   UNL     1      -0.302 -12.296  10.108  1.00  0.00     0.031 C 
ATOM     66  C   UNL     1      -2.009 -13.159   8.533  1.00  0.00     0.034 A 
BRANCH  53  67
ATOM     67  C   UNL     1      -3.448 -13.499   2.534  1.00  0.00     0.023 A 
ATOM     68  C   UNL     1      -3.156 -14.644   1.763  1.00  0.00     0.012 A 
ATOM     69  C   UNL     1      -4.677 -12.838   2.349  1.00  0.00     0.148 A 
ATOM     70  C   UNL     1      -4.055 -15.104   0.802  1.00  0.00     0.002 A 
ATOM     71  C   UNL     1      -5.588 -13.328   1.419  1.00  0.00     0.091 A 
ATOM     72  F   UNL     1      -4.930 -11.742   3.078  1.00  0.00    -0.205 F 
ATOM     73  C   UNL     1      -5.274 -14.453   0.638  1.00  0.00     0.022 A 
BRANCH  71  74
ATOM     74  S   UNL     1      -7.218 -12.612   1.181  1.00  0.00     0.127 S 
ATOM     75  O   UNL     1      -7.098 -12.047  -0.162  1.00  0.00    -0.237 OA
ATOM     76  O   UNL     1      -8.086 -13.786   1.274  1.00  0.00    -0.237 OA
ATOM     77  O   UNL     1      -7.391 -11.639   2.251  1.00  0.00    -0.744 OA
ENDBRANCH  71  74
ENDBRANCH  53  67
BRANCH  54  78
ATOM     78  C   UNL     1       3.267 -10.248   9.177  1.00  0.00     0.023 A 
ATOM     79  C   UNL     1       3.955 -11.147  10.015  1.00  0.00     0.012 A 
ATOM     80  C   UNL     1       3.514  -8.868   9.304  1.00  0.00     0.148 A 
ATOM     81  C   UNL     1       4.836 -10.680  10.991  1.00  0.00     0.002 A 
ATOM     82  C   UNL     1       4.436  -8.412  10.240  1.00  0.00     0.091 A 
ATOM     83  F   UNL     1       2.841  -8.024   8.508  1.00  0.00    -0.205 F 
ATOM     84  C   UNL     1       5.083  -9.314  11.098  1.00  0.00     0.022 A 
BRANCH  82  85
ATOM     85  S   UNL     1       4.909  -6.683  10.347  1.00  0.00     0.127 S 
ATOM     86  O   UNL     1       4.176  -6.244  11.531  1.00  0.00    -0.237 OA
ATOM     87  O   UNL     1       6.360  -6.772  10.518  1.00  0.00    -0.237 OA
ATOM     88  O   UNL     1       4.495  -6.090   9.082  1.00  0.00    -0.744 OA
ENDBRANCH  82  85
ENDBRANCH  54  78
BRANCH  66  89
ATOM     89  C   UNL     1      -2.783 -13.680   9.715  1.00  0.00     0.023 A 
ATOM     90  C   UNL     1      -3.432 -12.777  10.581  1.00  0.00     0.012 A 
ATOM     91  C   UNL     1      -2.911 -15.065   9.937  1.00  0.00     0.148 A 
ATOM     92  C   UNL     1      -4.160 -13.244  11.675  1.00  0.00     0.002 A 
ATOM     93  C   UNL     1      -3.680 -15.524  11.001  1.00  0.00     0.091 A 
ATOM     94  F   UNL     1      -2.270 -15.909   9.116  1.00  0.00    -0.205 F 
ATOM     95  C   UNL     1      -4.293 -14.616  11.878  1.00  0.00     0.022 A 
BRANCH  93  96
ATOM     96  S   UNL     1      -3.979 -17.273  11.275  1.00  0.00     0.127 S 
ATOM     97  O   UNL     1      -3.051 -17.568  12.366  1.00  0.00    -0.237 OA
ATOM     98  O   UNL     1      -5.393 -17.294  11.656  1.00  0.00    -0.237 OA
ATOM     99  O   UNL     1      -3.691 -17.928  10.006  1.00  0.00    -0.744 OA
ENDBRANCH  93  96
ENDBRANCH  66  89
ENDBRANCH  40  41
ENDBRANCH  32  35
ENDBRANCH  30  31
ENDBRANCH  29  30
ENDBRANCH  28  29
ENDBRANCH   1  28
TORSDOF 20
