REMARK SMILES C[C@@H]([NH2+]C[C@H]1CCC[C@@H]1C(=O)NCCCCCCNC(=O)c1ccc(-c2c3nc(c(-c4cccc(S(=O)(=O)[O-])c4F)c4ccc([nH]4)c(-c4cccc(S(=O)(=O)[O-])c4F)c4nc(c(-c5cccc(S(=O)(=O)[O-])c5F)c5ccc2[nH]5)C=C4)C=C3)cc1)c1cc(F)ccc1O
REMARK SMILES IDX 14 1 13 2 12 3 10 4 11 5 9 7 5 8 6 9 7 10 8 11 4 12 3 13
REMARK SMILES IDX 2 16 1 17 85 18 86 19 91 20 87 21 90 22 88 23 89 24 92 25
REMARK SMILES IDX 15 27 16 28 17 29 18 30 19 31 20 32 21 34 22 35 23 36 84 37
REMARK SMILES IDX 24 38 83 39 25 40 26 41 27 42 77 43 28 44 82 45 76 46 78 47
REMARK SMILES IDX 29 48 81 49 75 50 74 51 30 53 62 54 42 55 61 56 43 57 46 58
REMARK SMILES IDX 60 59 79 60 44 61 45 62 59 64 80 65 47 66 31 67 32 68 40 69
REMARK SMILES IDX 33 70 35 71 41 72 34 73 36 74 37 75 38 76 39 77 63 78 64 79
REMARK SMILES IDX 72 80 65 81 67 82 73 83 66 84 68 85 69 86 70 87 71 88 48 89
REMARK SMILES IDX 49 90 57 91 50 92 52 93 58 94 51 95 53 96 54 97 55 98 56 99
REMARK H PARENT 12 6 3 14 3 15 92 26 19 33 78 52 46 63
REMARK Flexibility Score: inf
ROOT
ATOM      1  C   UNL     1       5.146   0.837   0.808  1.00  0.00     0.021 C 
ENDROOT
BRANCH   1   2
ATOM      2  C   UNL     1       4.944   2.219   1.432  1.00  0.00     0.116 C 
BRANCH   2   3
ATOM      3  N   UNL     1       4.548   3.188   0.423  1.00  0.00    -0.356 N 
ATOM      4  C   UNL     1       3.403   3.914   0.307  1.00  0.00     0.223 C 
ATOM      5  O   UNL     1       3.243   4.589  -0.711  1.00  0.00    -0.275 OA
ATOM      6  H   UNL     1       5.213   3.344  -0.286  1.00  0.00     0.163 HD
BRANCH   4   7
ATOM      7  C   UNL     1       2.405   3.910   1.460  1.00  0.00     0.087 C 
ATOM      8  C   UNL     1       0.994   4.316   1.001  1.00  0.00     0.057 C 
ATOM      9  C   UNL     1       1.038   5.848   1.159  1.00  0.00     0.010 C 
ATOM     10  C   UNL     1       1.872   6.103   2.408  1.00  0.00     0.001 C 
ATOM     11  C   UNL     1       2.836   4.929   2.520  1.00  0.00     0.014 C 
BRANCH   8  12
ATOM     12  C   UNL     1      -0.180   3.741   1.823  1.00  0.00     0.265 C 
BRANCH  12  13
ATOM     13  N   UNL     1      -0.553   2.325   1.734  1.00  0.00    -0.340 N 
ATOM     14  H   UNL     1      -1.235   2.164   2.475  1.00  0.00     0.346 HD
ATOM     15  H   UNL     1      -0.844   2.245   0.760  1.00  0.00     0.346 HD
BRANCH  13  16
ATOM     16  C   UNL     1       0.444   1.235   1.847  1.00  0.00     0.214 C 
ATOM     17  C   UNL     1      -0.220   0.032   1.133  1.00  0.00     0.081 C 
BRANCH  16  18
ATOM     18  C   UNL     1       0.958   0.921   3.268  1.00  0.00     0.054 A 
ATOM     19  C   UNL     1       1.132   1.939   4.226  1.00  0.00     0.053 A 
ATOM     20  C   UNL     1       1.411  -0.347   3.679  1.00  0.00     0.124 A 
ATOM     21  C   UNL     1       1.714   1.713   5.475  1.00  0.00     0.123 A 
ATOM     22  C   UNL     1       1.993  -0.584   4.936  1.00  0.00     0.050 A 
ATOM     23  F   UNL     1       1.869   2.743   6.317  1.00  0.00    -0.207 F 
ATOM     24  C   UNL     1       2.152   0.457   5.840  1.00  0.00     0.043 A 
BRANCH  20  25
ATOM     25  O   UNL     1       1.327  -1.437   2.864  1.00  0.00    -0.507 OA
ATOM     26  H   UNL     1       0.951  -1.356   2.010  1.00  0.00     0.293 HD
ENDBRANCH  20  25
ENDBRANCH  16  18
ENDBRANCH  13  16
ENDBRANCH  12  13
ENDBRANCH   8  12
ENDBRANCH   4   7
ENDBRANCH   2   3
ENDBRANCH   1   2
BRANCH   1  27
ATOM     27  C   UNL     1       6.259   0.776  -0.247  1.00  0.00     0.002 C 
BRANCH  27  28
ATOM     28  C   UNL     1       7.632   1.262   0.228  1.00  0.00     0.002 C 
BRANCH  28  29
ATOM     29  C   UNL     1       8.199   0.520   1.442  1.00  0.00     0.021 C 
BRANCH  29  30
ATOM     30  C   UNL     1       8.370  -0.985   1.256  1.00  0.00     0.116 C 
BRANCH  30  31
ATOM     31  N   UNL     1       9.273  -1.307   0.162  1.00  0.00    -0.352 N 
ATOM     32  C   UNL     1      10.344  -2.165   0.130  1.00  0.00     0.251 C 
ATOM     33  H   UNL     1       9.088  -0.838  -0.683  1.00  0.00     0.163 HD
ATOM     34  O   UNL     1      11.088  -2.167  -0.848  1.00  0.00    -0.269 OA
BRANCH  32  35
ATOM     35  C   UNL     1      10.619  -3.070   1.269  1.00  0.00     0.039 A 
ATOM     36  C   UNL     1      11.943  -3.235   1.684  1.00  0.00     0.014 A 
ATOM     37  C   UNL     1       9.594  -3.773   1.909  1.00  0.00     0.014 A 
ATOM     38  C   UNL     1      12.232  -4.061   2.773  1.00  0.00     0.010 A 
ATOM     39  C   UNL     1       9.876  -4.544   3.037  1.00  0.00     0.010 A 
ATOM     40  C   UNL     1      11.198  -4.699   3.479  1.00  0.00    -0.014 A 
BRANCH  40  41
ATOM     41  C   UNL     1      11.494  -5.492   4.701  1.00  0.00     0.031 A 
ATOM     42  C   UNL     1      11.232  -6.973   4.750  1.00  0.00     0.074 A 
ATOM     43  C   UNL     1      11.951  -4.857   5.799  1.00  0.00     0.049 A 
ATOM     44  N   UNL     1      11.462  -7.816   5.723  1.00  0.00    -0.248 NA
ATOM     45  C   UNL     1      10.609  -7.583   3.565  1.00  0.00     0.031 C 
ATOM     46  C   UNL     1      12.154  -3.410   5.914  1.00  0.00     0.029 A 
ATOM     47  N   UNL     1      12.312  -5.341   7.031  1.00  0.00    -0.354 N 
ATOM     48  C   UNL     1      10.992  -9.048   5.282  1.00  0.00     0.074 A 
ATOM     49  C   UNL     1      10.431  -8.835   3.966  1.00  0.00     0.031 C 
ATOM     50  C   UNL     1      12.615  -3.127   7.142  1.00  0.00     0.029 A 
ATOM     51  C   UNL     1      12.724  -4.364   7.908  1.00  0.00     0.049 A 
ATOM     52  H   UNL     1      12.279  -6.296   7.266  1.00  0.00     0.167 HD
ATOM     53  C   UNL     1      11.051 -10.252   5.902  1.00  0.00     0.034 A 
ATOM     54  C   UNL     1      13.149  -4.454   9.183  1.00  0.00     0.034 A 
ATOM     55  C   UNL     1      11.645 -10.469   7.195  1.00  0.00     0.049 A 
ATOM     56  C   UNL     1      13.265  -5.810   9.822  1.00  0.00     0.074 A 
ATOM     57  C   UNL     1      11.838 -11.665   7.864  1.00  0.00     0.029 A 
ATOM     58  N   UNL     1      12.135  -9.468   8.020  1.00  0.00    -0.354 N 
ATOM     59  N   UNL     1      12.986  -6.987   9.316  1.00  0.00    -0.248 NA
ATOM     60  C   UNL     1      13.797  -5.855  11.191  1.00  0.00     0.031 C 
ATOM     61  C   UNL     1      12.426 -11.385   9.103  1.00  0.00     0.029 A 
ATOM     62  C   UNL     1      12.620 -10.016   9.196  1.00  0.00     0.049 A 
ATOM     63  H   UNL     1      12.137  -8.508   7.802  1.00  0.00     0.167 HD
ATOM     64  C   UNL     1      13.332  -7.913  10.294  1.00  0.00     0.074 A 
ATOM     65  C   UNL     1      13.874  -7.160  11.407  1.00  0.00     0.031 C 
ATOM     66  C   UNL     1      13.194  -9.262  10.281  1.00  0.00     0.034 A 
BRANCH  53  67
ATOM     67  C   UNL     1      10.512 -11.448   5.159  1.00  0.00     0.023 A 
ATOM     68  C   UNL     1      11.223 -11.953   4.051  1.00  0.00     0.012 A 
ATOM     69  C   UNL     1       9.346 -12.111   5.591  1.00  0.00     0.148 A 
ATOM     70  C   UNL     1      10.768 -13.078   3.365  1.00  0.00     0.002 A 
ATOM     71  C   UNL     1       8.922 -13.258   4.928  1.00  0.00     0.091 A 
ATOM     72  F   UNL     1       8.671 -11.606   6.633  1.00  0.00    -0.205 F 
ATOM     73  C   UNL     1       9.624 -13.736   3.810  1.00  0.00     0.022 A 
BRANCH  71  74
ATOM     74  S   UNL     1       7.505 -14.223   5.468  1.00  0.00     0.127 S 
ATOM     75  O   UNL     1       6.530 -13.926   4.420  1.00  0.00    -0.237 OA
ATOM     76  O   UNL     1       8.032 -15.587   5.442  1.00  0.00    -0.237 OA
ATOM     77  O   UNL     1       7.166 -13.728   6.796  1.00  0.00    -0.744 OA
ENDBRANCH  71  74
ENDBRANCH  53  67
BRANCH  54  78
ATOM     78  C   UNL     1      13.575  -3.225   9.911  1.00  0.00     0.023 A 
ATOM     79  C   UNL     1      14.940  -3.028  10.196  1.00  0.00     0.012 A 
ATOM     80  C   UNL     1      12.644  -2.240  10.292  1.00  0.00     0.148 A 
ATOM     81  C   UNL     1      15.367  -1.888  10.877  1.00  0.00     0.002 A 
ATOM     82  C   UNL     1      13.083  -1.080  10.919  1.00  0.00     0.091 A 
ATOM     83  F   UNL     1      11.348  -2.453  10.024  1.00  0.00    -0.205 F 
ATOM     84  C   UNL     1      14.441  -0.909  11.228  1.00  0.00     0.022 A 
BRANCH  82  85
ATOM     85  S   UNL     1      11.979   0.290  11.280  1.00  0.00     0.127 S 
ATOM     86  O   UNL     1      11.842   0.191  12.730  1.00  0.00    -0.237 OA
ATOM     87  O   UNL     1      12.755   1.439  10.810  1.00  0.00    -0.237 OA
ATOM     88  O   UNL     1      10.771   0.031  10.508  1.00  0.00    -0.744 OA
ENDBRANCH  82  85
ENDBRANCH  54  78
BRANCH  66  89
ATOM     89  C   UNL     1      13.648 -10.014  11.506  1.00  0.00     0.023 A 
ATOM     90  C   UNL     1      12.907  -9.914  12.701  1.00  0.00     0.012 A 
ATOM     91  C   UNL     1      14.783 -10.848  11.467  1.00  0.00     0.148 A 
ATOM     92  C   UNL     1      13.312 -10.594  13.848  1.00  0.00     0.002 A 
ATOM     93  C   UNL     1      15.153 -11.562  12.601  1.00  0.00     0.091 A 
ATOM     94  F   UNL     1      15.490 -10.917  10.330  1.00  0.00    -0.205 F 
ATOM     95  C   UNL     1      14.429 -11.425  13.796  1.00  0.00     0.022 A 
BRANCH  93  96
ATOM     96  S   UNL     1      16.523 -12.725  12.593  1.00  0.00     0.127 S 
ATOM     97  O   UNL     1      17.576 -11.951  13.247  1.00  0.00    -0.237 OA
ATOM     98  O   UNL     1      15.998 -13.835  13.390  1.00  0.00    -0.237 OA
ATOM     99  O   UNL     1      16.755 -13.051  11.192  1.00  0.00    -0.744 OA
ENDBRANCH  93  96
ENDBRANCH  66  89
ENDBRANCH  40  41
ENDBRANCH  32  35
ENDBRANCH  30  31
ENDBRANCH  29  30
ENDBRANCH  28  29
ENDBRANCH  27  28
ENDBRANCH   1  27
TORSDOF 21
