REMARK SMILES CS(=O)(=O)c1ccc(C2=NN(c3ccc(C(=O)NCCCCCCNC(=O)c4ccc(-c5c6nc(c(-c7cccc(S(=O)(=O)[O-])c7F)c7ccc([nH]7)c(-c7cccc(S(=O)(=O)[O-])c7F)c7nc(c(-c8cccc(S(=O)(=O)[O-])c8F)c8ccc5[nH]8)C=C7)C=C6)cc4)cc3)[C@H](c3ccc(F)cc3)C2)cc1
REMARK SMILES IDX 21 1 20 2 19 3 18 4 16 5 17 6 15 8 12 9 13 10 92 11 14 12
REMARK SMILES IDX 91 13 11 14 9 15 10 16 101 17 93 18 8 19 5 20 6 21 103 22
REMARK SMILES IDX 7 23 102 24 2 25 1 26 3 27 4 28 94 29 95 30 100 31 96 32
REMARK SMILES IDX 99 33 97 34 98 35 22 36 23 37 24 38 25 39 26 40 27 42 28 43
REMARK SMILES IDX 29 44 90 45 30 46 89 47 31 48 32 49 33 50 83 51 34 52 88 53
REMARK SMILES IDX 82 54 84 55 35 56 87 57 81 58 80 59 36 61 68 62 48 63 67 64
REMARK SMILES IDX 49 65 52 66 66 67 85 68 50 69 51 70 65 72 86 73 53 74 37 75
REMARK SMILES IDX 38 76 46 77 39 78 41 79 47 80 40 81 42 82 43 83 44 84 45 85
REMARK SMILES IDX 69 86 70 87 78 88 71 89 73 90 79 91 72 92 74 93 75 94 76 95
REMARK SMILES IDX 77 96 54 97 55 98 63 99 56 100 58 101 64 102 57 103 59 104
REMARK SMILES IDX 60 105 61 106 62 107
REMARK H PARENT 18 7 25 41 84 60 52 71
REMARK Flexibility Score: inf
ROOT
ATOM      1  C   UNL     1       8.455   2.368  13.861  1.00  0.00     0.002 C 
ENDROOT
BRANCH   1   2
ATOM      2  C   UNL     1       7.301   2.499  12.860  1.00  0.00     0.021 C 
BRANCH   2   3
ATOM      3  C   UNL     1       7.045   3.943  12.422  1.00  0.00     0.116 C 
BRANCH   3   4
ATOM      4  N   UNL     1       8.035   4.349  11.440  1.00  0.00    -0.352 N 
ATOM      5  C   UNL     1       7.951   4.502  10.079  1.00  0.00     0.251 C 
ATOM      6  O   UNL     1       8.946   4.894   9.471  1.00  0.00    -0.269 OA
ATOM      7  H   UNL     1       8.922   4.550  11.817  1.00  0.00     0.163 HD
BRANCH   5   8
ATOM      8  C   UNL     1       6.681   4.282   9.338  1.00  0.00     0.039 A 
ATOM      9  C   UNL     1       4.234   4.091   7.955  1.00  0.00     0.060 A 
ATOM     10  C   UNL     1       5.202   5.019   7.558  1.00  0.00     0.029 A 
ATOM     11  C   UNL     1       4.540   3.211   8.995  1.00  0.00     0.029 A 
ATOM     12  C   UNL     1       6.416   5.119   8.246  1.00  0.00     0.016 A 
ATOM     13  C   UNL     1       5.762   3.285   9.664  1.00  0.00     0.016 A 
BRANCH   9  14
ATOM     14  N   UNL     1       3.001   3.993   7.331  1.00  0.00    -0.257 N 
ATOM     15  C   UNL     1       1.869   3.824   5.544  1.00  0.00     0.071 C 
ATOM     16  N   UNL     1       2.967   3.432   6.101  1.00  0.00    -0.176 NA
ATOM     17  C   UNL     1       1.036   4.794   6.330  1.00  0.00     0.091 C 
ATOM     18  C   UNL     1       1.879   4.901   7.617  1.00  0.00     0.144 C 
BRANCH  15  19
ATOM     19  C   UNL     1       1.458   3.314   4.231  1.00  0.00    -0.002 A 
ATOM     20  C   UNL     1       0.787   2.242   1.759  1.00  0.00     0.067 A 
ATOM     21  C   UNL     1       1.202   1.390   2.783  1.00  0.00     0.021 A 
ATOM     22  C   UNL     1       0.715   3.628   1.965  1.00  0.00     0.021 A 
ATOM     23  C   UNL     1       1.550   1.933   4.019  1.00  0.00     0.011 A 
ATOM     24  C   UNL     1       1.041   4.168   3.212  1.00  0.00     0.011 A 
BRANCH  20  25
ATOM     25  S   UNL     1       0.360   1.620   0.150  1.00  0.00     0.175 S 
ATOM     26  C   UNL     1       1.056  -0.003   0.012  1.00  0.00     0.163 C 
ATOM     27  O   UNL     1       1.043   2.460  -0.813  1.00  0.00    -0.224 OA
ATOM     28  O   UNL     1      -1.086   1.488   0.135  1.00  0.00    -0.224 OA
ENDBRANCH  20  25
ENDBRANCH  15  19
BRANCH  18  29
ATOM     29  C   UNL     1       1.213   4.554   8.947  1.00  0.00    -0.023 A 
ATOM     30  C   UNL     1       0.009   3.838   9.066  1.00  0.00     0.009 A 
ATOM     31  C   UNL     1       1.859   4.947  10.142  1.00  0.00     0.009 A 
ATOM     32  C   UNL     1      -0.524   3.530  10.325  1.00  0.00     0.039 A 
ATOM     33  C   UNL     1       1.342   4.614  11.396  1.00  0.00     0.039 A 
ATOM     34  C   UNL     1       0.152   3.910  11.475  1.00  0.00     0.123 A 
ATOM     35  F   UNL     1      -0.346   3.585  12.673  1.00  0.00    -0.207 F 
ENDBRANCH  18  29
ENDBRANCH   9  14
ENDBRANCH   5   8
ENDBRANCH   3   4
ENDBRANCH   2   3
ENDBRANCH   1   2
BRANCH   1  36
ATOM     36  C   UNL     1       8.226   3.087  15.195  1.00  0.00     0.002 C 
BRANCH  36  37
ATOM     37  C   UNL     1       6.945   2.682  15.930  1.00  0.00     0.021 C 
BRANCH  37  38
ATOM     38  C   UNL     1       6.883   1.205  16.306  1.00  0.00     0.116 C 
BRANCH  38  39
ATOM     39  N   UNL     1       7.936   0.851  17.247  1.00  0.00    -0.352 N 
ATOM     40  C   UNL     1       7.827   0.295  18.497  1.00  0.00     0.251 C 
ATOM     41  H   UNL     1       8.854   1.035  16.945  1.00  0.00     0.163 HD
ATOM     42  O   UNL     1       8.793   0.289  19.254  1.00  0.00    -0.269 OA
BRANCH  40  43
ATOM     43  C   UNL     1       6.540  -0.289  18.928  1.00  0.00     0.039 A 
ATOM     44  C   UNL     1       6.070  -0.026  20.216  1.00  0.00     0.014 A 
ATOM     45  C   UNL     1       5.804  -1.104  18.062  1.00  0.00     0.014 A 
ATOM     46  C   UNL     1       4.837  -0.543  20.620  1.00  0.00     0.010 A 
ATOM     47  C   UNL     1       4.543  -1.552  18.438  1.00  0.00     0.010 A 
ATOM     48  C   UNL     1       4.051  -1.288  19.725  1.00  0.00    -0.014 A 
BRANCH  48  49
ATOM     49  C   UNL     1       2.714  -1.800  20.117  1.00  0.00     0.031 A 
ATOM     50  C   UNL     1       2.450  -3.282  20.151  1.00  0.00     0.074 A 
ATOM     51  C   UNL     1       1.714  -0.930  20.362  1.00  0.00     0.049 A 
ATOM     52  N   UNL     1       1.337  -3.915  20.416  1.00  0.00    -0.248 NA
ATOM     53  C   UNL     1       3.577  -4.170  19.816  1.00  0.00     0.031 C 
ATOM     54  C   UNL     1       1.825   0.528  20.285  1.00  0.00     0.029 A 
ATOM     55  N   UNL     1       0.402  -1.146  20.700  1.00  0.00    -0.354 N 
ATOM     56  C   UNL     1       1.617  -5.265  20.245  1.00  0.00     0.074 A 
ATOM     57  C   UNL     1       2.995  -5.360  19.819  1.00  0.00     0.031 C 
ATOM     58  C   UNL     1       0.633   1.076  20.572  1.00  0.00     0.029 A 
ATOM     59  C   UNL     1      -0.334   0.011  20.820  1.00  0.00     0.049 A 
ATOM     60  H   UNL     1       0.022  -2.043  20.842  1.00  0.00     0.167 HD
ATOM     61  C   UNL     1       0.809  -6.333  20.450  1.00  0.00     0.034 A 
ATOM     62  C   UNL     1      -1.641   0.193  21.088  1.00  0.00     0.034 A 
ATOM     63  C   UNL     1      -0.550  -6.235  20.911  1.00  0.00     0.049 A 
ATOM     64  C   UNL     1      -2.508  -1.010  21.346  1.00  0.00     0.074 A 
ATOM     65  C   UNL     1      -1.423  -7.257  21.235  1.00  0.00     0.029 A 
ATOM     66  N   UNL     1      -1.238  -5.046  21.101  1.00  0.00    -0.354 N 
ATOM     67  N   UNL     1      -2.183  -2.279  21.333  1.00  0.00    -0.248 NA
ATOM     68  C   UNL     1      -3.914  -0.754  21.691  1.00  0.00     0.031 C 
ATOM     69  C   UNL     1      -2.650  -6.688  21.590  1.00  0.00     0.029 A 
ATOM     70  C   UNL     1      -2.529  -5.309  21.526  1.00  0.00     0.049 A 
ATOM     71  H   UNL     1      -0.863  -4.147  20.956  1.00  0.00     0.167 HD
ATOM     72  C   UNL     1      -3.330  -2.971  21.707  1.00  0.00     0.074 A 
ATOM     73  C   UNL     1      -4.353  -1.976  21.958  1.00  0.00     0.031 C 
ATOM     74  C   UNL     1      -3.522  -4.308  21.821  1.00  0.00     0.034 A 
BRANCH  61  75
ATOM     75  C   UNL     1       1.386  -7.706  20.219  1.00  0.00     0.023 A 
ATOM     76  C   UNL     1       2.360  -8.213  21.104  1.00  0.00     0.012 A 
ATOM     77  C   UNL     1       0.923  -8.517  19.164  1.00  0.00     0.148 A 
ATOM     78  C   UNL     1       2.893  -9.488  20.920  1.00  0.00     0.002 A 
ATOM     79  C   UNL     1       1.423  -9.806  19.017  1.00  0.00     0.091 A 
ATOM     80  F   UNL     1       0.011  -8.012  18.321  1.00  0.00    -0.205 F 
ATOM     81  C   UNL     1       2.416 -10.288  19.885  1.00  0.00     0.022 A 
BRANCH  79  82
ATOM     82  S   UNL     1       0.816 -10.944  17.767  1.00  0.00     0.127 S 
ATOM     83  O   UNL     1       1.967 -11.037  16.870  1.00  0.00    -0.237 OA
ATOM     84  O   UNL     1       0.557 -12.151  18.552  1.00  0.00    -0.237 OA
ATOM     85  O   UNL     1      -0.370 -10.322  17.197  1.00  0.00    -0.744 OA
ENDBRANCH  79  82
ENDBRANCH  61  75
BRANCH  62  86
ATOM     86  C   UNL     1      -2.197   1.573  21.186  1.00  0.00     0.023 A 
ATOM     87  C   UNL     1      -2.602   2.070  22.440  1.00  0.00     0.012 A 
ATOM     88  C   UNL     1      -2.307   2.400  20.051  1.00  0.00     0.148 A 
ATOM     89  C   UNL     1      -3.140   3.352  22.557  1.00  0.00     0.002 A 
ATOM     90  C   UNL     1      -2.790   3.696  20.184  1.00  0.00     0.091 A 
ATOM     91  F   UNL     1      -1.924   1.905  18.866  1.00  0.00    -0.205 F 
ATOM     92  C   UNL     1      -3.225   4.168  21.433  1.00  0.00     0.022 A 
BRANCH  90  93
ATOM     93  S   UNL     1      -2.812   4.862  18.818  1.00  0.00     0.127 S 
ATOM     94  O   UNL     1      -4.244   5.003  18.568  1.00  0.00    -0.237 OA
ATOM     95  O   UNL     1      -2.171   6.036  19.414  1.00  0.00    -0.237 OA
ATOM     96  O   UNL     1      -2.041   4.234  17.754  1.00  0.00    -0.744 OA
ENDBRANCH  90  93
ENDBRANCH  62  86
BRANCH  74  97
ATOM     97  C   UNL     1      -4.875  -4.784  22.282  1.00  0.00     0.023 A 
ATOM     98  C   UNL     1      -5.988  -4.688  21.423  1.00  0.00     0.012 A 
ATOM     99  C   UNL     1      -5.025  -5.396  23.542  1.00  0.00     0.148 A 
ATOM    100  C   UNL     1      -7.237  -5.160  21.826  1.00  0.00     0.002 A 
ATOM    101  C   UNL     1      -6.259  -5.913  23.916  1.00  0.00     0.091 A 
ATOM    102  F   UNL     1      -3.958  -5.462  24.352  1.00  0.00    -0.205 F 
ATOM    103  C   UNL     1      -7.369  -5.783  23.066  1.00  0.00     0.022 A 
BRANCH 101 104
ATOM    104  S   UNL     1      -6.501  -6.819  25.447  1.00  0.00     0.127 S 
ATOM    105  O   UNL     1      -7.299  -5.876  26.229  1.00  0.00    -0.237 OA
ATOM    106  O   UNL     1      -7.229  -8.005  24.993  1.00  0.00    -0.237 OA
ATOM    107  O   UNL     1      -5.168  -7.091  25.969  1.00  0.00    -0.744 OA
ENDBRANCH 101 104
ENDBRANCH  74  97
ENDBRANCH  48  49
ENDBRANCH  40  43
ENDBRANCH  38  39
ENDBRANCH  37  38
ENDBRANCH  36  37
ENDBRANCH   1  36
TORSDOF 20
