REMARK SMILES O=C(COc1ncc(C(F)(F)F)cc1Cl)NCCCCCCNC(=O)c1ccc(-c2c3nc(c(-c4cccc(S(=O)(=O)[O-])c4F)c4ccc([nH]4)c(-c4cccc(S(=O)(=O)[O-])c4F)c4nc(c(-c5cccc(S(=O)(=O)[O-])c5F)c5ccc2[nH]5)C=C4)C=C3)cc1
REMARK SMILES IDX 19 1 18 2 17 3 16 4 1 5 2 6 3 8 4 9 5 10 6 11 14 12 7 13
REMARK SMILES IDX 13 14 15 15 8 16 9 17 10 18 11 19 12 20 20 21 21 22 22 23
REMARK SMILES IDX 23 24 24 25 25 27 26 28 27 29 88 30 28 31 87 32 29 33 30 34
REMARK SMILES IDX 31 35 81 36 32 37 86 38 80 39 82 40 33 41 85 42 79 43 78 44
REMARK SMILES IDX 34 46 66 47 46 48 65 49 47 50 50 51 64 52 83 53 48 54 49 55
REMARK SMILES IDX 63 57 84 58 51 59 35 60 36 61 44 62 37 63 39 64 45 65 38 66
REMARK SMILES IDX 40 67 41 68 42 69 43 70 67 71 68 72 76 73 69 74 71 75 77 76
REMARK SMILES IDX 70 77 72 78 73 79 74 80 75 81 52 82 53 83 61 84 54 85 56 86
REMARK SMILES IDX 62 87 55 88 57 89 58 90 59 91 60 92
REMARK H PARENT 16 7 23 26 82 45 50 56
REMARK Flexibility Score: inf
ROOT
ATOM      1  C   UNL     1       4.365  -3.446   1.732  1.00  0.00     0.002 C 
ENDROOT
BRANCH   1   2
ATOM      2  C   UNL     1       2.883  -3.435   1.342  1.00  0.00     0.021 C 
BRANCH   2   3
ATOM      3  C   UNL     1       2.202  -2.081   1.466  1.00  0.00     0.116 C 
BRANCH   3   4
ATOM      4  N   UNL     1       2.865  -1.042   0.709  1.00  0.00    -0.353 N 
ATOM      5  O   UNL     1       1.282  -0.777  -0.950  1.00  0.00    -0.271 OA
ATOM      6  C   UNL     1       2.264  -0.371  -0.337  1.00  0.00     0.258 C 
ATOM      7  H   UNL     1       3.788  -0.802   0.952  1.00  0.00     0.163 HD
BRANCH   6   8
ATOM      8  C   UNL     1       2.932   0.969  -0.652  1.00  0.00     0.331 C 
BRANCH   8   9
ATOM      9  O   UNL     1       3.628   1.445   0.499  1.00  0.00    -0.467 OA
BRANCH   9  10
ATOM     10  C   UNL     1       3.054   2.543   1.081  1.00  0.00     0.233 A 
ATOM     11  N   UNL     1       3.793   3.668   0.932  1.00  0.00    -0.220 NA
ATOM     12  C   UNL     1       1.962   2.469   1.947  1.00  0.00     0.103 A 
ATOM     13  C   UNL     1       3.458   4.740   1.690  1.00  0.00     0.128 A 
ATOM     14  C   UNL     1       1.643   3.592   2.708  1.00  0.00     0.041 A 
ATOM     15  Cl  UNL     1       0.993   1.078   2.205  1.00  0.00    -0.078 Cl
ATOM     16  C   UNL     1       2.417   4.747   2.607  1.00  0.00     0.076 A 
BRANCH  16  17
ATOM     17  C   UNL     1       2.170   5.944   3.469  1.00  0.00     0.417 C 
ATOM     18  F   UNL     1       3.276   6.318   4.167  1.00  0.00    -0.166 F 
ATOM     19  F   UNL     1       1.793   7.035   2.749  1.00  0.00    -0.166 F 
ATOM     20  F   UNL     1       1.192   5.750   4.396  1.00  0.00    -0.166 F 
ENDBRANCH  16  17
ENDBRANCH   9  10
ENDBRANCH   8   9
ENDBRANCH   6   8
ENDBRANCH   3   4
ENDBRANCH   2   3
ENDBRANCH   1   2
BRANCH   1  21
ATOM     21  C   UNL     1       4.690  -2.958   3.148  1.00  0.00     0.002 C 
BRANCH  21  22
ATOM     22  C   UNL     1       3.975  -3.693   4.283  1.00  0.00     0.021 C 
BRANCH  22  23
ATOM     23  C   UNL     1       4.139  -5.209   4.281  1.00  0.00     0.116 C 
BRANCH  23  24
ATOM     24  N   UNL     1       5.527  -5.623   4.413  1.00  0.00    -0.352 N 
ATOM     25  C   UNL     1       6.068  -6.588   5.226  1.00  0.00     0.251 C 
ATOM     26  H   UNL     1       6.168  -5.145   3.840  1.00  0.00     0.163 HD
ATOM     27  O   UNL     1       7.291  -6.696   5.315  1.00  0.00    -0.269 OA
BRANCH  25  28
ATOM     28  C   UNL     1       5.186  -7.481   6.010  1.00  0.00     0.039 A 
ATOM     29  C   UNL     1       5.516  -7.762   7.338  1.00  0.00     0.014 A 
ATOM     30  C   UNL     1       4.046  -8.052   5.438  1.00  0.00     0.014 A 
ATOM     31  C   UNL     1       4.681  -8.580   8.103  1.00  0.00     0.010 A 
ATOM     32  C   UNL     1       3.173  -8.800   6.225  1.00  0.00     0.010 A 
ATOM     33  C   UNL     1       3.489  -9.089   7.560  1.00  0.00    -0.014 A 
BRANCH  33  34
ATOM     34  C   UNL     1       2.582  -9.949   8.364  1.00  0.00     0.031 A 
ATOM     35  C   UNL     1       2.313 -11.369   7.935  1.00  0.00     0.074 A 
ATOM     36  C   UNL     1       1.954  -9.441   9.444  1.00  0.00     0.049 A 
ATOM     37  N   UNL     1       1.510 -12.255   8.467  1.00  0.00    -0.248 NA
ATOM     38  C   UNL     1       3.019 -11.850   6.734  1.00  0.00     0.031 C 
ATOM     39  C   UNL     1       2.072  -8.062   9.923  1.00  0.00     0.029 A 
ATOM     40  N   UNL     1       1.071 -10.021  10.322  1.00  0.00    -0.354 N 
ATOM     41  C   UNL     1       1.598 -13.383   7.659  1.00  0.00     0.074 A 
ATOM     42  C   UNL     1       2.492 -13.055   6.571  1.00  0.00     0.031 C 
ATOM     43  C   UNL     1       1.290  -7.902  11.004  1.00  0.00     0.029 A 
ATOM     44  C   UNL     1       0.593  -9.154  11.278  1.00  0.00     0.049 A 
ATOM     45  H   UNL     1       0.803 -10.967  10.271  1.00  0.00     0.167 HD
ATOM     46  C   UNL     1       1.021 -14.597   7.826  1.00  0.00     0.034 A 
ATOM     47  C   UNL     1      -0.313  -9.345  12.258  1.00  0.00     0.034 A 
ATOM     48  C   UNL     1       0.158 -14.934   8.925  1.00  0.00     0.049 A 
ATOM     49  C   UNL     1      -0.919 -10.712  12.435  1.00  0.00     0.074 A 
ATOM     50  C   UNL     1      -0.443 -16.148   9.208  1.00  0.00     0.029 A 
ATOM     51  N   UNL     1      -0.223 -14.056   9.928  1.00  0.00    -0.354 N 
ATOM     52  N   UNL     1      -0.724 -11.801  11.731  1.00  0.00    -0.248 NA
ATOM     53  C   UNL     1      -1.834 -10.892  13.572  1.00  0.00     0.031 C 
ATOM     54  C   UNL     1      -1.201 -15.999  10.373  1.00  0.00     0.029 A 
ATOM     55  C   UNL     1      -1.041 -14.704  10.837  1.00  0.00     0.049 A 
ATOM     56  H   UNL     1       0.048 -13.111   9.985  1.00  0.00     0.167 HD
ATOM     57  C   UNL     1      -1.448 -12.802  12.368  1.00  0.00     0.074 A 
ATOM     58  C   UNL     1      -2.071 -12.194  13.525  1.00  0.00     0.031 C 
ATOM     59  C   UNL     1      -1.595 -14.104  12.022  1.00  0.00     0.034 A 
BRANCH  46  60
ATOM     60  C   UNL     1       1.359 -15.677   6.830  1.00  0.00     0.023 A 
ATOM     61  C   UNL     1       2.654 -16.237   6.831  1.00  0.00     0.012 A 
ATOM     62  C   UNL     1       0.387 -16.189   5.948  1.00  0.00     0.148 A 
ATOM     63  C   UNL     1       2.986 -17.264   5.950  1.00  0.00     0.002 A 
ATOM     64  C   UNL     1       0.712 -17.246   5.106  1.00  0.00     0.091 A 
ATOM     65  F   UNL     1      -0.834 -15.635   5.950  1.00  0.00    -0.205 F 
ATOM     66  C   UNL     1       2.014 -17.776   5.097  1.00  0.00     0.022 A 
BRANCH  64  67
ATOM     67  S   UNL     1      -0.486 -18.035   4.025  1.00  0.00     0.127 S 
ATOM     68  O   UNL     1       0.038 -17.692   2.703  1.00  0.00    -0.237 OA
ATOM     69  O   UNL     1      -0.345 -19.445   4.390  1.00  0.00    -0.237 OA
ATOM     70  O   UNL     1      -1.776 -17.445   4.352  1.00  0.00    -0.744 OA
ENDBRANCH  64  67
ENDBRANCH  46  60
BRANCH  47  71
ATOM     71  C   UNL     1      -0.675  -8.230  13.181  1.00  0.00     0.023 A 
ATOM     72  C   UNL     1      -0.313  -8.302  14.541  1.00  0.00     0.012 A 
ATOM     73  C   UNL     1      -1.392  -7.109  12.722  1.00  0.00     0.148 A 
ATOM     74  C   UNL     1      -0.707  -7.307  15.436  1.00  0.00     0.002 A 
ATOM     75  C   UNL     1      -1.728  -6.091  13.607  1.00  0.00     0.091 A 
ATOM     76  F   UNL     1      -1.736  -7.060  11.427  1.00  0.00    -0.205 F 
ATOM     77  C   UNL     1      -1.408  -6.199  14.969  1.00  0.00     0.022 A 
BRANCH  75  78
ATOM     78  S   UNL     1      -2.514  -4.570  13.064  1.00  0.00     0.127 S 
ATOM     79  O   UNL     1      -3.876  -4.743  13.560  1.00  0.00    -0.237 OA
ATOM     80  O   UNL     1      -1.726  -3.555  13.764  1.00  0.00    -0.237 OA
ATOM     81  O   UNL     1      -2.362  -4.549  11.615  1.00  0.00    -0.744 OA
ENDBRANCH  75  78
ENDBRANCH  47  71
BRANCH  59  82
ATOM     82  C   UNL     1      -2.396 -14.988  12.943  1.00  0.00     0.023 A 
ATOM     83  C   UNL     1      -3.793 -14.839  13.037  1.00  0.00     0.012 A 
ATOM     84  C   UNL     1      -1.758 -16.010  13.674  1.00  0.00     0.148 A 
ATOM     85  C   UNL     1      -4.538 -15.665  13.878  1.00  0.00     0.002 A 
ATOM     86  C   UNL     1      -2.513 -16.864  14.467  1.00  0.00     0.091 A 
ATOM     87  F   UNL     1      -0.425 -16.125  13.586  1.00  0.00    -0.205 F 
ATOM     88  C   UNL     1      -3.901 -16.684  14.583  1.00  0.00     0.022 A 
BRANCH  86  89
ATOM     89  S   UNL     1      -1.791 -18.265  15.329  1.00  0.00     0.127 S 
ATOM     90  O   UNL     1      -1.824 -17.808  16.718  1.00  0.00    -0.237 OA
ATOM     91  O   UNL     1      -2.733 -19.340  15.018  1.00  0.00    -0.237 OA
ATOM     92  O   UNL     1      -0.462 -18.444  14.761  1.00  0.00    -0.744 OA
ENDBRANCH  86  89
ENDBRANCH  59  82
ENDBRANCH  33  34
ENDBRANCH  25  28
ENDBRANCH  23  24
ENDBRANCH  22  23
ENDBRANCH  21  22
ENDBRANCH   1  21
TORSDOF 19
