REMARK SMILES C[C@@H]1[C@@H](C)CC[C@H]1[NH2+][C@@H](C)[C@@H](C)C(=O)NCCCCCCNC(=O)c1ccc(-c2c3nc(c(-c4cccc(S(=O)(=O)[O-])c4F)c4ccc([nH]4)c(-c4cccc(S(=O)(=O)[O-])c4F)c4nc(c(-c5cccc(S(=O)(=O)[O-])c5F)c5ccc2[nH]5)C=C4)C=C3)cc1
REMARK SMILES IDX 18 1 17 2 16 3 15 4 13 5 14 6 11 8 12 9 9 10 10 11 8 12 7 15
REMARK SMILES IDX 1 16 2 17 3 18 5 19 4 20 6 21 19 22 20 23 21 24 22 25 23 26
REMARK SMILES IDX 24 28 25 29 26 30 87 31 27 32 86 33 28 34 29 35 30 36 80 37
REMARK SMILES IDX 31 38 85 39 79 40 81 41 32 42 84 43 78 44 77 45 33 47 65 48
REMARK SMILES IDX 45 49 64 50 46 51 49 52 63 53 82 54 47 55 48 56 62 58 83 59
REMARK SMILES IDX 50 60 34 61 35 62 43 63 36 64 38 65 44 66 37 67 39 68 40 69
REMARK SMILES IDX 41 70 42 71 66 72 67 73 75 74 68 75 70 76 76 77 69 78 71 79
REMARK SMILES IDX 72 80 73 81 74 82 51 83 52 84 60 85 53 86 55 87 61 88 54 89
REMARK SMILES IDX 56 90 57 91 58 92 59 93
REMARK H PARENT 15 7 8 13 8 14 22 27 81 46 49 57
REMARK Flexibility Score: inf
ROOT
ATOM      1  C   UNL     1       6.659  -6.558   0.581  1.00  0.00     0.002 C 
ENDROOT
BRANCH   1   2
ATOM      2  C   UNL     1       5.704  -5.383   0.346  1.00  0.00     0.021 C 
BRANCH   2   3
ATOM      3  C   UNL     1       5.882  -4.671  -0.995  1.00  0.00     0.116 C 
BRANCH   3   4
ATOM      4  N   UNL     1       5.484  -5.510  -2.109  1.00  0.00    -0.356 N 
ATOM      5  C   UNL     1       4.445  -5.409  -2.979  1.00  0.00     0.228 C 
ATOM      6  O   UNL     1       4.350  -6.278  -3.852  1.00  0.00    -0.275 OA
ATOM      7  H   UNL     1       6.068  -6.288  -2.262  1.00  0.00     0.163 HD
BRANCH   5   8
ATOM      8  C   UNL     1       3.415  -4.280  -2.904  1.00  0.00     0.133 C 
ATOM      9  C   UNL     1       4.066  -2.950  -3.295  1.00  0.00     0.024 C 
BRANCH   8  10
ATOM     10  C   UNL     1       2.610  -4.296  -1.572  1.00  0.00     0.191 C 
ATOM     11  C   UNL     1       1.841  -5.627  -1.481  1.00  0.00     0.076 C 
BRANCH  10  12
ATOM     12  N   UNL     1       1.707  -3.133  -1.514  1.00  0.00    -0.341 N 
ATOM     13  H   UNL     1       2.216  -2.328  -1.879  1.00  0.00     0.346 HD
ATOM     14  H   UNL     1       0.888  -3.403  -2.058  1.00  0.00     0.346 HD
BRANCH  12  15
ATOM     15  C   UNL     1       1.186  -2.766  -0.192  1.00  0.00     0.185 C 
ATOM     16  C   UNL     1       1.253  -0.199  -0.377  1.00  0.00     0.014 C 
ATOM     17  C   UNL     1       0.381  -1.451  -0.285  1.00  0.00     0.047 C 
ATOM     18  C   UNL     1      -0.519  -1.456   0.967  1.00  0.00    -0.005 C 
ATOM     19  C   UNL     1      -0.688  -2.927   1.357  1.00  0.00     0.010 C 
ATOM     20  C   UNL     1      -1.860  -0.772   0.723  1.00  0.00     0.008 C 
ATOM     21  C   UNL     1       0.148  -3.734   0.376  1.00  0.00     0.065 C 
ENDBRANCH  12  15
ENDBRANCH  10  12
ENDBRANCH   8  10
ENDBRANCH   5   8
ENDBRANCH   3   4
ENDBRANCH   2   3
ENDBRANCH   1   2
BRANCH   1  22
ATOM     22  C   UNL     1       8.148  -6.236   0.424  1.00  0.00     0.002 C 
BRANCH  22  23
ATOM     23  C   UNL     1       8.652  -5.035   1.230  1.00  0.00     0.021 C 
BRANCH  23  24
ATOM     24  C   UNL     1       8.430  -5.129   2.736  1.00  0.00     0.116 C 
BRANCH  24  25
ATOM     25  N   UNL     1       9.128  -6.260   3.323  1.00  0.00    -0.352 N 
ATOM     26  C   UNL     1      10.019  -6.293   4.365  1.00  0.00     0.251 C 
ATOM     27  H   UNL     1       8.932  -7.133   2.911  1.00  0.00     0.163 HD
ATOM     28  O   UNL     1      10.652  -7.323   4.588  1.00  0.00    -0.269 OA
BRANCH  26  29
ATOM     29  C   UNL     1      10.230  -5.099   5.213  1.00  0.00     0.039 A 
ATOM     30  C   UNL     1      11.532  -4.776   5.606  1.00  0.00     0.014 A 
ATOM     31  C   UNL     1       9.155  -4.321   5.655  1.00  0.00     0.014 A 
ATOM     32  C   UNL     1      11.759  -3.657   6.411  1.00  0.00     0.010 A 
ATOM     33  C   UNL     1       9.390  -3.164   6.396  1.00  0.00     0.010 A 
ATOM     34  C   UNL     1      10.691  -2.831   6.799  1.00  0.00    -0.014 A 
BRANCH  34  35
ATOM     35  C   UNL     1      10.929  -1.622   7.628  1.00  0.00     0.031 A 
ATOM     36  C   UNL     1      10.357  -1.519   9.017  1.00  0.00     0.074 A 
ATOM     37  C   UNL     1      11.608  -0.582   7.106  1.00  0.00     0.049 A 
ATOM     38  N   UNL     1      10.478  -0.550   9.888  1.00  0.00    -0.248 NA
ATOM     39  C   UNL     1       9.515  -2.635   9.477  1.00  0.00     0.031 C 
ATOM     40  C   UNL     1      12.124  -0.513   5.738  1.00  0.00     0.029 A 
ATOM     41  N   UNL     1      11.961   0.624   7.656  1.00  0.00    -0.354 N 
ATOM     42  C   UNL     1       9.703  -0.920  10.980  1.00  0.00     0.074 A 
ATOM     43  C   UNL     1       9.085  -2.185  10.647  1.00  0.00     0.031 C 
ATOM     44  C   UNL     1      12.732   0.670   5.557  1.00  0.00     0.029 A 
ATOM     45  C   UNL     1      12.639   1.448   6.789  1.00  0.00     0.049 A 
ATOM     46  H   UNL     1      11.749   0.876   8.584  1.00  0.00     0.167 HD
ATOM     47  C   UNL     1       9.543  -0.283  12.166  1.00  0.00     0.034 A 
ATOM     48  C   UNL     1      13.136   2.687   6.966  1.00  0.00     0.034 A 
ATOM     49  C   UNL     1      10.196   0.951  12.512  1.00  0.00     0.049 A 
ATOM     50  C   UNL     1      13.023   3.335   8.319  1.00  0.00     0.074 A 
ATOM     51  C   UNL     1      10.188   1.620  13.723  1.00  0.00     0.029 A 
ATOM     52  N   UNL     1      10.970   1.706  11.645  1.00  0.00    -0.354 N 
ATOM     53  N   UNL     1      12.446   2.881   9.405  1.00  0.00    -0.248 NA
ATOM     54  C   UNL     1      13.673   4.643   8.485  1.00  0.00     0.031 C 
ATOM     55  C   UNL     1      10.942   2.791  13.581  1.00  0.00     0.029 A 
ATOM     56  C   UNL     1      11.438   2.840  12.289  1.00  0.00     0.049 A 
ATOM     57  H   UNL     1      11.159   1.472  10.707  1.00  0.00     0.167 HD
ATOM     58  C   UNL     1      12.686   3.832  10.391  1.00  0.00     0.074 A 
ATOM     59  C   UNL     1      13.487   4.872   9.778  1.00  0.00     0.031 C 
ATOM     60  C   UNL     1      12.268   3.849  11.681  1.00  0.00     0.034 A 
BRANCH  47  61
ATOM     61  C   UNL     1       8.665  -0.946  13.197  1.00  0.00     0.023 A 
ATOM     62  C   UNL     1       9.107  -2.125  13.832  1.00  0.00     0.012 A 
ATOM     63  C   UNL     1       7.423  -0.391  13.563  1.00  0.00     0.148 A 
ATOM     64  C   UNL     1       8.310  -2.765  14.781  1.00  0.00     0.002 A 
ATOM     65  C   UNL     1       6.654  -1.010  14.543  1.00  0.00     0.091 A 
ATOM     66  F   UNL     1       7.005   0.717  12.933  1.00  0.00    -0.205 F 
ATOM     67  C   UNL     1       7.090  -2.203  15.143  1.00  0.00     0.022 A 
BRANCH  65  68
ATOM     68  S   UNL     1       5.105  -0.316  15.131  1.00  0.00     0.127 S 
ATOM     69  O   UNL     1       4.126  -1.178  14.471  1.00  0.00    -0.237 OA
ATOM     70  O   UNL     1       5.207  -0.509  16.579  1.00  0.00    -0.237 OA
ATOM     71  O   UNL     1       5.107   1.077  14.707  1.00  0.00    -0.744 OA
ENDBRANCH  65  68
ENDBRANCH  47  61
BRANCH  48  72
ATOM     72  C   UNL     1      13.867   3.350   5.851  1.00  0.00     0.023 A 
ATOM     73  C   UNL     1      15.268   3.481   5.922  1.00  0.00     0.012 A 
ATOM     74  C   UNL     1      13.192   3.796   4.698  1.00  0.00     0.148 A 
ATOM     75  C   UNL     1      15.981   4.067   4.876  1.00  0.00     0.002 A 
ATOM     76  C   UNL     1      13.914   4.328   3.636  1.00  0.00     0.091 A 
ATOM     77  F   UNL     1      11.858   3.668   4.655  1.00  0.00    -0.205 F 
ATOM     78  C   UNL     1      15.307   4.479   3.730  1.00  0.00     0.022 A 
BRANCH  76  79
ATOM     79  S   UNL     1      13.147   4.756   2.069  1.00  0.00     0.127 S 
ATOM     80  O   UNL     1      13.261   6.215   2.071  1.00  0.00    -0.237 OA
ATOM     81  O   UNL     1      14.021   4.073   1.112  1.00  0.00    -0.237 OA
ATOM     82  O   UNL     1      11.796   4.228   2.132  1.00  0.00    -0.744 OA
ENDBRANCH  76  79
ENDBRANCH  48  72
BRANCH  60  83
ATOM     83  C   UNL     1      12.684   5.024  12.529  1.00  0.00     0.023 A 
ATOM     84  C   UNL     1      12.106   6.289  12.302  1.00  0.00     0.012 A 
ATOM     85  C   UNL     1      13.606   4.866  13.582  1.00  0.00     0.148 A 
ATOM     86  C   UNL     1      12.471   7.387  13.081  1.00  0.00     0.002 A 
ATOM     87  C   UNL     1      13.928   5.954  14.386  1.00  0.00     0.091 A 
ATOM     88  F   UNL     1      14.164   3.661  13.773  1.00  0.00    -0.205 F 
ATOM     89  C   UNL     1      13.373   7.217  14.129  1.00  0.00     0.022 A 
BRANCH  87  90
ATOM     90  S   UNL     1      15.008   5.795  15.814  1.00  0.00     0.127 S 
ATOM     91  O   UNL     1      16.274   6.303  15.290  1.00  0.00    -0.237 OA
ATOM     92  O   UNL     1      14.361   6.667  16.797  1.00  0.00    -0.237 OA
ATOM     93  O   UNL     1      14.990   4.381  16.165  1.00  0.00    -0.744 OA
ENDBRANCH  87  90
ENDBRANCH  60  83
ENDBRANCH  34  35
ENDBRANCH  26  29
ENDBRANCH  24  25
ENDBRANCH  23  24
ENDBRANCH  22  23
ENDBRANCH   1  22
TORSDOF 19
