REMARK SMILES CC(C)[C@@H](NC(=O)[C@H]1CCCO1)C(=O)NCCCCCCNC(=O)c1ccc(-c2c3nc(c(-c4cccc(S(=O)(=O)[O-])c4F)c4ccc([nH]4)c(-c4cccc(S(=O)(=O)[O-])c4F)c4nc(c(-c5cccc(S(=O)(=O)[O-])c5F)c5ccc2[nH]5)C=C4)C=C3)cc1
REMARK SMILES IDX 19 1 18 2 17 3 16 4 15 5 13 6 14 7 4 9 2 10 1 11 3 12 5 13
REMARK SMILES IDX 6 14 7 16 8 17 9 18 12 19 10 20 11 21 20 22 21 23 22 24
REMARK SMILES IDX 23 25 24 27 25 28 26 29 87 30 27 31 86 32 28 33 29 34 30 35
REMARK SMILES IDX 80 36 31 37 85 38 79 39 81 40 32 41 84 42 78 43 77 44 33 46
REMARK SMILES IDX 65 47 45 48 64 49 46 50 49 51 63 52 82 53 47 54 48 55 62 57
REMARK SMILES IDX 83 58 50 59 34 60 35 61 43 62 36 63 38 64 44 65 37 66 39 67
REMARK SMILES IDX 40 68 41 69 42 70 66 71 67 72 75 73 68 74 70 75 76 76 69 77
REMARK SMILES IDX 71 78 72 79 73 80 74 81 51 82 52 83 60 84 53 85 55 86 61 87
REMARK SMILES IDX 54 88 56 89 57 90 58 91 59 92
REMARK H PARENT 15 8 5 15 22 26 81 45 49 56
REMARK Flexibility Score: inf
ROOT
ATOM      1  C   UNL     1      -5.946  -5.533   4.507  1.00  0.00     0.002 C 
ENDROOT
BRANCH   1   2
ATOM      2  C   UNL     1      -6.598  -4.296   5.132  1.00  0.00     0.002 C 
BRANCH   2   3
ATOM      3  C   UNL     1      -5.625  -3.334   5.818  1.00  0.00     0.021 C 
BRANCH   3   4
ATOM      4  C   UNL     1      -4.549  -2.791   4.889  1.00  0.00     0.116 C 
BRANCH   4   5
ATOM      5  N   UNL     1      -5.113  -1.883   3.910  1.00  0.00    -0.354 N 
ATOM      6  C   UNL     1      -4.523  -0.829   3.275  1.00  0.00     0.242 C 
ATOM      7  O   UNL     1      -5.206  -0.174   2.479  1.00  0.00    -0.273 OA
ATOM      8  H   UNL     1      -6.053  -2.050   3.671  1.00  0.00     0.163 HD
BRANCH   6   9
ATOM      9  C   UNL     1      -3.133  -0.336   3.714  1.00  0.00     0.174 C 
BRANCH   9  10
ATOM     10  C   UNL     1      -3.302   0.394   5.099  1.00  0.00     0.015 C 
ATOM     11  C   UNL     1      -2.036   1.120   5.565  1.00  0.00     0.010 C 
ATOM     12  C   UNL     1      -4.474   1.387   5.138  1.00  0.00     0.010 C 
ENDBRANCH   9  10
BRANCH   9  13
ATOM     13  N   UNL     1      -2.118  -1.405   3.817  1.00  0.00    -0.342 N 
ATOM     14  C   UNL     1      -1.571  -2.261   2.913  1.00  0.00     0.249 C 
ATOM     15  H   UNL     1      -1.764  -1.520   4.729  1.00  0.00     0.164 HD
ATOM     16  O   UNL     1      -0.449  -2.689   3.211  1.00  0.00    -0.272 OA
BRANCH  14  17
ATOM     17  C   UNL     1      -2.243  -2.700   1.581  1.00  0.00     0.207 C 
ATOM     18  C   UNL     1      -1.888  -4.163   1.271  1.00  0.00     0.044 C 
ATOM     19  O   UNL     1      -3.661  -2.633   1.477  1.00  0.00    -0.368 OA
ATOM     20  C   UNL     1      -3.112  -4.905   1.750  1.00  0.00     0.032 C 
ATOM     21  C   UNL     1      -4.199  -3.952   1.321  1.00  0.00     0.161 C 
ENDBRANCH  14  17
ENDBRANCH   9  13
ENDBRANCH   6   9
ENDBRANCH   4   5
ENDBRANCH   3   4
ENDBRANCH   2   3
ENDBRANCH   1   2
BRANCH   1  22
ATOM     22  C   UNL     1      -5.100  -6.373   5.460  1.00  0.00     0.021 C 
BRANCH  22  23
ATOM     23  C   UNL     1      -5.874  -6.910   6.654  1.00  0.00     0.116 C 
BRANCH  23  24
ATOM     24  N   UNL     1      -6.976  -7.770   6.246  1.00  0.00    -0.352 N 
ATOM     25  C   UNL     1      -7.305  -9.023   6.708  1.00  0.00     0.251 C 
ATOM     26  H   UNL     1      -7.564  -7.407   5.545  1.00  0.00     0.163 HD
ATOM     27  O   UNL     1      -8.146  -9.698   6.138  1.00  0.00    -0.269 OA
BRANCH  25  28
ATOM     28  C   UNL     1      -6.599  -9.539   7.898  1.00  0.00     0.039 A 
ATOM     29  C   UNL     1      -6.043 -10.819   7.860  1.00  0.00     0.014 A 
ATOM     30  C   UNL     1      -6.436  -8.722   9.020  1.00  0.00     0.014 A 
ATOM     31  C   UNL     1      -5.258 -11.254   8.928  1.00  0.00     0.010 A 
ATOM     32  C   UNL     1      -5.583  -9.122  10.038  1.00  0.00     0.010 A 
ATOM     33  C   UNL     1      -4.988 -10.393  10.005  1.00  0.00    -0.014 A 
BRANCH  33  34
ATOM     34  C   UNL     1      -4.074 -10.782  11.106  1.00  0.00     0.031 A 
ATOM     35  C   UNL     1      -4.589 -10.843  12.518  1.00  0.00     0.074 A 
ATOM     36  C   UNL     1      -2.763 -10.961  10.850  1.00  0.00     0.049 A 
ATOM     37  N   UNL     1      -3.930 -11.052  13.627  1.00  0.00    -0.248 NA
ATOM     38  C   UNL     1      -6.029 -10.599  12.713  1.00  0.00     0.031 C 
ATOM     39  C   UNL     1      -2.132 -10.840   9.534  1.00  0.00     0.029 A 
ATOM     40  N   UNL     1      -1.718 -11.248  11.692  1.00  0.00    -0.354 N 
ATOM     41  C   UNL     1      -4.861 -10.921  14.650  1.00  0.00     0.074 A 
ATOM     42  C   UNL     1      -6.124 -10.579  14.034  1.00  0.00     0.031 C 
ATOM     43  C   UNL     1      -0.813 -11.053   9.656  1.00  0.00     0.029 A 
ATOM     44  C   UNL     1      -0.497 -11.291  11.060  1.00  0.00     0.049 A 
ATOM     45  H   UNL     1      -1.832 -11.408  12.657  1.00  0.00     0.167 HD
ATOM     46  C   UNL     1      -4.688 -11.102  15.980  1.00  0.00     0.034 A 
ATOM     47  C   UNL     1       0.739 -11.487  11.559  1.00  0.00     0.034 A 
ATOM     48  C   UNL     1      -3.443 -11.498  16.577  1.00  0.00     0.049 A 
ATOM     49  C   UNL     1       0.897 -11.730  13.036  1.00  0.00     0.074 A 
ATOM     50  C   UNL     1      -3.186 -11.815  17.899  1.00  0.00     0.029 A 
ATOM     51  N   UNL     1      -2.244 -11.626  15.893  1.00  0.00    -0.354 N 
ATOM     52  N   UNL     1      -0.025 -11.771  13.967  1.00  0.00    -0.248 NA
ATOM     53  C   UNL     1       2.259 -11.984  13.527  1.00  0.00     0.031 C 
ATOM     54  C   UNL     1      -1.824 -12.112  18.017  1.00  0.00     0.029 A 
ATOM     55  C   UNL     1      -1.239 -12.003  16.766  1.00  0.00     0.049 A 
ATOM     56  H   UNL     1      -2.125 -11.472  14.928  1.00  0.00     0.167 HD
ATOM     57  C   UNL     1       0.639 -12.083  15.147  1.00  0.00     0.074 A 
ATOM     58  C   UNL     1       2.038 -12.244  14.809  1.00  0.00     0.031 C 
ATOM     59  C   UNL     1       0.139 -12.208  16.401  1.00  0.00     0.034 A 
BRANCH  46  60
ATOM     60  C   UNL     1      -5.889 -10.931  16.872  1.00  0.00     0.023 A 
ATOM     61  C   UNL     1      -6.923 -11.890  16.837  1.00  0.00     0.012 A 
ATOM     62  C   UNL     1      -5.973  -9.858  17.780  1.00  0.00     0.148 A 
ATOM     63  C   UNL     1      -8.037 -11.764  17.664  1.00  0.00     0.002 A 
ATOM     64  C   UNL     1      -7.066  -9.764  18.634  1.00  0.00     0.091 A 
ATOM     65  F   UNL     1      -4.992  -8.944  17.783  1.00  0.00    -0.205 F 
ATOM     66  C   UNL     1      -8.104 -10.709  18.569  1.00  0.00     0.022 A 
BRANCH  64  67
ATOM     67  S   UNL     1      -7.209  -8.487  19.889  1.00  0.00     0.127 S 
ATOM     68  O   UNL     1      -8.283  -7.658  19.343  1.00  0.00    -0.237 OA
ATOM     69  O   UNL     1      -7.578  -9.260  21.074  1.00  0.00    -0.237 OA
ATOM     70  O   UNL     1      -5.903  -7.848  19.962  1.00  0.00    -0.744 OA
ENDBRANCH  64  67
ENDBRANCH  46  60
BRANCH  47  71
ATOM     71  C   UNL     1       1.915 -11.522  10.644  1.00  0.00     0.023 A 
ATOM     72  C   UNL     1       2.568 -12.747  10.408  1.00  0.00     0.012 A 
ATOM     73  C   UNL     1       2.368 -10.364   9.983  1.00  0.00     0.148 A 
ATOM     74  C   UNL     1       3.669 -12.814   9.553  1.00  0.00     0.002 A 
ATOM     75  C   UNL     1       3.431 -10.447   9.091  1.00  0.00     0.091 A 
ATOM     76  F   UNL     1       1.741  -9.205  10.231  1.00  0.00    -0.205 F 
ATOM     77  C   UNL     1       4.094 -11.667   8.887  1.00  0.00     0.022 A 
BRANCH  75  78
ATOM     78  S   UNL     1       3.959  -9.052   8.091  1.00  0.00     0.127 S 
ATOM     79  O   UNL     1       5.240  -8.712   8.705  1.00  0.00    -0.237 OA
ATOM     80  O   UNL     1       4.053  -9.652   6.760  1.00  0.00    -0.237 OA
ATOM     81  O   UNL     1       2.906  -8.054   8.225  1.00  0.00    -0.744 OA
ENDBRANCH  75  78
ENDBRANCH  47  71
BRANCH  59  82
ATOM     82  C   UNL     1       1.101 -12.557  17.506  1.00  0.00     0.023 A 
ATOM     83  C   UNL     1       1.998 -11.582  17.983  1.00  0.00     0.012 A 
ATOM     84  C   UNL     1       1.051 -13.819  18.130  1.00  0.00     0.148 A 
ATOM     85  C   UNL     1       2.849 -11.866  19.050  1.00  0.00     0.002 A 
ATOM     86  C   UNL     1       1.867 -14.078  19.224  1.00  0.00     0.091 A 
ATOM     87  F   UNL     1       0.200 -14.737  17.648  1.00  0.00    -0.205 F 
ATOM     88  C   UNL     1       2.774 -13.107  19.678  1.00  0.00     0.022 A 
BRANCH  86  89
ATOM     89  S   UNL     1       1.773 -15.610  20.156  1.00  0.00     0.127 S 
ATOM     90  O   UNL     1       3.042 -16.248  19.809  1.00  0.00    -0.237 OA
ATOM     91  O   UNL     1       1.690 -15.128  21.535  1.00  0.00    -0.237 OA
ATOM     92  O   UNL     1       0.580 -16.299  19.683  1.00  0.00    -0.744 OA
ENDBRANCH  86  89
ENDBRANCH  59  82
ENDBRANCH  33  34
ENDBRANCH  25  28
ENDBRANCH  23  24
ENDBRANCH  22  23
ENDBRANCH   1  22
TORSDOF 19
