REMARK SMILES C=C(C)C[N@H+](C)[C@H](C(=O)NCCCCCCNC(=O)c1ccc(-c2c3nc(c(-c4cccc(S(=O)(=O)[O-])c4F)c4ccc([nH]4)c(-c4cccc(S(=O)(=O)[O-])c4F)c4nc(c(-c5cccc(S(=O)(=O)[O-])c5F)c5ccc2[nH]5)C=C4)C=C3)cc1)c1cc(C)c(OC)c(C)c1
REMARK SMILES IDX 13 1 12 2 11 3 10 4 8 5 9 6 7 8 5 9 6 10 4 12 2 13 1 14 3 15
REMARK SMILES IDX 83 16 84 17 92 18 85 19 90 20 86 21 87 22 91 23 88 24 89 25
REMARK SMILES IDX 14 26 15 27 16 28 17 29 18 30 19 32 20 33 21 34 82 35 22 36
REMARK SMILES IDX 81 37 23 38 24 39 25 40 75 41 26 42 80 43 74 44 76 45 27 46
REMARK SMILES IDX 79 47 73 48 72 49 28 51 60 52 40 53 59 54 41 55 44 56 58 57
REMARK SMILES IDX 77 58 42 59 43 60 57 62 78 63 45 64 29 65 30 66 38 67 31 68
REMARK SMILES IDX 33 69 39 70 32 71 34 72 35 73 36 74 37 75 61 76 62 77 70 78
REMARK SMILES IDX 63 79 65 80 71 81 64 82 66 83 67 84 68 85 69 86 46 87 47 88
REMARK SMILES IDX 55 89 48 90 50 91 56 92 49 93 51 94 52 95 53 96 54 97
REMARK H PARENT 10 7 5 11 17 31 76 50 44 61
REMARK Flexibility Score: inf
ROOT
ATOM      1  C   UNL     1       5.683  -2.064   1.208  1.00  0.00     0.002 C 
ENDROOT
BRANCH   1   2
ATOM      2  C   UNL     1       4.328  -2.768   1.323  1.00  0.00     0.021 C 
BRANCH   2   3
ATOM      3  C   UNL     1       3.594  -2.496   2.632  1.00  0.00     0.116 C 
BRANCH   3   4
ATOM      4  N   UNL     1       3.154  -1.115   2.702  1.00  0.00    -0.351 N 
ATOM      5  C   UNL     1       1.878  -0.615   2.734  1.00  0.00     0.283 C 
ATOM      6  O   UNL     1       1.752   0.605   2.602  1.00  0.00    -0.268 OA
ATOM      7  H   UNL     1       3.872  -0.442   2.731  1.00  0.00     0.163 HD
BRANCH   5   8
ATOM      8  C   UNL     1       0.696  -1.595   2.961  1.00  0.00     0.305 C 
BRANCH   8   9
ATOM      9  N   UNL     1      -0.252  -1.185   4.052  1.00  0.00    -0.320 N 
ATOM     10  C   UNL     1       0.466  -1.215   5.340  1.00  0.00     0.333 C 
ATOM     11  H   UNL     1      -1.012  -1.862   3.978  1.00  0.00     0.349 HD
BRANCH   9  12
ATOM     12  C   UNL     1      -0.907   0.125   3.931  1.00  0.00     0.294 C 
BRANCH  12  13
ATOM     13  C   UNL     1      -1.990   0.260   2.889  1.00  0.00    -0.026 C 
ATOM     14  C   UNL     1      -1.935   1.209   1.937  1.00  0.00     0.013 C 
ATOM     15  C   UNL     1      -3.178  -0.652   2.992  1.00  0.00     0.045 C 
ENDBRANCH  12  13
ENDBRANCH   9  12
ENDBRANCH   8   9
BRANCH   8  16
ATOM     16  C   UNL     1       0.084  -2.114   1.662  1.00  0.00     0.020 A 
ATOM     17  C   UNL     1      -0.305  -1.272   0.623  1.00  0.00     0.017 A 
ATOM     18  C   UNL     1      -0.087  -3.495   1.469  1.00  0.00     0.017 A 
ATOM     19  C   UNL     1      -1.002  -1.763  -0.495  1.00  0.00    -0.008 A 
ATOM     20  C   UNL     1      -0.692  -4.035   0.313  1.00  0.00    -0.008 A 
ATOM     21  C   UNL     1      -1.598  -0.766  -1.452  1.00  0.00     0.048 C 
ATOM     22  C   UNL     1      -1.218  -3.150  -0.642  1.00  0.00     0.124 A 
ATOM     23  C   UNL     1      -0.768  -5.534   0.227  1.00  0.00     0.048 C 
BRANCH  22  24
ATOM     24  O   UNL     1      -2.059  -3.480  -1.674  1.00  0.00    -0.496 OA
ATOM     25  C   UNL     1      -1.769  -4.635  -2.442  1.00  0.00     0.278 C 
ENDBRANCH  22  24
ENDBRANCH   8  16
ENDBRANCH   5   8
ENDBRANCH   3   4
ENDBRANCH   2   3
ENDBRANCH   1   2
BRANCH   1  26
ATOM     26  C   UNL     1       6.651  -2.330   2.365  1.00  0.00     0.002 C 
BRANCH  26  27
ATOM     27  C   UNL     1       6.883  -3.808   2.694  1.00  0.00     0.021 C 
BRANCH  27  28
ATOM     28  C   UNL     1       7.372  -4.650   1.522  1.00  0.00     0.116 C 
BRANCH  28  29
ATOM     29  N   UNL     1       8.653  -4.185   1.015  1.00  0.00    -0.352 N 
ATOM     30  C   UNL     1       9.807  -4.895   0.810  1.00  0.00     0.251 C 
ATOM     31  H   UNL     1       8.697  -3.228   0.786  1.00  0.00     0.163 HD
ATOM     32  O   UNL     1      10.859  -4.304   0.565  1.00  0.00    -0.269 OA
BRANCH  30  33
ATOM     33  C   UNL     1       9.786  -6.369   0.902  1.00  0.00     0.039 A 
ATOM     34  C   UNL     1      10.796  -7.017   1.617  1.00  0.00     0.014 A 
ATOM     35  C   UNL     1       8.772  -7.108   0.286  1.00  0.00     0.014 A 
ATOM     36  C   UNL     1      10.761  -8.406   1.755  1.00  0.00     0.010 A 
ATOM     37  C   UNL     1       8.698  -8.483   0.488  1.00  0.00     0.010 A 
ATOM     38  C   UNL     1       9.696  -9.148   1.215  1.00  0.00    -0.014 A 
BRANCH  38  39
ATOM     39  C   UNL     1       9.610 -10.618   1.404  1.00  0.00     0.031 A 
ATOM     40  C   UNL     1       9.660 -11.539   0.216  1.00  0.00     0.074 A 
ATOM     41  C   UNL     1       9.403 -11.118   2.638  1.00  0.00     0.049 A 
ATOM     42  N   UNL     1       9.547 -12.842   0.178  1.00  0.00    -0.248 NA
ATOM     43  C   UNL     1       9.833 -10.915  -1.107  1.00  0.00     0.031 C 
ATOM     44  C   UNL     1       9.256 -10.323   3.859  1.00  0.00     0.029 A 
ATOM     45  N   UNL     1       9.254 -12.413   3.067  1.00  0.00    -0.354 N 
ATOM     46  C   UNL     1       9.602 -13.189  -1.167  1.00  0.00     0.074 A 
ATOM     47  C   UNL     1       9.720 -11.958  -1.916  1.00  0.00     0.031 C 
ATOM     48  C   UNL     1       9.041 -11.146   4.897  1.00  0.00     0.029 A 
ATOM     49  C   UNL     1       9.003 -12.523   4.415  1.00  0.00     0.049 A 
ATOM     50  H   UNL     1       9.319 -13.191   2.466  1.00  0.00     0.167 HD
ATOM     51  C   UNL     1       9.587 -14.422  -1.726  1.00  0.00     0.034 A 
ATOM     52  C   UNL     1       8.762 -13.609   5.175  1.00  0.00     0.034 A 
ATOM     53  C   UNL     1       9.508 -15.646  -0.975  1.00  0.00     0.049 A 
ATOM     54  C   UNL     1       8.787 -14.970   4.534  1.00  0.00     0.074 A 
ATOM     55  C   UNL     1       9.569 -16.947  -1.441  1.00  0.00     0.029 A 
ATOM     56  N   UNL     1       9.343 -15.721   0.400  1.00  0.00    -0.354 N 
ATOM     57  N   UNL     1       8.997 -15.287   3.280  1.00  0.00    -0.248 NA
ATOM     58  C   UNL     1       8.580 -16.125   5.419  1.00  0.00     0.031 C 
ATOM     59  C   UNL     1       9.416 -17.809  -0.351  1.00  0.00     0.029 A 
ATOM     60  C   UNL     1       9.291 -17.046   0.799  1.00  0.00     0.049 A 
ATOM     61  H   UNL     1       9.273 -14.947   1.003  1.00  0.00     0.167 HD
ATOM     62  C   UNL     1       8.983 -16.676   3.230  1.00  0.00     0.074 A 
ATOM     63  C   UNL     1       8.766 -17.140   4.585  1.00  0.00     0.031 C 
ATOM     64  C   UNL     1       9.125 -17.494   2.158  1.00  0.00     0.034 A 
BRANCH  51  65
ATOM     65  C   UNL     1       9.710 -14.512  -3.226  1.00  0.00     0.023 A 
ATOM     66  C   UNL     1      10.939 -14.198  -3.842  1.00  0.00     0.012 A 
ATOM     67  C   UNL     1       8.635 -14.959  -4.019  1.00  0.00     0.148 A 
ATOM     68  C   UNL     1      11.085 -14.291  -5.226  1.00  0.00     0.002 A 
ATOM     69  C   UNL     1       8.803 -15.093  -5.392  1.00  0.00     0.091 A 
ATOM     70  F   UNL     1       7.468 -15.233  -3.419  1.00  0.00    -0.205 F 
ATOM     71  C   UNL     1      10.022 -14.748  -5.998  1.00  0.00     0.022 A 
BRANCH  69  72
ATOM     72  S   UNL     1       7.521 -15.749  -6.466  1.00  0.00     0.127 S 
ATOM     73  O   UNL     1       7.125 -14.557  -7.215  1.00  0.00    -0.237 OA
ATOM     74  O   UNL     1       8.255 -16.744  -7.249  1.00  0.00    -0.237 OA
ATOM     75  O   UNL     1       6.501 -16.301  -5.585  1.00  0.00    -0.744 OA
ENDBRANCH  69  72
ENDBRANCH  51  65
BRANCH  52  76
ATOM     76  C   UNL     1       8.536 -13.454   6.640  1.00  0.00     0.023 A 
ATOM     77  C   UNL     1       9.516 -13.907   7.544  1.00  0.00     0.012 A 
ATOM     78  C   UNL     1       7.373 -12.837   7.140  1.00  0.00     0.148 A 
ATOM     79  C   UNL     1       9.328 -13.778   8.921  1.00  0.00     0.002 A 
ATOM     80  C   UNL     1       7.218 -12.659   8.510  1.00  0.00     0.091 A 
ATOM     81  F   UNL     1       6.448 -12.421   6.263  1.00  0.00    -0.205 F 
ATOM     82  C   UNL     1       8.185 -13.146   9.403  1.00  0.00     0.022 A 
BRANCH  80  83
ATOM     83  S   UNL     1       5.845 -11.738   9.211  1.00  0.00     0.127 S 
ATOM     84  O   UNL     1       5.074 -12.796   9.858  1.00  0.00    -0.237 OA
ATOM     85  O   UNL     1       6.531 -10.826  10.127  1.00  0.00    -0.237 OA
ATOM     86  O   UNL     1       5.197 -11.079   8.085  1.00  0.00    -0.744 OA
ENDBRANCH  80  83
ENDBRANCH  52  76
BRANCH  64  87
ATOM     87  C   UNL     1       9.088 -18.980   2.402  1.00  0.00     0.023 A 
ATOM     88  C   UNL     1       7.870 -19.610   2.724  1.00  0.00     0.012 A 
ATOM     89  C   UNL     1      10.249 -19.762   2.237  1.00  0.00     0.148 A 
ATOM     90  C   UNL     1       7.814 -20.990   2.912  1.00  0.00     0.002 A 
ATOM     91  C   UNL     1      10.175 -21.142   2.376  1.00  0.00     0.091 A 
ATOM     92  F   UNL     1      11.402 -19.141   1.948  1.00  0.00    -0.205 F 
ATOM     93  C   UNL     1       8.963 -21.757   2.726  1.00  0.00     0.022 A 
BRANCH  91  94
ATOM     94  S   UNL     1      11.579 -22.218   2.059  1.00  0.00     0.127 S 
ATOM     95  O   UNL     1      11.927 -22.658   3.409  1.00  0.00    -0.237 OA
ATOM     96  O   UNL     1      10.989 -23.255   1.212  1.00  0.00    -0.237 OA
ATOM     97  O   UNL     1      12.577 -21.391   1.395  1.00  0.00    -0.744 OA
ENDBRANCH  91  94
ENDBRANCH  64  87
ENDBRANCH  38  39
ENDBRANCH  30  33
ENDBRANCH  28  29
ENDBRANCH  27  28
ENDBRANCH  26  27
ENDBRANCH   1  26
TORSDOF 21
