REMARK SMILES CC[NH2+][C@]1(C(=O)NCCCCCCNC(=O)c2ccc(-c3c4nc(c(-c5cccc(S(=O)(=O)[O-])c5F)c5ccc([nH]5)c(-c5cccc(S(=O)(=O)[O-])c5F)c5nc(c(-c6cccc(S(=O)(=O)[O-])c6F)c6ccc3[nH]6)C=C5)C=C4)cc2)CC[C@@H]([N@@H+](C)CC(C)(C)C)C1
REMARK SMILES IDX 10 1 9 2 8 3 7 4 5 5 6 6 4 8 80 9 90 10 81 11 82 12 3 13
REMARK SMILES IDX 2 16 1 17 83 18 84 19 85 21 86 22 87 23 88 24 89 25 11 26
REMARK SMILES IDX 12 27 13 28 14 29 15 30 16 32 17 33 18 34 79 35 19 36 78 37
REMARK SMILES IDX 20 38 21 39 22 40 72 41 23 42 77 43 71 44 73 45 24 46 76 47
REMARK SMILES IDX 70 48 69 49 25 51 57 52 37 53 56 54 38 55 41 56 55 57 74 58
REMARK SMILES IDX 39 59 40 60 54 62 75 63 42 64 26 65 27 66 35 67 28 68 30 69
REMARK SMILES IDX 36 70 29 71 31 72 32 73 33 74 34 75 58 76 59 77 67 78 60 79
REMARK SMILES IDX 62 80 68 81 61 82 63 83 64 84 65 85 66 86 43 87 44 88 52 89
REMARK SMILES IDX 45 90 47 91 53 92 46 93 48 94 49 95 50 96 51 97
REMARK H PARENT 7 7 3 14 3 15 83 20 14 31 73 50 41 61
REMARK Flexibility Score: inf
ROOT
ATOM      1  C   UNL     1       3.979  -1.640  -3.297  1.00  0.00     0.002 C 
ENDROOT
BRANCH   1   2
ATOM      2  C   UNL     1       3.343  -0.421  -3.981  1.00  0.00     0.021 C 
BRANCH   2   3
ATOM      3  C   UNL     1       1.810  -0.472  -4.016  1.00  0.00     0.116 C 
BRANCH   3   4
ATOM      4  N   UNL     1       1.254  -0.076  -2.733  1.00  0.00    -0.351 N 
ATOM      5  C   UNL     1       0.617   1.046  -2.303  1.00  0.00     0.281 C 
ATOM      6  O   UNL     1       0.408   1.102  -1.083  1.00  0.00    -0.268 OA
ATOM      7  H   UNL     1       1.361  -0.759  -2.033  1.00  0.00     0.163 HD
BRANCH   5   8
ATOM      8  C   UNL     1       0.054   2.149  -3.262  1.00  0.00     0.181 C 
ATOM      9  C   UNL     1       0.100   3.501  -2.525  1.00  0.00     0.085 C 
ATOM     10  C   UNL     1       0.954   2.471  -4.476  1.00  0.00     0.144 C 
ATOM     11  C   UNL     1       0.044   4.557  -3.614  1.00  0.00     0.072 C 
ATOM     12  C   UNL     1       0.912   3.991  -4.728  1.00  0.00     0.190 C 
BRANCH   8  13
ATOM     13  N   UNL     1      -1.330   1.776  -3.691  1.00  0.00    -0.334 N 
ATOM     14  H   UNL     1      -1.575   2.330  -4.512  1.00  0.00     0.347 HD
ATOM     15  H   UNL     1      -1.325   0.776  -3.889  1.00  0.00     0.347 HD
BRANCH  13  16
ATOM     16  C   UNL     1      -2.346   2.008  -2.653  1.00  0.00     0.257 C 
ATOM     17  C   UNL     1      -3.704   1.431  -3.018  1.00  0.00     0.071 C 
ENDBRANCH  13  16
ENDBRANCH   8  13
BRANCH  12  18
ATOM     18  N   UNL     1       2.219   4.619  -4.908  1.00  0.00    -0.334 N 
ATOM     19  C   UNL     1       2.245   5.708  -5.868  1.00  0.00     0.332 C 
ATOM     20  H   UNL     1       2.582   3.719  -5.222  1.00  0.00     0.348 HD
BRANCH  18  21
ATOM     21  C   UNL     1       3.358   4.501  -4.002  1.00  0.00     0.268 C 
BRANCH  21  22
ATOM     22  C   UNL     1       3.638   5.481  -2.805  1.00  0.00     0.011 C 
ATOM     23  C   UNL     1       2.803   5.180  -1.555  1.00  0.00     0.017 C 
ATOM     24  C   UNL     1       5.111   5.279  -2.374  1.00  0.00     0.017 C 
ATOM     25  C   UNL     1       3.436   6.954  -3.175  1.00  0.00     0.017 C 
ENDBRANCH  21  22
ENDBRANCH  18  21
ENDBRANCH  12  18
ENDBRANCH   5   8
ENDBRANCH   3   4
ENDBRANCH   2   3
ENDBRANCH   1   2
BRANCH   1  26
ATOM     26  C   UNL     1       3.623  -2.990  -3.931  1.00  0.00     0.002 C 
BRANCH  26  27
ATOM     27  C   UNL     1       3.927  -3.098  -5.428  1.00  0.00     0.021 C 
BRANCH  27  28
ATOM     28  C   UNL     1       5.408  -2.983  -5.771  1.00  0.00     0.116 C 
BRANCH  28  29
ATOM     29  N   UNL     1       6.175  -4.082  -5.200  1.00  0.00    -0.352 N 
ATOM     30  C   UNL     1       6.977  -4.999  -5.833  1.00  0.00     0.251 C 
ATOM     31  H   UNL     1       6.109  -4.180  -4.222  1.00  0.00     0.163 HD
ATOM     32  O   UNL     1       7.356  -6.000  -5.237  1.00  0.00    -0.269 OA
BRANCH  30  33
ATOM     33  C   UNL     1       7.373  -4.770  -7.238  1.00  0.00     0.039 A 
ATOM     34  C   UNL     1       7.319  -5.832  -8.144  1.00  0.00     0.014 A 
ATOM     35  C   UNL     1       7.801  -3.506  -7.655  1.00  0.00     0.014 A 
ATOM     36  C   UNL     1       7.650  -5.612  -9.483  1.00  0.00     0.010 A 
ATOM     37  C   UNL     1       8.053  -3.273  -9.002  1.00  0.00     0.010 A 
ATOM     38  C   UNL     1       7.994  -4.325  -9.928  1.00  0.00    -0.014 A 
BRANCH  38  39
ATOM     39  C   UNL     1       8.311  -4.054 -11.353  1.00  0.00     0.031 A 
ATOM     40  C   UNL     1       9.678  -3.549 -11.734  1.00  0.00     0.074 A 
ATOM     41  C   UNL     1       7.349  -4.174 -12.289  1.00  0.00     0.049 A 
ATOM     42  N   UNL     1      10.117  -3.159 -12.902  1.00  0.00    -0.248 NA
ATOM     43  C   UNL     1      10.673  -3.441 -10.653  1.00  0.00     0.031 C 
ATOM     44  C   UNL     1       5.966  -4.587 -12.034  1.00  0.00     0.029 A 
ATOM     45  N   UNL     1       7.376  -3.926 -13.639  1.00  0.00    -0.354 N 
ATOM     46  C   UNL     1      11.422  -2.729 -12.692  1.00  0.00     0.074 A 
ATOM     47  C   UNL     1      11.691  -2.868 -11.278  1.00  0.00     0.031 C 
ATOM     48  C   UNL     1       5.278  -4.556 -13.186  1.00  0.00     0.029 A 
ATOM     49  C   UNL     1       6.156  -4.088 -14.254  1.00  0.00     0.049 A 
ATOM     50  H   UNL     1       8.192  -3.658 -14.121  1.00  0.00     0.167 HD
ATOM     51  C   UNL     1      12.326  -2.287 -13.598  1.00  0.00     0.034 A 
ATOM     52  C   UNL     1       5.782  -3.864 -15.529  1.00  0.00     0.034 A 
ATOM     53  C   UNL     1      12.065  -2.184 -15.007  1.00  0.00     0.049 A 
ATOM     54  C   UNL     1       6.813  -3.396 -16.521  1.00  0.00     0.074 A 
ATOM     55  C   UNL     1      12.935  -1.813 -16.017  1.00  0.00     0.029 A 
ATOM     56  N   UNL     1      10.844  -2.447 -15.607  1.00  0.00    -0.354 N 
ATOM     57  N   UNL     1       8.081  -3.124 -16.327  1.00  0.00    -0.248 NA
ATOM     58  C   UNL     1       6.374  -3.239 -17.915  1.00  0.00     0.031 C 
ATOM     59  C   UNL     1      12.231  -1.826 -17.225  1.00  0.00     0.029 A 
ATOM     60  C   UNL     1      10.935  -2.245 -16.973  1.00  0.00     0.049 A 
ATOM     61  H   UNL     1      10.032  -2.736 -15.131  1.00  0.00     0.167 HD
ATOM     62  C   UNL     1       8.600  -2.809 -17.578  1.00  0.00     0.074 A 
ATOM     63  C   UNL     1       7.512  -2.938 -18.525  1.00  0.00     0.031 C 
ATOM     64  C   UNL     1       9.860  -2.438 -17.911  1.00  0.00     0.034 A 
BRANCH  51  65
ATOM     65  C   UNL     1      13.702  -1.929 -13.099  1.00  0.00     0.023 A 
ATOM     66  C   UNL     1      14.569  -2.950 -12.657  1.00  0.00     0.012 A 
ATOM     67  C   UNL     1      14.162  -0.598 -13.127  1.00  0.00     0.148 A 
ATOM     68  C   UNL     1      15.857  -2.649 -12.218  1.00  0.00     0.002 A 
ATOM     69  C   UNL     1      15.464  -0.311 -12.734  1.00  0.00     0.091 A 
ATOM     70  F   UNL     1      13.318   0.361 -13.534  1.00  0.00    -0.205 F 
ATOM     71  C   UNL     1      16.308  -1.333 -12.267  1.00  0.00     0.022 A 
BRANCH  69  72
ATOM     72  S   UNL     1      16.169   1.337 -12.836  1.00  0.00     0.127 S 
ATOM     73  O   UNL     1      16.335   1.675 -11.423  1.00  0.00    -0.237 OA
ATOM     74  O   UNL     1      17.419   1.091 -13.555  1.00  0.00    -0.237 OA
ATOM     75  O   UNL     1      15.199   2.148 -13.559  1.00  0.00    -0.744 OA
ENDBRANCH  69  72
ENDBRANCH  51  65
BRANCH  52  76
ATOM     76  C   UNL     1       4.376  -4.118 -15.953  1.00  0.00     0.023 A 
ATOM     77  C   UNL     1       4.093  -5.184 -16.829  1.00  0.00     0.012 A 
ATOM     78  C   UNL     1       3.318  -3.314 -15.486  1.00  0.00     0.148 A 
ATOM     79  C   UNL     1       2.789  -5.418 -17.267  1.00  0.00     0.002 A 
ATOM     80  C   UNL     1       2.013  -3.589 -15.880  1.00  0.00     0.091 A 
ATOM     81  F   UNL     1       3.607  -2.299 -14.660  1.00  0.00    -0.205 F 
ATOM     82  C   UNL     1       1.749  -4.627 -16.787  1.00  0.00     0.022 A 
BRANCH  80  83
ATOM     83  S   UNL     1       0.600  -2.706 -15.209  1.00  0.00     0.127 S 
ATOM     84  O   UNL     1       0.168  -1.916 -16.358  1.00  0.00    -0.237 OA
ATOM     85  O   UNL     1      -0.295  -3.804 -14.842  1.00  0.00    -0.237 OA
ATOM     86  O   UNL     1       1.113  -1.948 -14.075  1.00  0.00    -0.744 OA
ENDBRANCH  80  83
ENDBRANCH  52  76
BRANCH  64  87
ATOM     87  C   UNL     1      10.162  -2.203 -19.368  1.00  0.00     0.023 A 
ATOM     88  C   UNL     1       9.664  -1.060 -20.021  1.00  0.00     0.012 A 
ATOM     89  C   UNL     1      11.019  -3.080 -20.063  1.00  0.00     0.148 A 
ATOM     90  C   UNL     1       9.989  -0.808 -21.353  1.00  0.00     0.002 A 
ATOM     91  C   UNL     1      11.381  -2.796 -21.373  1.00  0.00     0.091 A 
ATOM     92  F   UNL     1      11.468  -4.172 -19.427  1.00  0.00    -0.205 F 
ATOM     93  C   UNL     1      10.857  -1.668 -22.024  1.00  0.00     0.022 A 
BRANCH  91  94
ATOM     94  S   UNL     1      12.571  -3.788 -22.282  1.00  0.00     0.127 S 
ATOM     95  O   UNL     1      11.722  -4.425 -23.287  1.00  0.00    -0.237 OA
ATOM     96  O   UNL     1      13.482  -2.771 -22.808  1.00  0.00    -0.237 OA
ATOM     97  O   UNL     1      13.170  -4.692 -21.309  1.00  0.00    -0.744 OA
ENDBRANCH  91  94
ENDBRANCH  64  87
ENDBRANCH  38  39
ENDBRANCH  30  33
ENDBRANCH  28  29
ENDBRANCH  27  28
ENDBRANCH  26  27
ENDBRANCH   1  26
TORSDOF 21
