REMARK SMILES C[C@@H]1CCCN(c2ccc(NC(=O)Cc3cccs3)c(C(=O)NCCCCCCNC(=O)c3ccc(-c4c5nc(c(-c6cccc(S(=O)(=O)[O-])c6F)c6ccc([nH]6)c(-c6cccc(S(=O)(=O)[O-])c6F)c6nc(c(-c7cccc(S(=O)(=O)[O-])c7F)c7ccc4[nH]7)C=C6)C=C5)cc3)c2)C1
REMARK SMILES IDX 26 1 25 2 24 3 23 4 21 5 22 6 20 8 7 9 8 10 96 11 9 12 10 13
REMARK SMILES IDX 6 14 1 15 2 16 3 17 97 18 4 19 5 20 11 21 12 22 13 24 14 25
REMARK SMILES IDX 15 26 16 27 19 28 17 29 18 30 27 31 28 32 29 33 30 34 31 35
REMARK SMILES IDX 32 37 33 38 34 39 95 40 35 41 94 42 36 43 37 44 38 45 88 46
REMARK SMILES IDX 39 47 93 48 87 49 89 50 40 51 92 52 86 53 85 54 41 56 73 57
REMARK SMILES IDX 53 58 72 59 54 60 57 61 71 62 90 63 55 64 56 65 70 67 91 68
REMARK SMILES IDX 58 69 42 70 43 71 51 72 44 73 46 74 52 75 45 76 47 77 48 78
REMARK SMILES IDX 49 79 50 80 74 81 75 82 83 83 76 84 78 85 84 86 77 87 79 88
REMARK SMILES IDX 80 89 81 90 82 91 59 92 60 93 68 94 61 95 63 96 69 97 62 98
REMARK SMILES IDX 64 99 65 100 66 101 67 102
REMARK H PARENT 23 7 11 23 30 36 89 55 57 66
REMARK Flexibility Score: inf
ROOT
ATOM      1  C   UNL     1       1.831  -1.397  -6.280  1.00  0.00     0.002 C 
ENDROOT
BRANCH   1   2
ATOM      2  C   UNL     1       1.129  -0.564  -5.207  1.00  0.00     0.021 C 
BRANCH   2   3
ATOM      3  C   UNL     1       2.006   0.056  -4.125  1.00  0.00     0.116 C 
BRANCH   3   4
ATOM      4  N   UNL     1       2.982   1.026  -4.593  1.00  0.00    -0.352 N 
ATOM      5  C   UNL     1       3.582   2.087  -3.942  1.00  0.00     0.253 C 
ATOM      6  O   UNL     1       4.408   2.753  -4.570  1.00  0.00    -0.269 OA
ATOM      7  H   UNL     1       3.262   0.907  -5.529  1.00  0.00     0.163 HD
BRANCH   5   8
ATOM      8  C   UNL     1       3.221   2.508  -2.546  1.00  0.00     0.065 A 
ATOM      9  C   UNL     1       2.129   1.927  -0.441  1.00  0.00     0.038 A 
ATOM     10  C   UNL     1       2.187   3.269  -0.079  1.00  0.00     0.028 A 
ATOM     11  C   UNL     1       2.769   1.556  -1.621  1.00  0.00     0.042 A 
ATOM     12  C   UNL     1       2.800   4.219  -0.899  1.00  0.00     0.029 A 
ATOM     13  C   UNL     1       3.258   3.878  -2.173  1.00  0.00     0.054 A 
BRANCH   9  14
ATOM     14  N   UNL     1       1.410   1.025   0.313  1.00  0.00    -0.371 N 
ATOM     15  C   UNL     1      -2.327   0.251   0.092  1.00  0.00     0.009 C 
ATOM     16  C   UNL     1      -0.833   0.121  -0.205  1.00  0.00     0.005 C 
ATOM     17  C   UNL     1      -0.323  -1.263   0.219  1.00  0.00     0.007 C 
ATOM     18  C   UNL     1      -0.032   1.240   0.491  1.00  0.00     0.119 C 
ATOM     19  C   UNL     1       1.176  -1.390  -0.042  1.00  0.00     0.022 C 
ATOM     20  C   UNL     1       1.947  -0.284   0.673  1.00  0.00     0.116 C 
ENDBRANCH   9  14
BRANCH  13  21
ATOM     21  N   UNL     1       3.718   4.840  -3.104  1.00  0.00    -0.325 N 
ATOM     22  C   UNL     1       3.623   6.196  -3.227  1.00  0.00     0.229 C 
ATOM     23  H   UNL     1       4.229   4.432  -3.841  1.00  0.00     0.169 HD
ATOM     24  O   UNL     1       4.186   6.713  -4.203  1.00  0.00    -0.274 OA
BRANCH  22  25
ATOM     25  C   UNL     1       2.893   7.094  -2.250  1.00  0.00     0.147 C 
BRANCH  25  26
ATOM     26  C   UNL     1       1.393   6.943  -2.249  1.00  0.00     0.014 A 
ATOM     27  C   UNL     1       0.576   5.913  -2.681  1.00  0.00     0.016 A 
ATOM     28  S   UNL     1       0.451   8.217  -1.571  1.00  0.00    -0.148 S 
ATOM     29  C   UNL     1      -0.802   6.140  -2.396  1.00  0.00     0.012 A 
ATOM     30  C   UNL     1      -1.010   7.367  -1.814  1.00  0.00     0.065 A 
ENDBRANCH  25  26
ENDBRANCH  22  25
ENDBRANCH  13  21
ENDBRANCH   5   8
ENDBRANCH   3   4
ENDBRANCH   2   3
ENDBRANCH   1   2
BRANCH   1  31
ATOM     31  C   UNL     1       2.785  -2.493  -5.801  1.00  0.00     0.002 C 
BRANCH  31  32
ATOM     32  C   UNL     1       2.244  -3.486  -4.769  1.00  0.00     0.021 C 
BRANCH  32  33
ATOM     33  C   UNL     1       0.934  -4.184  -5.119  1.00  0.00     0.116 C 
BRANCH  33  34
ATOM     34  N   UNL     1       1.009  -4.952  -6.348  1.00  0.00    -0.352 N 
ATOM     35  C   UNL     1       0.601  -6.238  -6.607  1.00  0.00     0.251 C 
ATOM     36  H   UNL     1       1.414  -4.481  -7.112  1.00  0.00     0.163 HD
ATOM     37  O   UNL     1       0.877  -6.748  -7.690  1.00  0.00    -0.269 OA
BRANCH  35  38
ATOM     38  C   UNL     1      -0.150  -7.021  -5.595  1.00  0.00     0.039 A 
ATOM     39  C   UNL     1       0.145  -8.380  -5.449  1.00  0.00     0.014 A 
ATOM     40  C   UNL     1      -1.171  -6.449  -4.830  1.00  0.00     0.014 A 
ATOM     41  C   UNL     1      -0.560  -9.154  -4.522  1.00  0.00     0.010 A 
ATOM     42  C   UNL     1      -1.820  -7.204  -3.853  1.00  0.00     0.010 A 
ATOM     43  C   UNL     1      -1.541  -8.570  -3.706  1.00  0.00    -0.014 A 
BRANCH  43  44
ATOM     44  C   UNL     1      -2.308  -9.386  -2.727  1.00  0.00     0.031 A 
ATOM     45  C   UNL     1      -3.797  -9.560  -2.887  1.00  0.00     0.074 A 
ATOM     46  C   UNL     1      -1.680  -9.926  -1.663  1.00  0.00     0.049 A 
ATOM     47  N   UNL     1      -4.638 -10.216  -2.130  1.00  0.00    -0.248 NA
ATOM     48  C   UNL     1      -4.429  -8.887  -4.034  1.00  0.00     0.031 C 
ATOM     49  C   UNL     1      -0.259  -9.768  -1.350  1.00  0.00     0.029 A 
ATOM     50  N   UNL     1      -2.162 -10.701  -0.637  1.00  0.00    -0.354 N 
ATOM     51  C   UNL     1      -5.896 -10.006  -2.684  1.00  0.00     0.074 A 
ATOM     52  C   UNL     1      -5.714  -9.129  -3.820  1.00  0.00     0.031 C 
ATOM     53  C   UNL     1       0.018 -10.432  -0.215  1.00  0.00     0.029 A 
ATOM     54  C   UNL     1      -1.207 -11.044   0.292  1.00  0.00     0.049 A 
ATOM     55  H   UNL     1      -3.102 -10.984  -0.572  1.00  0.00     0.167 HD
ATOM     56  C   UNL     1      -7.090 -10.521  -2.307  1.00  0.00     0.034 A 
ATOM     57  C   UNL     1      -1.305 -11.773   1.421  1.00  0.00     0.034 A 
ATOM     58  C   UNL     1      -7.262 -11.434  -1.209  1.00  0.00     0.049 A 
ATOM     59  C   UNL     1      -2.632 -12.387   1.782  1.00  0.00     0.074 A 
ATOM     60  C   UNL     1      -8.417 -12.073  -0.793  1.00  0.00     0.029 A 
ATOM     61  N   UNL     1      -6.250 -11.840  -0.353  1.00  0.00    -0.354 N 
ATOM     62  N   UNL     1      -3.781 -12.296   1.157  1.00  0.00    -0.248 NA
ATOM     63  C   UNL     1      -2.665 -13.243   2.977  1.00  0.00     0.031 C 
ATOM     64  C   UNL     1      -8.106 -12.854   0.325  1.00  0.00     0.029 A 
ATOM     65  C   UNL     1      -6.751 -12.723   0.587  1.00  0.00     0.049 A 
ATOM     66  H   UNL     1      -5.313 -11.544  -0.407  1.00  0.00     0.167 HD
ATOM     67  C   UNL     1      -4.659 -13.120   1.853  1.00  0.00     0.074 A 
ATOM     68  C   UNL     1      -3.904 -13.713   2.938  1.00  0.00     0.031 C 
ATOM     69  C   UNL     1      -5.974 -13.355   1.622  1.00  0.00     0.034 A 
BRANCH  56  70
ATOM     70  C   UNL     1      -8.302 -10.153  -3.126  1.00  0.00     0.023 A 
ATOM     71  C   UNL     1      -8.443 -10.670  -4.430  1.00  0.00     0.012 A 
ATOM     72  C   UNL     1      -9.324  -9.346  -2.590  1.00  0.00     0.148 A 
ATOM     73  C   UNL     1      -9.561 -10.358  -5.203  1.00  0.00     0.002 A 
ATOM     74  C   UNL     1     -10.459  -9.078  -3.349  1.00  0.00     0.091 A 
ATOM     75  F   UNL     1      -9.165  -8.846  -1.356  1.00  0.00    -0.205 F 
ATOM     76  C   UNL     1     -10.573  -9.572  -4.659  1.00  0.00     0.022 A 
BRANCH  74  77
ATOM     77  S   UNL     1     -11.853  -8.142  -2.711  1.00  0.00     0.127 S 
ATOM     78  O   UNL     1     -11.743  -6.896  -3.467  1.00  0.00    -0.237 OA
ATOM     79  O   UNL     1     -12.988  -8.986  -3.086  1.00  0.00    -0.237 OA
ATOM     80  O   UNL     1     -11.634  -8.023  -1.276  1.00  0.00    -0.744 OA
ENDBRANCH  74  77
ENDBRANCH  56  70
BRANCH  57  81
ATOM     81  C   UNL     1      -0.093 -12.033   2.249  1.00  0.00     0.023 A 
ATOM     82  C   UNL     1       0.454 -13.330   2.288  1.00  0.00     0.012 A 
ATOM     83  C   UNL     1       0.531 -11.003   2.979  1.00  0.00     0.148 A 
ATOM     84  C   UNL     1       1.577 -13.607   3.067  1.00  0.00     0.002 A 
ATOM     85  C   UNL     1       1.682 -11.273   3.710  1.00  0.00     0.091 A 
ATOM     86  F   UNL     1      -0.011  -9.777   2.939  1.00  0.00    -0.205 F 
ATOM     87  C   UNL     1       2.197 -12.577   3.770  1.00  0.00     0.022 A 
BRANCH  85  88
ATOM     88  S   UNL     1       2.619  -9.983   4.537  1.00  0.00     0.127 S 
ATOM     89  O   UNL     1       2.333 -10.259   5.942  1.00  0.00    -0.237 OA
ATOM     90  O   UNL     1       3.987 -10.283   4.115  1.00  0.00    -0.237 OA
ATOM     91  O   UNL     1       2.096  -8.725   4.019  1.00  0.00    -0.744 OA
ENDBRANCH  85  88
ENDBRANCH  57  81
BRANCH  69  92
ATOM     92  C   UNL     1      -6.677 -14.341   2.519  1.00  0.00     0.023 A 
ATOM     93  C   UNL     1      -6.968 -13.998   3.854  1.00  0.00     0.012 A 
ATOM     94  C   UNL     1      -7.106 -15.585   2.015  1.00  0.00     0.148 A 
ATOM     95  C   UNL     1      -7.641 -14.894   4.685  1.00  0.00     0.002 A 
ATOM     96  C   UNL     1      -7.821 -16.451   2.833  1.00  0.00     0.091 A 
ATOM     97  F   UNL     1      -6.801 -15.902   0.748  1.00  0.00    -0.205 F 
ATOM     98  C   UNL     1      -8.077 -16.114   4.172  1.00  0.00     0.022 A 
BRANCH  96  99
ATOM     99  S   UNL     1      -8.505 -17.996   2.223  1.00  0.00     0.127 S 
ATOM    100  O   UNL     1      -7.572 -18.975   2.779  1.00  0.00    -0.237 OA
ATOM    101  O   UNL     1      -9.836 -18.009   2.830  1.00  0.00    -0.237 OA
ATOM    102  O   UNL     1      -8.507 -17.883   0.771  1.00  0.00    -0.744 OA
ENDBRANCH  96  99
ENDBRANCH  69  92
ENDBRANCH  43  44
ENDBRANCH  35  38
ENDBRANCH  33  34
ENDBRANCH  32  33
ENDBRANCH  31  32
ENDBRANCH   1  31
TORSDOF 20
