REMARK SMILES C[C@@H](Nc1cccc(Cl)c1)[C@@H](C)C(=O)NCCCCCCNC(=O)c1ccc(-c2c3nc(c(-c4cccc(S(=O)(=O)[O-])c4F)c4ccc([nH]4)c(-c4cccc(S(=O)(=O)[O-])c4F)c4nc(c(-c5cccc(S(=O)(=O)[O-])c5F)c5ccc2[nH]5)C=C4)C=C3)cc1
REMARK SMILES IDX 18 1 17 2 16 3 15 4 13 5 14 6 11 8 12 9 2 10 1 11 3 12 4 14
REMARK SMILES IDX 5 15 10 16 6 17 8 18 7 19 9 20 19 21 20 22 21 23 22 24 23 25
REMARK SMILES IDX 24 27 25 28 26 29 87 30 27 31 86 32 28 33 29 34 30 35 80 36
REMARK SMILES IDX 31 37 85 38 79 39 81 40 32 41 84 42 78 43 77 44 33 46 65 47
REMARK SMILES IDX 45 48 64 49 46 50 49 51 63 52 82 53 47 54 48 55 62 57 83 58
REMARK SMILES IDX 50 59 34 60 35 61 43 62 36 63 38 64 44 65 37 66 39 67 40 68
REMARK SMILES IDX 41 69 42 70 66 71 67 72 75 73 68 74 70 75 76 76 69 77 71 78
REMARK SMILES IDX 72 79 73 80 74 81 51 82 52 83 60 84 53 85 55 86 61 87 54 88
REMARK SMILES IDX 56 89 57 90 58 91 59 92
REMARK H PARENT 15 7 3 13 22 26 81 45 49 56
REMARK Flexibility Score: inf
ROOT
ATOM      1  C   UNL     1       0.407   5.960  -1.766  1.00  0.00     0.002 C 
ENDROOT
BRANCH   1   2
ATOM      2  C   UNL     1       0.825   4.696  -1.006  1.00  0.00     0.021 C 
BRANCH   2   3
ATOM      3  C   UNL     1      -0.283   4.053  -0.171  1.00  0.00     0.116 C 
BRANCH   3   4
ATOM      4  N   UNL     1      -1.368   3.562  -0.995  1.00  0.00    -0.356 N 
ATOM      5  C   UNL     1      -1.772   2.303  -1.304  1.00  0.00     0.224 C 
ATOM      6  O   UNL     1      -2.831   2.209  -1.936  1.00  0.00    -0.275 OA
ATOM      7  H   UNL     1      -1.912   4.271  -1.407  1.00  0.00     0.163 HD
BRANCH   5   8
ATOM      8  C   UNL     1      -1.045   1.046  -0.831  1.00  0.00     0.097 C 
ATOM      9  C   UNL     1      -1.467   0.859   0.637  1.00  0.00     0.020 C 
BRANCH   8  10
ATOM     10  C   UNL     1       0.486   0.987  -1.098  1.00  0.00     0.088 C 
ATOM     11  C   UNL     1       1.169  -0.052  -0.183  1.00  0.00     0.031 C 
BRANCH  10  12
ATOM     12  N   UNL     1       0.912   0.634  -2.465  1.00  0.00    -0.382 N 
ATOM     13  H   UNL     1       1.865   0.403  -2.560  1.00  0.00     0.160 HD
BRANCH  12  14
ATOM     14  C   UNL     1       0.180   0.582  -3.626  1.00  0.00     0.036 A 
ATOM     15  C   UNL     1      -0.647   1.612  -4.066  1.00  0.00     0.026 A 
ATOM     16  C   UNL     1       0.227  -0.588  -4.393  1.00  0.00     0.046 A 
ATOM     17  C   UNL     1      -1.483   1.455  -5.177  1.00  0.00     0.004 A 
ATOM     18  C   UNL     1      -0.584  -0.742  -5.518  1.00  0.00     0.043 A 
ATOM     19  C   UNL     1      -1.460   0.268  -5.900  1.00  0.00     0.020 A 
ATOM     20  Cl  UNL     1      -0.513  -2.203  -6.427  1.00  0.00    -0.084 Cl
ENDBRANCH  12  14
ENDBRANCH  10  12
ENDBRANCH   8  10
ENDBRANCH   5   8
ENDBRANCH   3   4
ENDBRANCH   2   3
ENDBRANCH   1   2
BRANCH   1  21
ATOM     21  C   UNL     1      -0.285   7.034  -0.922  1.00  0.00     0.002 C 
BRANCH  21  22
ATOM     22  C   UNL     1       0.464   7.451   0.345  1.00  0.00     0.021 C 
BRANCH  22  23
ATOM     23  C   UNL     1       1.861   8.009   0.105  1.00  0.00     0.116 C 
BRANCH  23  24
ATOM     24  N   UNL     1       1.828   9.247  -0.657  1.00  0.00    -0.352 N 
ATOM     25  C   UNL     1       2.334  10.481  -0.328  1.00  0.00     0.251 C 
ATOM     26  H   UNL     1       1.380   9.193  -1.532  1.00  0.00     0.163 HD
ATOM     27  O   UNL     1       2.032  11.464  -0.995  1.00  0.00    -0.269 OA
BRANCH  25  28
ATOM     28  C   UNL     1       3.231  10.621   0.841  1.00  0.00     0.039 A 
ATOM     29  C   UNL     1       3.035  11.689   1.719  1.00  0.00     0.014 A 
ATOM     30  C   UNL     1       4.262   9.705   1.067  1.00  0.00     0.014 A 
ATOM     31  C   UNL     1       3.841  11.808   2.853  1.00  0.00     0.010 A 
ATOM     32  C   UNL     1       5.011   9.780   2.238  1.00  0.00     0.010 A 
ATOM     33  C   UNL     1       4.815  10.837   3.140  1.00  0.00    -0.014 A 
BRANCH  33  34
ATOM     34  C   UNL     1       5.632  10.907   4.379  1.00  0.00     0.031 A 
ATOM     35  C   UNL     1       7.128  11.054   4.298  1.00  0.00     0.074 A 
ATOM     36  C   UNL     1       5.034  10.759   5.579  1.00  0.00     0.049 A 
ATOM     37  N   UNL     1       8.007  11.084   5.266  1.00  0.00    -0.248 NA
ATOM     38  C   UNL     1       7.717  11.155   2.952  1.00  0.00     0.031 C 
ATOM     39  C   UNL     1       3.602  10.534   5.788  1.00  0.00     0.029 A 
ATOM     40  N   UNL     1       5.559  10.750   6.847  1.00  0.00    -0.354 N 
ATOM     41  C   UNL     1       9.249  11.171   4.650  1.00  0.00     0.074 A 
ATOM     42  C   UNL     1       9.014  11.154   3.223  1.00  0.00     0.031 C 
ATOM     43  C   UNL     1       3.363  10.415   7.104  1.00  0.00     0.029 A 
ATOM     44  C   UNL     1       4.625  10.519   7.830  1.00  0.00     0.049 A 
ATOM     45  H   UNL     1       6.515  10.895   7.036  1.00  0.00     0.167 HD
ATOM     46  C   UNL     1      10.474  11.283   5.218  1.00  0.00     0.034 A 
ATOM     47  C   UNL     1       4.768  10.393   9.164  1.00  0.00     0.034 A 
ATOM     48  C   UNL     1      10.701  11.335   6.638  1.00  0.00     0.049 A 
ATOM     49  C   UNL     1       6.135  10.549   9.771  1.00  0.00     0.074 A 
ATOM     50  C   UNL     1      11.893  11.534   7.310  1.00  0.00     0.029 A 
ATOM     51  N   UNL     1       9.720  11.175   7.603  1.00  0.00    -0.354 N 
ATOM     52  N   UNL     1       7.279  10.788   9.178  1.00  0.00    -0.248 NA
ATOM     53  C   UNL     1       6.227  10.456  11.235  1.00  0.00     0.031 C 
ATOM     54  C   UNL     1      11.639  11.459   8.683  1.00  0.00     0.029 A 
ATOM     55  C   UNL     1      10.281  11.255   8.866  1.00  0.00     0.049 A 
ATOM     56  H   UNL     1       8.764  11.026   7.418  1.00  0.00     0.167 HD
ATOM     57  C   UNL     1       8.219  10.911  10.195  1.00  0.00     0.074 A 
ATOM     58  C   UNL     1       7.505  10.741  11.444  1.00  0.00     0.031 C 
ATOM     59  C   UNL     1       9.553  11.133  10.104  1.00  0.00     0.034 A 
BRANCH  46  60
ATOM     60  C   UNL     1      11.665  11.398   4.303  1.00  0.00     0.023 A 
ATOM     61  C   UNL     1      11.857  12.576   3.550  1.00  0.00     0.012 A 
ATOM     62  C   UNL     1      12.627  10.371   4.233  1.00  0.00     0.148 A 
ATOM     63  C   UNL     1      12.966  12.714   2.716  1.00  0.00     0.002 A 
ATOM     64  C   UNL     1      13.754  10.537   3.437  1.00  0.00     0.091 A 
ATOM     65  F   UNL     1      12.419   9.252   4.940  1.00  0.00    -0.205 F 
ATOM     66  C   UNL     1      13.918  11.700   2.668  1.00  0.00     0.022 A 
BRANCH  64  67
ATOM     67  S   UNL     1      15.080   9.327   3.369  1.00  0.00     0.127 S 
ATOM     68  O   UNL     1      14.935   8.807   2.010  1.00  0.00    -0.237 OA
ATOM     69  O   UNL     1      16.265  10.158   3.581  1.00  0.00    -0.237 OA
ATOM     70  O   UNL     1      14.808   8.371   4.433  1.00  0.00    -0.744 OA
ENDBRANCH  64  67
ENDBRANCH  46  60
BRANCH  47  71
ATOM     71  C   UNL     1       3.573  10.154  10.023  1.00  0.00     0.023 A 
ATOM     72  C   UNL     1       3.128  11.170  10.892  1.00  0.00     0.012 A 
ATOM     73  C   UNL     1       2.866   8.938   9.970  1.00  0.00     0.148 A 
ATOM     74  C   UNL     1       2.023  10.964  11.719  1.00  0.00     0.002 A 
ATOM     75  C   UNL     1       1.733   8.761  10.754  1.00  0.00     0.091 A 
ATOM     76  F   UNL     1       3.311   7.981   9.143  1.00  0.00    -0.205 F 
ATOM     77  C   UNL     1       1.321   9.765  11.643  1.00  0.00     0.022 A 
BRANCH  75  78
ATOM     78  S   UNL     1       0.691   7.303  10.625  1.00  0.00     0.127 S 
ATOM     79  O   UNL     1       0.935   6.647  11.907  1.00  0.00    -0.237 OA
ATOM     80  O   UNL     1      -0.639   7.896  10.479  1.00  0.00    -0.237 OA
ATOM     81  O   UNL     1       1.160   6.585   9.448  1.00  0.00    -0.744 OA
ENDBRANCH  75  78
ENDBRANCH  47  71
BRANCH  59  82
ATOM     82  C   UNL     1      10.333  11.253  11.387  1.00  0.00     0.023 A 
ATOM     83  C   UNL     1      10.565  10.113  12.182  1.00  0.00     0.012 A 
ATOM     84  C   UNL     1      10.897  12.487  11.768  1.00  0.00     0.148 A 
ATOM     85  C   UNL     1      11.316  10.207  13.354  1.00  0.00     0.002 A 
ATOM     86  C   UNL     1      11.689  12.562  12.907  1.00  0.00     0.091 A 
ATOM     87  F   UNL     1      10.651  13.564  11.008  1.00  0.00    -0.205 F 
ATOM     88  C   UNL     1      11.887  11.426  13.709  1.00  0.00     0.022 A 
BRANCH  86  89
ATOM     89  S   UNL     1      12.547  14.065  13.388  1.00  0.00     0.127 S 
ATOM     90  O   UNL     1      11.803  14.463  14.581  1.00  0.00    -0.237 OA
ATOM     91  O   UNL     1      13.902  13.577  13.648  1.00  0.00    -0.237 OA
ATOM     92  O   UNL     1      12.438  14.972  12.253  1.00  0.00    -0.744 OA
ENDBRANCH  86  89
ENDBRANCH  59  82
ENDBRANCH  33  34
ENDBRANCH  25  28
ENDBRANCH  23  24
ENDBRANCH  22  23
ENDBRANCH  21  22
ENDBRANCH   1  21
TORSDOF 19
