REMARK SMILES O=C(NCCCCCCNC(=O)[C@H]1CC[C@H]2CCCC[C@@H]2[N@H+]1[C@@H]1CCCSC1)c1ccc(-c2c3nc(c(-c4cccc(S(=O)(=O)[O-])c4F)c4ccc([nH]4)c(-c4cccc(S(=O)(=O)[O-])c4F)c4nc(c(-c5cccc(S(=O)(=O)[O-])c5F)c5ccc2[nH]5)C=C4)C=C3)cc1
REMARK SMILES IDX 5 1 4 2 3 3 1 4 2 5 29 7 30 8 91 9 31 10 90 11 32 12 33 13
REMARK SMILES IDX 34 14 84 15 35 16 89 17 83 18 85 19 36 20 88 21 82 22 81 23
REMARK SMILES IDX 37 25 69 26 49 27 68 28 50 29 53 30 67 31 86 32 51 33 52 34
REMARK SMILES IDX 66 36 87 37 54 38 38 39 39 40 47 41 40 42 42 43 48 44 41 45
REMARK SMILES IDX 43 46 44 47 45 48 46 49 70 50 71 51 79 52 72 53 74 54 80 55
REMARK SMILES IDX 73 56 75 57 76 58 77 59 78 60 55 61 56 62 64 63 57 64 59 65
REMARK SMILES IDX 65 66 58 67 60 68 61 69 62 70 63 71 6 72 7 73 8 74 9 75
REMARK SMILES IDX 10 76 11 77 12 79 13 80 14 81 22 82 15 83 21 84 16 86 20 87
REMARK SMILES IDX 17 88 19 89 18 90 23 91 24 92 28 93 25 94 27 95 26 96
REMARK H PARENT 3 6 85 24 53 35 10 78 22 85
REMARK Flexibility Score: inf
ROOT
ATOM      1  C   UNL     1       4.461  -2.553   0.531  1.00  0.00     0.021 C 
ENDROOT
BRANCH   1   2
ATOM      2  C   UNL     1       4.275  -1.272  -0.272  1.00  0.00     0.116 C 
BRANCH   2   3
ATOM      3  N   UNL     1       2.881  -0.945  -0.497  1.00  0.00    -0.352 N 
ATOM      4  O   UNL     1       0.987   0.259  -0.341  1.00  0.00    -0.269 OA
ATOM      5  C   UNL     1       2.202   0.217  -0.213  1.00  0.00     0.251 C 
ATOM      6  H   UNL     1       2.342  -1.657  -0.913  1.00  0.00     0.163 HD
BRANCH   5   7
ATOM      7  C   UNL     1       2.947   1.399   0.278  1.00  0.00     0.039 A 
ATOM      8  C   UNL     1       4.138   1.804  -0.332  1.00  0.00     0.014 A 
ATOM      9  C   UNL     1       2.442   2.111   1.369  1.00  0.00     0.014 A 
ATOM     10  C   UNL     1       4.893   2.826   0.234  1.00  0.00     0.010 A 
ATOM     11  C   UNL     1       3.161   3.192   1.885  1.00  0.00     0.010 A 
ATOM     12  C   UNL     1       4.410   3.537   1.346  1.00  0.00    -0.014 A 
BRANCH  12  13
ATOM     13  C   UNL     1       5.199   4.670   1.892  1.00  0.00     0.031 A 
ATOM     14  C   UNL     1       5.757   4.632   3.289  1.00  0.00     0.074 A 
ATOM     15  C   UNL     1       5.405   5.750   1.113  1.00  0.00     0.049 A 
ATOM     16  N   UNL     1       6.490   5.523   3.905  1.00  0.00    -0.248 NA
ATOM     17  C   UNL     1       5.445   3.448   4.105  1.00  0.00     0.031 C 
ATOM     18  C   UNL     1       4.876   5.920  -0.243  1.00  0.00     0.029 A 
ATOM     19  N   UNL     1       6.110   6.904   1.341  1.00  0.00    -0.354 N 
ATOM     20  C   UNL     1       6.688   5.035   5.191  1.00  0.00     0.074 A 
ATOM     21  C   UNL     1       5.993   3.768   5.270  1.00  0.00     0.031 C 
ATOM     22  C   UNL     1       5.300   7.093  -0.736  1.00  0.00     0.029 A 
ATOM     23  C   UNL     1       6.088   7.779   0.281  1.00  0.00     0.049 A 
ATOM     24  H   UNL     1       6.585   7.088   2.184  1.00  0.00     0.167 HD
ATOM     25  C   UNL     1       7.396   5.585   6.208  1.00  0.00     0.034 A 
ATOM     26  C   UNL     1       6.636   9.001   0.142  1.00  0.00     0.034 A 
ATOM     27  C   UNL     1       8.118   6.826   6.111  1.00  0.00     0.049 A 
ATOM     28  C   UNL     1       7.443   9.569   1.273  1.00  0.00     0.074 A 
ATOM     29  C   UNL     1       8.927   7.429   7.059  1.00  0.00     0.029 A 
ATOM     30  N   UNL     1       8.112   7.662   5.004  1.00  0.00    -0.354 N 
ATOM     31  N   UNL     1       7.732   9.028   2.432  1.00  0.00    -0.248 NA
ATOM     32  C   UNL     1       8.023  10.902   1.068  1.00  0.00     0.031 C 
ATOM     33  C   UNL     1       9.393   8.639   6.532  1.00  0.00     0.029 A 
ATOM     34  C   UNL     1       8.894   8.779   5.247  1.00  0.00     0.049 A 
ATOM     35  H   UNL     1       7.623   7.487   4.167  1.00  0.00     0.167 HD
ATOM     36  C   UNL     1       8.557   9.938   3.081  1.00  0.00     0.074 A 
ATOM     37  C   UNL     1       8.735  11.057   2.176  1.00  0.00     0.031 C 
ATOM     38  C   UNL     1       9.106   9.860   4.318  1.00  0.00     0.034 A 
BRANCH  25  39
ATOM     39  C   UNL     1       7.452   4.829   7.512  1.00  0.00     0.023 A 
ATOM     40  C   UNL     1       8.225   3.654   7.606  1.00  0.00     0.012 A 
ATOM     41  C   UNL     1       6.785   5.307   8.657  1.00  0.00     0.148 A 
ATOM     42  C   UNL     1       8.304   2.947   8.806  1.00  0.00     0.002 A 
ATOM     43  C   UNL     1       6.901   4.620   9.861  1.00  0.00     0.091 A 
ATOM     44  F   UNL     1       6.035   6.413   8.547  1.00  0.00    -0.205 F 
ATOM     45  C   UNL     1       7.650   3.435   9.934  1.00  0.00     0.022 A 
BRANCH  43  46
ATOM     46  S   UNL     1       6.157   5.218  11.384  1.00  0.00     0.127 S 
ATOM     47  O   UNL     1       4.989   4.347  11.503  1.00  0.00    -0.237 OA
ATOM     48  O   UNL     1       7.211   4.961  12.367  1.00  0.00    -0.237 OA
ATOM     49  O   UNL     1       5.875   6.628  11.159  1.00  0.00    -0.744 OA
ENDBRANCH  43  46
ENDBRANCH  25  39
BRANCH  26  50
ATOM     50  C   UNL     1       6.495   9.726  -1.151  1.00  0.00     0.023 A 
ATOM     51  C   UNL     1       7.622   9.873  -1.983  1.00  0.00     0.012 A 
ATOM     52  C   UNL     1       5.248  10.212  -1.588  1.00  0.00     0.148 A 
ATOM     53  C   UNL     1       7.513  10.509  -3.220  1.00  0.00     0.002 A 
ATOM     54  C   UNL     1       5.135  10.793  -2.845  1.00  0.00     0.091 A 
ATOM     55  F   UNL     1       4.191  10.071  -0.775  1.00  0.00    -0.205 F 
ATOM     56  C   UNL     1       6.269  10.957  -3.656  1.00  0.00     0.022 A 
BRANCH  54  57
ATOM     57  S   UNL     1       3.552  11.272  -3.547  1.00  0.00     0.127 S 
ATOM     58  O   UNL     1       3.650  12.729  -3.538  1.00  0.00    -0.237 OA
ATOM     59  O   UNL     1       3.613  10.658  -4.874  1.00  0.00    -0.237 OA
ATOM     60  O   UNL     1       2.543  10.699  -2.666  1.00  0.00    -0.744 OA
ENDBRANCH  54  57
ENDBRANCH  26  50
BRANCH  38  61
ATOM     61  C   UNL     1       9.987  10.999   4.758  1.00  0.00     0.023 A 
ATOM     62  C   UNL     1       9.412  12.239   5.103  1.00  0.00     0.012 A 
ATOM     63  C   UNL     1      11.378  10.821   4.889  1.00  0.00     0.148 A 
ATOM     64  C   UNL     1      10.213  13.293   5.539  1.00  0.00     0.002 A 
ATOM     65  C   UNL     1      12.164  11.861   5.370  1.00  0.00     0.091 A 
ATOM     66  F   UNL     1      11.909   9.642   4.533  1.00  0.00    -0.205 F 
ATOM     67  C   UNL     1      11.585  13.101   5.685  1.00  0.00     0.022 A 
BRANCH  65  68
ATOM     68  S   UNL     1      13.923  11.665   5.677  1.00  0.00     0.127 S 
ATOM     69  O   UNL     1      14.505  12.356   4.528  1.00  0.00    -0.237 OA
ATOM     70  O   UNL     1      14.097  12.355   6.956  1.00  0.00    -0.237 OA
ATOM     71  O   UNL     1      14.158  10.228   5.733  1.00  0.00    -0.744 OA
ENDBRANCH  65  68
ENDBRANCH  38  61
ENDBRANCH  12  13
ENDBRANCH   5   7
ENDBRANCH   2   3
ENDBRANCH   1   2
BRANCH   1  72
ATOM     72  C   UNL     1       3.887  -3.823  -0.100  1.00  0.00     0.002 C 
BRANCH  72  73
ATOM     73  C   UNL     1       4.323  -4.125  -1.537  1.00  0.00     0.002 C 
BRANCH  73  74
ATOM     74  C   UNL     1       5.818  -4.004  -1.827  1.00  0.00     0.021 C 
BRANCH  74  75
ATOM     75  C   UNL     1       6.736  -4.820  -0.925  1.00  0.00     0.116 C 
BRANCH  75  76
ATOM     76  N   UNL     1       6.793  -6.209  -1.317  1.00  0.00    -0.351 N 
ATOM     77  C   UNL     1       7.811  -7.090  -1.481  1.00  0.00     0.278 C 
ATOM     78  H   UNL     1       5.907  -6.597  -1.503  1.00  0.00     0.163 HD
ATOM     79  O   UNL     1       7.462  -8.215  -1.874  1.00  0.00    -0.268 OA
BRANCH  77  80
ATOM     80  C   UNL     1       9.316  -6.815  -1.175  1.00  0.00     0.274 C 
ATOM     81  C   UNL     1       9.861  -5.384  -1.064  1.00  0.00     0.076 C 
ATOM     82  N   UNL     1       9.820  -7.717  -0.103  1.00  0.00    -0.319 N 
ATOM     83  C   UNL     1      11.345  -5.301  -0.699  1.00  0.00     0.016 C 
ATOM     84  C   UNL     1      11.290  -7.712   0.030  1.00  0.00     0.188 C 
ATOM     85  H   UNL     1       9.608  -8.652  -0.451  1.00  0.00     0.349 HD
ATOM     86  C   UNL     1      12.015  -6.655  -0.841  1.00  0.00     0.048 C 
ATOM     87  C   UNL     1      11.876  -9.085  -0.354  1.00  0.00     0.065 C 
ATOM     88  C   UNL     1      13.496  -6.611  -0.457  1.00  0.00     0.010 C 
ATOM     89  C   UNL     1      13.388  -9.128  -0.098  1.00  0.00     0.006 C 
ATOM     90  C   UNL     1      14.148  -7.963  -0.736  1.00  0.00     0.001 C 
BRANCH  82  91
ATOM     91  C   UNL     1       9.040  -7.737   1.167  1.00  0.00     0.194 C 
ATOM     92  C   UNL     1       9.170  -6.454   2.016  1.00  0.00     0.067 C 
ATOM     93  C   UNL     1       9.363  -9.005   1.997  1.00  0.00     0.134 C 
ATOM     94  C   UNL     1       8.316  -6.453   3.284  1.00  0.00     0.017 C 
ATOM     95  S   UNL     1       8.342  -9.189   3.496  1.00  0.00    -0.156 SA
ATOM     96  C   UNL     1       8.668  -7.573   4.246  1.00  0.00     0.070 C 
ENDBRANCH  82  91
ENDBRANCH  77  80
ENDBRANCH  75  76
ENDBRANCH  74  75
ENDBRANCH  73  74
ENDBRANCH  72  73
ENDBRANCH   1  72
TORSDOF 17
