REMARK SMILES C[C@H](CC(=O)NCCCCCCNC(=O)c1ccc(-c2c3nc(c(-c4cccc(S(=O)(=O)[O-])c4F)c4ccc([nH]4)c(-c4cccc(S(=O)(=O)[O-])c4F)c4nc(c(-c5cccc(S(=O)(=O)[O-])c5F)c5ccc2[nH]5)C=C4)C=C3)cc1)NC(=O)Cn1nc2ccccn2c1=O
REMARK SMILES IDX 9 1 8 2 7 3 6 4 4 5 5 6 3 8 2 9 1 10 79 11 80 12 81 14 82 15
REMARK SMILES IDX 83 16 84 17 91 18 85 19 90 20 92 21 86 22 89 23 87 24 88 25
REMARK SMILES IDX 10 26 11 27 12 28 13 29 14 30 15 32 16 33 17 34 78 35 18 36
REMARK SMILES IDX 77 37 19 38 20 39 21 40 71 41 22 42 76 43 70 44 72 45 23 46
REMARK SMILES IDX 75 47 69 48 68 49 24 51 56 52 36 53 55 54 37 55 40 56 54 57
REMARK SMILES IDX 73 58 38 59 39 60 53 62 74 63 41 64 25 65 26 66 34 67 27 68
REMARK SMILES IDX 29 69 35 70 28 71 30 72 31 73 32 74 33 75 57 76 58 77 66 78
REMARK SMILES IDX 59 79 61 80 67 81 60 82 62 83 63 84 64 85 65 86 42 87 43 88
REMARK SMILES IDX 51 89 44 90 46 91 52 92 45 93 47 94 48 95 49 96 50 97
REMARK H PARENT 6 7 79 13 13 31 72 50 40 61
REMARK Flexibility Score: inf
ROOT
ATOM      1  C   UNL     1       1.004  -2.448   4.430  1.00  0.00     0.002 C 
ENDROOT
BRANCH   1   2
ATOM      2  C   UNL     1       0.024  -1.635   3.574  1.00  0.00     0.021 C 
BRANCH   2   3
ATOM      3  C   UNL     1       0.550  -0.267   3.135  1.00  0.00     0.116 C 
BRANCH   3   4
ATOM      4  N   UNL     1       1.891  -0.336   2.581  1.00  0.00    -0.356 N 
ATOM      5  C   UNL     1       2.306  -0.391   1.289  1.00  0.00     0.222 C 
ATOM      6  O   UNL     1       3.511  -0.482   1.050  1.00  0.00    -0.275 OA
ATOM      7  H   UNL     1       2.615  -0.343   3.249  1.00  0.00     0.163 HD
BRANCH   5   8
ATOM      8  C   UNL     1       1.294  -0.360   0.175  1.00  0.00     0.124 C 
BRANCH   8   9
ATOM      9  C   UNL     1       0.829  -1.739  -0.314  1.00  0.00     0.088 C 
ATOM     10  C   UNL     1       1.433  -2.970   0.355  1.00  0.00     0.031 C 
BRANCH   9  11
ATOM     11  N   UNL     1      -0.632  -1.831  -0.284  1.00  0.00    -0.352 N 
ATOM     12  C   UNL     1      -1.489  -2.053  -1.329  1.00  0.00     0.242 C 
ATOM     13  H   UNL     1      -1.052  -1.718   0.600  1.00  0.00     0.163 HD
ATOM     14  O   UNL     1      -2.686  -2.214  -1.081  1.00  0.00    -0.273 OA
BRANCH  12  15
ATOM     15  C   UNL     1      -0.937  -2.231  -2.739  1.00  0.00     0.249 C 
BRANCH  15  16
ATOM     16  N   UNL     1      -0.207  -1.090  -3.240  1.00  0.00    -0.203 N 
ATOM     17  N   UNL     1      -0.288   0.173  -2.688  1.00  0.00    -0.149 NA
ATOM     18  C   UNL     1       0.619  -1.079  -4.373  1.00  0.00     0.350 A 
ATOM     19  C   UNL     1       0.457   0.893  -3.462  1.00  0.00     0.161 A 
ATOM     20  N   UNL     1       1.019   0.229  -4.501  1.00  0.00    -0.250 N 
ATOM     21  O   UNL     1       0.904  -2.028  -5.090  1.00  0.00    -0.246 OA
ATOM     22  C   UNL     1       0.752   2.345  -3.312  1.00  0.00     0.050 A 
ATOM     23  C   UNL     1       1.763   0.821  -5.480  1.00  0.00     0.098 A 
ATOM     24  C   UNL     1       1.191   2.934  -4.444  1.00  0.00     0.005 A 
ATOM     25  C   UNL     1       1.860   2.159  -5.481  1.00  0.00     0.019 A 
ENDBRANCH  15  16
ENDBRANCH  12  15
ENDBRANCH   9  11
ENDBRANCH   8   9
ENDBRANCH   5   8
ENDBRANCH   3   4
ENDBRANCH   2   3
ENDBRANCH   1   2
BRANCH   1  26
ATOM     26  C   UNL     1       1.429  -1.766   5.734  1.00  0.00     0.002 C 
BRANCH  26  27
ATOM     27  C   UNL     1       0.271  -1.333   6.631  1.00  0.00     0.021 C 
BRANCH  27  28
ATOM     28  C   UNL     1      -0.679  -2.461   7.013  1.00  0.00     0.116 C 
BRANCH  28  29
ATOM     29  N   UNL     1      -0.040  -3.435   7.886  1.00  0.00    -0.352 N 
ATOM     30  C   UNL     1      -0.474  -3.884   9.110  1.00  0.00     0.251 C 
ATOM     31  H   UNL     1       0.806  -3.818   7.559  1.00  0.00     0.163 HD
ATOM     32  O   UNL     1       0.262  -4.547   9.832  1.00  0.00    -0.269 OA
BRANCH  30  33
ATOM     33  C   UNL     1      -1.841  -3.534   9.546  1.00  0.00     0.039 A 
ATOM     34  C   UNL     1      -2.031  -2.949  10.799  1.00  0.00     0.014 A 
ATOM     35  C   UNL     1      -2.922  -3.738   8.683  1.00  0.00     0.014 A 
ATOM     36  C   UNL     1      -3.307  -2.515  11.167  1.00  0.00     0.010 A 
ATOM     37  C   UNL     1      -4.174  -3.238   9.022  1.00  0.00     0.010 A 
ATOM     38  C   UNL     1      -4.382  -2.628  10.269  1.00  0.00    -0.014 A 
BRANCH  38  39
ATOM     39  C   UNL     1      -5.735  -2.119  10.608  1.00  0.00     0.031 A 
ATOM     40  C   UNL     1      -6.894  -3.075  10.692  1.00  0.00     0.074 A 
ATOM     41  C   UNL     1      -5.939  -0.793  10.745  1.00  0.00     0.049 A 
ATOM     42  N   UNL     1      -8.163  -2.819  10.880  1.00  0.00    -0.248 NA
ATOM     43  C   UNL     1      -6.592  -4.505  10.513  1.00  0.00     0.031 C 
ATOM     44  C   UNL     1      -4.908   0.240  10.621  1.00  0.00     0.029 A 
ATOM     45  N   UNL     1      -7.089  -0.085  10.989  1.00  0.00    -0.354 N 
ATOM     46  C   UNL     1      -8.812  -4.046  10.808  1.00  0.00     0.074 A 
ATOM     47  C   UNL     1      -7.803  -5.042  10.522  1.00  0.00     0.031 C 
ATOM     48  C   UNL     1      -5.472   1.447  10.791  1.00  0.00     0.029 A 
ATOM     49  C   UNL     1      -6.907   1.279  10.998  1.00  0.00     0.049 A 
ATOM     50  H   UNL     1      -7.963  -0.513  11.142  1.00  0.00     0.167 HD
ATOM     51  C   UNL     1     -10.124  -4.324  10.994  1.00  0.00     0.034 A 
ATOM     52  C   UNL     1      -7.797   2.280  11.144  1.00  0.00     0.034 A 
ATOM     53  C   UNL     1     -11.116  -3.336  11.317  1.00  0.00     0.049 A 
ATOM     54  C   UNL     1      -9.248   1.941  11.364  1.00  0.00     0.074 A 
ATOM     55  C   UNL     1     -12.458  -3.525  11.597  1.00  0.00     0.029 A 
ATOM     56  N   UNL     1     -10.879  -1.973  11.397  1.00  0.00    -0.354 N 
ATOM     57  N   UNL     1      -9.819   0.763  11.436  1.00  0.00    -0.248 NA
ATOM     58  C   UNL     1     -10.173   3.068  11.556  1.00  0.00     0.031 C 
ATOM     59  C   UNL     1     -13.037  -2.273  11.822  1.00  0.00     0.029 A 
ATOM     60  C   UNL     1     -12.049  -1.307  11.715  1.00  0.00     0.049 A 
ATOM     61  H   UNL     1     -10.006  -1.542  11.249  1.00  0.00     0.167 HD
ATOM     62  C   UNL     1     -11.158   1.005  11.725  1.00  0.00     0.074 A 
ATOM     63  C   UNL     1     -11.310   2.441  11.829  1.00  0.00     0.031 C 
ATOM     64  C   UNL     1     -12.172   0.119  11.878  1.00  0.00     0.034 A 
BRANCH  51  65
ATOM     65  C   UNL     1     -10.554  -5.765  10.905  1.00  0.00     0.023 A 
ATOM     66  C   UNL     1     -10.174  -6.668  11.920  1.00  0.00     0.012 A 
ATOM     67  C   UNL     1     -11.381  -6.214   9.857  1.00  0.00     0.148 A 
ATOM     68  C   UNL     1     -10.578  -8.001  11.874  1.00  0.00     0.002 A 
ATOM     69  C   UNL     1     -11.820  -7.533   9.844  1.00  0.00     0.091 A 
ATOM     70  F   UNL     1     -11.717  -5.347   8.891  1.00  0.00    -0.205 F 
ATOM     71  C   UNL     1     -11.409  -8.430  10.844  1.00  0.00     0.022 A 
BRANCH  69  72
ATOM     72  S   UNL     1     -12.958  -8.166   8.607  1.00  0.00     0.127 S 
ATOM     73  O   UNL     1     -12.097  -9.075   7.852  1.00  0.00    -0.237 OA
ATOM     74  O   UNL     1     -13.970  -8.827   9.431  1.00  0.00    -0.237 OA
ATOM     75  O   UNL     1     -13.438  -7.005   7.870  1.00  0.00    -0.744 OA
ENDBRANCH  69  72
ENDBRANCH  51  65
BRANCH  52  76
ATOM     76  C   UNL     1      -7.338   3.699  11.147  1.00  0.00     0.023 A 
ATOM     77  C   UNL     1      -7.399   4.442  12.342  1.00  0.00     0.012 A 
ATOM     78  C   UNL     1      -6.836   4.313   9.983  1.00  0.00     0.148 A 
ATOM     79  C   UNL     1      -7.006   5.781  12.370  1.00  0.00     0.002 A 
ATOM     80  C   UNL     1      -6.393   5.630  10.031  1.00  0.00     0.091 A 
ATOM     81  F   UNL     1      -6.794   3.594   8.853  1.00  0.00    -0.205 F 
ATOM     82  C   UNL     1      -6.495   6.372  11.218  1.00  0.00     0.022 A 
BRANCH  80  83
ATOM     83  S   UNL     1      -5.601   6.431   8.632  1.00  0.00     0.127 S 
ATOM     84  O   UNL     1      -6.619   7.394   8.222  1.00  0.00    -0.237 OA
ATOM     85  O   UNL     1      -4.411   7.016   9.252  1.00  0.00    -0.237 OA
ATOM     86  O   UNL     1      -5.316   5.366   7.679  1.00  0.00    -0.744 OA
ENDBRANCH  80  83
ENDBRANCH  52  76
BRANCH  64  87
ATOM     87  C   UNL     1     -13.533   0.660  12.230  1.00  0.00     0.023 A 
ATOM     88  C   UNL     1     -14.294   1.339  11.259  1.00  0.00     0.012 A 
ATOM     89  C   UNL     1     -14.091   0.413  13.500  1.00  0.00     0.148 A 
ATOM     90  C   UNL     1     -15.581   1.788  11.556  1.00  0.00     0.002 A 
ATOM     91  C   UNL     1     -15.391   0.818  13.772  1.00  0.00     0.091 A 
ATOM     92  F   UNL     1     -13.342  -0.221  14.415  1.00  0.00    -0.205 F 
ATOM     93  C   UNL     1     -16.133   1.516  12.806  1.00  0.00     0.022 A 
BRANCH  91  94
ATOM     94  S   UNL     1     -16.222   0.425  15.316  1.00  0.00     0.127 S 
ATOM     95  O   UNL     1     -16.320   1.741  15.944  1.00  0.00    -0.237 OA
ATOM     96  O   UNL     1     -17.495  -0.125  14.849  1.00  0.00    -0.237 OA
ATOM     97  O   UNL     1     -15.365  -0.531  16.004  1.00  0.00    -0.744 OA
ENDBRANCH  91  94
ENDBRANCH  64  87
ENDBRANCH  38  39
ENDBRANCH  30  33
ENDBRANCH  28  29
ENDBRANCH  27  28
ENDBRANCH  26  27
ENDBRANCH   1  26
TORSDOF 20
