REMARK SMILES CCn1cc(CNC(=O)[C@H]2CC=CC[C@H]2C(=O)NCCCCCCNC(=O)c2ccc(-c3c4nc(c(-c5cccc(S(=O)(=O)[O-])c5F)c5ccc([nH]5)c(-c5cccc(S(=O)(=O)[O-])c5F)c5nc(c(-c6cccc(S(=O)(=O)[O-])c6F)c6ccc3[nH]6)C=C5)C=C4)cc2)cn1
REMARK SMILES IDX 21 1 20 2 19 3 18 4 16 5 17 6 15 8 10 9 11 10 12 11 14 12
REMARK SMILES IDX 13 13 8 14 7 15 9 17 6 18 5 19 3 20 4 21 92 22 91 23 2 24
REMARK SMILES IDX 1 25 22 26 23 27 24 28 25 29 26 30 27 32 28 33 29 34 90 35
REMARK SMILES IDX 30 36 89 37 31 38 32 39 33 40 83 41 34 42 88 43 82 44 84 45
REMARK SMILES IDX 35 46 87 47 81 48 80 49 36 51 68 52 48 53 67 54 49 55 52 56
REMARK SMILES IDX 66 57 85 58 50 59 51 60 65 62 86 63 53 64 37 65 38 66 46 67
REMARK SMILES IDX 39 68 41 69 47 70 40 71 42 72 43 73 44 74 45 75 69 76 70 77
REMARK SMILES IDX 78 78 71 79 73 80 79 81 72 82 74 83 75 84 76 85 77 86 54 87
REMARK SMILES IDX 55 88 63 89 56 90 58 91 64 92 57 93 59 94 60 95 61 96 62 97
REMARK H PARENT 18 7 7 16 25 31 84 50 52 61
REMARK Flexibility Score: inf
ROOT
ATOM      1  C   UNL     1      -0.939   0.623   9.993  1.00  0.00     0.002 C 
ENDROOT
BRANCH   1   2
ATOM      2  C   UNL     1       0.013  -0.164   9.092  1.00  0.00     0.021 C 
BRANCH   2   3
ATOM      3  C   UNL     1       1.041   0.699   8.362  1.00  0.00     0.116 C 
BRANCH   3   4
ATOM      4  N   UNL     1       2.272   0.814   9.098  1.00  0.00    -0.356 N 
ATOM      5  C   UNL     1       3.501   0.297   8.871  1.00  0.00     0.224 C 
ATOM      6  O   UNL     1       4.387   0.666   9.653  1.00  0.00    -0.275 OA
ATOM      7  H   UNL     1       2.209   1.366   9.910  1.00  0.00     0.163 HD
BRANCH   5   8
ATOM      8  C   UNL     1       3.879  -0.576   7.671  1.00  0.00     0.095 C 
ATOM      9  C   UNL     1       3.220  -1.950   7.439  1.00  0.00     0.095 C 
ATOM     10  C   UNL     1       3.989  -2.744   6.362  1.00  0.00     0.041 C 
ATOM     11  C   UNL     1       4.459  -1.911   5.203  1.00  0.00    -0.030 C 
ATOM     12  C   UNL     1       4.176   0.263   6.425  1.00  0.00     0.041 C 
ATOM     13  C   UNL     1       4.535  -0.572   5.225  1.00  0.00    -0.030 C 
BRANCH   9  14
ATOM     14  C   UNL     1       1.722  -2.213   7.257  1.00  0.00     0.224 C 
ATOM     15  N   UNL     1       0.973  -1.887   6.177  1.00  0.00    -0.352 N 
ATOM     16  H   UNL     1       0.169  -2.446   6.069  1.00  0.00     0.163 HD
ATOM     17  O   UNL     1       1.119  -2.848   8.129  1.00  0.00    -0.275 OA
BRANCH  15  18
ATOM     18  C   UNL     1       1.122  -0.886   5.159  1.00  0.00     0.155 C 
BRANCH  18  19
ATOM     19  C   UNL     1       1.009  -1.422   3.791  1.00  0.00     0.009 A 
ATOM     20  N   UNL     1       0.750  -1.562   1.611  1.00  0.00    -0.273 N 
ATOM     21  C   UNL     1       0.802  -0.677   2.646  1.00  0.00     0.114 A 
ATOM     22  N   UNL     1       0.963  -2.830   1.996  1.00  0.00    -0.181 NA
ATOM     23  C   UNL     1       1.095  -2.750   3.322  1.00  0.00     0.140 A 
BRANCH  20  24
ATOM     24  C   UNL     1       0.408  -1.293   0.228  1.00  0.00     0.141 C 
ATOM     25  C   UNL     1       0.938   0.027  -0.310  1.00  0.00     0.029 C 
ENDBRANCH  20  24
ENDBRANCH  18  19
ENDBRANCH  15  18
ENDBRANCH   9  14
ENDBRANCH   5   8
ENDBRANCH   3   4
ENDBRANCH   2   3
ENDBRANCH   1   2
BRANCH   1  26
ATOM     26  C   UNL     1      -1.790   1.684   9.279  1.00  0.00     0.002 C 
BRANCH  26  27
ATOM     27  C   UNL     1      -2.620   1.197   8.081  1.00  0.00     0.021 C 
BRANCH  27  28
ATOM     28  C   UNL     1      -3.734   0.235   8.469  1.00  0.00     0.116 C 
BRANCH  28  29
ATOM     29  N   UNL     1      -4.729   0.879   9.327  1.00  0.00    -0.352 N 
ATOM     30  C   UNL     1      -5.869   0.336   9.886  1.00  0.00     0.251 C 
ATOM     31  H   UNL     1      -4.564   1.827   9.533  1.00  0.00     0.163 HD
ATOM     32  O   UNL     1      -6.767   1.052  10.292  1.00  0.00    -0.269 OA
BRANCH  30  33
ATOM     33  C   UNL     1      -5.970  -1.131   9.984  1.00  0.00     0.039 A 
ATOM     34  C   UNL     1      -7.171  -1.787   9.699  1.00  0.00     0.014 A 
ATOM     35  C   UNL     1      -4.831  -1.844  10.351  1.00  0.00     0.014 A 
ATOM     36  C   UNL     1      -7.191  -3.178   9.713  1.00  0.00     0.010 A 
ATOM     37  C   UNL     1      -4.813  -3.208  10.226  1.00  0.00     0.010 A 
ATOM     38  C   UNL     1      -6.001  -3.879   9.960  1.00  0.00    -0.014 A 
BRANCH  38  39
ATOM     39  C   UNL     1      -5.948  -5.327   9.826  1.00  0.00     0.031 A 
ATOM     40  C   UNL     1      -6.313  -5.829   8.475  1.00  0.00     0.074 A 
ATOM     41  C   UNL     1      -5.395  -6.124  10.766  1.00  0.00     0.049 A 
ATOM     42  N   UNL     1      -7.391  -6.456   8.139  1.00  0.00    -0.248 NA
ATOM     43  C   UNL     1      -5.468  -5.448   7.332  1.00  0.00     0.031 C 
ATOM     44  C   UNL     1      -4.687  -5.722  11.989  1.00  0.00     0.029 A 
ATOM     45  N   UNL     1      -5.213  -7.471  10.745  1.00  0.00    -0.354 N 
ATOM     46  C   UNL     1      -7.233  -6.778   6.793  1.00  0.00     0.074 A 
ATOM     47  C   UNL     1      -6.166  -5.944   6.308  1.00  0.00     0.031 C 
ATOM     48  C   UNL     1      -3.941  -6.756  12.435  1.00  0.00     0.029 A 
ATOM     49  C   UNL     1      -4.253  -7.929  11.643  1.00  0.00     0.049 A 
ATOM     50  H   UNL     1      -5.717  -8.069  10.148  1.00  0.00     0.167 HD
ATOM     51  C   UNL     1      -7.810  -7.895   6.266  1.00  0.00     0.034 A 
ATOM     52  C   UNL     1      -3.721  -9.175  11.689  1.00  0.00     0.034 A 
ATOM     53  C   UNL     1      -8.759  -8.470   7.188  1.00  0.00     0.049 A 
ATOM     54  C   UNL     1      -4.662 -10.072  10.981  1.00  0.00     0.074 A 
ATOM     55  C   UNL     1      -9.910  -8.037   7.814  1.00  0.00     0.029 A 
ATOM     56  N   UNL     1      -8.328  -9.568   7.894  1.00  0.00    -0.354 N 
ATOM     57  N   UNL     1      -5.862 -10.339  11.415  1.00  0.00    -0.248 NA
ATOM     58  C   UNL     1      -4.435 -10.324   9.568  1.00  0.00     0.031 C 
ATOM     59  C   UNL     1      -9.845  -8.601   9.123  1.00  0.00     0.029 A 
ATOM     60  C   UNL     1      -8.704  -9.402   9.198  1.00  0.00     0.049 A 
ATOM     61  H   UNL     1      -7.836 -10.337   7.526  1.00  0.00     0.167 HD
ATOM     62  C   UNL     1      -6.648 -10.323  10.270  1.00  0.00     0.074 A 
ATOM     63  C   UNL     1      -5.702 -10.433   9.160  1.00  0.00     0.031 C 
ATOM     64  C   UNL     1      -7.952  -9.919  10.321  1.00  0.00     0.034 A 
BRANCH  51  65
ATOM     65  C   UNL     1      -7.269  -8.721   5.117  1.00  0.00     0.023 A 
ATOM     66  C   UNL     1      -8.092  -9.773   4.647  1.00  0.00     0.012 A 
ATOM     67  C   UNL     1      -5.927  -8.719   4.678  1.00  0.00     0.148 A 
ATOM     68  C   UNL     1      -7.588 -10.805   3.849  1.00  0.00     0.002 A 
ATOM     69  C   UNL     1      -5.449  -9.706   3.821  1.00  0.00     0.091 A 
ATOM     70  F   UNL     1      -5.057  -7.842   5.183  1.00  0.00    -0.205 F 
ATOM     71  C   UNL     1      -6.265 -10.771   3.433  1.00  0.00     0.022 A 
BRANCH  69  72
ATOM     72  S   UNL     1      -3.759  -9.692   3.208  1.00  0.00     0.127 S 
ATOM     73  O   UNL     1      -3.181 -10.828   3.920  1.00  0.00    -0.237 OA
ATOM     74  O   UNL     1      -3.965  -9.897   1.774  1.00  0.00    -0.237 OA
ATOM     75  O   UNL     1      -3.226  -8.381   3.555  1.00  0.00    -0.744 OA
ENDBRANCH  69  72
ENDBRANCH  51  65
BRANCH  52  76
ATOM     76  C   UNL     1      -2.364  -9.622  12.080  1.00  0.00     0.023 A 
ATOM     77  C   UNL     1      -2.150 -10.971  12.426  1.00  0.00     0.012 A 
ATOM     78  C   UNL     1      -1.235  -8.811  11.828  1.00  0.00     0.148 A 
ATOM     79  C   UNL     1      -0.858 -11.508  12.478  1.00  0.00     0.002 A 
ATOM     80  C   UNL     1       0.049  -9.349  11.884  1.00  0.00     0.091 A 
ATOM     81  F   UNL     1      -1.426  -7.543  11.441  1.00  0.00    -0.205 F 
ATOM     82  C   UNL     1       0.240 -10.700  12.196  1.00  0.00     0.022 A 
BRANCH  80  83
ATOM     83  S   UNL     1       1.514  -8.379  11.502  1.00  0.00     0.127 S 
ATOM     84  O   UNL     1       2.393  -8.703  12.627  1.00  0.00    -0.237 OA
ATOM     85  O   UNL     1       1.925  -8.947  10.221  1.00  0.00    -0.237 OA
ATOM     86  O   UNL     1       1.071  -6.992  11.470  1.00  0.00    -0.744 OA
ENDBRANCH  80  83
ENDBRANCH  52  76
BRANCH  64  87
ATOM     87  C   UNL     1      -8.597  -9.766  11.675  1.00  0.00     0.023 A 
ATOM     88  C   UNL     1      -8.167  -8.816  12.624  1.00  0.00     0.012 A 
ATOM     89  C   UNL     1      -9.780 -10.483  11.920  1.00  0.00     0.148 A 
ATOM     90  C   UNL     1      -8.892  -8.601  13.801  1.00  0.00     0.002 A 
ATOM     91  C   UNL     1     -10.523 -10.232  13.065  1.00  0.00     0.091 A 
ATOM     92  F   UNL     1     -10.175 -11.382  11.006  1.00  0.00    -0.205 F 
ATOM     93  C   UNL     1     -10.078  -9.299  14.014  1.00  0.00     0.022 A 
BRANCH  91  94
ATOM     94  S   UNL     1     -12.120 -11.005  13.327  1.00  0.00     0.127 S 
ATOM     95  O   UNL     1     -11.811 -12.007  14.344  1.00  0.00    -0.237 OA
ATOM     96  O   UNL     1     -12.938  -9.886  13.798  1.00  0.00    -0.237 OA
ATOM     97  O   UNL     1     -12.528 -11.532  12.030  1.00  0.00    -0.744 OA
ENDBRANCH  91  94
ENDBRANCH  64  87
ENDBRANCH  38  39
ENDBRANCH  30  33
ENDBRANCH  28  29
ENDBRANCH  27  28
ENDBRANCH  26  27
ENDBRANCH   1  26
TORSDOF 20
