REMARK SMILES C[C@H]1[C@H](C(=O)NCCCCCCNC(=O)c2ccc(-c3c4nc(c(-c5cccc(S(=O)(=O)[O-])c5F)c5ccc([nH]5)c(-c5cccc(S(=O)(=O)[O-])c5F)c5nc(c(-c6cccc(S(=O)(=O)[O-])c6F)c6ccc3[nH]6)C=C5)C=C4)cc2)CC[N@@H+]1Cc1ccc(C(F)(F)F)cc1
REMARK SMILES IDX 9 1 8 2 7 3 6 4 4 5 5 6 3 8 1 9 2 10 81 11 79 12 80 13 82 15
REMARK SMILES IDX 83 16 84 17 92 18 85 19 91 20 86 21 87 22 88 23 89 24 90 25
REMARK SMILES IDX 10 26 11 27 12 28 13 29 14 30 15 32 16 33 17 34 78 35 18 36
REMARK SMILES IDX 77 37 19 38 20 39 21 40 71 41 22 42 76 43 70 44 72 45 23 46
REMARK SMILES IDX 75 47 69 48 68 49 24 51 56 52 36 53 55 54 37 55 40 56 54 57
REMARK SMILES IDX 73 58 38 59 39 60 53 62 74 63 41 64 25 65 26 66 34 67 27 68
REMARK SMILES IDX 29 69 35 70 28 71 30 72 31 73 32 74 33 75 57 76 58 77 66 78
REMARK SMILES IDX 59 79 61 80 67 81 60 82 62 83 63 84 64 85 65 86 42 87 43 88
REMARK SMILES IDX 51 89 44 90 46 91 52 92 45 93 47 94 48 95 49 96 50 97
REMARK H PARENT 6 7 81 14 13 31 72 50 40 61
REMARK Flexibility Score: inf
ROOT
ATOM      1  C   UNL     1       0.449   1.570   5.744  1.00  0.00     0.002 C 
ENDROOT
BRANCH   1   2
ATOM      2  C   UNL     1       0.417   0.779   4.426  1.00  0.00     0.021 C 
BRANCH   2   3
ATOM      3  C   UNL     1      -0.418   1.390   3.290  1.00  0.00     0.116 C 
BRANCH   3   4
ATOM      4  N   UNL     1       0.302   2.370   2.503  1.00  0.00    -0.356 N 
ATOM      5  C   UNL     1       0.553   2.444   1.170  1.00  0.00     0.229 C 
ATOM      6  O   UNL     1       1.028   3.517   0.772  1.00  0.00    -0.275 OA
ATOM      7  H   UNL     1       0.675   3.115   3.027  1.00  0.00     0.163 HD
BRANCH   5   8
ATOM      8  C   UNL     1       0.262   1.349   0.143  1.00  0.00     0.142 C 
ATOM      9  C   UNL     1       2.071  -0.359  -0.200  1.00  0.00     0.076 C 
ATOM     10  C   UNL     1       0.695  -0.102   0.429  1.00  0.00     0.193 C 
ATOM     11  N   UNL     1      -0.287  -0.966  -0.268  1.00  0.00    -0.328 N 
ATOM     12  C   UNL     1      -1.181   1.228  -0.311  1.00  0.00     0.081 C 
ATOM     13  C   UNL     1      -1.148  -0.095  -1.066  1.00  0.00     0.263 C 
ATOM     14  H   UNL     1       0.230  -1.594  -0.882  1.00  0.00     0.348 HD
BRANCH  11  15
ATOM     15  C   UNL     1      -0.967  -2.014   0.521  1.00  0.00     0.299 C 
BRANCH  15  16
ATOM     16  C   UNL     1      -2.019  -1.579   1.525  1.00  0.00     0.006 A 
ATOM     17  C   UNL     1      -1.795  -1.724   2.896  1.00  0.00     0.010 A 
ATOM     18  C   UNL     1      -3.237  -1.012   1.125  1.00  0.00     0.010 A 
ATOM     19  C   UNL     1      -2.660  -1.126   3.817  1.00  0.00     0.013 A 
ATOM     20  C   UNL     1      -4.060  -0.350   2.037  1.00  0.00     0.013 A 
ATOM     21  C   UNL     1      -3.737  -0.337   3.393  1.00  0.00     0.056 A 
BRANCH  21  22
ATOM     22  C   UNL     1      -4.446   0.606   4.334  1.00  0.00     0.416 C 
ATOM     23  F   UNL     1      -4.503   0.168   5.620  1.00  0.00    -0.166 F 
ATOM     24  F   UNL     1      -3.801   1.812   4.392  1.00  0.00    -0.166 F 
ATOM     25  F   UNL     1      -5.722   0.900   3.967  1.00  0.00    -0.166 F 
ENDBRANCH  21  22
ENDBRANCH  15  16
ENDBRANCH  11  15
ENDBRANCH   5   8
ENDBRANCH   3   4
ENDBRANCH   2   3
ENDBRANCH   1   2
BRANCH   1  26
ATOM     26  C   UNL     1      -0.853   1.687   6.554  1.00  0.00     0.002 C 
BRANCH  26  27
ATOM     27  C   UNL     1      -1.519   0.429   7.132  1.00  0.00     0.021 C 
BRANCH  27  28
ATOM     28  C   UNL     1      -0.643  -0.685   7.708  1.00  0.00     0.116 C 
BRANCH  28  29
ATOM     29  N   UNL     1      -0.470  -0.526   9.142  1.00  0.00    -0.352 N 
ATOM     30  C   UNL     1      -1.069  -1.211  10.175  1.00  0.00     0.251 C 
ATOM     31  H   UNL     1       0.168   0.172   9.414  1.00  0.00     0.163 HD
ATOM     32  O   UNL     1      -1.096  -0.693  11.290  1.00  0.00    -0.269 OA
BRANCH  30  33
ATOM     33  C   UNL     1      -1.654  -2.567   9.990  1.00  0.00     0.039 A 
ATOM     34  C   UNL     1      -2.794  -2.919  10.726  1.00  0.00     0.014 A 
ATOM     35  C   UNL     1      -1.016  -3.541   9.216  1.00  0.00     0.014 A 
ATOM     36  C   UNL     1      -3.287  -4.231  10.688  1.00  0.00     0.010 A 
ATOM     37  C   UNL     1      -1.540  -4.837   9.138  1.00  0.00     0.010 A 
ATOM     38  C   UNL     1      -2.661  -5.208   9.899  1.00  0.00    -0.014 A 
BRANCH  38  39
ATOM     39  C   UNL     1      -3.128  -6.625   9.902  1.00  0.00     0.031 A 
ATOM     40  C   UNL     1      -2.238  -7.718  10.447  1.00  0.00     0.074 A 
ATOM     41  C   UNL     1      -4.321  -6.951   9.367  1.00  0.00     0.049 A 
ATOM     42  N   UNL     1      -2.443  -9.010  10.489  1.00  0.00    -0.248 NA
ATOM     43  C   UNL     1      -0.936  -7.304  10.994  1.00  0.00     0.031 C 
ATOM     44  C   UNL     1      -5.256  -6.008   8.753  1.00  0.00     0.029 A 
ATOM     45  N   UNL     1      -4.941  -8.171   9.230  1.00  0.00    -0.354 N 
ATOM     46  C   UNL     1      -1.286  -9.566  11.025  1.00  0.00     0.074 A 
ATOM     47  C   UNL     1      -0.370  -8.472  11.267  1.00  0.00     0.031 C 
ATOM     48  C   UNL     1      -6.327  -6.683   8.301  1.00  0.00     0.029 A 
ATOM     49  C   UNL     1      -6.148  -8.107   8.573  1.00  0.00     0.049 A 
ATOM     50  H   UNL     1      -4.556  -9.011   9.570  1.00  0.00     0.167 HD
ATOM     51  C   UNL     1      -1.016 -10.861  11.319  1.00  0.00     0.034 A 
ATOM     52  C   UNL     1      -7.012  -9.082   8.224  1.00  0.00     0.034 A 
ATOM     53  C   UNL     1      -1.946 -11.944  11.137  1.00  0.00     0.049 A 
ATOM     54  C   UNL     1      -6.711 -10.508   8.605  1.00  0.00     0.074 A 
ATOM     55  C   UNL     1      -1.799 -13.274  11.493  1.00  0.00     0.029 A 
ATOM     56  N   UNL     1      -3.195 -11.824  10.549  1.00  0.00    -0.354 N 
ATOM     57  N   UNL     1      -5.677 -10.988   9.251  1.00  0.00    -0.248 NA
ATOM     58  C   UNL     1      -7.713 -11.521   8.241  1.00  0.00     0.031 C 
ATOM     59  C   UNL     1      -2.955 -13.961  11.104  1.00  0.00     0.029 A 
ATOM     60  C   UNL     1      -3.827 -13.056  10.523  1.00  0.00     0.049 A 
ATOM     61  H   UNL     1      -3.576 -10.986  10.200  1.00  0.00     0.167 HD
ATOM     62  C   UNL     1      -5.918 -12.350   9.400  1.00  0.00     0.074 A 
ATOM     63  C   UNL     1      -7.208 -12.614   8.796  1.00  0.00     0.031 C 
ATOM     64  C   UNL     1      -5.134 -13.299   9.969  1.00  0.00     0.034 A 
BRANCH  51  65
ATOM     65  C   UNL     1       0.327 -11.176  11.932  1.00  0.00     0.023 A 
ATOM     66  C   UNL     1       0.587 -10.797  13.264  1.00  0.00     0.012 A 
ATOM     67  C   UNL     1       1.306 -11.894  11.216  1.00  0.00     0.148 A 
ATOM     68  C   UNL     1       1.812 -11.091  13.863  1.00  0.00     0.002 A 
ATOM     69  C   UNL     1       2.509 -12.221  11.834  1.00  0.00     0.091 A 
ATOM     70  F   UNL     1       1.050 -12.232   9.944  1.00  0.00    -0.205 F 
ATOM     71  C   UNL     1       2.767 -11.810  13.152  1.00  0.00     0.022 A 
BRANCH  69  72
ATOM     72  S   UNL     1       3.773 -13.211  11.028  1.00  0.00     0.127 S 
ATOM     73  O   UNL     1       4.793 -12.205  10.734  1.00  0.00    -0.237 OA
ATOM     74  O   UNL     1       4.141 -14.161  12.079  1.00  0.00    -0.237 OA
ATOM     75  O   UNL     1       3.132 -13.811   9.867  1.00  0.00    -0.744 OA
ENDBRANCH  69  72
ENDBRANCH  51  65
BRANCH  52  76
ATOM     76  C   UNL     1      -8.287  -8.730   7.534  1.00  0.00     0.023 A 
ATOM     77  C   UNL     1      -9.503  -8.843   8.235  1.00  0.00     0.012 A 
ATOM     78  C   UNL     1      -8.300  -8.257   6.208  1.00  0.00     0.148 A 
ATOM     79  C   UNL     1     -10.712  -8.515   7.620  1.00  0.00     0.002 A 
ATOM     80  C   UNL     1      -9.502  -7.881   5.619  1.00  0.00     0.091 A 
ATOM     81  F   UNL     1      -7.134  -8.173   5.552  1.00  0.00    -0.205 F 
ATOM     82  C   UNL     1     -10.711  -8.024   6.318  1.00  0.00     0.022 A 
BRANCH  80  83
ATOM     83  S   UNL     1      -9.576  -7.114   3.995  1.00  0.00     0.127 S 
ATOM     84  O   UNL     1     -10.153  -8.188   3.185  1.00  0.00    -0.237 OA
ATOM     85  O   UNL     1     -10.472  -5.980   4.237  1.00  0.00    -0.237 OA
ATOM     86  O   UNL     1      -8.211  -6.741   3.674  1.00  0.00    -0.744 OA
ENDBRANCH  80  83
ENDBRANCH  52  76
BRANCH  64  87
ATOM     87  C   UNL     1      -5.651 -14.714   9.994  1.00  0.00     0.023 A 
ATOM     88  C   UNL     1      -5.673 -15.469   8.804  1.00  0.00     0.012 A 
ATOM     89  C   UNL     1      -6.039 -15.321  11.205  1.00  0.00     0.148 A 
ATOM     90  C   UNL     1      -6.101 -16.797   8.814  1.00  0.00     0.002 A 
ATOM     91  C   UNL     1      -6.420 -16.658  11.215  1.00  0.00     0.091 A 
ATOM     92  F   UNL     1      -6.029 -14.582  12.323  1.00  0.00    -0.205 F 
ATOM     93  C   UNL     1      -6.463 -17.394  10.020  1.00  0.00     0.022 A 
BRANCH  91  94
ATOM     94  S   UNL     1      -6.813 -17.536  12.733  1.00  0.00     0.127 S 
ATOM     95  O   UNL     1      -8.267 -17.648  12.645  1.00  0.00    -0.237 OA
ATOM     96  O   UNL     1      -6.092 -18.797  12.560  1.00  0.00    -0.237 OA
ATOM     97  O   UNL     1      -6.313 -16.701  13.818  1.00  0.00    -0.744 OA
ENDBRANCH  91  94
ENDBRANCH  64  87
ENDBRANCH  38  39
ENDBRANCH  30  33
ENDBRANCH  28  29
ENDBRANCH  27  28
ENDBRANCH  26  27
ENDBRANCH   1  26
TORSDOF 19
