REMARK SMILES Cc1cc(C)c(C(=O)NCCCCCCNC(=O)c2ccc(-c3c4nc(c(-c5cccc(S(=O)(=O)[O-])c5F)c5ccc([nH]5)c(-c5cccc(S(=O)(=O)[O-])c5F)c5nc(c(-c6cccc(S(=O)(=O)[O-])c6F)c6ccc3[nH]6)C=C5)C=C4)cc2)c(N[C@@H](CO)C(C)C)n1
REMARK SMILES IDX 12 1 11 2 10 3 9 4 7 5 8 6 6 8 1 9 2 10 3 11 90 12 4 13
REMARK SMILES IDX 82 14 5 15 83 16 84 18 85 19 86 20 87 22 88 23 89 24 13 25
REMARK SMILES IDX 14 26 15 27 16 28 17 29 18 31 19 32 20 33 81 34 21 35 80 36
REMARK SMILES IDX 22 37 23 38 24 39 74 40 25 41 79 42 73 43 75 44 26 45 78 46
REMARK SMILES IDX 72 47 71 48 27 50 59 51 39 52 58 53 40 54 43 55 57 56 76 57
REMARK SMILES IDX 41 58 42 59 56 61 77 62 44 63 28 64 29 65 37 66 30 67 32 68
REMARK SMILES IDX 38 69 31 70 33 71 34 72 35 73 36 74 60 75 61 76 69 77 62 78
REMARK SMILES IDX 64 79 70 80 63 81 65 82 66 83 67 84 68 85 45 86 46 87 54 88
REMARK SMILES IDX 47 89 49 90 55 91 48 92 50 93 51 94 52 95 53 96
REMARK H PARENT 9 7 83 17 86 21 16 30 75 49 43 60
REMARK Flexibility Score: inf
ROOT
ATOM      1  C   UNL     1       6.374  -0.617   1.329  1.00  0.00     0.002 C 
ENDROOT
BRANCH   1   2
ATOM      2  C   UNL     1       5.025  -0.108   1.855  1.00  0.00     0.021 C 
BRANCH   2   3
ATOM      3  C   UNL     1       3.874  -0.030   0.855  1.00  0.00     0.116 C 
BRANCH   3   4
ATOM      4  N   UNL     1       3.497  -1.287   0.242  1.00  0.00    -0.352 N 
ATOM      5  C   UNL     1       2.304  -1.702  -0.315  1.00  0.00     0.255 C 
ATOM      6  O   UNL     1       2.281  -2.837  -0.804  1.00  0.00    -0.269 OA
ATOM      7  H   UNL     1       4.215  -1.961   0.219  1.00  0.00     0.163 HD
BRANCH   5   8
ATOM      8  C   UNL     1       1.039  -0.897  -0.279  1.00  0.00     0.085 A 
ATOM      9  C   UNL     1      -2.728   1.071   0.114  1.00  0.00     0.067 C 
ATOM     10  C   UNL     1      -1.401   0.400  -0.062  1.00  0.00     0.040 A 
ATOM     11  C   UNL     1      -0.282   1.130  -0.413  1.00  0.00     0.028 A 
ATOM     12  N   UNL     1      -1.355  -0.934   0.106  1.00  0.00    -0.236 NA
ATOM     13  C   UNL     1       0.947   0.475  -0.593  1.00  0.00    -0.033 A 
ATOM     14  C   UNL     1      -0.171  -1.587  -0.013  1.00  0.00     0.139 A 
ATOM     15  C   UNL     1       2.044   1.309  -1.187  1.00  0.00     0.045 C 
BRANCH  14  16
ATOM     16  N   UNL     1      -0.224  -2.966   0.138  1.00  0.00    -0.364 N 
ATOM     17  H   UNL     1       0.609  -3.464   0.302  1.00  0.00     0.162 HD
BRANCH  16  18
ATOM     18  C   UNL     1      -1.493  -3.697   0.060  1.00  0.00     0.108 C 
BRANCH  18  19
ATOM     19  C   UNL     1      -1.543  -4.465  -1.284  1.00  0.00     0.181 C 
BRANCH  19  20
ATOM     20  O   UNL     1      -0.549  -5.488  -1.360  1.00  0.00    -0.394 OA
ATOM     21  H   UNL     1       0.332  -5.088  -1.295  1.00  0.00     0.210 HD
ENDBRANCH  19  20
ENDBRANCH  18  19
BRANCH  18  22
ATOM     22  C   UNL     1      -1.632  -4.615   1.302  1.00  0.00     0.007 C 
ATOM     23  C   UNL     1      -1.542  -3.798   2.599  1.00  0.00     0.009 C 
ATOM     24  C   UNL     1      -2.964  -5.378   1.298  1.00  0.00     0.009 C 
ENDBRANCH  18  22
ENDBRANCH  16  18
ENDBRANCH  14  16
ENDBRANCH   5   8
ENDBRANCH   3   4
ENDBRANCH   2   3
ENDBRANCH   1   2
BRANCH   1  25
ATOM     25  C   UNL     1       6.906  -0.021   0.022  1.00  0.00     0.002 C 
BRANCH  25  26
ATOM     26  C   UNL     1       7.006   1.503  -0.071  1.00  0.00     0.021 C 
BRANCH  26  27
ATOM     27  C   UNL     1       7.737   2.213   1.063  1.00  0.00     0.116 C 
BRANCH  27  28
ATOM     28  N   UNL     1       9.113   1.778   1.230  1.00  0.00    -0.352 N 
ATOM     29  C   UNL     1      10.254   2.530   1.384  1.00  0.00     0.251 C 
ATOM     30  H   UNL     1       9.249   0.803   1.232  1.00  0.00     0.163 HD
ATOM     31  O   UNL     1      11.350   1.975   1.420  1.00  0.00    -0.269 OA
BRANCH  29  32
ATOM     32  C   UNL     1      10.172   4.006   1.474  1.00  0.00     0.039 A 
ATOM     33  C   UNL     1      11.062   4.777   0.719  1.00  0.00     0.014 A 
ATOM     34  C   UNL     1       9.227   4.634   2.289  1.00  0.00     0.014 A 
ATOM     35  C   UNL     1      10.957   6.171   0.726  1.00  0.00     0.010 A 
ATOM     36  C   UNL     1       9.077   6.019   2.239  1.00  0.00     0.010 A 
ATOM     37  C   UNL     1       9.939   6.803   1.457  1.00  0.00    -0.014 A 
BRANCH  37  38
ATOM     38  C   UNL     1       9.746   8.277   1.400  1.00  0.00     0.031 A 
ATOM     39  C   UNL     1       9.889   9.113   2.644  1.00  0.00     0.074 A 
ATOM     40  C   UNL     1       9.348   8.853   0.247  1.00  0.00     0.049 A 
ATOM     41  N   UNL     1       9.692  10.397   2.801  1.00  0.00    -0.248 NA
ATOM     42  C   UNL     1      10.277   8.412   3.878  1.00  0.00     0.031 C 
ATOM     43  C   UNL     1       9.096   8.143  -1.009  1.00  0.00     0.029 A 
ATOM     44  N   UNL     1       9.056  10.162  -0.049  1.00  0.00    -0.354 N 
ATOM     45  C   UNL     1       9.894  10.651   4.153  1.00  0.00     0.074 A 
ATOM     46  C   UNL     1      10.198   9.382   4.778  1.00  0.00     0.031 C 
ATOM     47  C   UNL     1       8.690   9.023  -1.938  1.00  0.00     0.029 A 
ATOM     48  C   UNL     1       8.621  10.352  -1.340  1.00  0.00     0.049 A 
ATOM     49  H   UNL     1       9.148  10.895   0.602  1.00  0.00     0.167 HD
ATOM     50  C   UNL     1       9.859  11.834   4.811  1.00  0.00     0.034 A 
ATOM     51  C   UNL     1       8.205  11.468  -1.972  1.00  0.00     0.034 A 
ATOM     52  C   UNL     1       9.601  13.100   4.179  1.00  0.00     0.049 A 
ATOM     53  C   UNL     1       8.217  12.778  -1.230  1.00  0.00     0.074 A 
ATOM     54  C   UNL     1       9.633  14.364   4.741  1.00  0.00     0.029 A 
ATOM     55  N   UNL     1       9.257  13.265   2.846  1.00  0.00    -0.354 N 
ATOM     56  N   UNL     1       8.565  13.019   0.011  1.00  0.00    -0.248 NA
ATOM     57  C   UNL     1       7.815  13.975  -1.983  1.00  0.00     0.031 C 
ATOM     58  C   UNL     1       9.284  15.291   3.754  1.00  0.00     0.029 A 
ATOM     59  C   UNL     1       9.065  14.607   2.569  1.00  0.00     0.049 A 
ATOM     60  H   UNL     1       9.163  12.534   2.193  1.00  0.00     0.167 HD
ATOM     61  C   UNL     1       8.465  14.396   0.175  1.00  0.00     0.074 A 
ATOM     62  C   UNL     1       8.037  14.938  -1.098  1.00  0.00     0.031 C 
ATOM     63  C   UNL     1       8.697  15.141   1.283  1.00  0.00     0.034 A 
BRANCH  50  64
ATOM     64  C   UNL     1      10.157  11.825   6.288  1.00  0.00     0.023 A 
ATOM     65  C   UNL     1      11.473  11.576   6.731  1.00  0.00     0.012 A 
ATOM     66  C   UNL     1       9.156  12.122   7.233  1.00  0.00     0.148 A 
ATOM     67  C   UNL     1      11.779  11.585   8.091  1.00  0.00     0.002 A 
ATOM     68  C   UNL     1       9.479  12.175   8.585  1.00  0.00     0.091 A 
ATOM     69  F   UNL     1       7.907  12.337   6.796  1.00  0.00    -0.205 F 
ATOM     70  C   UNL     1      10.786  11.895   9.015  1.00  0.00     0.022 A 
BRANCH  68  71
ATOM     71  S   UNL     1       8.290  12.644   9.847  1.00  0.00     0.127 S 
ATOM     72  O   UNL     1       8.060  11.368  10.523  1.00  0.00    -0.237 OA
ATOM     73  O   UNL     1       9.044  13.622  10.633  1.00  0.00    -0.237 OA
ATOM     74  O   UNL     1       7.144  13.191   9.136  1.00  0.00    -0.744 OA
ENDBRANCH  68  71
ENDBRANCH  50  64
BRANCH  51  75
ATOM     75  C   UNL     1       7.806  11.406  -3.407  1.00  0.00     0.023 A 
ATOM     76  C   UNL     1       8.633  11.998  -4.381  1.00  0.00     0.012 A 
ATOM     77  C   UNL     1       6.634  10.740  -3.814  1.00  0.00     0.148 A 
ATOM     78  C   UNL     1       8.285  11.957  -5.731  1.00  0.00     0.002 A 
ATOM     79  C   UNL     1       6.322  10.653  -5.166  1.00  0.00     0.091 A 
ATOM     80  F   UNL     1       5.855  10.192  -2.871  1.00  0.00    -0.205 F 
ATOM     81  C   UNL     1       7.136  11.276  -6.125  1.00  0.00     0.022 A 
BRANCH  79  82
ATOM     82  S   UNL     1       4.935   9.685  -5.773  1.00  0.00     0.127 S 
ATOM     83  O   UNL     1       4.017  10.727  -6.225  1.00  0.00    -0.237 OA
ATOM     84  O   UNL     1       5.558   8.905  -6.843  1.00  0.00    -0.237 OA
ATOM     85  O   UNL     1       4.483   8.891  -4.639  1.00  0.00    -0.744 OA
ENDBRANCH  79  82
ENDBRANCH  51  75
BRANCH  63  86
ATOM     86  C   UNL     1       8.543  16.636   1.171  1.00  0.00     0.023 A 
ATOM     87  C   UNL     1       7.258  17.206   1.078  1.00  0.00     0.012 A 
ATOM     88  C   UNL     1       9.671  17.477   1.248  1.00  0.00     0.148 A 
ATOM     89  C   UNL     1       7.101  18.591   1.036  1.00  0.00     0.002 A 
ATOM     90  C   UNL     1       9.502  18.856   1.256  1.00  0.00     0.091 A 
ATOM     91  F   UNL     1      10.885  16.913   1.317  1.00  0.00    -0.205 F 
ATOM     92  C   UNL     1       8.220  19.415   1.138  1.00  0.00     0.022 A 
BRANCH  90  93
ATOM     93  S   UNL     1      10.875  19.993   1.483  1.00  0.00     0.127 S 
ATOM     94  O   UNL     1      10.996  20.583   0.151  1.00  0.00    -0.237 OA
ATOM     95  O   UNL     1      10.358  20.901   2.508  1.00  0.00    -0.237 OA
ATOM     96  O   UNL     1      12.005  19.179   1.911  1.00  0.00    -0.744 OA
ENDBRANCH  90  93
ENDBRANCH  63  86
ENDBRANCH  37  38
ENDBRANCH  29  32
ENDBRANCH  27  28
ENDBRANCH  26  27
ENDBRANCH  25  26
ENDBRANCH   1  25
TORSDOF 21
