REMARK SMILES CS(=O)(=O)c1ccc(N2N=C(C(=O)NCCCCCCNC(=O)c3ccc(-c4c5nc(c(-c6cccc(S(=O)(=O)[O-])c6F)c6ccc([nH]6)c(-c6cccc(S(=O)(=O)[O-])c6F)c6nc(c(-c7cccc(S(=O)(=O)[O-])c7F)c7ccc4[nH]7)C=C6)C=C5)cc3)C[C@H]2c2cccs2)cc1
REMARK SMILES IDX 18 1 17 2 16 3 15 4 14 5 12 6 13 7 11 9 9 10 10 11 88 12
REMARK SMILES IDX 87 13 8 14 5 15 6 16 95 17 7 18 94 19 2 20 1 21 3 22 4 23
REMARK SMILES IDX 89 24 90 25 93 26 91 27 92 28 19 29 20 30 21 31 22 32 23 34
REMARK SMILES IDX 24 35 25 36 86 37 26 38 85 39 27 40 28 41 29 42 79 43 30 44
REMARK SMILES IDX 84 45 78 46 80 47 31 48 83 49 77 50 76 51 32 53 64 54 44 55
REMARK SMILES IDX 63 56 45 57 48 58 62 59 81 60 46 61 47 62 61 64 82 65 49 66
REMARK SMILES IDX 33 67 34 68 42 69 35 70 37 71 43 72 36 73 38 74 39 75 40 76
REMARK SMILES IDX 41 77 65 78 66 79 74 80 67 81 69 82 75 83 68 84 70 85 71 86
REMARK SMILES IDX 72 87 73 88 50 89 51 90 59 91 52 92 54 93 60 94 53 95 55 96
REMARK SMILES IDX 56 97 57 98 58 99
REMARK H PARENT 14 8 21 33 80 52 48 63
REMARK Flexibility Score: inf
ROOT
ATOM      1  C   UNL     1       4.003  13.578   4.568  1.00  0.00     0.002 C 
ENDROOT
BRANCH   1   2
ATOM      2  C   UNL     1       4.073  12.238   5.306  1.00  0.00     0.002 C 
BRANCH   2   3
ATOM      3  C   UNL     1       2.998  11.224   4.913  1.00  0.00     0.021 C 
BRANCH   3   4
ATOM      4  C   UNL     1       2.961  10.886   3.427  1.00  0.00     0.116 C 
BRANCH   4   5
ATOM      5  N   UNL     1       4.070  10.033   3.053  1.00  0.00    -0.351 N 
ATOM      6  C   UNL     1       4.167   8.801   2.459  1.00  0.00     0.267 C 
ATOM      7  O   UNL     1       5.286   8.298   2.372  1.00  0.00    -0.268 OA
ATOM      8  H   UNL     1       4.947  10.423   3.274  1.00  0.00     0.163 HD
BRANCH   6   9
ATOM      9  C   UNL     1       2.985   8.048   1.864  1.00  0.00     0.128 C 
ATOM     10  N   UNL     1       1.962   6.578   0.703  1.00  0.00    -0.256 N 
ATOM     11  N   UNL     1       3.155   6.902   1.272  1.00  0.00    -0.171 NA
ATOM     12  C   UNL     1       0.884   7.527   1.000  1.00  0.00     0.154 C 
ATOM     13  C   UNL     1       1.573   8.526   1.930  1.00  0.00     0.097 C 
BRANCH  10  14
ATOM     14  C   UNL     1       1.687   5.275   0.305  1.00  0.00     0.060 A 
ATOM     15  C   UNL     1       0.977   2.665  -0.466  1.00  0.00     0.067 A 
ATOM     16  C   UNL     1       1.646   2.872   0.742  1.00  0.00     0.022 A 
ATOM     17  C   UNL     1       0.696   3.741  -1.307  1.00  0.00     0.022 A 
ATOM     18  C   UNL     1       2.007   4.174   1.113  1.00  0.00     0.029 A 
ATOM     19  C   UNL     1       1.055   5.030  -0.920  1.00  0.00     0.029 A 
BRANCH  15  20
ATOM     20  S   UNL     1       0.447   1.065  -1.014  1.00  0.00     0.175 S 
ATOM     21  C   UNL     1       1.076  -0.127   0.127  1.00  0.00     0.163 C 
ATOM     22  O   UNL     1       1.103   0.824  -2.288  1.00  0.00    -0.224 OA
ATOM     23  O   UNL     1      -0.998   1.049  -0.905  1.00  0.00    -0.224 OA
ENDBRANCH  15  20
ENDBRANCH  10  14
BRANCH  12  24
ATOM     24  C   UNL     1       0.183   8.170  -0.183  1.00  0.00     0.030 A 
ATOM     25  C   UNL     1      -0.994   7.746  -0.777  1.00  0.00     0.017 A 
ATOM     26  S   UNL     1       0.807   9.550  -0.996  1.00  0.00    -0.147 S 
ATOM     27  C   UNL     1      -1.399   8.578  -1.858  1.00  0.00     0.012 A 
ATOM     28  C   UNL     1      -0.539   9.635  -2.041  1.00  0.00     0.065 A 
ENDBRANCH  12  24
ENDBRANCH   6   9
ENDBRANCH   4   5
ENDBRANCH   3   4
ENDBRANCH   2   3
ENDBRANCH   1   2
BRANCH   1  29
ATOM     29  C   UNL     1       2.632  14.260   4.573  1.00  0.00     0.021 C 
BRANCH  29  30
ATOM     30  C   UNL     1       2.043  14.500   5.959  1.00  0.00     0.116 C 
BRANCH  30  31
ATOM     31  N   UNL     1       2.893  15.353   6.772  1.00  0.00    -0.352 N 
ATOM     32  C   UNL     1       2.579  16.517   7.428  1.00  0.00     0.251 C 
ATOM     33  H   UNL     1       3.826  15.054   6.866  1.00  0.00     0.163 HD
ATOM     34  O   UNL     1       3.472  17.214   7.900  1.00  0.00    -0.269 OA
BRANCH  32  35
ATOM     35  C   UNL     1       1.166  16.933   7.550  1.00  0.00     0.039 A 
ATOM     36  C   UNL     1       0.832  18.267   7.310  1.00  0.00     0.014 A 
ATOM     37  C   UNL     1       0.176  16.011   7.903  1.00  0.00     0.014 A 
ATOM     38  C   UNL     1      -0.505  18.666   7.374  1.00  0.00     0.010 A 
ATOM     39  C   UNL     1      -1.162  16.393   7.888  1.00  0.00     0.010 A 
ATOM     40  C   UNL     1      -1.516  17.727   7.634  1.00  0.00    -0.014 A 
BRANCH  40  41
ATOM     41  C   UNL     1      -2.948  18.121   7.635  1.00  0.00     0.031 A 
ATOM     42  C   UNL     1      -3.775  17.981   8.884  1.00  0.00     0.074 A 
ATOM     43  C   UNL     1      -3.525  18.530   6.488  1.00  0.00     0.049 A 
ATOM     44  N   UNL     1      -5.047  18.228   9.062  1.00  0.00    -0.248 NA
ATOM     45  C   UNL     1      -3.091  17.472  10.084  1.00  0.00     0.031 C 
ATOM     46  C   UNL     1      -2.850  18.632   5.192  1.00  0.00     0.029 A 
ATOM     47  N   UNL     1      -4.816  18.911   6.220  1.00  0.00    -0.354 N 
ATOM     48  C   UNL     1      -5.323  17.876  10.377  1.00  0.00     0.074 A 
ATOM     49  C   UNL     1      -4.095  17.359  10.941  1.00  0.00     0.031 C 
ATOM     50  C   UNL     1      -3.729  19.052   4.270  1.00  0.00     0.029 A 
ATOM     51  C   UNL     1      -5.037  19.215   4.897  1.00  0.00     0.049 A 
ATOM     52  H   UNL     1      -5.517  18.962   6.909  1.00  0.00     0.167 HD
ATOM     53  C   UNL     1      -6.484  17.997  11.065  1.00  0.00     0.034 A 
ATOM     54  C   UNL     1      -6.168  19.570   4.256  1.00  0.00     0.034 A 
ATOM     55  C   UNL     1      -7.696  18.536  10.508  1.00  0.00     0.049 A 
ATOM     56  C   UNL     1      -7.439  19.722   5.045  1.00  0.00     0.074 A 
ATOM     57  C   UNL     1      -8.901  18.777  11.143  1.00  0.00     0.029 A 
ATOM     58  N   UNL     1      -7.862  18.905   9.182  1.00  0.00    -0.354 N 
ATOM     59  N   UNL     1      -7.643  19.529   6.325  1.00  0.00    -0.248 NA
ATOM     60  C   UNL     1      -8.627  20.176   4.309  1.00  0.00     0.031 C 
ATOM     61  C   UNL     1      -9.808  19.256  10.191  1.00  0.00     0.029 A 
ATOM     62  C   UNL     1      -9.155  19.356   8.973  1.00  0.00     0.049 A 
ATOM     63  H   UNL     1      -7.164  18.854   8.489  1.00  0.00     0.167 HD
ATOM     64  C   UNL     1      -8.970  19.871   6.556  1.00  0.00     0.074 A 
ATOM     65  C   UNL     1      -9.516  20.302   5.285  1.00  0.00     0.031 C 
ATOM     66  C   UNL     1      -9.676  19.823   7.713  1.00  0.00     0.034 A 
BRANCH  53  67
ATOM     67  C   UNL     1      -6.486  17.571  12.511  1.00  0.00     0.023 A 
ATOM     68  C   UNL     1      -5.764  18.321  13.463  1.00  0.00     0.012 A 
ATOM     69  C   UNL     1      -7.235  16.456  12.937  1.00  0.00     0.148 A 
ATOM     70  C   UNL     1      -5.750  17.943  14.805  1.00  0.00     0.002 A 
ATOM     71  C   UNL     1      -7.257  16.116  14.285  1.00  0.00     0.091 A 
ATOM     72  F   UNL     1      -7.900  15.743  12.017  1.00  0.00    -0.205 F 
ATOM     73  C   UNL     1      -6.504  16.848  15.217  1.00  0.00     0.022 A 
BRANCH  71  74
ATOM     74  S   UNL     1      -8.261  14.773  14.928  1.00  0.00     0.127 S 
ATOM     75  O   UNL     1      -7.240  13.789  15.288  1.00  0.00    -0.237 OA
ATOM     76  O   UNL     1      -8.926  15.405  16.068  1.00  0.00    -0.237 OA
ATOM     77  O   UNL     1      -9.151  14.381  13.845  1.00  0.00    -0.744 OA
ENDBRANCH  71  74
ENDBRANCH  53  67
BRANCH  54  78
ATOM     78  C   UNL     1      -6.131  19.855   2.794  1.00  0.00     0.023 A 
ATOM     79  C   UNL     1      -6.290  21.177   2.337  1.00  0.00     0.012 A 
ATOM     80  C   UNL     1      -5.900  18.827   1.859  1.00  0.00     0.148 A 
ATOM     81  C   UNL     1      -6.251  21.467   0.973  1.00  0.00     0.002 A 
ATOM     82  C   UNL     1      -5.805  19.131   0.506  1.00  0.00     0.091 A 
ATOM     83  F   UNL     1      -5.758  17.575   2.315  1.00  0.00    -0.205 F 
ATOM     84  C   UNL     1      -5.998  20.447   0.059  1.00  0.00     0.022 A 
BRANCH  82  85
ATOM     85  S   UNL     1      -5.348  17.907  -0.726  1.00  0.00     0.127 S 
ATOM     86  O   UNL     1      -6.580  17.792  -1.504  1.00  0.00    -0.237 OA
ATOM     87  O   UNL     1      -4.243  18.573  -1.415  1.00  0.00    -0.237 OA
ATOM     88  O   UNL     1      -4.962  16.718   0.020  1.00  0.00    -0.744 OA
ENDBRANCH  82  85
ENDBRANCH  54  78
BRANCH  66  89
ATOM     89  C   UNL     1     -11.110  20.285   7.678  1.00  0.00     0.023 A 
ATOM     90  C   UNL     1     -12.089  19.505   7.032  1.00  0.00     0.012 A 
ATOM     91  C   UNL     1     -11.496  21.462   8.351  1.00  0.00     0.148 A 
ATOM     92  C   UNL     1     -13.424  19.908   7.026  1.00  0.00     0.002 A 
ATOM     93  C   UNL     1     -12.836  21.828   8.387  1.00  0.00     0.091 A 
ATOM     94  F   UNL     1     -10.547  22.199   8.946  1.00  0.00    -0.205 F 
ATOM     95  C   UNL     1     -13.799  21.060   7.712  1.00  0.00     0.022 A 
BRANCH  93  96
ATOM     96  S   UNL     1     -13.426  23.239   9.328  1.00  0.00     0.127 S 
ATOM     97  O   UNL     1     -13.807  24.167   8.265  1.00  0.00    -0.237 OA
ATOM     98  O   UNL     1     -14.549  22.667  10.071  1.00  0.00    -0.237 OA
ATOM     99  O   UNL     1     -12.307  23.667  10.157  1.00  0.00    -0.744 OA
ENDBRANCH  93  96
ENDBRANCH  66  89
ENDBRANCH  40  41
ENDBRANCH  32  35
ENDBRANCH  30  31
ENDBRANCH  29  30
ENDBRANCH   1  29
TORSDOF 19
