REMARK SMILES CC1(C)CCC[C@H]1NS(=O)(=O)c1cccc(C(=O)NCCCCCCNC(=O)c2ccc(-c3c4nc(c(-c5cccc(S(=O)(=O)[O-])c5F)c5ccc([nH]5)c(-c5cccc(S(=O)(=O)[O-])c5F)c5nc(c(-c6cccc(S(=O)(=O)[O-])c6F)c6ccc3[nH]6)C=C5)C=C4)cc2)c1
REMARK SMILES IDX 22 1 21 2 20 3 19 4 17 5 18 6 16 8 12 9 13 10 92 11 14 12
REMARK SMILES IDX 15 13 9 14 10 15 11 16 8 17 7 19 1 20 2 21 3 22 4 23 5 24
REMARK SMILES IDX 6 25 23 26 24 27 25 28 26 29 27 30 28 32 29 33 30 34 91 35
REMARK SMILES IDX 31 36 90 37 32 38 33 39 34 40 84 41 35 42 89 43 83 44 85 45
REMARK SMILES IDX 36 46 88 47 82 48 81 49 37 51 69 52 49 53 68 54 50 55 53 56
REMARK SMILES IDX 67 57 86 58 51 59 52 60 66 62 87 63 54 64 38 65 39 66 47 67
REMARK SMILES IDX 40 68 42 69 48 70 41 71 43 72 44 73 45 74 46 75 70 76 71 77
REMARK SMILES IDX 79 78 72 79 74 80 80 81 73 82 75 83 76 84 77 85 78 86 55 87
REMARK SMILES IDX 56 88 64 89 57 90 59 91 65 92 58 93 60 94 61 95 62 96 63 97
REMARK H PARENT 19 7 8 18 26 31 85 50 53 61
REMARK Flexibility Score: inf
ROOT
ATOM      1  C   UNL     1      -3.514   8.785   4.747  1.00  0.00     0.002 C 
ENDROOT
BRANCH   1   2
ATOM      2  C   UNL     1      -2.420   7.796   4.357  1.00  0.00     0.021 C 
BRANCH   2   3
ATOM      3  C   UNL     1      -2.555   7.123   2.997  1.00  0.00     0.116 C 
BRANCH   3   4
ATOM      4  N   UNL     1      -2.507   8.027   1.853  1.00  0.00    -0.352 N 
ATOM      5  C   UNL     1      -1.914   7.856   0.617  1.00  0.00     0.251 C 
ATOM      6  O   UNL     1      -1.965   8.756  -0.219  1.00  0.00    -0.269 OA
ATOM      7  H   UNL     1      -2.966   8.888   1.981  1.00  0.00     0.163 HD
BRANCH   5   8
ATOM      8  C   UNL     1      -1.152   6.618   0.308  1.00  0.00     0.041 A 
ATOM      9  C   UNL     1      -0.713   4.294   0.760  1.00  0.00     0.083 A 
ATOM     10  C   UNL     1       0.533   4.378   0.142  1.00  0.00     0.022 A 
ATOM     11  C   UNL     1      -1.593   5.377   0.750  1.00  0.00     0.035 A 
ATOM     12  C   UNL     1       0.902   5.582  -0.466  1.00  0.00     0.002 A 
ATOM     13  C   UNL     1       0.073   6.708  -0.361  1.00  0.00     0.014 A 
BRANCH   9  14
ATOM     14  S   UNL     1      -1.229   2.919   1.743  1.00  0.00     0.240 S 
ATOM     15  O   UNL     1      -2.607   2.657   1.396  1.00  0.00    -0.207 OA
ATOM     16  O   UNL     1      -0.840   3.242   3.097  1.00  0.00    -0.207 OA
BRANCH  14  17
ATOM     17  N   UNL     1      -0.286   1.612   1.298  1.00  0.00    -0.208 NA
ATOM     18  H   UNL     1       0.681   1.935   1.330  1.00  0.00     0.141 HD
BRANCH  17  19
ATOM     19  C   UNL     1      -0.449   0.934   0.005  1.00  0.00     0.075 C 
ATOM     20  C   UNL     1       1.945   0.043   0.595  1.00  0.00     0.013 C 
ATOM     21  C   UNL     1       0.628  -0.179  -0.167  1.00  0.00    -0.019 C 
ATOM     22  C   UNL     1       0.974  -0.337  -1.661  1.00  0.00     0.013 C 
ATOM     23  C   UNL     1      -0.092  -1.431   0.362  1.00  0.00     0.008 C 
ATOM     24  C   UNL     1      -1.514  -1.289  -0.149  1.00  0.00     0.002 C 
ATOM     25  C   UNL     1      -1.801   0.207  -0.098  1.00  0.00     0.020 C 
ENDBRANCH  17  19
ENDBRANCH  14  17
ENDBRANCH   9  14
ENDBRANCH   5   8
ENDBRANCH   3   4
ENDBRANCH   2   3
ENDBRANCH   1   2
BRANCH   1  26
ATOM     26  C   UNL     1      -4.960   8.294   4.641  1.00  0.00     0.002 C 
BRANCH  26  27
ATOM     27  C   UNL     1      -5.305   6.978   5.343  1.00  0.00     0.021 C 
BRANCH  27  28
ATOM     28  C   UNL     1      -4.917   6.861   6.815  1.00  0.00     0.116 C 
BRANCH  28  29
ATOM     29  N   UNL     1      -5.495   7.902   7.645  1.00  0.00    -0.352 N 
ATOM     30  C   UNL     1      -6.173   7.813   8.835  1.00  0.00     0.251 C 
ATOM     31  H   UNL     1      -5.383   8.817   7.299  1.00  0.00     0.163 HD
ATOM     32  O   UNL     1      -6.672   8.829   9.316  1.00  0.00    -0.269 OA
BRANCH  30  33
ATOM     33  C   UNL     1      -6.335   6.516   9.537  1.00  0.00     0.039 A 
ATOM     34  C   UNL     1      -7.571   6.231  10.128  1.00  0.00     0.014 A 
ATOM     35  C   UNL     1      -5.284   5.603   9.662  1.00  0.00     0.014 A 
ATOM     36  C   UNL     1      -7.767   5.020  10.799  1.00  0.00     0.010 A 
ATOM     37  C   UNL     1      -5.499   4.368  10.278  1.00  0.00     0.010 A 
ATOM     38  C   UNL     1      -6.738   4.067  10.862  1.00  0.00    -0.014 A 
BRANCH  38  39
ATOM     39  C   UNL     1      -6.953   2.757  11.532  1.00  0.00     0.031 A 
ATOM     40  C   UNL     1      -6.192   2.398  12.780  1.00  0.00     0.074 A 
ATOM     41  C   UNL     1      -7.790   1.856  10.980  1.00  0.00     0.049 A 
ATOM     42  N   UNL     1      -6.256   1.306  13.500  1.00  0.00    -0.248 NA
ATOM     43  C   UNL     1      -5.213   3.381  13.272  1.00  0.00     0.031 C 
ATOM     44  C   UNL     1      -8.518   2.040   9.723  1.00  0.00     0.029 A 
ATOM     45  N   UNL     1      -8.153   0.598  11.393  1.00  0.00    -0.354 N 
ATOM     46  C   UNL     1      -5.308   1.455  14.505  1.00  0.00     0.074 A 
ATOM     47  C   UNL     1      -4.659   2.729  14.285  1.00  0.00     0.031 C 
ATOM     48  C   UNL     1      -9.242   0.938   9.469  1.00  0.00     0.029 A 
ATOM     49  C   UNL     1      -9.024  -0.034  10.537  1.00  0.00     0.049 A 
ATOM     50  H   UNL     1      -7.821   0.187  12.223  1.00  0.00     0.167 HD
ATOM     51  C   UNL     1      -5.024   0.625  15.538  1.00  0.00     0.034 A 
ATOM     52  C   UNL     1      -9.593  -1.254  10.607  1.00  0.00     0.034 A 
ATOM     53  C   UNL     1      -5.707  -0.616  15.790  1.00  0.00     0.049 A 
ATOM     54  C   UNL     1      -9.324  -2.121  11.807  1.00  0.00     0.074 A 
ATOM     55  C   UNL     1      -5.561  -1.478  16.863  1.00  0.00     0.029 A 
ATOM     56  N   UNL     1      -6.665  -1.174  14.959  1.00  0.00    -0.354 N 
ATOM     57  N   UNL     1      -8.559  -1.880  12.845  1.00  0.00    -0.248 NA
ATOM     58  C   UNL     1     -10.031  -3.409  11.869  1.00  0.00     0.031 C 
ATOM     59  C   UNL     1      -6.428  -2.561  16.677  1.00  0.00     0.029 A 
ATOM     60  C   UNL     1      -7.119  -2.369  15.492  1.00  0.00     0.049 A 
ATOM     61  H   UNL     1      -6.978  -0.779  14.113  1.00  0.00     0.167 HD
ATOM     62  C   UNL     1      -8.715  -2.969  13.695  1.00  0.00     0.074 A 
ATOM     63  C   UNL     1      -9.669  -3.858  13.063  1.00  0.00     0.031 C 
ATOM     64  C   UNL     1      -8.108  -3.220  14.881  1.00  0.00     0.034 A 
BRANCH  51  65
ATOM     65  C   UNL     1      -3.971   1.071  16.520  1.00  0.00     0.023 A 
ATOM     66  C   UNL     1      -4.270   2.111  17.423  1.00  0.00     0.012 A 
ATOM     67  C   UNL     1      -2.714   0.439  16.585  1.00  0.00     0.148 A 
ATOM     68  C   UNL     1      -3.324   2.541  18.352  1.00  0.00     0.002 A 
ATOM     69  C   UNL     1      -1.789   0.847  17.541  1.00  0.00     0.091 A 
ATOM     70  F   UNL     1      -2.437  -0.532  15.703  1.00  0.00    -0.205 F 
ATOM     71  C   UNL     1      -2.088   1.903  18.418  1.00  0.00     0.022 A 
BRANCH  69  72
ATOM     72  S   UNL     1      -0.199   0.037  17.748  1.00  0.00     0.127 S 
ATOM     73  O   UNL     1       0.705   0.990  17.107  1.00  0.00    -0.237 OA
ATOM     74  O   UNL     1      -0.072  -0.038  19.204  1.00  0.00    -0.237 OA
ATOM     75  O   UNL     1      -0.324  -1.256  17.088  1.00  0.00    -0.744 OA
ENDBRANCH  69  72
ENDBRANCH  51  65
BRANCH  52  76
ATOM     76  C   UNL     1     -10.554  -1.682   9.553  1.00  0.00     0.023 A 
ATOM     77  C   UNL     1     -11.928  -1.735   9.857  1.00  0.00     0.012 A 
ATOM     78  C   UNL     1     -10.126  -1.994   8.248  1.00  0.00     0.148 A 
ATOM     79  C   UNL     1     -12.857  -2.115   8.888  1.00  0.00     0.002 A 
ATOM     80  C   UNL     1     -11.062  -2.323   7.274  1.00  0.00     0.091 A 
ATOM     81  F   UNL     1      -8.812  -1.953   7.983  1.00  0.00    -0.205 F 
ATOM     82  C   UNL     1     -12.426  -2.397   7.595  1.00  0.00     0.022 A 
BRANCH  80  83
ATOM     83  S   UNL     1     -10.609  -2.577   5.554  1.00  0.00     0.127 S 
ATOM     84  O   UNL     1     -10.724  -4.027   5.425  1.00  0.00    -0.237 OA
ATOM     85  O   UNL     1     -11.639  -1.812   4.850  1.00  0.00    -0.237 OA
ATOM     86  O   UNL     1      -9.264  -2.032   5.421  1.00  0.00    -0.744 OA
ENDBRANCH  80  83
ENDBRANCH  52  76
BRANCH  64  87
ATOM     87  C   UNL     1      -8.464  -4.503  15.587  1.00  0.00     0.023 A 
ATOM     88  C   UNL     1      -7.976  -5.727  15.088  1.00  0.00     0.012 A 
ATOM     89  C   UNL     1      -9.228  -4.495  16.770  1.00  0.00     0.148 A 
ATOM     90  C   UNL     1      -8.270  -6.926  15.738  1.00  0.00     0.002 A 
ATOM     91  C   UNL     1      -9.481  -5.689  17.435  1.00  0.00     0.091 A 
ATOM     92  F   UNL     1      -9.707  -3.325  17.219  1.00  0.00    -0.205 F 
ATOM     93  C   UNL     1      -9.012  -6.906  16.916  1.00  0.00     0.022 A 
BRANCH  91  94
ATOM     94  S   UNL     1     -10.354  -5.732  19.006  1.00  0.00     0.127 S 
ATOM     95  O   UNL     1     -11.715  -6.059  18.584  1.00  0.00    -0.237 OA
ATOM     96  O   UNL     1      -9.665  -6.805  19.725  1.00  0.00    -0.237 OA
ATOM     97  O   UNL     1     -10.170  -4.409  19.589  1.00  0.00    -0.744 OA
ENDBRANCH  91  94
ENDBRANCH  64  87
ENDBRANCH  38  39
ENDBRANCH  30  33
ENDBRANCH  28  29
ENDBRANCH  27  28
ENDBRANCH  26  27
ENDBRANCH   1  26
TORSDOF 19
