REMARK SMILES O=C(CCc1nc(-c2ccccc2)c(-c2ccccc2)o1)NCCCCCCNC(=O)c1ccc(-c2c3nc(c(-c4cccc(S(=O)(=O)[O-])c4F)c4ccc([nH]4)c(-c4cccc(S(=O)(=O)[O-])c4F)c4nc(c(-c5cccc(S(=O)(=O)[O-])c5F)c5ccc2[nH]5)C=C4)C=C3)cc1
REMARK SMILES IDX 25 1 24 2 23 3 22 4 1 5 2 6 3 8 4 9 5 10 6 11 21 12 7 13
REMARK SMILES IDX 14 14 8 15 9 16 13 17 10 18 12 19 11 20 15 21 16 22 20 23
REMARK SMILES IDX 17 24 19 25 18 26 26 27 27 28 28 29 29 30 30 31 31 33 32 34
REMARK SMILES IDX 33 35 94 36 34 37 93 38 35 39 36 40 37 41 87 42 38 43 92 44
REMARK SMILES IDX 86 45 88 46 39 47 91 48 85 49 84 50 40 52 72 53 52 54 71 55
REMARK SMILES IDX 53 56 56 57 70 58 89 59 54 60 55 61 69 63 90 64 57 65 41 66
REMARK SMILES IDX 42 67 50 68 43 69 45 70 51 71 44 72 46 73 47 74 48 75 49 76
REMARK SMILES IDX 73 77 74 78 82 79 75 80 77 81 83 82 76 83 78 84 79 85 80 86
REMARK SMILES IDX 81 87 58 88 59 89 67 90 60 91 62 92 68 93 61 94 63 95 64 96
REMARK SMILES IDX 65 97 66 98
REMARK H PARENT 22 7 29 32 88 51 56 62
REMARK Flexibility Score: inf
ROOT
ATOM      1  C   UNL     1       3.416  -3.948  -0.271  1.00  0.00     0.002 C 
ENDROOT
BRANCH   1   2
ATOM      2  C   UNL     1       1.983  -3.439  -0.454  1.00  0.00     0.021 C 
BRANCH   2   3
ATOM      3  C   UNL     1       1.612  -2.228   0.409  1.00  0.00     0.116 C 
BRANCH   3   4
ATOM      4  N   UNL     1       2.517  -1.116   0.196  1.00  0.00    -0.356 N 
ATOM      5  O   UNL     1       0.960   0.570   0.157  1.00  0.00    -0.275 OA
ATOM      6  C   UNL     1       2.125   0.192   0.082  1.00  0.00     0.220 C 
ATOM      7  H   UNL     1       3.479  -1.314   0.129  1.00  0.00     0.163 HD
BRANCH   6   8
ATOM      8  C   UNL     1       3.258   1.165  -0.199  1.00  0.00     0.110 C 
BRANCH   8   9
ATOM      9  C   UNL     1       4.131   1.458   1.020  1.00  0.00     0.107 C 
BRANCH   9  10
ATOM     10  C   UNL     1       5.182   0.423   1.236  1.00  0.00     0.196 A 
ATOM     11  N   UNL     1       5.075  -0.885   1.078  1.00  0.00    -0.213 NA
ATOM     12  O   UNL     1       6.426   0.856   1.646  1.00  0.00    -0.440 OA
ATOM     13  C   UNL     1       6.309  -1.348   1.429  1.00  0.00     0.117 A 
ATOM     14  C   UNL     1       7.148  -0.302   1.741  1.00  0.00     0.162 A 
BRANCH  13  15
ATOM     15  C   UNL     1       6.718  -2.728   1.491  1.00  0.00     0.004 A 
ATOM     16  C   UNL     1       6.821  -3.366   2.735  1.00  0.00     0.010 A 
ATOM     17  C   UNL     1       7.120  -3.392   0.326  1.00  0.00     0.010 A 
ATOM     18  C   UNL     1       7.337  -4.659   2.813  1.00  0.00     0.001 A 
ATOM     19  C   UNL     1       7.650  -4.678   0.412  1.00  0.00     0.001 A 
ATOM     20  C   UNL     1       7.761  -5.306   1.654  1.00  0.00     0.000 A 
ENDBRANCH  13  15
BRANCH  14  21
ATOM     21  C   UNL     1       8.545  -0.275   2.129  1.00  0.00     0.020 A 
ATOM     22  C   UNL     1       8.931   0.135   3.407  1.00  0.00     0.012 A 
ATOM     23  C   UNL     1       9.485  -0.914   1.302  1.00  0.00     0.012 A 
ATOM     24  C   UNL     1      10.220  -0.149   3.869  1.00  0.00     0.001 A 
ATOM     25  C   UNL     1      10.765  -1.205   1.767  1.00  0.00     0.001 A 
ATOM     26  C   UNL     1      11.127  -0.834   3.057  1.00  0.00     0.000 A 
ENDBRANCH  14  21
ENDBRANCH   9  10
ENDBRANCH   8   9
ENDBRANCH   6   8
ENDBRANCH   3   4
ENDBRANCH   2   3
ENDBRANCH   1   2
BRANCH   1  27
ATOM     27  C   UNL     1       3.728  -4.486   1.125  1.00  0.00     0.002 C 
BRANCH  27  28
ATOM     28  C   UNL     1       3.133  -5.846   1.463  1.00  0.00     0.021 C 
BRANCH  28  29
ATOM     29  C   UNL     1       3.543  -6.973   0.521  1.00  0.00     0.116 C 
BRANCH  29  30
ATOM     30  N   UNL     1       4.988  -7.172   0.425  1.00  0.00    -0.352 N 
ATOM     31  C   UNL     1       5.730  -8.326   0.564  1.00  0.00     0.251 C 
ATOM     32  H   UNL     1       5.510  -6.359   0.234  1.00  0.00     0.163 HD
ATOM     33  O   UNL     1       6.950  -8.305   0.525  1.00  0.00    -0.269 OA
BRANCH  31  34
ATOM     34  C   UNL     1       5.020  -9.599   0.795  1.00  0.00     0.039 A 
ATOM     35  C   UNL     1       5.407 -10.416   1.860  1.00  0.00     0.014 A 
ATOM     36  C   UNL     1       3.925  -9.935   0.001  1.00  0.00     0.014 A 
ATOM     37  C   UNL     1       4.631 -11.531   2.185  1.00  0.00     0.010 A 
ATOM     38  C   UNL     1       3.099 -10.977   0.390  1.00  0.00     0.010 A 
ATOM     39  C   UNL     1       3.444 -11.790   1.482  1.00  0.00    -0.014 A 
BRANCH  39  40
ATOM     40  C   UNL     1       2.535 -12.906   1.841  1.00  0.00     0.031 A 
ATOM     41  C   UNL     1       2.223 -13.956   0.807  1.00  0.00     0.074 A 
ATOM     42  C   UNL     1       1.893 -12.899   3.026  1.00  0.00     0.049 A 
ATOM     43  N   UNL     1       1.322 -14.902   0.835  1.00  0.00    -0.248 NA
ATOM     44  C   UNL     1       2.994 -13.902  -0.449  1.00  0.00     0.031 C 
ATOM     45  C   UNL     1       2.049 -11.884   4.072  1.00  0.00     0.029 A 
ATOM     46  N   UNL     1       0.946 -13.752   3.534  1.00  0.00    -0.354 N 
ATOM     47  C   UNL     1       1.381 -15.516  -0.410  1.00  0.00     0.074 A 
ATOM     48  C   UNL     1       2.375 -14.810  -1.187  1.00  0.00     0.031 C 
ATOM     49  C   UNL     1       1.224 -12.171   5.093  1.00  0.00     0.029 A 
ATOM     50  C   UNL     1       0.457 -13.367   4.763  1.00  0.00     0.049 A 
ATOM     51  H   UNL     1       0.644 -14.563   3.065  1.00  0.00     0.167 HD
ATOM     52  C   UNL     1       0.697 -16.595  -0.856  1.00  0.00     0.034 A 
ATOM     53  C   UNL     1      -0.512 -13.911   5.526  1.00  0.00     0.034 A 
ATOM     54  C   UNL     1      -0.235 -17.333  -0.050  1.00  0.00     0.049 A 
ATOM     55  C   UNL     1      -1.200 -15.158   5.037  1.00  0.00     0.074 A 
ATOM     56  C   UNL     1      -0.921 -18.491  -0.369  1.00  0.00     0.029 A 
ATOM     57  N   UNL     1      -0.599 -16.993   1.244  1.00  0.00    -0.354 N 
ATOM     58  N   UNL     1      -1.031 -15.806   3.909  1.00  0.00    -0.248 NA
ATOM     59  C   UNL     1      -2.182 -15.775   5.941  1.00  0.00     0.031 C 
ATOM     60  C   UNL     1      -1.704 -18.849   0.733  1.00  0.00     0.029 A 
ATOM     61  C   UNL     1      -1.490 -17.924   1.743  1.00  0.00     0.049 A 
ATOM     62  H   UNL     1      -0.271 -16.205   1.734  1.00  0.00     0.167 HD
ATOM     63  C   UNL     1      -1.853 -16.924   3.984  1.00  0.00     0.074 A 
ATOM     64  C   UNL     1      -2.502 -16.878   5.278  1.00  0.00     0.031 C 
ATOM     65  C   UNL     1      -2.067 -17.893   3.061  1.00  0.00     0.034 A 
BRANCH  52  66
ATOM     66  C   UNL     1       0.990 -17.087  -2.249  1.00  0.00     0.023 A 
ATOM     67  C   UNL     1       2.230 -17.704  -2.516  1.00  0.00     0.012 A 
ATOM     68  C   UNL     1       0.029 -16.998  -3.274  1.00  0.00     0.148 A 
ATOM     69  C   UNL     1       2.523 -18.192  -3.788  1.00  0.00     0.002 A 
ATOM     70  C   UNL     1       0.310 -17.529  -4.527  1.00  0.00     0.091 A 
ATOM     71  F   UNL     1      -1.137 -16.392  -3.006  1.00  0.00    -0.205 F 
ATOM     72  C   UNL     1       1.560 -18.115  -4.789  1.00  0.00     0.022 A 
BRANCH  70  73
ATOM     73  S   UNL     1      -0.887 -17.553  -5.867  1.00  0.00     0.127 S 
ATOM     74  O   UNL     1      -0.271 -16.642  -6.830  1.00  0.00    -0.237 OA
ATOM     75  O   UNL     1      -0.872 -18.961  -6.264  1.00  0.00    -0.237 OA
ATOM     76  O   UNL     1      -2.144 -17.094  -5.293  1.00  0.00    -0.744 OA
ENDBRANCH  70  73
ENDBRANCH  52  66
BRANCH  53  77
ATOM     77  C   UNL     1      -0.841 -13.327   6.859  1.00  0.00     0.023 A 
ATOM     78  C   UNL     1      -0.501 -14.040   8.026  1.00  0.00     0.012 A 
ATOM     79  C   UNL     1      -1.472 -12.075   6.983  1.00  0.00     0.148 A 
ATOM     80  C   UNL     1      -0.823 -13.540   9.288  1.00  0.00     0.002 A 
ATOM     81  C   UNL     1      -1.740 -11.556   8.245  1.00  0.00     0.091 A 
ATOM     82  F   UNL     1      -1.801 -11.413   5.864  1.00  0.00    -0.205 F 
ATOM     83  C   UNL     1      -1.434 -12.294   9.399  1.00  0.00     0.022 A 
BRANCH  81  84
ATOM     84  S   UNL     1      -2.403  -9.902   8.478  1.00  0.00     0.127 S 
ATOM     85  O   UNL     1      -3.799 -10.181   8.804  1.00  0.00    -0.237 OA
ATOM     86  O   UNL     1      -1.598  -9.403   9.594  1.00  0.00    -0.237 OA
ATOM     87  O   UNL     1      -2.166  -9.210   7.218  1.00  0.00    -0.744 OA
ENDBRANCH  81  84
ENDBRANCH  53  77
BRANCH  65  88
ATOM     88  C   UNL     1      -3.001 -19.014   3.431  1.00  0.00     0.023 A 
ATOM     89  C   UNL     1      -4.389 -18.783   3.474  1.00  0.00     0.012 A 
ATOM     90  C   UNL     1      -2.505 -20.314   3.649  1.00  0.00     0.148 A 
ATOM     91  C   UNL     1      -5.269 -19.825   3.761  1.00  0.00     0.002 A 
ATOM     92  C   UNL     1      -3.391 -21.357   3.885  1.00  0.00     0.091 A 
ATOM     93  F   UNL     1      -1.177 -20.506   3.621  1.00  0.00    -0.205 F 
ATOM     94  C   UNL     1      -4.772 -21.112   3.953  1.00  0.00     0.022 A 
BRANCH  92  95
ATOM     95  S   UNL     1      -2.846 -23.061   4.046  1.00  0.00     0.127 S 
ATOM     96  O   UNL     1      -3.005 -23.290   5.481  1.00  0.00    -0.237 OA
ATOM     97  O   UNL     1      -3.806 -23.774   3.204  1.00  0.00    -0.237 OA
ATOM     98  O   UNL     1      -1.475 -23.091   3.555  1.00  0.00    -0.744 OA
ENDBRANCH  92  95
ENDBRANCH  65  88
ENDBRANCH  39  40
ENDBRANCH  31  34
ENDBRANCH  29  30
ENDBRANCH  28  29
ENDBRANCH  27  28
ENDBRANCH   1  27
TORSDOF 20
