REMARK SMILES COc1cccc(CSc2nc3ccccc3c(=O)n2CCC(=O)NCCCCCCNC(=O)c2ccc(-c3c4nc(c(-c5cccc(S(=O)(=O)[O-])c5F)c5ccc([nH]5)c(-c5cccc(S(=O)(=O)[O-])c5F)c5nc(c(-c6cccc(S(=O)(=O)[O-])c6F)c6ccc3[nH]6)C=C5)C=C4)cc2)c1
REMARK SMILES IDX 27 1 26 2 25 3 23 4 24 5 22 7 21 8 20 9 10 10 11 11 12 12
REMARK SMILES IDX 18 13 13 14 17 15 19 16 14 17 16 18 15 19 9 20 8 21 7 22
REMARK SMILES IDX 3 23 4 24 98 25 5 26 6 27 2 28 1 29 28 30 29 31 30 32 31 33
REMARK SMILES IDX 32 34 33 35 34 37 35 38 36 39 97 40 37 41 96 42 38 43 39 44
REMARK SMILES IDX 40 45 90 46 41 47 95 48 89 49 91 50 42 51 94 52 88 53 87 54
REMARK SMILES IDX 43 56 75 57 55 58 74 59 56 60 59 61 73 62 92 63 57 64 58 65
REMARK SMILES IDX 72 67 93 68 60 69 44 70 45 71 53 72 46 73 48 74 54 75 47 76
REMARK SMILES IDX 49 77 50 78 51 79 52 80 76 81 77 82 85 83 78 84 80 85 86 86
REMARK SMILES IDX 79 87 81 88 82 89 83 90 84 91 61 92 62 93 70 94 63 95 65 96
REMARK SMILES IDX 71 97 64 98 66 99 67 100 68 101 69 102
REMARK H PARENT 25 6 32 36 91 55 59 66
REMARK Flexibility Score: inf
ROOT
ATOM      1  C   UNL     1       6.646   5.533  -3.203  1.00  0.00     0.021 C 
ENDROOT
BRANCH   1   2
ATOM      2  C   UNL     1       7.357   4.294  -2.666  1.00  0.00     0.116 C 
BRANCH   2   3
ATOM      3  N   UNL     1       6.894   3.965  -1.322  1.00  0.00    -0.356 N 
ATOM      4  C   UNL     1       6.018   3.022  -0.881  1.00  0.00     0.221 C 
ATOM      5  O   UNL     1       5.755   2.996   0.325  1.00  0.00    -0.275 OA
ATOM      6  H   UNL     1       7.284   4.522  -0.610  1.00  0.00     0.163 HD
BRANCH   4   7
ATOM      7  C   UNL     1       5.386   2.015  -1.821  1.00  0.00     0.122 C 
BRANCH   7   8
ATOM      8  C   UNL     1       3.853   2.068  -1.749  1.00  0.00     0.138 C 
BRANCH   8   9
ATOM      9  N   UNL     1       3.259   2.850  -2.830  1.00  0.00    -0.287 N 
ATOM     10  C   UNL     1       3.442   4.199  -3.026  1.00  0.00     0.171 A 
ATOM     11  N   UNL     1       3.703   4.673  -4.208  1.00  0.00    -0.224 NA
ATOM     12  C   UNL     1       3.763   3.777  -5.287  1.00  0.00     0.079 A 
ATOM     13  C   UNL     1       2.734   2.091  -3.885  1.00  0.00     0.262 A 
ATOM     14  C   UNL     1       4.479   4.095  -6.441  1.00  0.00     0.029 A 
ATOM     15  C   UNL     1       3.115   2.553  -5.232  1.00  0.00     0.066 A 
ATOM     16  O   UNL     1       2.102   1.056  -3.739  1.00  0.00    -0.269 OA
ATOM     17  C   UNL     1       4.493   3.228  -7.538  1.00  0.00     0.002 A 
ATOM     18  C   UNL     1       3.042   1.712  -6.348  1.00  0.00     0.016 A 
ATOM     19  C   UNL     1       3.735   2.059  -7.508  1.00  0.00     0.001 A 
BRANCH  10  20
ATOM     20  S   UNL     1       3.387   5.426  -1.778  1.00  0.00    -0.083 SA
BRANCH  20  21
ATOM     21  C   UNL     1       2.829   4.833  -0.185  1.00  0.00     0.113 C 
BRANCH  21  22
ATOM     22  C   UNL     1       1.419   4.321  -0.166  1.00  0.00    -0.034 A 
ATOM     23  C   UNL     1      -0.106   2.437  -0.029  1.00  0.00     0.119 A 
ATOM     24  C   UNL     1      -1.149   3.269  -0.433  1.00  0.00     0.046 A 
ATOM     25  C   UNL     1       1.157   2.984   0.170  1.00  0.00     0.051 A 
ATOM     26  C   UNL     1      -0.930   4.631  -0.645  1.00  0.00     0.004 A 
ATOM     27  C   UNL     1       0.353   5.155  -0.519  1.00  0.00     0.005 A 
BRANCH  23  28
ATOM     28  O   UNL     1      -0.425   1.116   0.127  1.00  0.00    -0.497 OA
ATOM     29  C   UNL     1       0.669   0.203   0.193  1.00  0.00     0.278 C 
ENDBRANCH  23  28
ENDBRANCH  21  22
ENDBRANCH  20  21
ENDBRANCH  10  20
ENDBRANCH   8   9
ENDBRANCH   7   8
ENDBRANCH   4   7
ENDBRANCH   2   3
ENDBRANCH   1   2
BRANCH   1  30
ATOM     30  C   UNL     1       7.439   6.835  -3.277  1.00  0.00     0.002 C 
BRANCH  30  31
ATOM     31  C   UNL     1       8.535   6.896  -4.339  1.00  0.00     0.002 C 
BRANCH  31  32
ATOM     32  C   UNL     1       8.165   6.366  -5.727  1.00  0.00     0.021 C 
BRANCH  32  33
ATOM     33  C   UNL     1       6.932   6.994  -6.377  1.00  0.00     0.116 C 
BRANCH  33  34
ATOM     34  N   UNL     1       7.153   8.354  -6.825  1.00  0.00    -0.352 N 
ATOM     35  C   UNL     1       7.319   8.833  -8.102  1.00  0.00     0.251 C 
ATOM     36  H   UNL     1       7.190   9.032  -6.113  1.00  0.00     0.163 HD
ATOM     37  O   UNL     1       7.665   9.999  -8.275  1.00  0.00    -0.269 OA
BRANCH  35  38
ATOM     38  C   UNL     1       7.108   7.951  -9.275  1.00  0.00     0.039 A 
ATOM     39  C   UNL     1       8.096   7.907 -10.263  1.00  0.00     0.014 A 
ATOM     40  C   UNL     1       5.929   7.216  -9.437  1.00  0.00     0.014 A 
ATOM     41  C   UNL     1       7.924   7.098 -11.391  1.00  0.00     0.010 A 
ATOM     42  C   UNL     1       5.780   6.371 -10.541  1.00  0.00     0.010 A 
ATOM     43  C   UNL     1       6.772   6.307 -11.533  1.00  0.00    -0.014 A 
BRANCH  43  44
ATOM     44  C   UNL     1       6.587   5.417 -12.712  1.00  0.00     0.031 A 
ATOM     45  C   UNL     1       5.488   5.691 -13.706  1.00  0.00     0.074 A 
ATOM     46  C   UNL     1       7.359   4.321 -12.856  1.00  0.00     0.049 A 
ATOM     47  N   UNL     1       5.117   4.983 -14.742  1.00  0.00    -0.248 NA
ATOM     48  C   UNL     1       4.694   6.912 -13.499  1.00  0.00     0.031 C 
ATOM     49  C   UNL     1       8.433   3.920 -11.948  1.00  0.00     0.029 A 
ATOM     50  N   UNL     1       7.338   3.327 -13.805  1.00  0.00    -0.354 N 
ATOM     51  C   UNL     1       4.029   5.651 -15.291  1.00  0.00     0.074 A 
ATOM     52  C   UNL     1       3.786   6.811 -14.460  1.00  0.00     0.031 C 
ATOM     53  C   UNL     1       8.960   2.760 -12.375  1.00  0.00     0.029 A 
ATOM     54  C   UNL     1       8.242   2.317 -13.567  1.00  0.00     0.049 A 
ATOM     55  H   UNL     1       6.733   3.336 -14.582  1.00  0.00     0.167 HD
ATOM     56  C   UNL     1       3.311   5.343 -16.398  1.00  0.00     0.034 A 
ATOM     57  C   UNL     1       8.459   1.158 -14.221  1.00  0.00     0.034 A 
ATOM     58  C   UNL     1       3.575   4.212 -17.247  1.00  0.00     0.049 A 
ATOM     59  C   UNL     1       7.649   0.841 -15.450  1.00  0.00     0.074 A 
ATOM     60  C   UNL     1       2.940   3.854 -18.424  1.00  0.00     0.029 A 
ATOM     61  N   UNL     1       4.548   3.255 -17.012  1.00  0.00    -0.354 N 
ATOM     62  N   UNL     1       6.709   1.552 -16.024  1.00  0.00    -0.248 NA
ATOM     63  C   UNL     1       7.948  -0.423 -16.142  1.00  0.00     0.031 C 
ATOM     64  C   UNL     1       3.516   2.669 -18.890  1.00  0.00     0.029 A 
ATOM     65  C   UNL     1       4.528   2.303 -18.017  1.00  0.00     0.049 A 
ATOM     66  H   UNL     1       5.163   3.251 -16.243  1.00  0.00     0.167 HD
ATOM     67  C   UNL     1       6.341   0.849 -17.166  1.00  0.00     0.074 A 
ATOM     68  C   UNL     1       7.162  -0.343 -17.208  1.00  0.00     0.031 C 
ATOM     69  C   UNL     1       5.399   1.159 -18.090  1.00  0.00     0.034 A 
BRANCH  56  70
ATOM     70  C   UNL     1       2.192   6.273 -16.794  1.00  0.00     0.023 A 
ATOM     71  C   UNL     1       2.501   7.535 -17.341  1.00  0.00     0.012 A 
ATOM     72  C   UNL     1       0.845   5.872 -16.699  1.00  0.00     0.148 A 
ATOM     73  C   UNL     1       1.488   8.396 -17.758  1.00  0.00     0.002 A 
ATOM     74  C   UNL     1      -0.158   6.719 -17.157  1.00  0.00     0.091 A 
ATOM     75  F   UNL     1       0.570   4.675 -16.161  1.00  0.00    -0.205 F 
ATOM     76  C   UNL     1       0.160   7.984 -17.677  1.00  0.00     0.022 A 
BRANCH  74  77
ATOM     77  S   UNL     1      -1.892   6.247 -17.171  1.00  0.00     0.127 S 
ATOM     78  O   UNL     1      -2.433   7.081 -16.099  1.00  0.00    -0.237 OA
ATOM     79  O   UNL     1      -2.309   6.640 -18.517  1.00  0.00    -0.237 OA
ATOM     80  O   UNL     1      -1.919   4.813 -16.922  1.00  0.00    -0.744 OA
ENDBRANCH  74  77
ENDBRANCH  56  70
BRANCH  57  81
ATOM     81  C   UNL     1       9.529   0.230 -13.756  1.00  0.00     0.023 A 
ATOM     82  C   UNL     1      10.688   0.063 -14.539  1.00  0.00     0.012 A 
ATOM     83  C   UNL     1       9.417  -0.469 -12.539  1.00  0.00     0.148 A 
ATOM     84  C   UNL     1      11.702  -0.806 -14.133  1.00  0.00     0.002 A 
ATOM     85  C   UNL     1      10.455  -1.290 -12.113  1.00  0.00     0.091 A 
ATOM     86  F   UNL     1       8.299  -0.311 -11.815  1.00  0.00    -0.205 F 
ATOM     87  C   UNL     1      11.591  -1.474 -12.916  1.00  0.00     0.022 A 
BRANCH  85  88
ATOM     88  S   UNL     1      10.452  -2.079 -10.499  1.00  0.00     0.127 S 
ATOM     89  O   UNL     1      10.205  -3.475 -10.848  1.00  0.00    -0.237 OA
ATOM     90  O   UNL     1      11.805  -1.793 -10.018  1.00  0.00    -0.237 OA
ATOM     91  O   UNL     1       9.398  -1.416  -9.742  1.00  0.00    -0.744 OA
ENDBRANCH  85  88
ENDBRANCH  57  81
BRANCH  69  92
ATOM     92  C   UNL     1       5.229   0.238 -19.269  1.00  0.00     0.023 A 
ATOM     93  C   UNL     1       4.577  -0.999 -19.107  1.00  0.00     0.012 A 
ATOM     94  C   UNL     1       5.617   0.654 -20.559  1.00  0.00     0.148 A 
ATOM     95  C   UNL     1       4.328  -1.817 -20.209  1.00  0.00     0.002 A 
ATOM     96  C   UNL     1       5.325  -0.144 -21.658  1.00  0.00     0.091 A 
ATOM     97  F   UNL     1       6.252   1.828 -20.687  1.00  0.00    -0.205 F 
ATOM     98  C   UNL     1       4.688  -1.384 -21.484  1.00  0.00     0.022 A 
BRANCH  96  99
ATOM     99  S   UNL     1       5.663   0.371 -23.346  1.00  0.00     0.127 S 
ATOM    100  O   UNL     1       6.727  -0.555 -23.732  1.00  0.00    -0.237 OA
ATOM    101  O   UNL     1       4.379   0.133 -24.004  1.00  0.00    -0.237 OA
ATOM    102  O   UNL     1       6.056   1.771 -23.269  1.00  0.00    -0.744 OA
ENDBRANCH  96  99
ENDBRANCH  69  92
ENDBRANCH  43  44
ENDBRANCH  35  38
ENDBRANCH  33  34
ENDBRANCH  32  33
ENDBRANCH  31  32
ENDBRANCH  30  31
ENDBRANCH   1  30
TORSDOF 22
