REMARK SMILES Cc1ccc2c(c1)C=C(C(=O)NCCCCCCNC(=O)c1ccc(-c3c4nc(c(-c5cccc(S(=O)(=O)[O-])c5F)c5ccc([nH]5)c(-c5cccc(S(=O)(=O)[O-])c5F)c5nc(c(-c6cccc(S(=O)(=O)[O-])c6F)c6ccc3[nH]6)C=C5)C=C4)cc1)[C@@H](C(F)(F)F)O2
REMARK SMILES IDX 16 1 15 2 14 3 13 4 12 5 10 6 11 7 9 9 1 10 2 11 3 12 7 13
REMARK SMILES IDX 4 14 6 15 5 16 8 17 90 18 85 19 86 20 87 21 88 22 89 23
REMARK SMILES IDX 17 24 18 25 19 26 20 27 21 29 22 30 23 31 84 32 24 33 83 34
REMARK SMILES IDX 25 35 26 36 27 37 77 38 28 39 82 40 76 41 78 42 29 43 81 44
REMARK SMILES IDX 75 45 74 46 30 48 62 49 42 50 61 51 43 52 46 53 60 54 79 55
REMARK SMILES IDX 44 56 45 57 59 59 80 60 47 61 31 62 32 63 40 64 33 65 35 66
REMARK SMILES IDX 41 67 34 68 36 69 37 70 38 71 39 72 63 73 64 74 72 75 65 76
REMARK SMILES IDX 67 77 73 78 66 79 68 80 69 81 70 82 71 83 48 84 49 85 57 86
REMARK SMILES IDX 50 87 52 88 58 89 51 90 53 91 54 92 55 93 56 94
REMARK H PARENT 12 8 19 28 78 47 46 58
REMARK Flexibility Score: inf
ROOT
ATOM      1  C   UNL     1       1.019  12.233   0.120  1.00  0.00     0.002 C 
ENDROOT
BRANCH   1   2
ATOM      2  C   UNL     1       1.236  11.313   1.329  1.00  0.00     0.002 C 
BRANCH   2   3
ATOM      3  C   UNL     1       0.446  10.000   1.320  1.00  0.00     0.021 C 
BRANCH   3   4
ATOM      4  C   UNL     1       0.673   9.132   0.084  1.00  0.00     0.116 C 
BRANCH   4   5
ATOM      5  N   UNL     1       1.885   8.339   0.194  1.00  0.00    -0.352 N 
ATOM      6  C   UNL     1       2.220   7.029   0.170  1.00  0.00     0.251 C 
ATOM      7  O   UNL     1       3.431   6.800   0.277  1.00  0.00    -0.270 OA
ATOM      8  H   UNL     1       2.678   8.910   0.319  1.00  0.00     0.163 HD
BRANCH   6   9
ATOM      9  C   UNL     1       1.266   5.885   0.031  1.00  0.00     0.067 C 
ATOM     10  C   UNL     1       1.240  -0.316   0.055  1.00  0.00     0.044 C 
ATOM     11  C   UNL     1       0.672   1.071   0.010  1.00  0.00    -0.050 A 
ATOM     12  C   UNL     1      -0.712   1.251  -0.109  1.00  0.00     0.007 A 
ATOM     13  C   UNL     1       1.503   2.196   0.114  1.00  0.00     0.015 A 
ATOM     14  C   UNL     1      -1.254   2.535  -0.137  1.00  0.00     0.047 A 
ATOM     15  C   UNL     1       0.960   3.486   0.082  1.00  0.00     0.017 A 
ATOM     16  C   UNL     1      -0.417   3.644  -0.053  1.00  0.00     0.128 A 
ATOM     17  C   UNL     1       1.803   4.665   0.227  1.00  0.00     0.025 C 
ATOM     18  O   UNL     1      -1.023   4.864  -0.061  1.00  0.00    -0.475 OA
ATOM     19  C   UNL     1      -0.184   6.017  -0.349  1.00  0.00     0.314 C 
BRANCH  19  20
ATOM     20  C   UNL     1      -0.377   6.416  -1.823  1.00  0.00     0.429 C 
ATOM     21  F   UNL     1      -1.651   6.822  -2.045  1.00  0.00    -0.167 F 
ATOM     22  F   UNL     1       0.421   7.447  -2.189  1.00  0.00    -0.167 F 
ATOM     23  F   UNL     1      -0.118   5.397  -2.673  1.00  0.00    -0.167 F 
ENDBRANCH  19  20
ENDBRANCH   6   9
ENDBRANCH   4   5
ENDBRANCH   3   4
ENDBRANCH   2   3
ENDBRANCH   1   2
BRANCH   1  24
ATOM     24  C   UNL     1      -0.438  12.490  -0.272  1.00  0.00     0.021 C 
BRANCH  24  25
ATOM     25  C   UNL     1      -1.312  13.082   0.827  1.00  0.00     0.116 C 
BRANCH  25  26
ATOM     26  N   UNL     1      -0.883  14.409   1.232  1.00  0.00    -0.352 N 
ATOM     27  C   UNL     1      -1.630  15.558   1.361  1.00  0.00     0.251 C 
ATOM     28  H   UNL     1       0.074  14.500   1.443  1.00  0.00     0.163 HD
ATOM     29  O   UNL     1      -1.074  16.630   1.580  1.00  0.00    -0.269 OA
BRANCH  27  30
ATOM     30  C   UNL     1      -3.099  15.494   1.198  1.00  0.00     0.039 A 
ATOM     31  C   UNL     1      -3.844  14.504   1.841  1.00  0.00     0.014 A 
ATOM     32  C   UNL     1      -3.732  16.419   0.363  1.00  0.00     0.014 A 
ATOM     33  C   UNL     1      -5.190  14.341   1.527  1.00  0.00     0.010 A 
ATOM     34  C   UNL     1      -5.101  16.299   0.107  1.00  0.00     0.010 A 
ATOM     35  C   UNL     1      -5.831  15.230   0.649  1.00  0.00    -0.014 A 
BRANCH  35  36
ATOM     36  C   UNL     1      -7.264  15.023   0.315  1.00  0.00     0.031 A 
ATOM     37  C   UNL     1      -7.690  14.677  -1.087  1.00  0.00     0.074 A 
ATOM     38  C   UNL     1      -8.186  15.112   1.293  1.00  0.00     0.049 A 
ATOM     39  N   UNL     1      -8.893  14.434  -1.542  1.00  0.00    -0.248 NA
ATOM     40  C   UNL     1      -6.637  14.594  -2.113  1.00  0.00     0.031 C 
ATOM     41  C   UNL     1      -7.901  15.461   2.687  1.00  0.00     0.029 A 
ATOM     42  N   UNL     1      -9.542  14.904   1.273  1.00  0.00    -0.354 N 
ATOM     43  C   UNL     1      -8.750  14.213  -2.906  1.00  0.00     0.074 A 
ATOM     44  C   UNL     1      -7.342  14.350  -3.210  1.00  0.00     0.031 C 
ATOM     45  C   UNL     1      -9.038  15.402   3.395  1.00  0.00     0.029 A 
ATOM     46  C   UNL     1     -10.139  15.056   2.501  1.00  0.00     0.049 A 
ATOM     47  H   UNL     1     -10.039  14.667   0.456  1.00  0.00     0.167 HD
ATOM     48  C   UNL     1      -9.700  13.903  -3.818  1.00  0.00     0.034 A 
ATOM     49  C   UNL     1     -11.428  14.935   2.872  1.00  0.00     0.034 A 
ATOM     50  C   UNL     1     -11.090  13.707  -3.508  1.00  0.00     0.049 A 
ATOM     51  C   UNL     1     -12.459  14.568   1.846  1.00  0.00     0.074 A 
ATOM     52  C   UNL     1     -12.114  13.334  -4.361  1.00  0.00     0.029 A 
ATOM     53  N   UNL     1     -11.651  13.860  -2.251  1.00  0.00    -0.354 N 
ATOM     54  N   UNL     1     -12.287  14.283   0.578  1.00  0.00    -0.248 NA
ATOM     55  C   UNL     1     -13.855  14.495   2.298  1.00  0.00     0.031 C 
ATOM     56  C   UNL     1     -13.297  13.263  -3.619  1.00  0.00     0.029 A 
ATOM     57  C   UNL     1     -13.007  13.590  -2.304  1.00  0.00     0.049 A 
ATOM     58  H   UNL     1     -11.158  14.121  -1.440  1.00  0.00     0.167 HD
ATOM     59  C   UNL     1     -13.551  13.990   0.081  1.00  0.00     0.074 A 
ATOM     60  C   UNL     1     -14.476  14.109   1.190  1.00  0.00     0.031 C 
ATOM     61  C   UNL     1     -13.910  13.671  -1.185  1.00  0.00     0.034 A 
BRANCH  48  62
ATOM     62  C   UNL     1      -9.270  13.696  -5.244  1.00  0.00     0.023 A 
ATOM     63  C   UNL     1      -8.699  12.464  -5.617  1.00  0.00     0.012 A 
ATOM     64  C   UNL     1      -9.517  14.674  -6.227  1.00  0.00     0.148 A 
ATOM     65  C   UNL     1      -8.370  12.210  -6.947  1.00  0.00     0.002 A 
ATOM     66  C   UNL     1      -9.211  14.404  -7.556  1.00  0.00     0.091 A 
ATOM     67  F   UNL     1     -10.047  15.844  -5.843  1.00  0.00    -0.205 F 
ATOM     68  C   UNL     1      -8.635  13.174  -7.916  1.00  0.00     0.022 A 
BRANCH  66  69
ATOM     69  S   UNL     1      -9.561  15.556  -8.889  1.00  0.00     0.127 S 
ATOM     70  O   UNL     1      -8.213  15.947  -9.299  1.00  0.00    -0.237 OA
ATOM     71  O   UNL     1     -10.269  14.710  -9.849  1.00  0.00    -0.237 OA
ATOM     72  O   UNL     1     -10.365  16.619  -8.303  1.00  0.00    -0.744 OA
ENDBRANCH  66  69
ENDBRANCH  48  62
BRANCH  49  73
ATOM     73  C   UNL     1     -11.786  15.111   4.305  1.00  0.00     0.023 A 
ATOM     74  C   UNL     1     -12.066  13.975   5.086  1.00  0.00     0.012 A 
ATOM     75  C   UNL     1     -11.747  16.380   4.915  1.00  0.00     0.148 A 
ATOM     76  C   UNL     1     -12.302  14.099   6.455  1.00  0.00     0.002 A 
ATOM     77  C   UNL     1     -11.938  16.491   6.286  1.00  0.00     0.091 A 
ATOM     78  F   UNL     1     -11.481  17.444   4.145  1.00  0.00    -0.205 F 
ATOM     79  C   UNL     1     -12.225  15.352   7.057  1.00  0.00     0.022 A 
BRANCH  77  80
ATOM     80  S   UNL     1     -11.739  18.041   7.170  1.00  0.00     0.127 S 
ATOM     81  O   UNL     1     -13.089  18.269   7.680  1.00  0.00    -0.237 OA
ATOM     82  O   UNL     1     -10.750  17.679   8.186  1.00  0.00    -0.237 OA
ATOM     83  O   UNL     1     -11.271  19.004   6.184  1.00  0.00    -0.744 OA
ENDBRANCH  77  80
ENDBRANCH  49  73
BRANCH  61  84
ATOM     84  C   UNL     1     -15.366  13.430  -1.464  1.00  0.00     0.023 A 
ATOM     85  C   UNL     1     -16.220  14.534  -1.648  1.00  0.00     0.012 A 
ATOM     86  C   UNL     1     -15.858  12.126  -1.665  1.00  0.00     0.148 A 
ATOM     87  C   UNL     1     -17.548  14.344  -2.024  1.00  0.00     0.002 A 
ATOM     88  C   UNL     1     -17.175  11.945  -2.070  1.00  0.00     0.091 A 
ATOM     89  F   UNL     1     -15.025  11.093  -1.473  1.00  0.00    -0.205 F 
ATOM     90  C   UNL     1     -18.022  13.053  -2.246  1.00  0.00     0.022 A 
BRANCH  88  91
ATOM     91  S   UNL     1     -17.858  10.328  -2.451  1.00  0.00     0.127 S 
ATOM     92  O   UNL     1     -18.827  10.152  -1.370  1.00  0.00    -0.237 OA
ATOM     93  O   UNL     1     -18.450  10.546  -3.772  1.00  0.00    -0.237 OA
ATOM     94  O   UNL     1     -16.735   9.401  -2.434  1.00  0.00    -0.744 OA
ENDBRANCH  88  91
ENDBRANCH  61  84
ENDBRANCH  35  36
ENDBRANCH  27  30
ENDBRANCH  25  26
ENDBRANCH  24  25
ENDBRANCH   1  24
TORSDOF 17
