REMARK SMILES O=C(CCNC(=O)CCc1nc2ccccc2[nH]1)NCCCCCCNC(=O)c1ccc(-c2c3nc(c(-c4cccc(S(=O)(=O)[O-])c4F)c4ccc([nH]4)c(-c4cccc(S(=O)(=O)[O-])c4F)c4nc(c(-c5cccc(S(=O)(=O)[O-])c5F)c5ccc2[nH]5)C=C4)C=C3)cc1
REMARK SMILES IDX 21 1 20 2 19 3 1 4 2 5 3 7 4 8 5 9 6 10 7 12 8 13 9 14 10 15
REMARK SMILES IDX 11 16 18 17 12 18 17 19 13 21 16 22 14 23 15 24 22 25 23 26
REMARK SMILES IDX 24 27 25 28 26 29 27 30 28 32 29 33 30 34 91 35 31 36 90 37
REMARK SMILES IDX 32 38 33 39 34 40 84 41 35 42 89 43 83 44 85 45 36 46 88 47
REMARK SMILES IDX 82 48 81 49 37 51 69 52 49 53 68 54 50 55 53 56 67 57 86 58
REMARK SMILES IDX 51 59 52 60 66 62 87 63 54 64 38 65 39 66 47 67 40 68 42 69
REMARK SMILES IDX 48 70 41 71 43 72 44 73 45 74 46 75 70 76 71 77 79 78 72 79
REMARK SMILES IDX 74 80 80 81 73 82 75 83 76 84 77 85 78 86 55 87 56 88 64 89
REMARK SMILES IDX 57 90 59 91 65 92 58 93 60 94 61 95 62 96 63 97
REMARK H PARENT 19 6 5 11 18 20 26 31 85 50 53 61
REMARK Flexibility Score: inf
ROOT
ATOM      1  C   UNL     1       2.721  -3.615   0.002  1.00  0.00     0.021 C 
ENDROOT
BRANCH   1   2
ATOM      2  C   UNL     1       2.099  -2.617   0.977  1.00  0.00     0.116 C 
BRANCH   2   3
ATOM      3  N   UNL     1       2.711  -1.315   0.858  1.00  0.00    -0.356 N 
ATOM      4  O   UNL     1       1.048  -0.133   1.923  1.00  0.00    -0.275 OA
ATOM      5  C   UNL     1       2.107  -0.169   1.311  1.00  0.00     0.221 C 
ATOM      6  H   UNL     1       3.598  -1.246   0.436  1.00  0.00     0.163 HD
BRANCH   5   7
ATOM      7  C   UNL     1       2.870   1.072   0.935  1.00  0.00     0.121 C 
BRANCH   7   8
ATOM      8  C   UNL     1       3.989   1.429   1.893  1.00  0.00     0.125 C 
BRANCH   8   9
ATOM      9  N   UNL     1       5.212   0.689   1.604  1.00  0.00    -0.356 N 
ATOM     10  C   UNL     1       6.304   1.027   0.864  1.00  0.00     0.220 C 
ATOM     11  H   UNL     1       5.255  -0.206   2.013  1.00  0.00     0.163 HD
ATOM     12  O   UNL     1       7.150   0.158   0.644  1.00  0.00    -0.275 OA
BRANCH  10  13
ATOM     13  C   UNL     1       6.518   2.447   0.376  1.00  0.00     0.108 C 
BRANCH  13  14
ATOM     14  C   UNL     1       6.351   2.602  -1.136  1.00  0.00     0.085 C 
BRANCH  14  15
ATOM     15  C   UNL     1       4.926   2.794  -1.534  1.00  0.00     0.107 A 
ATOM     16  N   UNL     1       4.167   1.927  -2.169  1.00  0.00    -0.233 NA
ATOM     17  N   UNL     1       4.205   3.920  -1.209  1.00  0.00    -0.342 N 
ATOM     18  C   UNL     1       2.884   2.408  -2.055  1.00  0.00     0.089 A 
ATOM     19  C   UNL     1       2.877   3.644  -1.420  1.00  0.00     0.065 A 
ATOM     20  H   UNL     1       4.575   4.772  -0.883  1.00  0.00     0.168 HD
ATOM     21  C   UNL     1       1.667   1.776  -2.349  1.00  0.00     0.030 A 
ATOM     22  C   UNL     1       1.706   4.313  -1.058  1.00  0.00     0.028 A 
ATOM     23  C   UNL     1       0.479   2.396  -1.941  1.00  0.00     0.002 A 
ATOM     24  C   UNL     1       0.502   3.643  -1.310  1.00  0.00     0.002 A 
ENDBRANCH  14  15
ENDBRANCH  13  14
ENDBRANCH  10  13
ENDBRANCH   8   9
ENDBRANCH   7   8
ENDBRANCH   5   7
ENDBRANCH   2   3
ENDBRANCH   1   2
BRANCH   1  25
ATOM     25  C   UNL     1       4.240  -3.796   0.142  1.00  0.00     0.002 C 
BRANCH  25  26
ATOM     26  C   UNL     1       4.736  -4.089   1.560  1.00  0.00     0.002 C 
BRANCH  26  27
ATOM     27  C   UNL     1       4.083  -5.295   2.233  1.00  0.00     0.021 C 
BRANCH  27  28
ATOM     28  C   UNL     1       4.210  -6.599   1.457  1.00  0.00     0.116 C 
BRANCH  28  29
ATOM     29  N   UNL     1       5.592  -7.032   1.331  1.00  0.00    -0.352 N 
ATOM     30  C   UNL     1       6.136  -8.262   1.614  1.00  0.00     0.251 C 
ATOM     31  H   UNL     1       6.222  -6.354   0.997  1.00  0.00     0.163 HD
ATOM     32  O   UNL     1       7.350  -8.413   1.626  1.00  0.00    -0.269 OA
BRANCH  30  33
ATOM     33  C   UNL     1       5.238  -9.397   1.925  1.00  0.00     0.039 A 
ATOM     34  C   UNL     1       5.534 -10.213   3.019  1.00  0.00     0.014 A 
ATOM     35  C   UNL     1       4.103  -9.646   1.148  1.00  0.00     0.014 A 
ATOM     36  C   UNL     1       4.663 -11.249   3.363  1.00  0.00     0.010 A 
ATOM     37  C   UNL     1       3.196 -10.626   1.541  1.00  0.00     0.010 A 
ATOM     38  C   UNL     1       3.472 -11.447   2.645  1.00  0.00    -0.014 A 
BRANCH  38  39
ATOM     39  C   UNL     1       2.511 -12.516   3.022  1.00  0.00     0.031 A 
ATOM     40  C   UNL     1       2.200 -13.626   2.052  1.00  0.00     0.074 A 
ATOM     41  C   UNL     1       1.867 -12.452   4.205  1.00  0.00     0.049 A 
ATOM     42  N   UNL     1       1.343 -14.607   2.169  1.00  0.00    -0.248 NA
ATOM     43  C   UNL     1       2.928 -13.620   0.772  1.00  0.00     0.031 C 
ATOM     44  C   UNL     1       2.026 -11.389   5.201  1.00  0.00     0.029 A 
ATOM     45  N   UNL     1       0.926 -13.284   4.759  1.00  0.00    -0.354 N 
ATOM     46  C   UNL     1       1.409 -15.315   0.975  1.00  0.00     0.074 A 
ATOM     47  C   UNL     1       2.358 -14.628   0.128  1.00  0.00     0.031 C 
ATOM     48  C   UNL     1       1.212 -11.634   6.241  1.00  0.00     0.029 A 
ATOM     49  C   UNL     1       0.449 -12.848   5.974  1.00  0.00     0.049 A 
ATOM     50  H   UNL     1       0.622 -14.116   4.328  1.00  0.00     0.167 HD
ATOM     51  C   UNL     1       0.765 -16.454   0.626  1.00  0.00     0.034 A 
ATOM     52  C   UNL     1      -0.507 -13.361   6.775  1.00  0.00     0.034 A 
ATOM     53  C   UNL     1      -0.150 -17.156   1.483  1.00  0.00     0.049 A 
ATOM     54  C   UNL     1      -1.190 -14.640   6.369  1.00  0.00     0.074 A 
ATOM     55  C   UNL     1      -0.806 -18.351   1.244  1.00  0.00     0.029 A 
ATOM     56  N   UNL     1      -0.540 -16.730   2.743  1.00  0.00    -0.354 N 
ATOM     57  N   UNL     1      -1.010 -15.368   5.294  1.00  0.00    -0.248 NA
ATOM     58  C   UNL     1      -2.181 -15.191   7.306  1.00  0.00     0.031 C 
ATOM     59  C   UNL     1      -1.612 -18.636   2.351  1.00  0.00     0.029 A 
ATOM     60  C   UNL     1      -1.428 -17.637   3.293  1.00  0.00     0.049 A 
ATOM     61  H   UNL     1      -0.232 -15.904   3.180  1.00  0.00     0.167 HD
ATOM     62  C   UNL     1      -1.828 -16.482   5.446  1.00  0.00     0.074 A 
ATOM     63  C   UNL     1      -2.489 -16.343   6.727  1.00  0.00     0.031 C 
ATOM     64  C   UNL     1      -2.027 -17.520   4.597  1.00  0.00     0.034 A 
BRANCH  51  65
ATOM     65  C   UNL     1       1.073 -17.053  -0.722  1.00  0.00     0.023 A 
ATOM     66  C   UNL     1       2.329 -17.656  -0.941  1.00  0.00     0.012 A 
ATOM     67  C   UNL     1       0.100 -17.095  -1.739  1.00  0.00     0.148 A 
ATOM     68  C   UNL     1       2.622 -18.267  -2.159  1.00  0.00     0.002 A 
ATOM     69  C   UNL     1       0.383 -17.747  -2.934  1.00  0.00     0.091 A 
ATOM     70  F   UNL     1      -1.082 -16.503  -1.518  1.00  0.00    -0.205 F 
ATOM     71  C   UNL     1       1.646 -18.323  -3.149  1.00  0.00     0.022 A 
BRANCH  69  72
ATOM     72  S   UNL     1      -0.830 -17.949  -4.244  1.00  0.00     0.127 S 
ATOM     73  O   UNL     1      -0.240 -17.151  -5.318  1.00  0.00    -0.237 OA
ATOM     74  O   UNL     1      -0.797 -19.394  -4.470  1.00  0.00    -0.237 OA
ATOM     75  O   UNL     1      -2.087 -17.441  -3.713  1.00  0.00    -0.744 OA
ENDBRANCH  69  72
ENDBRANCH  51  65
BRANCH  52  76
ATOM     76  C   UNL     1      -0.854 -12.691   8.062  1.00  0.00     0.023 A 
ATOM     77  C   UNL     1      -0.558 -13.330   9.282  1.00  0.00     0.012 A 
ATOM     78  C   UNL     1      -1.491 -11.436   8.083  1.00  0.00     0.148 A 
ATOM     79  C   UNL     1      -0.935 -12.756  10.497  1.00  0.00     0.002 A 
ATOM     80  C   UNL     1      -1.810 -10.841   9.299  1.00  0.00     0.091 A 
ATOM     81  F   UNL     1      -1.775 -10.847   6.913  1.00  0.00    -0.205 F 
ATOM     82  C   UNL     1      -1.554 -11.509  10.506  1.00  0.00     0.022 A 
BRANCH  80  83
ATOM     83  S   UNL     1      -2.489  -9.182   9.405  1.00  0.00     0.127 S 
ATOM     84  O   UNL     1      -3.875  -9.450   9.779  1.00  0.00    -0.237 OA
ATOM     85  O   UNL     1      -1.670  -8.586  10.461  1.00  0.00    -0.237 OA
ATOM     86  O   UNL     1      -2.288  -8.593   8.088  1.00  0.00    -0.744 OA
ENDBRANCH  80  83
ENDBRANCH  52  76
BRANCH  64  87
ATOM     87  C   UNL     1      -2.946 -18.626   5.044  1.00  0.00     0.023 A 
ATOM     88  C   UNL     1      -4.336 -18.408   5.113  1.00  0.00     0.012 A 
ATOM     89  C   UNL     1      -2.431 -19.908   5.326  1.00  0.00     0.148 A 
ATOM     90  C   UNL     1      -5.196 -19.438   5.492  1.00  0.00     0.002 A 
ATOM     91  C   UNL     1      -3.299 -20.943   5.649  1.00  0.00     0.091 A 
ATOM     92  F   UNL     1      -1.104 -20.090   5.270  1.00  0.00    -0.205 F 
ATOM     93  C   UNL     1      -4.680 -20.706   5.748  1.00  0.00     0.022 A 
BRANCH  91  94
ATOM     94  S   UNL     1      -2.736 -22.631   5.896  1.00  0.00     0.127 S 
ATOM     95  O   UNL     1      -2.920 -22.798   7.337  1.00  0.00    -0.237 OA
ATOM     96  O   UNL     1      -3.673 -23.392   5.069  1.00  0.00    -0.237 OA
ATOM     97  O   UNL     1      -1.355 -22.667   5.436  1.00  0.00    -0.744 OA
ENDBRANCH  91  94
ENDBRANCH  64  87
ENDBRANCH  38  39
ENDBRANCH  30  33
ENDBRANCH  28  29
ENDBRANCH  27  28
ENDBRANCH  26  27
ENDBRANCH  25  26
ENDBRANCH   1  25
TORSDOF 21
