REMARK SMILES NC(=O)COc1ccc(/C=C2\SC(=S)N(CCC(=O)NCCCCCCNC(=O)c3ccc(-c4c5nc(c(-c6cccc(S(=O)(=O)[O-])c6F)c6ccc([nH]6)c(-c6cccc(S(=O)(=O)[O-])c6F)c6nc(c(-c7cccc(S(=O)(=O)[O-])c7F)c7ccc4[nH]7)C=C6)C=C5)cc3)C2=O)cc1
REMARK SMILES IDX 22 1 21 2 20 3 18 4 19 5 17 7 16 8 15 9 10 10 11 11 12 12
REMARK SMILES IDX 93 13 13 14 94 15 14 16 9 17 6 18 7 19 96 20 8 21 95 22 5 23
REMARK SMILES IDX 4 24 2 25 1 26 3 29 23 30 24 31 25 32 26 33 27 34 28 35
REMARK SMILES IDX 29 37 30 38 31 39 92 40 32 41 91 42 33 43 34 44 35 45 85 46
REMARK SMILES IDX 36 47 90 48 84 49 86 50 37 51 89 52 83 53 82 54 38 56 70 57
REMARK SMILES IDX 50 58 69 59 51 60 54 61 68 62 87 63 52 64 53 65 67 67 88 68
REMARK SMILES IDX 55 69 39 70 40 71 48 72 41 73 43 74 49 75 42 76 44 77 45 78
REMARK SMILES IDX 46 79 47 80 71 81 72 82 80 83 73 84 75 85 81 86 74 87 76 88
REMARK SMILES IDX 77 89 78 90 79 91 56 92 57 93 65 94 58 95 60 96 66 97 59 98
REMARK SMILES IDX 61 99 62 100 63 101 64 102
REMARK H PARENT 20 6 1 27 1 28 27 36 86 55 54 66
REMARK Flexibility Score: inf
ROOT
ATOM      1  C   UNL     1       0.325  -8.828  -0.401  1.00  0.00     0.021 C 
ENDROOT
BRANCH   1   2
ATOM      2  C   UNL     1       0.665 -10.244  -0.871  1.00  0.00     0.116 C 
BRANCH   2   3
ATOM      3  N   UNL     1      -0.498 -11.131  -0.764  1.00  0.00    -0.356 N 
ATOM      4  C   UNL     1      -1.479 -11.448  -1.659  1.00  0.00     0.221 C 
ATOM      5  O   UNL     1      -2.431 -12.129  -1.271  1.00  0.00    -0.275 OA
ATOM      6  H   UNL     1      -0.587 -11.578   0.109  1.00  0.00     0.163 HD
BRANCH   4   7
ATOM      7  C   UNL     1      -1.391 -11.022  -3.106  1.00  0.00     0.122 C 
BRANCH   7   8
ATOM      8  C   UNL     1      -2.526 -10.073  -3.508  1.00  0.00     0.137 C 
BRANCH   8   9
ATOM      9  N   UNL     1      -2.247  -8.699  -3.115  1.00  0.00    -0.292 N 
ATOM     10  C   UNL     1      -1.879  -6.697  -0.248  1.00  0.00     0.029 C 
ATOM     11  C   UNL     1      -2.086  -6.952  -1.560  1.00  0.00     0.081 C 
ATOM     12  S   UNL     1      -1.260  -6.375  -2.959  1.00  0.00    -0.054 SA
ATOM     13  C   UNL     1      -2.839  -8.172  -1.967  1.00  0.00     0.266 C 
ATOM     14  C   UNL     1      -1.369  -7.885  -3.798  1.00  0.00     0.148 C 
ATOM     15  O   UNL     1      -3.758  -8.652  -1.324  1.00  0.00    -0.268 OA
ATOM     16  S   UNL     1      -0.480  -8.202  -5.172  1.00  0.00    -0.052 S 
BRANCH  10  17
ATOM     17  C   UNL     1      -0.764  -5.895   0.307  1.00  0.00    -0.024 A 
ATOM     18  C   UNL     1       1.563  -3.310   1.441  1.00  0.00     0.120 A 
ATOM     19  C   UNL     1       1.066  -4.632   2.594  1.00  0.00     0.047 A 
ATOM     20  C   UNL     1       1.045  -3.403  -0.237  1.00  0.00     0.047 A 
ATOM     21  C   UNL     1      -0.177  -5.904   2.057  1.00  0.00     0.012 A 
ATOM     22  C   UNL     1      -0.153  -4.583  -0.768  1.00  0.00     0.012 A 
BRANCH  18  23
ATOM     23  O   UNL     1       1.901  -1.802   1.789  1.00  0.00    -0.484 OA
BRANCH  23  24
ATOM     24  C   UNL     1       1.248  -0.039   2.529  1.00  0.00     0.329 C 
BRANCH  24  25
ATOM     25  C   UNL     1      -0.212   0.893   2.261  1.00  0.00     0.255 C 
ATOM     26  N   UNL     1      -0.478   1.474   1.048  1.00  0.00    -0.367 N 
ATOM     27  H   UNL     1      -1.305   1.993   0.922  1.00  0.00     0.159 HD
ATOM     28  H   UNL     1       0.158   1.373   0.304  1.00  0.00     0.159 HD
ATOM     29  O   UNL     1      -1.044   1.034   3.161  1.00  0.00    -0.271 OA
ENDBRANCH  24  25
ENDBRANCH  23  24
ENDBRANCH  18  23
ENDBRANCH  10  17
ENDBRANCH   8   9
ENDBRANCH   7   8
ENDBRANCH   4   7
ENDBRANCH   2   3
ENDBRANCH   1   2
BRANCH   1  30
ATOM     30  C   UNL     1       0.776  -8.407   1.006  1.00  0.00     0.002 C 
BRANCH  30  31
ATOM     31  C   UNL     1       1.655  -7.102   1.122  1.00  0.00     0.002 C 
BRANCH  31  32
ATOM     32  C   UNL     1       1.211  -5.390   0.687  1.00  0.00     0.021 C 
BRANCH  32  33
ATOM     33  C   UNL     1      -0.446  -4.088   1.280  1.00  0.00     0.116 C 
BRANCH  33  34
ATOM     34  N   UNL     1      -1.032  -3.676   2.784  1.00  0.00    -0.352 N 
ATOM     35  C   UNL     1      -0.559  -2.741   3.668  1.00  0.00     0.251 C 
ATOM     36  H   UNL     1      -1.829  -4.173   3.079  1.00  0.00     0.163 HD
ATOM     37  O   UNL     1      -0.827  -2.708   4.858  1.00  0.00    -0.269 OA
BRANCH  35  38
ATOM     38  C   UNL     1       0.424  -1.870   3.067  1.00  0.00     0.039 A 
ATOM     39  C   UNL     1       2.108  -1.691   3.720  1.00  0.00     0.014 A 
ATOM     40  C   UNL     1       0.047  -1.284   1.386  1.00  0.00     0.014 A 
ATOM     41  C   UNL     1       3.347  -0.853   2.713  1.00  0.00     0.010 A 
ATOM     42  C   UNL     1       1.339  -0.513   0.399  1.00  0.00     0.010 A 
ATOM     43  C   UNL     1       2.964  -0.261   1.057  1.00  0.00    -0.014 A 
BRANCH  43  44
ATOM     44  C   UNL     1       3.812   0.755   0.321  1.00  0.00     0.031 A 
ATOM     45  C   UNL     1       3.282   2.147  -0.035  1.00  0.00     0.074 A 
ATOM     46  C   UNL     1       5.036   0.438  -0.123  1.00  0.00     0.049 A 
ATOM     47  N   UNL     1       3.570   2.944  -1.038  1.00  0.00    -0.248 NA
ATOM     48  C   UNL     1       2.236   2.703   0.818  1.00  0.00     0.031 C 
ATOM     49  C   UNL     1       5.717  -0.830   0.102  1.00  0.00     0.029 A 
ATOM     50  N   UNL     1       5.909   1.170  -0.889  1.00  0.00    -0.354 N 
ATOM     51  C   UNL     1       2.615   3.971  -1.012  1.00  0.00     0.074 A 
ATOM     52  C   UNL     1       1.716   3.661   0.066  1.00  0.00     0.031 C 
ATOM     53  C   UNL     1       6.911  -0.792  -0.514  1.00  0.00     0.029 A 
ATOM     54  C   UNL     1       7.054   0.486  -1.212  1.00  0.00     0.049 A 
ATOM     55  H   UNL     1       5.731   2.094  -1.178  1.00  0.00     0.167 HD
ATOM     56  C   UNL     1       2.536   5.126  -1.724  1.00  0.00     0.034 A 
ATOM     57  C   UNL     1       8.088   0.850  -1.996  1.00  0.00     0.034 A 
ATOM     58  C   UNL     1       3.636   5.625  -2.503  1.00  0.00     0.049 A 
ATOM     59  C   UNL     1       8.081   2.208  -2.652  1.00  0.00     0.074 A 
ATOM     60  C   UNL     1       3.768   6.852  -3.128  1.00  0.00     0.029 A 
ATOM     61  N   UNL     1       4.839   4.958  -2.669  1.00  0.00    -0.354 N 
ATOM     62  N   UNL     1       7.143   3.125  -2.651  1.00  0.00    -0.248 NA
ATOM     63  C   UNL     1       9.295   2.594  -3.385  1.00  0.00     0.031 C 
ATOM     64  C   UNL     1       5.059   6.932  -3.660  1.00  0.00     0.029 A 
ATOM     65  C   UNL     1       5.731   5.759  -3.353  1.00  0.00     0.049 A 
ATOM     66  H   UNL     1       5.029   4.047  -2.347  1.00  0.00     0.167 HD
ATOM     67  C   UNL     1       7.668   4.209  -3.350  1.00  0.00     0.074 A 
ATOM     68  C   UNL     1       9.014   3.841  -3.738  1.00  0.00     0.031 C 
ATOM     69  C   UNL     1       7.089   5.396  -3.662  1.00  0.00     0.034 A 
BRANCH  56  70
ATOM     70  C   UNL     1       1.289   5.995  -1.619  1.00  0.00     0.023 A 
ATOM     71  C   UNL     1       0.932   6.628  -0.410  1.00  0.00     0.012 A 
ATOM     72  C   UNL     1       0.494   6.240  -2.763  1.00  0.00     0.148 A 
ATOM     73  C   UNL     1      -0.229   7.400  -0.313  1.00  0.00     0.002 A 
ATOM     74  C   UNL     1      -0.620   7.074  -2.678  1.00  0.00     0.091 A 
ATOM     75  F   UNL     1       0.835   5.649  -3.917  1.00  0.00    -0.205 F 
ATOM     76  C   UNL     1      -0.999   7.630  -1.448  1.00  0.00     0.022 A 
BRANCH  74  77
ATOM     77  S   UNL     1      -1.600   7.543  -4.111  1.00  0.00     0.127 S 
ATOM     78  O   UNL     1      -2.841   6.808  -3.874  1.00  0.00    -0.237 OA
ATOM     79  O   UNL     1      -1.710   8.993  -3.947  1.00  0.00    -0.237 OA
ATOM     80  O   UNL     1      -0.835   7.121  -5.275  1.00  0.00    -0.744 OA
ENDBRANCH  74  77
ENDBRANCH  56  70
BRANCH  57  81
ATOM     81  C   UNL     1       9.253  -0.066  -2.127  1.00  0.00     0.023 A 
ATOM     82  C   UNL     1      10.462   0.264  -1.486  1.00  0.00     0.012 A 
ATOM     83  C   UNL     1       9.149  -1.289  -2.815  1.00  0.00     0.148 A 
ATOM     84  C   UNL     1      11.557  -0.597  -1.547  1.00  0.00     0.002 A 
ATOM     85  C   UNL     1      10.223  -2.170  -2.821  1.00  0.00     0.091 A 
ATOM     86  F   UNL     1       7.990  -1.578  -3.424  1.00  0.00    -0.205 F 
ATOM     87  C   UNL     1      11.433  -1.819  -2.202  1.00  0.00     0.022 A 
BRANCH  85  88
ATOM     88  S   UNL     1      10.105  -3.825  -3.510  1.00  0.00     0.127 S 
ATOM     89  O   UNL     1      10.961  -3.719  -4.689  1.00  0.00    -0.237 OA
ATOM     90  O   UNL     1      10.648  -4.642  -2.424  1.00  0.00    -0.237 OA
ATOM     91  O   UNL     1       8.689  -4.041  -3.773  1.00  0.00    -0.744 OA
ENDBRANCH  85  88
ENDBRANCH  57  81
BRANCH  69  92
ATOM     92  C   UNL     1       7.918   6.407  -4.406  1.00  0.00     0.023 A 
ATOM     93  C   UNL     1       8.198   6.214  -5.772  1.00  0.00     0.012 A 
ATOM     94  C   UNL     1       8.346   7.589  -3.769  1.00  0.00     0.148 A 
ATOM     95  C   UNL     1       8.925   7.165  -6.485  1.00  0.00     0.002 A 
ATOM     96  C   UNL     1       9.027   8.555  -4.498  1.00  0.00     0.091 A 
ATOM     97  F   UNL     1       8.076   7.746  -2.465  1.00  0.00    -0.205 F 
ATOM     98  C   UNL     1       9.329   8.339  -5.853  1.00  0.00     0.022 A 
BRANCH  96  99
ATOM     99  S   UNL     1       9.498  10.139  -3.796  1.00  0.00     0.127 S 
ATOM    100  O   UNL     1      10.951  10.005  -3.707  1.00  0.00    -0.237 OA
ATOM    101  O   UNL     1       9.034  11.080  -4.816  1.00  0.00    -0.237 OA
ATOM    102  O   UNL     1       8.802  10.237  -2.520  1.00  0.00    -0.744 OA
ENDBRANCH  96  99
ENDBRANCH  69  92
ENDBRANCH  43  44
ENDBRANCH  35  38
ENDBRANCH  33  34
ENDBRANCH  32  33
ENDBRANCH  31  32
ENDBRANCH  30  31
ENDBRANCH   1  30
TORSDOF 22
