REMARK SMILES Cc1cccc(CNC(=O)N[C@@H](CC2=c3ccccc3=NC2)C(=O)NCCCCCCNC(=O)c2ccc(-c3c4nc(c(-c5cccc(S(=O)(=O)[O-])c5F)c5ccc([nH]5)c(-c5cccc(S(=O)(=O)[O-])c5F)c5nc(c(-c6cccc(S(=O)(=O)[O-])c6F)c6ccc3[nH]6)C=C5)C=C4)cc2)c1
REMARK SMILES IDX 28 1 27 2 26 3 25 4 23 5 24 6 12 8 11 9 8 10 9 11 10 13 7 15
REMARK SMILES IDX 6 16 1 17 2 18 3 19 98 20 4 21 5 22 13 23 14 24 15 25 22 26
REMARK SMILES IDX 16 27 20 28 21 29 17 30 19 31 18 32 29 33 30 34 31 35 32 36
REMARK SMILES IDX 33 37 34 39 35 40 36 41 97 42 37 43 96 44 38 45 39 46 40 47
REMARK SMILES IDX 90 48 41 49 95 50 89 51 91 52 42 53 94 54 88 55 87 56 43 58
REMARK SMILES IDX 75 59 55 60 74 61 56 62 59 63 73 64 92 65 57 66 58 67 72 69
REMARK SMILES IDX 93 70 60 71 44 72 45 73 53 74 46 75 48 76 54 77 47 78 49 79
REMARK SMILES IDX 50 80 51 81 52 82 76 83 77 84 85 85 78 86 80 87 86 88 79 89
REMARK SMILES IDX 81 90 82 91 83 92 84 93 61 94 62 95 70 96 63 97 65 98 71 99
REMARK SMILES IDX 64 100 66 101 67 102 68 103 69 104
REMARK H PARENT 25 7 8 12 11 14 32 38 91 57 59 68
REMARK Flexibility Score: inf
ROOT
ATOM      1  C   UNL     1      -8.881   0.376   2.196  1.00  0.00     0.002 C 
ENDROOT
BRANCH   1   2
ATOM      2  C   UNL     1      -8.347   1.434   1.216  1.00  0.00     0.021 C 
BRANCH   2   3
ATOM      3  C   UNL     1      -7.027   2.128   1.548  1.00  0.00     0.116 C 
BRANCH   3   4
ATOM      4  N   UNL     1      -5.889   1.235   1.626  1.00  0.00    -0.354 N 
ATOM      5  C   UNL     1      -4.556   1.499   1.702  1.00  0.00     0.242 C 
ATOM      6  O   UNL     1      -3.840   0.576   2.115  1.00  0.00    -0.273 OA
ATOM      7  H   UNL     1      -6.119   0.278   1.624  1.00  0.00     0.163 HD
BRANCH   5   8
ATOM      8  C   UNL     1      -3.910   2.873   1.392  1.00  0.00     0.177 C 
BRANCH   8   9
ATOM      9  N   UNL     1      -4.300   3.397   0.086  1.00  0.00    -0.326 N 
ATOM     10  N   UNL     1      -2.641   2.565  -1.385  1.00  0.00    -0.334 N 
ATOM     11  C   UNL     1      -3.845   3.097  -1.140  1.00  0.00     0.315 C 
ATOM     12  H   UNL     1      -2.614   2.034  -2.213  1.00  0.00     0.165 HD
ATOM     13  O   UNL     1      -4.586   3.313  -2.099  1.00  0.00    -0.249 OA
ATOM     14  H   UNL     1      -5.010   4.079   0.108  1.00  0.00     0.166 HD
BRANCH  10  15
ATOM     15  C   UNL     1      -1.366   2.604  -0.692  1.00  0.00     0.153 C 
BRANCH  15  16
ATOM     16  C   UNL     1      -0.758   1.239  -0.459  1.00  0.00    -0.028 A 
ATOM     17  C   UNL     1       2.734  -0.259   0.012  1.00  0.00     0.044 C 
ATOM     18  C   UNL     1       1.244  -0.130  -0.103  1.00  0.00    -0.051 A 
ATOM     19  C   UNL     1       0.441  -1.272  -0.023  1.00  0.00     0.003 A 
ATOM     20  C   UNL     1       0.638   1.117  -0.322  1.00  0.00     0.009 A 
ATOM     21  C   UNL     1      -0.944  -1.165  -0.134  1.00  0.00     0.001 A 
ATOM     22  C   UNL     1      -1.538   0.082  -0.342  1.00  0.00     0.005 A 
ENDBRANCH  15  16
ENDBRANCH  10  15
ENDBRANCH   8   9
BRANCH   8  23
ATOM     23  C   UNL     1      -3.905   3.966   2.487  1.00  0.00     0.068 C 
BRANCH  23  24
ATOM     24  C   UNL     1      -5.062   4.150   3.413  1.00  0.00    -0.037 C 
ATOM     25  C   UNL     1      -5.452   3.348   4.401  1.00  0.00     0.001 A 
ATOM     26  C   UNL     1      -5.920   5.382   3.372  1.00  0.00     0.174 C 
ATOM     27  C   UNL     1      -5.053   2.061   4.871  1.00  0.00     0.010 A 
ATOM     28  C   UNL     1      -6.607   4.057   4.971  1.00  0.00     0.065 A 
ATOM     29  N   UNL     1      -6.924   5.203   4.450  1.00  0.00    -0.280 NA
ATOM     30  C   UNL     1      -5.811   1.449   5.794  1.00  0.00     0.001 A 
ATOM     31  C   UNL     1      -7.331   3.361   6.055  1.00  0.00     0.028 A 
ATOM     32  C   UNL     1      -6.960   2.111   6.385  1.00  0.00     0.002 A 
ENDBRANCH  23  24
ENDBRANCH   8  23
ENDBRANCH   5   8
ENDBRANCH   3   4
ENDBRANCH   2   3
ENDBRANCH   1   2
BRANCH   1  33
ATOM     33  C   UNL     1      -9.134   0.719   3.674  1.00  0.00     0.002 C 
BRANCH  33  34
ATOM     34  C   UNL     1      -9.560   2.135   4.049  1.00  0.00     0.021 C 
BRANCH  34  35
ATOM     35  C   UNL     1     -10.934   2.537   3.568  1.00  0.00     0.116 C 
BRANCH  35  36
ATOM     36  N   UNL     1     -11.989   2.298   4.535  1.00  0.00    -0.352 N 
ATOM     37  C   UNL     1     -13.364   2.475   4.427  1.00  0.00     0.251 C 
ATOM     38  H   UNL     1     -11.682   1.955   5.406  1.00  0.00     0.163 HD
ATOM     39  O   UNL     1     -14.024   2.504   5.435  1.00  0.00    -0.269 OA
BRANCH  37  40
ATOM     40  C   UNL     1     -14.001   2.501   3.078  1.00  0.00     0.039 A 
ATOM     41  C   UNL     1     -15.230   1.840   2.929  1.00  0.00     0.014 A 
ATOM     42  C   UNL     1     -13.311   2.930   1.954  1.00  0.00     0.014 A 
ATOM     43  C   UNL     1     -15.584   1.315   1.689  1.00  0.00     0.010 A 
ATOM     44  C   UNL     1     -13.612   2.362   0.747  1.00  0.00     0.010 A 
ATOM     45  C   UNL     1     -14.678   1.464   0.653  1.00  0.00    -0.014 A 
BRANCH  45  46
ATOM     46  C   UNL     1     -14.655   0.726  -0.591  1.00  0.00     0.031 A 
ATOM     47  C   UNL     1     -15.282   1.316  -1.781  1.00  0.00     0.074 A 
ATOM     48  C   UNL     1     -13.652  -0.178  -0.699  1.00  0.00     0.049 A 
ATOM     49  N   UNL     1     -15.402   0.706  -2.905  1.00  0.00    -0.248 NA
ATOM     50  C   UNL     1     -15.758   2.695  -1.802  1.00  0.00     0.031 C 
ATOM     51  C   UNL     1     -12.973  -0.608  -1.914  1.00  0.00     0.029 A 
ATOM     52  N   UNL     1     -13.042  -0.949   0.298  1.00  0.00    -0.354 N 
ATOM     53  C   UNL     1     -15.651   1.673  -3.853  1.00  0.00     0.074 A 
ATOM     54  C   UNL     1     -15.947   2.877  -3.111  1.00  0.00     0.031 C 
ATOM     55  C   UNL     1     -12.277  -1.725  -1.646  1.00  0.00     0.029 A 
ATOM     56  C   UNL     1     -12.668  -2.156  -0.317  1.00  0.00     0.049 A 
ATOM     57  H   UNL     1     -12.905  -0.697   1.240  1.00  0.00     0.167 HD
ATOM     58  C   UNL     1     -15.400   1.400  -5.165  1.00  0.00     0.034 A 
ATOM     59  C   UNL     1     -13.293  -3.340  -0.030  1.00  0.00     0.034 A 
ATOM     60  C   UNL     1     -14.825   0.051  -5.323  1.00  0.00     0.049 A 
ATOM     61  C   UNL     1     -14.113  -3.873  -1.210  1.00  0.00     0.074 A 
ATOM     62  C   UNL     1     -13.549  -0.450  -5.538  1.00  0.00     0.029 A 
ATOM     63  N   UNL     1     -15.577  -1.036  -4.904  1.00  0.00    -0.354 N 
ATOM     64  N   UNL     1     -14.055  -3.429  -2.440  1.00  0.00    -0.248 NA
ATOM     65  C   UNL     1     -15.145  -4.896  -1.050  1.00  0.00     0.031 C 
ATOM     66  C   UNL     1     -13.551  -1.846  -5.214  1.00  0.00     0.029 A 
ATOM     67  C   UNL     1     -14.833  -2.204  -4.838  1.00  0.00     0.049 A 
ATOM     68  H   UNL     1     -16.534  -0.984  -4.678  1.00  0.00     0.167 HD
ATOM     69  C   UNL     1     -15.136  -3.900  -3.152  1.00  0.00     0.074 A 
ATOM     70  C   UNL     1     -15.754  -4.858  -2.246  1.00  0.00     0.031 C 
ATOM     71  C   UNL     1     -15.510  -3.418  -4.384  1.00  0.00     0.034 A 
BRANCH  58  72
ATOM     72  C   UNL     1     -15.401   2.470  -6.240  1.00  0.00     0.023 A 
ATOM     73  C   UNL     1     -14.571   2.286  -7.364  1.00  0.00     0.012 A 
ATOM     74  C   UNL     1     -16.142   3.676  -6.203  1.00  0.00     0.148 A 
ATOM     75  C   UNL     1     -14.391   3.283  -8.331  1.00  0.00     0.002 A 
ATOM     76  C   UNL     1     -15.891   4.708  -7.111  1.00  0.00     0.091 A 
ATOM     77  F   UNL     1     -17.158   3.804  -5.339  1.00  0.00    -0.205 F 
ATOM     78  C   UNL     1     -15.013   4.514  -8.179  1.00  0.00     0.022 A 
BRANCH  76  79
ATOM     79  S   UNL     1     -16.549   6.370  -6.872  1.00  0.00     0.127 S 
ATOM     80  O   UNL     1     -15.399   7.215  -7.204  1.00  0.00    -0.237 OA
ATOM     81  O   UNL     1     -17.640   6.426  -7.841  1.00  0.00    -0.237 OA
ATOM     82  O   UNL     1     -16.936   6.435  -5.466  1.00  0.00    -0.744 OA
ENDBRANCH  76  79
ENDBRANCH  58  72
BRANCH  59  83
ATOM     83  C   UNL     1     -13.668  -3.443   1.417  1.00  0.00     0.023 A 
ATOM     84  C   UNL     1     -12.598  -3.476   2.344  1.00  0.00     0.012 A 
ATOM     85  C   UNL     1     -14.943  -3.059   1.871  1.00  0.00     0.148 A 
ATOM     86  C   UNL     1     -12.752  -2.958   3.632  1.00  0.00     0.002 A 
ATOM     87  C   UNL     1     -15.089  -2.547   3.159  1.00  0.00     0.091 A 
ATOM     88  F   UNL     1     -15.972  -3.107   1.018  1.00  0.00    -0.205 F 
ATOM     89  C   UNL     1     -13.985  -2.446   4.020  1.00  0.00     0.022 A 
BRANCH  87  90
ATOM     90  S   UNL     1     -16.655  -1.867   3.718  1.00  0.00     0.127 S 
ATOM     91  O   UNL     1     -17.223  -3.000   4.442  1.00  0.00    -0.237 OA
ATOM     92  O   UNL     1     -16.232  -0.750   4.559  1.00  0.00    -0.237 OA
ATOM     93  O   UNL     1     -17.348  -1.471   2.500  1.00  0.00    -0.744 OA
ENDBRANCH  87  90
ENDBRANCH  59  83
BRANCH  71  94
ATOM     94  C   UNL     1     -16.642  -4.004  -5.234  1.00  0.00     0.023 A 
ATOM     95  C   UNL     1     -17.046  -5.345  -5.088  1.00  0.00     0.012 A 
ATOM     96  C   UNL     1     -17.273  -3.284  -6.288  1.00  0.00     0.148 A 
ATOM     97  C   UNL     1     -18.111  -5.889  -5.818  1.00  0.00     0.002 A 
ATOM     98  C   UNL     1     -18.312  -3.832  -7.035  1.00  0.00     0.091 A 
ATOM     99  F   UNL     1     -16.839  -2.069  -6.629  1.00  0.00    -0.205 F 
ATOM    100  C   UNL     1     -18.759  -5.125  -6.777  1.00  0.00     0.022 A 
BRANCH  98 101
ATOM    101  S   UNL     1     -19.099  -2.946  -8.391  1.00  0.00     0.127 S 
ATOM    102  O   UNL     1     -18.701  -3.760  -9.540  1.00  0.00    -0.237 OA
ATOM    103  O   UNL     1     -20.513  -3.046  -8.033  1.00  0.00    -0.237 OA
ATOM    104  O   UNL     1     -18.558  -1.595  -8.373  1.00  0.00    -0.744 OA
ENDBRANCH  98 101
ENDBRANCH  71  94
ENDBRANCH  45  46
ENDBRANCH  37  40
ENDBRANCH  35  36
ENDBRANCH  34  35
ENDBRANCH  33  34
ENDBRANCH   1  33
TORSDOF 21
