REMARK SMILES C/C(=C(/F)C(=O)NCCCCCCNC(=O)c1ccc(-c2c3nc(c(-c4cccc(S(=O)(=O)[O-])c4F)c4ccc([nH]4)c(-c4cccc(S(=O)(=O)[O-])c4F)c4nc(c(-c5cccc(S(=O)(=O)[O-])c5F)c5ccc2[nH]5)C=C4)C=C3)cc1)c1cccc(-n2cnnn2)c1
REMARK SMILES IDX 11 1 10 2 9 3 8 4 7 5 5 6 6 7 3 9 1 10 2 11 4 12 80 13 81 14
REMARK SMILES IDX 90 15 82 16 84 17 83 18 85 19 86 20 89 21 87 22 88 23 12 24
REMARK SMILES IDX 13 25 14 26 15 27 16 29 17 30 18 31 79 32 19 33 78 34 20 35
REMARK SMILES IDX 21 36 22 37 72 38 23 39 77 40 71 41 73 42 24 43 76 44 70 45
REMARK SMILES IDX 69 46 25 48 57 49 37 50 56 51 38 52 41 53 55 54 74 55 39 56
REMARK SMILES IDX 40 57 54 59 75 60 42 61 26 62 27 63 35 64 28 65 30 66 36 67
REMARK SMILES IDX 29 68 31 69 32 70 33 71 34 72 58 73 59 74 67 75 60 76 62 77
REMARK SMILES IDX 68 78 61 79 63 80 64 81 65 82 66 83 43 84 44 85 52 86 45 87
REMARK SMILES IDX 47 88 53 89 46 90 48 91 49 92 50 93 51 94
REMARK H PARENT 7 8 14 28 73 47 41 58
REMARK Flexibility Score: inf
ROOT
ATOM      1  C   UNL     1      -3.523  -2.319  -6.042  1.00  0.00     0.002 C 
ENDROOT
BRANCH   1   2
ATOM      2  C   UNL     1      -1.999  -2.174  -5.967  1.00  0.00     0.002 C 
BRANCH   2   3
ATOM      3  C   UNL     1      -1.495  -0.765  -5.621  1.00  0.00     0.021 C 
BRANCH   3   4
ATOM      4  C   UNL     1      -2.048  -0.213  -4.308  1.00  0.00     0.116 C 
BRANCH   4   5
ATOM      5  N   UNL     1      -1.564  -0.995  -3.181  1.00  0.00    -0.350 N 
ATOM      6  C   UNL     1      -0.685  -0.725  -2.177  1.00  0.00     0.280 C 
ATOM      7  O   UNL     1      -0.404  -1.655  -1.421  1.00  0.00    -0.267 OA
ATOM      8  H   UNL     1      -1.948  -1.901  -3.136  1.00  0.00     0.163 HD
BRANCH   6   9
ATOM      9  C   UNL     1      -0.120   0.649  -1.998  1.00  0.00     0.191 C 
ATOM     10  C   UNL     1       1.049   0.305   0.253  1.00  0.00     0.048 C 
ATOM     11  C   UNL     1       0.594   1.093  -0.945  1.00  0.00    -0.002 C 
ATOM     12  F   UNL     1      -0.364   1.514  -3.006  1.00  0.00    -0.201 F 
BRANCH  11  13
ATOM     13  C   UNL     1       0.965   2.529  -0.915  1.00  0.00    -0.017 A 
ATOM     14  C   UNL     1      -0.032   3.517  -0.944  1.00  0.00     0.008 A 
ATOM     15  C   UNL     1       2.306   2.921  -0.810  1.00  0.00     0.037 A 
ATOM     16  C   UNL     1       0.298   4.869  -0.846  1.00  0.00     0.003 A 
ATOM     17  C   UNL     1       2.638   4.281  -0.698  1.00  0.00     0.069 A 
ATOM     18  C   UNL     1       1.629   5.253  -0.701  1.00  0.00     0.028 A 
BRANCH  17  19
ATOM     19  N   UNL     1       3.987   4.677  -0.565  1.00  0.00    -0.201 N 
ATOM     20  C   UNL     1       5.129   3.959  -0.812  1.00  0.00     0.252 A 
ATOM     21  N   UNL     1       4.353   5.899  -0.116  1.00  0.00    -0.040 NA
ATOM     22  N   UNL     1       6.176   4.675  -0.471  1.00  0.00    -0.117 NA
ATOM     23  N   UNL     1       5.676   5.873  -0.032  1.00  0.00    -0.024 NA
ENDBRANCH  17  19
ENDBRANCH  11  13
ENDBRANCH   6   9
ENDBRANCH   4   5
ENDBRANCH   3   4
ENDBRANCH   2   3
ENDBRANCH   1   2
BRANCH   1  24
ATOM     24  C   UNL     1      -4.223  -1.344  -6.992  1.00  0.00     0.021 C 
BRANCH  24  25
ATOM     25  C   UNL     1      -3.748  -1.414  -8.441  1.00  0.00     0.116 C 
BRANCH  25  26
ATOM     26  N   UNL     1      -4.018  -2.712  -9.045  1.00  0.00    -0.352 N 
ATOM     27  C   UNL     1      -4.732  -3.010 -10.180  1.00  0.00     0.251 C 
ATOM     28  H   UNL     1      -3.634  -3.485  -8.573  1.00  0.00     0.163 HD
ATOM     29  O   UNL     1      -5.015  -4.176 -10.442  1.00  0.00    -0.269 OA
BRANCH  27  30
ATOM     30  C   UNL     1      -5.181  -1.919 -11.070  1.00  0.00     0.039 A 
ATOM     31  C   UNL     1      -6.514  -1.891 -11.487  1.00  0.00     0.014 A 
ATOM     32  C   UNL     1      -4.296  -0.913 -11.468  1.00  0.00     0.014 A 
ATOM     33  C   UNL     1      -6.982  -0.804 -12.229  1.00  0.00     0.010 A 
ATOM     34  C   UNL     1      -4.779   0.200 -12.153  1.00  0.00     0.010 A 
ATOM     35  C   UNL     1      -6.130   0.274 -12.524  1.00  0.00    -0.014 A 
BRANCH  35  36
ATOM     36  C   UNL     1      -6.649   1.520 -13.145  1.00  0.00     0.031 A 
ATOM     37  C   UNL     1      -6.157   1.970 -14.492  1.00  0.00     0.074 A 
ATOM     38  C   UNL     1      -7.486   2.305 -12.437  1.00  0.00     0.049 A 
ATOM     39  N   UNL     1      -6.434   3.070 -15.143  1.00  0.00    -0.248 NA
ATOM     40  C   UNL     1      -5.215   1.081 -15.190  1.00  0.00     0.031 C 
ATOM     41  C   UNL     1      -7.977   2.014 -11.087  1.00  0.00     0.029 A 
ATOM     42  N   UNL     1      -8.043   3.524 -12.735  1.00  0.00    -0.354 N 
ATOM     43  C   UNL     1      -5.683   3.022 -16.311  1.00  0.00     0.074 A 
ATOM     44  C   UNL     1      -4.917   1.794 -16.267  1.00  0.00     0.031 C 
ATOM     45  C   UNL     1      -8.755   3.026 -10.674  1.00  0.00     0.029 A 
ATOM     46  C   UNL     1      -8.788   4.055 -11.707  1.00  0.00     0.049 A 
ATOM     47  H   UNL     1      -7.921   3.975 -13.602  1.00  0.00     0.167 HD
ATOM     48  C   UNL     1      -5.651   3.908 -17.335  1.00  0.00     0.034 A 
ATOM     49  C   UNL     1      -9.410   5.245 -11.597  1.00  0.00     0.034 A 
ATOM     50  C   UNL     1      -6.435   5.114 -17.387  1.00  0.00     0.049 A 
ATOM     51  C   UNL     1      -9.360   6.207 -12.752  1.00  0.00     0.074 A 
ATOM     52  C   UNL     1      -6.541   6.025 -18.423  1.00  0.00     0.029 A 
ATOM     53  N   UNL     1      -7.230   5.588 -16.356  1.00  0.00    -0.354 N 
ATOM     54  N   UNL     1      -8.781   6.065 -13.919  1.00  0.00    -0.248 NA
ATOM     55  C   UNL     1     -10.072   7.483 -12.586  1.00  0.00     0.031 C 
ATOM     56  C   UNL     1      -7.374   7.068 -18.005  1.00  0.00     0.029 A 
ATOM     57  C   UNL     1      -7.810   6.792 -16.720  1.00  0.00     0.049 A 
ATOM     58  H   UNL     1      -7.364   5.136 -15.492  1.00  0.00     0.167 HD
ATOM     59  C   UNL     1      -9.076   7.220 -14.634  1.00  0.00     0.074 A 
ATOM     60  C   UNL     1      -9.913   8.037 -13.780  1.00  0.00     0.031 C 
ATOM     61  C   UNL     1      -8.673   7.581 -15.877  1.00  0.00     0.034 A 
BRANCH  48  62
ATOM     62  C   UNL     1      -4.772   3.586 -18.516  1.00  0.00     0.023 A 
ATOM     63  C   UNL     1      -5.147   2.552 -19.399  1.00  0.00     0.012 A 
ATOM     64  C   UNL     1      -3.623   4.351 -18.795  1.00  0.00     0.148 A 
ATOM     65  C   UNL     1      -4.377   2.266 -20.525  1.00  0.00     0.002 A 
ATOM     66  C   UNL     1      -2.884   4.087 -19.943  1.00  0.00     0.091 A 
ATOM     67  F   UNL     1      -3.272   5.316 -17.934  1.00  0.00    -0.205 F 
ATOM     68  C   UNL     1      -3.253   3.039 -20.803  1.00  0.00     0.022 A 
BRANCH  66  69
ATOM     69  S   UNL     1      -1.464   5.073 -20.433  1.00  0.00     0.127 S 
ATOM     70  O   UNL     1      -0.366   4.128 -20.232  1.00  0.00    -0.237 OA
ATOM     71  O   UNL     1      -1.765   5.370 -21.833  1.00  0.00    -0.237 OA
ATOM     72  O   UNL     1      -1.457   6.233 -19.552  1.00  0.00    -0.744 OA
ENDBRANCH  66  69
ENDBRANCH  48  62
BRANCH  49  73
ATOM     73  C   UNL     1     -10.165   5.580 -10.356  1.00  0.00     0.023 A 
ATOM     74  C   UNL     1     -11.569   5.668 -10.402  1.00  0.00     0.012 A 
ATOM     75  C   UNL     1      -9.503   5.789  -9.130  1.00  0.00     0.148 A 
ATOM     76  C   UNL     1     -12.300   5.990  -9.257  1.00  0.00     0.002 A 
ATOM     77  C   UNL     1     -10.241   6.051  -7.981  1.00  0.00     0.091 A 
ATOM     78  F   UNL     1      -8.165   5.715  -9.108  1.00  0.00    -0.205 F 
ATOM     79  C   UNL     1     -11.637   6.170  -8.046  1.00  0.00     0.022 A 
BRANCH  77  80
ATOM     80  S   UNL     1      -9.482   6.161  -6.356  1.00  0.00     0.127 S 
ATOM     81  O   UNL     1      -9.597   7.588  -6.068  1.00  0.00    -0.237 OA
ATOM     82  O   UNL     1     -10.351   5.298  -5.557  1.00  0.00    -0.237 OA
ATOM     83  O   UNL     1      -8.126   5.655  -6.521  1.00  0.00    -0.744 OA
ENDBRANCH  77  80
ENDBRANCH  49  73
BRANCH  61  84
ATOM     84  C   UNL     1      -9.137   8.915 -16.401  1.00  0.00     0.023 A 
ATOM     85  C   UNL     1      -8.590  10.100 -15.869  1.00  0.00     0.012 A 
ATOM     86  C   UNL     1     -10.059   8.996 -17.463  1.00  0.00     0.148 A 
ATOM     87  C   UNL     1      -8.977  11.345 -16.364  1.00  0.00     0.002 A 
ATOM     88  C   UNL     1     -10.403  10.238 -17.984  1.00  0.00     0.091 A 
ATOM     89  F   UNL     1     -10.580   7.858 -17.945  1.00  0.00    -0.205 F 
ATOM     90  C   UNL     1      -9.873  11.413 -17.427  1.00  0.00     0.022 A 
BRANCH  88  91
ATOM     91  S   UNL     1     -11.478  10.425 -19.411  1.00  0.00     0.127 S 
ATOM     92  O   UNL     1     -12.669  11.024 -18.811  1.00  0.00    -0.237 OA
ATOM     93  O   UNL     1     -10.704  11.327 -20.264  1.00  0.00    -0.237 OA
ATOM     94  O   UNL     1     -11.663   9.086 -19.955  1.00  0.00    -0.744 OA
ENDBRANCH  88  91
ENDBRANCH  61  84
ENDBRANCH  35  36
ENDBRANCH  27  30
ENDBRANCH  25  26
ENDBRANCH  24  25
ENDBRANCH   1  24
TORSDOF 18
