REMARK SMILES C=C(C)CN(CC)c1ccc(F)cc1C(=O)NCCCCCCNC(=O)c1ccc(-c2c3nc(c(-c4cccc(S(=O)(=O)[O-])c4F)c4ccc([nH]4)c(-c4cccc(S(=O)(=O)[O-])c4F)c4nc(c(-c5cccc(S(=O)(=O)[O-])c5F)c5ccc2[nH]5)C=C4)C=C3)cc1
REMARK SMILES IDX 20 1 19 2 18 3 17 4 15 5 16 6 14 8 8 9 9 10 10 11 13 12
REMARK SMILES IDX 11 13 12 14 5 15 4 16 2 17 1 18 3 19 6 20 7 21 21 22 22 23
REMARK SMILES IDX 23 24 24 25 25 26 26 28 27 29 28 30 89 31 29 32 88 33 30 34
REMARK SMILES IDX 31 35 32 36 82 37 33 38 87 39 81 40 83 41 34 42 86 43 80 44
REMARK SMILES IDX 79 45 35 47 67 48 47 49 66 50 48 51 51 52 65 53 84 54 49 55
REMARK SMILES IDX 50 56 64 58 85 59 52 60 36 61 37 62 45 63 38 64 40 65 46 66
REMARK SMILES IDX 39 67 41 68 42 69 43 70 44 71 68 72 69 73 77 74 70 75 72 76
REMARK SMILES IDX 78 77 71 78 73 79 74 80 75 81 76 82 53 83 54 84 62 85 55 86
REMARK SMILES IDX 57 87 63 88 56 89 58 90 59 91 60 92 61 93
REMARK H PARENT 17 7 24 27 83 46 51 57
REMARK Flexibility Score: inf
ROOT
ATOM      1  C   UNL     1       3.710  -6.215  -0.044  1.00  0.00     0.002 C 
ENDROOT
BRANCH   1   2
ATOM      2  C   UNL     1       2.259  -5.870  -0.396  1.00  0.00     0.021 C 
BRANCH   2   3
ATOM      3  C   UNL     1       2.063  -4.757  -1.413  1.00  0.00     0.116 C 
BRANCH   3   4
ATOM      4  N   UNL     1       2.570  -4.980  -2.735  1.00  0.00    -0.352 N 
ATOM      5  C   UNL     1       2.427  -4.177  -3.845  1.00  0.00     0.253 C 
ATOM      6  O   UNL     1       3.029  -4.532  -4.864  1.00  0.00    -0.269 OA
ATOM      7  H   UNL     1       3.083  -5.810  -2.866  1.00  0.00     0.163 HD
BRANCH   5   8
ATOM      8  C   UNL     1       1.535  -2.966  -3.933  1.00  0.00     0.066 A 
ATOM      9  C   UNL     1       1.366  -1.904  -3.003  1.00  0.00     0.050 A 
ATOM     10  C   UNL     1       0.524  -0.829  -3.383  1.00  0.00     0.030 A 
ATOM     11  C   UNL     1      -0.144  -0.789  -4.605  1.00  0.00     0.041 A 
ATOM     12  C   UNL     1       0.871  -2.889  -5.182  1.00  0.00     0.055 A 
ATOM     13  C   UNL     1       0.044  -1.821  -5.500  1.00  0.00     0.124 A 
ATOM     14  F   UNL     1      -0.565  -1.780  -6.692  1.00  0.00    -0.207 F 
BRANCH   9  15
ATOM     15  N   UNL     1       2.008  -1.797  -1.771  1.00  0.00    -0.367 N 
BRANCH  15  16
ATOM     16  C   UNL     1       1.209  -1.863  -0.529  1.00  0.00     0.146 C 
BRANCH  16  17
ATOM     17  C   UNL     1       0.413  -0.636  -0.179  1.00  0.00    -0.061 C 
ATOM     18  C   UNL     1       0.970   0.536   0.170  1.00  0.00     0.009 C 
ATOM     19  C   UNL     1      -1.077  -0.845  -0.116  1.00  0.00     0.041 C 
ENDBRANCH  16  17
ENDBRANCH  15  16
BRANCH  15  20
ATOM     20  C   UNL     1       3.346  -1.190  -1.708  1.00  0.00     0.113 C 
ATOM     21  C   UNL     1       4.398  -1.921  -2.534  1.00  0.00     0.027 C 
ENDBRANCH  15  20
ENDBRANCH   9  15
ENDBRANCH   5   8
ENDBRANCH   3   4
ENDBRANCH   2   3
ENDBRANCH   1   2
BRANCH   1  22
ATOM     22  C   UNL     1       4.666  -5.069   0.310  1.00  0.00     0.002 C 
BRANCH  22  23
ATOM     23  C   UNL     1       4.272  -4.113   1.440  1.00  0.00     0.021 C 
BRANCH  23  24
ATOM     24  C   UNL     1       3.819  -4.734   2.756  1.00  0.00     0.116 C 
BRANCH  24  25
ATOM     25  N   UNL     1       4.757  -5.702   3.290  1.00  0.00    -0.352 N 
ATOM     26  C   UNL     1       5.166  -5.935   4.578  1.00  0.00     0.251 C 
ATOM     27  H   UNL     1       5.168  -6.290   2.616  1.00  0.00     0.163 HD
ATOM     28  O   UNL     1       6.041  -6.780   4.773  1.00  0.00    -0.269 OA
BRANCH  26  29
ATOM     29  C   UNL     1       4.609  -5.183   5.730  1.00  0.00     0.039 A 
ATOM     30  C   UNL     1       5.474  -4.865   6.783  1.00  0.00     0.014 A 
ATOM     31  C   UNL     1       3.260  -4.827   5.822  1.00  0.00     0.014 A 
ATOM     32  C   UNL     1       5.001  -4.165   7.896  1.00  0.00     0.010 A 
ATOM     33  C   UNL     1       2.806  -4.060   6.900  1.00  0.00     0.010 A 
ATOM     34  C   UNL     1       3.667  -3.729   7.955  1.00  0.00    -0.014 A 
BRANCH  34  35
ATOM     35  C   UNL     1       3.189  -2.923   9.111  1.00  0.00     0.031 A 
ATOM     36  C   UNL     1       2.120  -3.446  10.033  1.00  0.00     0.074 A 
ATOM     37  C   UNL     1       3.711  -1.696   9.321  1.00  0.00     0.049 A 
ATOM     38  N   UNL     1       1.632  -2.900  11.117  1.00  0.00    -0.248 NA
ATOM     39  C   UNL     1       1.503  -4.739   9.690  1.00  0.00     0.031 C 
ATOM     40  C   UNL     1       4.698  -1.044   8.457  1.00  0.00     0.029 A 
ATOM     41  N   UNL     1       3.490  -0.779  10.320  1.00  0.00    -0.354 N 
ATOM     42  C   UNL     1       0.646  -3.767  11.574  1.00  0.00     0.074 A 
ATOM     43  C   UNL     1       0.572  -4.856  10.628  1.00  0.00     0.031 C 
ATOM     44  C   UNL     1       5.022   0.148   8.980  1.00  0.00     0.029 A 
ATOM     45  C   UNL     1       4.248   0.364  10.199  1.00  0.00     0.049 A 
ATOM     46  H   UNL     1       2.850  -0.926  11.053  1.00  0.00     0.167 HD
ATOM     47  C   UNL     1      -0.102  -3.682  12.700  1.00  0.00     0.034 A 
ATOM     48  C   UNL     1       4.322   1.459  10.982  1.00  0.00     0.034 A 
ATOM     49  C   UNL     1       0.008  -2.619  13.661  1.00  0.00     0.049 A 
ATOM     50  C   UNL     1       3.501   1.516  12.242  1.00  0.00     0.074 A 
ATOM     51  C   UNL     1      -0.650  -2.490  14.871  1.00  0.00     0.029 A 
ATOM     52  N   UNL     1       0.821  -1.505  13.524  1.00  0.00    -0.354 N 
ATOM     53  N   UNL     1       2.685   0.613  12.731  1.00  0.00    -0.248 NA
ATOM     54  C   UNL     1       3.630   2.720  13.076  1.00  0.00     0.031 C 
ATOM     55  C   UNL     1      -0.259  -1.282  15.452  1.00  0.00     0.029 A 
ATOM     56  C   UNL     1       0.671  -0.677  14.621  1.00  0.00     0.049 A 
ATOM     57  H   UNL     1       1.416  -1.330  12.760  1.00  0.00     0.167 HD
ATOM     58  C   UNL     1       2.232   1.123  13.942  1.00  0.00     0.074 A 
ATOM     59  C   UNL     1       2.871   2.409  14.121  1.00  0.00     0.031 C 
ATOM     60  C   UNL     1       1.357   0.575  14.819  1.00  0.00     0.034 A 
BRANCH  47  61
ATOM     61  C   UNL     1      -1.063  -4.802  13.006  1.00  0.00     0.023 A 
ATOM     62  C   UNL     1      -0.557  -6.051  13.421  1.00  0.00     0.012 A 
ATOM     63  C   UNL     1      -2.456  -4.588  13.003  1.00  0.00     0.148 A 
ATOM     64  C   UNL     1      -1.421  -7.074  13.809  1.00  0.00     0.002 A 
ATOM     65  C   UNL     1      -3.309  -5.597  13.434  1.00  0.00     0.091 A 
ATOM     66  F   UNL     1      -2.918  -3.398  12.592  1.00  0.00    -0.205 F 
ATOM     67  C   UNL     1      -2.793  -6.843  13.828  1.00  0.00     0.022 A 
BRANCH  65  68
ATOM     68  S   UNL     1      -5.085  -5.376  13.582  1.00  0.00     0.127 S 
ATOM     69  O   UNL     1      -5.582  -6.280  12.546  1.00  0.00    -0.237 OA
ATOM     70  O   UNL     1      -5.338  -5.819  14.952  1.00  0.00    -0.237 OA
ATOM     71  O   UNL     1      -5.337  -3.960  13.340  1.00  0.00    -0.744 OA
ENDBRANCH  65  68
ENDBRANCH  47  61
BRANCH  48  72
ATOM     72  C   UNL     1       5.278   2.549  10.634  1.00  0.00     0.023 A 
ATOM     73  C   UNL     1       6.424   2.746  11.429  1.00  0.00     0.012 A 
ATOM     74  C   UNL     1       5.096   3.344   9.485  1.00  0.00     0.148 A 
ATOM     75  C   UNL     1       7.362   3.725  11.097  1.00  0.00     0.002 A 
ATOM     76  C   UNL     1       6.063   4.277   9.127  1.00  0.00     0.091 A 
ATOM     77  F   UNL     1       3.993   3.150   8.748  1.00  0.00    -0.205 F 
ATOM     78  C   UNL     1       7.189   4.480   9.940  1.00  0.00     0.022 A 
BRANCH  76  79
ATOM     79  S   UNL     1       5.995   5.189   7.580  1.00  0.00     0.127 S 
ATOM     80  O   UNL     1       5.759   6.554   8.048  1.00  0.00    -0.237 OA
ATOM     81  O   UNL     1       7.331   4.948   7.031  1.00  0.00    -0.237 OA
ATOM     82  O   UNL     1       4.914   4.589   6.814  1.00  0.00    -0.744 OA
ENDBRANCH  76  79
ENDBRANCH  48  72
BRANCH  60  83
ATOM     83  C   UNL     1       1.036   1.326  16.083  1.00  0.00     0.023 A 
ATOM     84  C   UNL     1       0.171   2.436  16.033  1.00  0.00     0.012 A 
ATOM     85  C   UNL     1       1.450   0.823  17.333  1.00  0.00     0.148 A 
ATOM     86  C   UNL     1      -0.276   3.035  17.210  1.00  0.00     0.002 A 
ATOM     87  C   UNL     1       0.961   1.393  18.501  1.00  0.00     0.091 A 
ATOM     88  F   UNL     1       2.282  -0.229  17.352  1.00  0.00    -0.205 F 
ATOM     89  C   UNL     1       0.103   2.504  18.441  1.00  0.00     0.022 A 
BRANCH  87  90
ATOM     90  S   UNL     1       1.301   0.713  20.129  1.00  0.00     0.127 S 
ATOM     91  O   UNL     1       2.054   1.799  20.754  1.00  0.00    -0.237 OA
ATOM     92  O   UNL     1      -0.045   0.515  20.665  1.00  0.00    -0.237 OA
ATOM     93  O   UNL     1       2.057  -0.513  19.907  1.00  0.00    -0.744 OA
ENDBRANCH  87  90
ENDBRANCH  60  83
ENDBRANCH  34  35
ENDBRANCH  26  29
ENDBRANCH  24  25
ENDBRANCH  23  24
ENDBRANCH  22  23
ENDBRANCH   1  22
TORSDOF 20
