REMARK SMILES O=C(CNC(=O)CNC(=O)OCc1ccccc1)NCCCCCCNC(=O)c1ccc(-c2c3nc(c(-c4cccc(S(=O)(=O)[O-])c4F)c4ccc([nH]4)c(-c4cccc(S(=O)(=O)[O-])c4F)c4nc(c(-c5cccc(S(=O)(=O)[O-])c5F)c5ccc2[nH]5)C=C4)C=C3)cc1
REMARK SMILES IDX 21 1 20 2 19 3 1 4 2 5 3 7 4 8 5 9 6 11 7 12 8 13 9 14 10 16
REMARK SMILES IDX 11 17 12 18 13 19 14 20 18 21 15 22 17 23 16 24 22 25 23 26
REMARK SMILES IDX 24 27 25 28 26 29 27 30 28 32 29 33 30 34 91 35 31 36 90 37
REMARK SMILES IDX 32 38 33 39 34 40 84 41 35 42 89 43 83 44 85 45 36 46 88 47
REMARK SMILES IDX 82 48 81 49 37 51 69 52 49 53 68 54 50 55 53 56 67 57 86 58
REMARK SMILES IDX 51 59 52 60 66 62 87 63 54 64 38 65 39 66 47 67 40 68 42 69
REMARK SMILES IDX 48 70 41 71 43 72 44 73 45 74 46 75 70 76 71 77 79 78 72 79
REMARK SMILES IDX 74 80 80 81 73 82 75 83 76 84 77 85 78 86 55 87 56 88 64 89
REMARK SMILES IDX 57 90 59 91 65 92 58 93 60 94 61 95 62 96 63 97
REMARK H PARENT 19 6 4 10 8 15 26 31 85 50 53 61
REMARK Flexibility Score: inf
ROOT
ATOM      1  C   UNL     1       2.628   2.829   1.613  1.00  0.00     0.021 C 
ENDROOT
BRANCH   1   2
ATOM      2  C   UNL     1       2.067   2.329   0.281  1.00  0.00     0.116 C 
BRANCH   2   3
ATOM      3  N   UNL     1       2.662   1.077  -0.153  1.00  0.00    -0.355 N 
ATOM      4  O   UNL     1       0.948  -0.278   0.558  1.00  0.00    -0.273 OA
ATOM      5  C   UNL     1       2.026  -0.136  -0.014  1.00  0.00     0.239 C 
ATOM      6  H   UNL     1       3.556   1.097  -0.564  1.00  0.00     0.163 HD
BRANCH   5   7
ATOM      7  C   UNL     1       2.802  -1.351  -0.540  1.00  0.00     0.216 C 
BRANCH   7   8
ATOM      8  N   UNL     1       3.883  -1.040  -1.468  1.00  0.00    -0.346 N 
ATOM      9  C   UNL     1       5.226  -1.230  -1.322  1.00  0.00     0.239 C 
ATOM     10  H   UNL     1       3.604  -0.635  -2.320  1.00  0.00     0.164 HD
ATOM     11  O   UNL     1       5.962  -0.961  -2.272  1.00  0.00    -0.273 OA
BRANCH   9  12
ATOM     12  C   UNL     1       5.794  -1.730   0.007  1.00  0.00     0.219 C 
BRANCH  12  13
ATOM     13  N   UNL     1       5.643  -0.679   0.991  1.00  0.00    -0.312 N 
ATOM     14  C   UNL     1       4.976  -0.757   2.171  1.00  0.00     0.407 C 
ATOM     15  H   UNL     1       6.069   0.183   0.783  1.00  0.00     0.167 HD
ATOM     16  O   UNL     1       4.694   0.264   2.788  1.00  0.00    -0.225 OA
BRANCH  14  17
ATOM     17  O   UNL     1       4.648  -2.018   2.532  1.00  0.00    -0.445 OA
BRANCH  17  18
ATOM     18  C   UNL     1       3.784  -2.125   3.675  1.00  0.00     0.270 C 
BRANCH  18  19
ATOM     19  C   UNL     1       4.502  -1.925   4.989  1.00  0.00    -0.011 A 
ATOM     20  C   UNL     1       5.201  -2.972   5.603  1.00  0.00     0.007 A 
ATOM     21  C   UNL     1       4.486  -0.668   5.613  1.00  0.00     0.007 A 
ATOM     22  C   UNL     1       5.863  -2.762   6.816  1.00  0.00     0.000 A 
ATOM     23  C   UNL     1       5.162  -0.455   6.813  1.00  0.00     0.000 A 
ATOM     24  C   UNL     1       5.848  -1.504   7.417  1.00  0.00     0.000 A 
ENDBRANCH  18  19
ENDBRANCH  17  18
ENDBRANCH  14  17
ENDBRANCH  12  13
ENDBRANCH   9  12
ENDBRANCH   7   8
ENDBRANCH   5   7
ENDBRANCH   2   3
ENDBRANCH   1   2
BRANCH   1  25
ATOM     25  C   UNL     1       4.119   3.190   1.594  1.00  0.00     0.002 C 
BRANCH  25  26
ATOM     26  C   UNL     1       4.543   4.267   0.594  1.00  0.00     0.002 C 
BRANCH  26  27
ATOM     27  C   UNL     1       3.837   5.616   0.728  1.00  0.00     0.021 C 
BRANCH  27  28
ATOM     28  C   UNL     1       3.978   6.300   2.085  1.00  0.00     0.116 C 
BRANCH  28  29
ATOM     29  N   UNL     1       5.359   6.629   2.411  1.00  0.00    -0.352 N 
ATOM     30  C   UNL     1       5.908   7.827   2.801  1.00  0.00     0.251 C 
ATOM     31  H   UNL     1       5.994   5.880   2.342  1.00  0.00     0.163 HD
ATOM     32  O   UNL     1       7.128   7.938   2.891  1.00  0.00    -0.269 OA
BRANCH  30  33
ATOM     33  C   UNL     1       5.040   8.992   3.091  1.00  0.00     0.039 A 
ATOM     34  C   UNL     1       5.402  10.246   2.590  1.00  0.00     0.014 A 
ATOM     35  C   UNL     1       3.880   8.857   3.859  1.00  0.00     0.014 A 
ATOM     36  C   UNL     1       4.566  11.348   2.799  1.00  0.00     0.010 A 
ATOM     37  C   UNL     1       3.015   9.940   4.008  1.00  0.00     0.010 A 
ATOM     38  C   UNL     1       3.347  11.196   3.479  1.00  0.00    -0.014 A 
BRANCH  38  39
ATOM     39  C   UNL     1       2.395  12.330   3.622  1.00  0.00     0.031 A 
ATOM     40  C   UNL     1       2.040  12.863   4.984  1.00  0.00     0.074 A 
ATOM     41  C   UNL     1       1.774  12.817   2.529  1.00  0.00     0.049 A 
ATOM     42  N   UNL     1       1.187  13.801   5.305  1.00  0.00    -0.248 NA
ATOM     43  C   UNL     1       2.712  12.245   6.139  1.00  0.00     0.031 C 
ATOM     44  C   UNL     1       1.966  12.331   1.161  1.00  0.00     0.029 A 
ATOM     45  N   UNL     1       0.832  13.808   2.399  1.00  0.00    -0.354 N 
ATOM     46  C   UNL     1       1.190  13.861   6.694  1.00  0.00     0.074 A 
ATOM     47  C   UNL     1       2.110  12.845   7.156  1.00  0.00     0.031 C 
ATOM     48  C   UNL     1       1.168  13.023   0.332  1.00  0.00     0.029 A 
ATOM     49  C   UNL     1       0.390  13.983   1.108  1.00  0.00     0.049 A 
ATOM     50  H   UNL     1       0.504  14.342   3.158  1.00  0.00     0.167 HD
ATOM     51  C   UNL     1       0.513  14.705   7.510  1.00  0.00     0.034 A 
ATOM     52  C   UNL     1      -0.541  14.818   0.605  1.00  0.00     0.034 A 
ATOM     53  C   UNL     1      -0.363  15.748   7.047  1.00  0.00     0.049 A 
ATOM     54  C   UNL     1      -1.240  15.779   1.528  1.00  0.00     0.074 A 
ATOM     55  C   UNL     1      -1.018  16.714   7.791  1.00  0.00     0.029 A 
ATOM     56  N   UNL     1      -0.711  15.959   5.723  1.00  0.00    -0.354 N 
ATOM     57  N   UNL     1      -1.095  15.934   2.821  1.00  0.00    -0.248 NA
ATOM     58  C   UNL     1      -2.205  16.706   0.917  1.00  0.00     0.031 C 
ATOM     59  C   UNL     1      -1.775  17.500   6.917  1.00  0.00     0.029 A 
ATOM     60  C   UNL     1      -1.577  17.035   5.627  1.00  0.00     0.049 A 
ATOM     61  H   UNL     1      -0.390  15.424   4.962  1.00  0.00     0.167 HD
ATOM     62  C   UNL     1      -1.920  16.996   3.174  1.00  0.00     0.074 A 
ATOM     63  C   UNL     1      -2.546  17.461   1.953  1.00  0.00     0.031 C 
ATOM     64  C   UNL     1      -2.151  17.526   4.400  1.00  0.00     0.034 A 
BRANCH  51  65
ATOM     65  C   UNL     1       0.743  14.577   8.994  1.00  0.00     0.023 A 
ATOM     66  C   UNL     1       1.971  15.000   9.542  1.00  0.00     0.012 A 
ATOM     67  C   UNL     1      -0.270  14.103   9.851  1.00  0.00     0.148 A 
ATOM     68  C   UNL     1       2.202  14.922  10.915  1.00  0.00     0.002 A 
ATOM     69  C   UNL     1      -0.048  14.069  11.223  1.00  0.00     0.091 A 
ATOM     70  F   UNL     1      -1.423  13.686   9.311  1.00  0.00    -0.205 F 
ATOM     71  C   UNL     1       1.190  14.467  11.755  1.00  0.00     0.022 A 
BRANCH  69  72
ATOM     72  S   UNL     1      -1.314  13.572  12.397  1.00  0.00     0.127 S 
ATOM     73  O   UNL     1      -0.827  12.259  12.819  1.00  0.00    -0.237 OA
ATOM     74  O   UNL     1      -1.216  14.615  13.418  1.00  0.00    -0.237 OA
ATOM     75  O   UNL     1      -2.567  13.567  11.655  1.00  0.00    -0.744 OA
ENDBRANCH  69  72
ENDBRANCH  51  65
BRANCH  52  76
ATOM     76  C   UNL     1      -0.809  14.834  -0.861  1.00  0.00     0.023 A 
ATOM     77  C   UNL     1      -0.386  15.938  -1.626  1.00  0.00     0.012 A 
ATOM     78  C   UNL     1      -1.446  13.755  -1.506  1.00  0.00     0.148 A 
ATOM     79  C   UNL     1      -0.619  15.983  -3.001  1.00  0.00     0.002 A 
ATOM     80  C   UNL     1      -1.625  13.782  -2.884  1.00  0.00     0.091 A 
ATOM     81  F   UNL     1      -1.853  12.720  -0.759  1.00  0.00    -0.205 F 
ATOM     82  C   UNL     1      -1.228  14.901  -3.632  1.00  0.00     0.022 A 
BRANCH  80  83
ATOM     83  S   UNL     1      -2.280  12.378  -3.795  1.00  0.00     0.127 S 
ATOM     84  O   UNL     1      -3.616  12.848  -4.151  1.00  0.00    -0.237 OA
ATOM     85  O   UNL     1      -1.343  12.279  -4.915  1.00  0.00    -0.237 OA
ATOM     86  O   UNL     1      -2.226  11.253  -2.871  1.00  0.00    -0.744 OA
ENDBRANCH  80  83
ENDBRANCH  52  76
BRANCH  64  87
ATOM     87  C   UNL     1      -3.099  18.693   4.490  1.00  0.00     0.023 A 
ATOM     88  C   UNL     1      -4.483  18.482   4.338  1.00  0.00     0.012 A 
ATOM     89  C   UNL     1      -2.627  19.984   4.802  1.00  0.00     0.148 A 
ATOM     90  C   UNL     1      -5.381  19.541   4.465  1.00  0.00     0.002 A 
ATOM     91  C   UNL     1      -3.530  21.026   4.973  1.00  0.00     0.091 A 
ATOM     92  F   UNL     1      -1.304  20.169   4.924  1.00  0.00    -0.205 F 
ATOM     93  C   UNL     1      -4.906  20.809   4.794  1.00  0.00     0.022 A 
BRANCH  91  94
ATOM     94  S   UNL     1      -3.017  22.668   5.489  1.00  0.00     0.127 S 
ATOM     95  O   UNL     1      -3.146  23.426   4.246  1.00  0.00    -0.237 OA
ATOM     96  O   UNL     1      -4.011  23.000   6.511  1.00  0.00    -0.237 OA
ATOM     97  O   UNL     1      -1.659  22.521   5.996  1.00  0.00    -0.744 OA
ENDBRANCH  91  94
ENDBRANCH  64  87
ENDBRANCH  38  39
ENDBRANCH  30  33
ENDBRANCH  28  29
ENDBRANCH  27  28
ENDBRANCH  26  27
ENDBRANCH  25  26
ENDBRANCH   1  25
TORSDOF 22
