REMARK SMILES O=C(NCCCCCCNC(=O)[C@H]1[C@H]2[C@@H]3CC[C@@H](C3)[C@@H]12)c1ccc(-c2c3nc(c(-c4cccc(S(=O)(=O)[O-])c4F)c4ccc([nH]4)c(-c4cccc(S(=O)(=O)[O-])c4F)c4nc(c(-c5cccc(S(=O)(=O)[O-])c5F)c5ccc2[nH]5)C=C4)C=C3)cc1
REMARK SMILES IDX 5 1 4 2 3 3 1 4 2 5 21 7 22 8 83 9 23 10 82 11 24 12 25 13
REMARK SMILES IDX 26 14 76 15 27 16 81 17 75 18 77 19 28 20 80 21 74 22 73 23
REMARK SMILES IDX 29 25 61 26 41 27 60 28 42 29 45 30 59 31 78 32 43 33 44 34
REMARK SMILES IDX 58 36 79 37 46 38 30 39 31 40 39 41 32 42 34 43 40 44 33 45
REMARK SMILES IDX 35 46 36 47 37 48 38 49 62 50 63 51 71 52 64 53 66 54 72 55
REMARK SMILES IDX 65 56 67 57 68 58 69 59 70 60 47 61 48 62 56 63 49 64 51 65
REMARK SMILES IDX 57 66 50 67 52 68 53 69 54 70 55 71 6 72 7 73 8 74 9 75
REMARK SMILES IDX 10 76 11 77 12 79 13 80 20 81 14 82 18 83 15 84 17 85 19 86
REMARK SMILES IDX 16 87
REMARK H PARENT 3 6 77 24 45 35 10 78
REMARK Flexibility Score: inf
ROOT
ATOM      1  C   UNL     1       4.664  -2.420   1.263  1.00  0.00     0.021 C 
ENDROOT
BRANCH   1   2
ATOM      2  C   UNL     1       4.437  -1.402   0.154  1.00  0.00     0.116 C 
BRANCH   2   3
ATOM      3  N   UNL     1       3.022  -1.195  -0.114  1.00  0.00    -0.352 N 
ATOM      4  O   UNL     1       1.071  -0.066  -0.111  1.00  0.00    -0.269 OA
ATOM      5  C   UNL     1       2.296  -0.029  -0.070  1.00  0.00     0.251 C 
ATOM      6  H   UNL     1       2.515  -2.002  -0.360  1.00  0.00     0.163 HD
BRANCH   5   7
ATOM      7  C   UNL     1       3.010   1.259   0.045  1.00  0.00     0.039 A 
ATOM      8  C   UNL     1       4.146   1.498  -0.733  1.00  0.00     0.014 A 
ATOM      9  C   UNL     1       2.552   2.225   0.943  1.00  0.00     0.014 A 
ATOM     10  C   UNL     1       4.908   2.636  -0.506  1.00  0.00     0.010 A 
ATOM     11  C   UNL     1       3.266   3.416   1.095  1.00  0.00     0.010 A 
ATOM     12  C   UNL     1       4.465   3.619   0.393  1.00  0.00    -0.014 A 
BRANCH  12  13
ATOM     13  C   UNL     1       5.227   4.887   0.506  1.00  0.00     0.031 A 
ATOM     14  C   UNL     1       5.864   5.311   1.799  1.00  0.00     0.074 A 
ATOM     15  C   UNL     1       5.337   5.663  -0.590  1.00  0.00     0.049 A 
ATOM     16  N   UNL     1       6.576   6.379   2.050  1.00  0.00    -0.248 NA
ATOM     17  C   UNL     1       5.675   4.431   2.963  1.00  0.00     0.031 C 
ATOM     18  C   UNL     1       4.726   5.371  -1.891  1.00  0.00     0.029 A 
ATOM     19  N   UNL     1       5.992   6.850  -0.792  1.00  0.00    -0.354 N 
ATOM     20  C   UNL     1       6.884   6.326   3.404  1.00  0.00     0.074 A 
ATOM     21  C   UNL     1       6.275   5.120   3.924  1.00  0.00     0.031 C 
ATOM     22  C   UNL     1       5.057   6.333  -2.761  1.00  0.00     0.029 A 
ATOM     23  C   UNL     1       5.844   7.344  -2.067  1.00  0.00     0.049 A 
ATOM     24  H   UNL     1       6.516   7.303  -0.094  1.00  0.00     0.167 HD
ATOM     25  C   UNL     1       7.615   7.197   4.141  1.00  0.00     0.034 A 
ATOM     26  C   UNL     1       6.270   8.497  -2.614  1.00  0.00     0.034 A 
ATOM     27  C   UNL     1       8.228   8.388   3.609  1.00  0.00     0.049 A 
ATOM     28  C   UNL     1       7.072   9.444  -1.773  1.00  0.00     0.074 A 
ATOM     29  C   UNL     1       9.041   9.301   4.258  1.00  0.00     0.029 A 
ATOM     30  N   UNL     1       8.078   8.845   2.307  1.00  0.00    -0.354 N 
ATOM     31  N   UNL     1       7.461   9.313  -0.528  1.00  0.00    -0.248 NA
ATOM     32  C   UNL     1       7.518  10.686  -2.418  1.00  0.00     0.031 C 
ATOM     33  C   UNL     1       9.347  10.330   3.361  1.00  0.00     0.029 A 
ATOM     34  C   UNL     1       8.765  10.036   2.139  1.00  0.00     0.049 A 
ATOM     35  H   UNL     1       7.559   8.389   1.605  1.00  0.00     0.167 HD
ATOM     36  C   UNL     1       8.221  10.441  -0.247  1.00  0.00     0.074 A 
ATOM     37  C   UNL     1       8.258  11.231  -1.462  1.00  0.00     0.031 C 
ATOM     38  C   UNL     1       8.824  10.795   0.914  1.00  0.00     0.034 A 
BRANCH  25  39
ATOM     39  C   UNL     1       7.806   6.893   5.607  1.00  0.00     0.023 A 
ATOM     40  C   UNL     1       8.626   5.815   6.001  1.00  0.00     0.012 A 
ATOM     41  C   UNL     1       7.218   7.707   6.596  1.00  0.00     0.148 A 
ATOM     42  C   UNL     1       8.824   5.528   7.351  1.00  0.00     0.002 A 
ATOM     43  C   UNL     1       7.458   7.443   7.939  1.00  0.00     0.091 A 
ATOM     44  F   UNL     1       6.427   8.717   6.206  1.00  0.00    -0.205 F 
ATOM     45  C   UNL     1       8.248   6.346   8.319  1.00  0.00     0.022 A 
BRANCH  43  46
ATOM     46  S   UNL     1       6.829   8.487   9.260  1.00  0.00     0.127 S 
ATOM     47  O   UNL     1       5.812   7.623   9.858  1.00  0.00    -0.237 OA
ATOM     48  O   UNL     1       8.020   8.687  10.086  1.00  0.00    -0.237 OA
ATOM     49  O   UNL     1       6.328   9.692   8.616  1.00  0.00    -0.744 OA
ENDBRANCH  43  46
ENDBRANCH  25  39
BRANCH  26  50
ATOM     50  C   UNL     1       5.962   8.794  -4.040  1.00  0.00     0.023 A 
ATOM     51  C   UNL     1       7.000   8.797  -4.989  1.00  0.00     0.012 A 
ATOM     52  C   UNL     1       4.638   9.020  -4.465  1.00  0.00     0.148 A 
ATOM     53  C   UNL     1       6.730   9.048  -6.335  1.00  0.00     0.002 A 
ATOM     54  C   UNL     1       4.368   9.209  -5.814  1.00  0.00     0.091 A 
ATOM     55  F   UNL     1       3.666   9.017  -3.542  1.00  0.00    -0.205 F 
ATOM     56  C   UNL     1       5.414   9.242  -6.749  1.00  0.00     0.022 A 
BRANCH  54  57
ATOM     57  S   UNL     1       2.695   9.327  -6.455  1.00  0.00     0.127 S 
ATOM     58  O   UNL     1       2.649  10.713  -6.914  1.00  0.00    -0.237 OA
ATOM     59  O   UNL     1       2.712   8.325  -7.521  1.00  0.00    -0.237 OA
ATOM     60  O   UNL     1       1.819   9.003  -5.338  1.00  0.00    -0.744 OA
ENDBRANCH  54  57
ENDBRANCH  26  50
BRANCH  38  61
ATOM     61  C   UNL     1       9.611  12.080   0.920  1.00  0.00     0.023 A 
ATOM     62  C   UNL     1       8.943  13.319   0.859  1.00  0.00     0.012 A 
ATOM     63  C   UNL     1      11.015  12.056   1.043  1.00  0.00     0.148 A 
ATOM     64  C   UNL     1       9.662  14.514   0.880  1.00  0.00     0.002 A 
ATOM     65  C   UNL     1      11.720  13.251   1.119  1.00  0.00     0.091 A 
ATOM     66  F   UNL     1      11.633  10.867   1.079  1.00  0.00    -0.205 F 
ATOM     67  C   UNL     1      11.047  14.480   1.022  1.00  0.00     0.022 A 
BRANCH  65  68
ATOM     68  S   UNL     1      13.493  13.307   1.400  1.00  0.00     0.127 S 
ATOM     69  O   UNL     1      13.984  13.783   0.108  1.00  0.00    -0.237 OA
ATOM     70  O   UNL     1      13.602  14.277   2.490  1.00  0.00    -0.237 OA
ATOM     71  O   UNL     1      13.888  11.950   1.755  1.00  0.00    -0.744 OA
ENDBRANCH  65  68
ENDBRANCH  38  61
ENDBRANCH  12  13
ENDBRANCH   5   7
ENDBRANCH   2   3
ENDBRANCH   1   2
BRANCH   1  72
ATOM     72  C   UNL     1       4.134  -3.820   0.947  1.00  0.00     0.002 C 
BRANCH  72  73
ATOM     73  C   UNL     1       4.732  -4.469  -0.307  1.00  0.00     0.002 C 
BRANCH  73  74
ATOM     74  C   UNL     1       6.259  -4.570  -0.307  1.00  0.00     0.021 C 
BRANCH  74  75
ATOM     75  C   UNL     1       6.817  -5.351   0.881  1.00  0.00     0.116 C 
BRANCH  75  76
ATOM     76  N   UNL     1       6.616  -6.788   0.735  1.00  0.00    -0.356 N 
ATOM     77  C   UNL     1       7.571  -7.722   0.401  1.00  0.00     0.223 C 
ATOM     78  H   UNL     1       5.704  -7.125   0.892  1.00  0.00     0.163 HD
ATOM     79  O   UNL     1       7.286  -8.900   0.216  1.00  0.00    -0.275 OA
BRANCH  77  80
ATOM     80  C   UNL     1       8.937  -7.183   0.243  1.00  0.00     0.086 C 
ATOM     81  C   UNL     1      10.367  -7.642   0.454  1.00  0.00     0.009 C 
ATOM     82  C   UNL     1       9.652  -6.940   1.561  1.00  0.00     0.009 C 
ATOM     83  C   UNL     1      10.968  -8.851   1.142  1.00  0.00    -0.007 C 
ATOM     84  C   UNL     1       9.736  -7.925   2.737  1.00  0.00    -0.007 C 
ATOM     85  C   UNL     1      12.028  -8.309   2.153  1.00  0.00     0.004 C 
ATOM     86  C   UNL     1       9.880  -9.317   2.095  1.00  0.00     0.007 C 
ATOM     87  C   UNL     1      11.156  -7.760   3.311  1.00  0.00     0.004 C 
ENDBRANCH  77  80
ENDBRANCH  75  76
ENDBRANCH  74  75
ENDBRANCH  73  74
ENDBRANCH  72  73
ENDBRANCH   1  72
TORSDOF 16
