REMARK SMILES O=C(NCCCCCCNC(=O)[C@@H]1CCCN1S(=O)(=O)c1ccc2[nH]c(=O)c(=O)[nH]c2c1)c1ccc(-c2c3nc(c(-c4cccc(S(=O)(=O)[O-])c4F)c4ccc([nH]4)c(-c4cccc(S(=O)(=O)[O-])c4F)c4nc(c(-c5cccc(S(=O)(=O)[O-])c5F)c5ccc2[nH]5)C=C4)C=C3)cc1
REMARK SMILES IDX 6 1 5 2 4 3 3 4 1 5 2 6 33 8 34 9 95 10 35 11 94 12 36 13
REMARK SMILES IDX 37 14 38 15 88 16 39 17 93 18 87 19 89 20 40 21 92 22 86 23
REMARK SMILES IDX 85 24 41 26 73 27 53 28 72 29 54 30 57 31 71 32 90 33 55 34
REMARK SMILES IDX 56 35 70 37 91 38 58 39 42 40 43 41 51 42 44 43 46 44 52 45
REMARK SMILES IDX 45 46 47 47 48 48 49 49 50 50 74 51 75 52 83 53 76 54 78 55
REMARK SMILES IDX 84 56 77 57 79 58 80 59 81 60 82 61 59 62 60 63 68 64 61 65
REMARK SMILES IDX 63 66 69 67 62 68 64 69 65 70 66 71 67 72 7 73 8 74 9 75
REMARK SMILES IDX 10 76 11 77 12 79 13 80 14 81 17 82 15 83 16 84 18 85 19 86
REMARK SMILES IDX 20 87 21 88 22 89 32 90 23 91 31 92 24 93 30 94 25 95 28 96
REMARK SMILES IDX 26 98 29 100 27 101
REMARK H PARENT 3 7 89 25 57 36 10 78 30 97 25 99
REMARK Flexibility Score: inf
ROOT
ATOM      1  C   UNL     1       4.016   2.422  -2.994  1.00  0.00     0.002 C 
ENDROOT
BRANCH   1   2
ATOM      2  C   UNL     1       4.364   1.033  -2.467  1.00  0.00     0.021 C 
BRANCH   2   3
ATOM      3  C   UNL     1       4.270   0.893  -0.955  1.00  0.00     0.116 C 
BRANCH   3   4
ATOM      4  N   UNL     1       2.893   0.837  -0.496  1.00  0.00    -0.352 N 
ATOM      5  O   UNL     1       1.040  -0.165   0.311  1.00  0.00    -0.269 OA
ATOM      6  C   UNL     1       2.260  -0.178   0.184  1.00  0.00     0.251 C 
ATOM      7  H   UNL     1       2.341   1.626  -0.699  1.00  0.00     0.163 HD
BRANCH   6   8
ATOM      8  C   UNL     1       3.065  -1.290   0.738  1.00  0.00     0.039 A 
ATOM      9  C   UNL     1       4.252  -1.026   1.427  1.00  0.00     0.014 A 
ATOM     10  C   UNL     1       2.634  -2.608   0.565  1.00  0.00     0.014 A 
ATOM     11  C   UNL     1       5.073  -2.076   1.817  1.00  0.00     0.010 A 
ATOM     12  C   UNL     1       3.418  -3.664   1.043  1.00  0.00     0.010 A 
ATOM     13  C   UNL     1       4.655  -3.408   1.654  1.00  0.00    -0.014 A 
BRANCH  13  14
ATOM     14  C   UNL     1       5.486  -4.493   2.237  1.00  0.00     0.031 A 
ATOM     15  C   UNL     1       6.143  -5.541   1.383  1.00  0.00     0.074 A 
ATOM     16  C   UNL     1       5.660  -4.502   3.575  1.00  0.00     0.049 A 
ATOM     17  N   UNL     1       6.952  -6.503   1.747  1.00  0.00    -0.248 NA
ATOM     18  C   UNL     1       5.856  -5.517  -0.060  1.00  0.00     0.031 C 
ATOM     19  C   UNL     1       5.020  -3.571   4.510  1.00  0.00     0.029 A 
ATOM     20  N   UNL     1       6.426  -5.304   4.380  1.00  0.00    -0.354 N 
ATOM     21  C   UNL     1       7.248  -7.217   0.593  1.00  0.00     0.074 A 
ATOM     22  C   UNL     1       6.523  -6.582  -0.488  1.00  0.00     0.031 C 
ATOM     23  C   UNL     1       5.449  -3.828   5.752  1.00  0.00     0.029 A 
ATOM     24  C   UNL     1       6.354  -4.970   5.713  1.00  0.00     0.049 A 
ATOM     25  H   UNL     1       6.974  -6.046   4.038  1.00  0.00     0.167 HD
ATOM     26  C   UNL     1       8.063  -8.289   0.446  1.00  0.00     0.034 A 
ATOM     27  C   UNL     1       6.943  -5.524   6.789  1.00  0.00     0.034 A 
ATOM     28  C   UNL     1       8.803  -8.897   1.522  1.00  0.00     0.049 A 
ATOM     29  C   UNL     1       7.876  -6.681   6.585  1.00  0.00     0.074 A 
ATOM     30  C   UNL     1       9.689  -9.960   1.465  1.00  0.00     0.029 A 
ATOM     31  N   UNL     1       8.747  -8.499   2.850  1.00  0.00    -0.354 N 
ATOM     32  N   UNL     1       8.240  -7.257   5.465  1.00  0.00    -0.248 NA
ATOM     33  C   UNL     1       8.502  -7.246   7.787  1.00  0.00     0.031 C 
ATOM     34  C   UNL     1      10.161 -10.209   2.759  1.00  0.00     0.029 A 
ATOM     35  C   UNL     1       9.579  -9.294   3.620  1.00  0.00     0.049 A 
ATOM     36  H   UNL     1       8.195  -7.760   3.194  1.00  0.00     0.167 HD
ATOM     37  C   UNL     1       9.144  -8.247   5.825  1.00  0.00     0.074 A 
ATOM     38  C   UNL     1       9.307  -8.160   7.263  1.00  0.00     0.031 C 
ATOM     39  C   UNL     1       9.760  -9.166   5.043  1.00  0.00     0.034 A 
BRANCH  26  40
ATOM     40  C   UNL     1       8.252  -8.852  -0.939  1.00  0.00     0.023 A 
ATOM     41  C   UNL     1       9.075  -8.164  -1.854  1.00  0.00     0.012 A 
ATOM     42  C   UNL     1       7.703 -10.097  -1.305  1.00  0.00     0.148 A 
ATOM     43  C   UNL     1       9.336  -8.696  -3.116  1.00  0.00     0.002 A 
ATOM     44  C   UNL     1       7.996 -10.638  -2.553  1.00  0.00     0.091 A 
ATOM     45  F   UNL     1       6.909 -10.728  -0.428  1.00  0.00    -0.205 F 
ATOM     46  C   UNL     1       8.806  -9.937  -3.461  1.00  0.00     0.022 A 
BRANCH  44  47
ATOM     47  S   UNL     1       7.421 -12.260  -3.071  1.00  0.00     0.127 S 
ATOM     48  O   UNL     1       6.449 -11.911  -4.106  1.00  0.00    -0.237 OA
ATOM     49  O   UNL     1       8.649 -12.877  -3.572  1.00  0.00    -0.237 OA
ATOM     50  O   UNL     1       6.866 -12.889  -1.880  1.00  0.00    -0.744 OA
ENDBRANCH  44  47
ENDBRANCH  26  40
BRANCH  27  51
ATOM     51  C   UNL     1       6.696  -4.953   8.142  1.00  0.00     0.023 A 
ATOM     52  C   UNL     1       7.736  -4.287   8.818  1.00  0.00     0.012 A 
ATOM     53  C   UNL     1       5.423  -5.021   8.740  1.00  0.00     0.148 A 
ATOM     54  C   UNL     1       7.518  -3.722  10.075  1.00  0.00     0.002 A 
ATOM     55  C   UNL     1       5.197  -4.401   9.963  1.00  0.00     0.091 A 
ATOM     56  F   UNL     1       4.448  -5.679   8.096  1.00  0.00    -0.205 F 
ATOM     57  C   UNL     1       6.247  -3.765  10.640  1.00  0.00     0.022 A 
BRANCH  55  58
ATOM     58  S   UNL     1       3.546  -4.284  10.660  1.00  0.00     0.127 S 
ATOM     59  O   UNL     1       3.529  -5.412  11.586  1.00  0.00    -0.237 OA
ATOM     60  O   UNL     1       3.566  -2.965  11.295  1.00  0.00    -0.237 OA
ATOM     61  O   UNL     1       2.648  -4.375   9.515  1.00  0.00    -0.744 OA
ENDBRANCH  55  58
ENDBRANCH  27  51
BRANCH  39  62
ATOM     62  C   UNL     1      10.666 -10.150   5.732  1.00  0.00     0.023 A 
ATOM     63  C   UNL     1      10.102 -11.183   6.508  1.00  0.00     0.012 A 
ATOM     64  C   UNL     1      12.064 -10.078   5.586  1.00  0.00     0.148 A 
ATOM     65  C   UNL     1      10.918 -12.107   7.159  1.00  0.00     0.002 A 
ATOM     66  C   UNL     1      12.869 -11.029   6.203  1.00  0.00     0.091 A 
ATOM     67  F   UNL     1      12.584  -9.075   4.864  1.00  0.00    -0.205 F 
ATOM     68  C   UNL     1      12.299 -12.036   6.998  1.00  0.00     0.022 A 
BRANCH  66  69
ATOM     69  S   UNL     1      14.651 -11.057   5.978  1.00  0.00     0.127 S 
ATOM     70  O   UNL     1      15.118 -10.434   7.215  1.00  0.00    -0.237 OA
ATOM     71  O   UNL     1      14.934 -12.489   5.871  1.00  0.00    -0.237 OA
ATOM     72  O   UNL     1      14.905 -10.304   4.756  1.00  0.00    -0.744 OA
ENDBRANCH  66  69
ENDBRANCH  39  62
ENDBRANCH  13  14
ENDBRANCH   6   8
ENDBRANCH   3   4
ENDBRANCH   2   3
ENDBRANCH   1   2
BRANCH   1  73
ATOM     73  C   UNL     1       4.850   3.564  -2.409  1.00  0.00     0.002 C 
BRANCH  73  74
ATOM     74  C   UNL     1       6.368   3.336  -2.375  1.00  0.00     0.021 C 
BRANCH  74  75
ATOM     75  C   UNL     1       7.026   3.119  -3.734  1.00  0.00     0.116 C 
BRANCH  75  76
ATOM     76  N   UNL     1       6.976   4.301  -4.575  1.00  0.00    -0.355 N 
ATOM     77  C   UNL     1       7.807   5.354  -4.782  1.00  0.00     0.238 C 
ATOM     78  H   UNL     1       6.155   4.351  -5.117  1.00  0.00     0.163 HD
ATOM     79  O   UNL     1       7.376   6.212  -5.567  1.00  0.00    -0.273 OA
BRANCH  77  80
ATOM     80  C   UNL     1       9.182   5.550  -4.168  1.00  0.00     0.162 C 
ATOM     81  C   UNL     1       9.916   4.401  -3.500  1.00  0.00     0.032 C 
ATOM     82  N   UNL     1       9.523   6.746  -3.316  1.00  0.00    -0.185 NA
ATOM     83  C   UNL     1      11.261   5.031  -3.200  1.00  0.00     0.019 C 
ATOM     84  C   UNL     1      10.917   6.461  -2.792  1.00  0.00     0.103 C 
BRANCH  82  85
ATOM     85  S   UNL     1       8.493   7.262  -2.054  1.00  0.00     0.243 S 
ATOM     86  O   UNL     1       8.070   6.078  -1.326  1.00  0.00    -0.207 OA
ATOM     87  O   UNL     1       9.190   8.317  -1.356  1.00  0.00    -0.207 OA
BRANCH  85  88
ATOM     88  C   UNL     1       7.043   8.015  -2.753  1.00  0.00     0.084 A 
ATOM     89  C   UNL     1       5.959   7.224  -3.134  1.00  0.00     0.024 A 
ATOM     90  C   UNL     1       6.896   9.407  -2.714  1.00  0.00     0.050 A 
ATOM     91  C   UNL     1       4.792   7.795  -3.639  1.00  0.00     0.030 A 
ATOM     92  C   UNL     1       5.693   9.979  -3.135  1.00  0.00     0.066 A 
ATOM     93  C   UNL     1       4.664   9.177  -3.641  1.00  0.00     0.065 A 
ATOM     94  N   UNL     1       5.494  11.357  -3.012  1.00  0.00    -0.316 N 
ATOM     95  N   UNL     1       3.491   9.759  -4.124  1.00  0.00    -0.316 N 
ATOM     96  C   UNL     1       4.331  11.989  -3.398  1.00  0.00     0.314 A 
ATOM     97  H   UNL     1       6.220  11.903  -2.632  1.00  0.00     0.170 HD
ATOM     98  C   UNL     1       3.253  11.114  -4.085  1.00  0.00     0.314 A 
ATOM     99  H   UNL     1       2.801   9.173  -4.511  1.00  0.00     0.170 HD
ATOM    100  O   UNL     1       4.155  13.186  -3.211  1.00  0.00    -0.263 OA
ATOM    101  O   UNL     1       2.237  11.604  -4.560  1.00  0.00    -0.263 OA
ENDBRANCH  85  88
ENDBRANCH  82  85
ENDBRANCH  77  80
ENDBRANCH  75  76
ENDBRANCH  74  75
ENDBRANCH  73  74
ENDBRANCH   1  73
TORSDOF 18
