REMARK SMILES O=C(NCCCCCCNC(=O)c1ccc(-c2c3nc(c(-c4cccc(S(=O)(=O)[O-])c4F)c4ccc([nH]4)c(-c4cccc(S(=O)(=O)[O-])c4F)c4nc(c(-c5cccc(S(=O)(=O)[O-])c5F)c5ccc2[nH]5)C=C4)C=C3)cc1)c1ccc(/[NH+]=C2\S[C@@H](Cc3ccc(F)cc3)C(=O)N2Cc2ccccc2)cc1
REMARK SMILES IDX 6 1 5 2 4 3 3 4 1 5 2 6 76 8 77 9 103 10 78 11 102 12 79 13
REMARK SMILES IDX 80 14 81 15 82 17 94 18 83 19 92 20 93 21 95 22 96 23 97 24
REMARK SMILES IDX 101 25 98 26 100 27 99 28 84 29 85 30 86 31 91 32 87 33
REMARK SMILES IDX 90 34 88 35 89 36 7 37 8 38 9 39 10 40 11 41 12 43 13 44
REMARK SMILES IDX 14 45 75 46 15 47 74 48 16 49 17 50 18 51 68 52 19 53 73 54
REMARK SMILES IDX 67 55 69 56 20 57 72 58 66 59 65 60 21 62 53 63 33 64 52 65
REMARK SMILES IDX 34 66 37 67 51 68 70 69 35 70 36 71 50 73 71 74 38 75 22 76
REMARK SMILES IDX 23 77 31 78 24 79 26 80 32 81 25 82 27 83 28 84 29 85 30 86
REMARK SMILES IDX 54 87 55 88 63 89 56 90 58 91 64 92 57 93 59 94 60 95 61 96
REMARK SMILES IDX 62 97 39 98 40 99 48 100 41 101 43 102 49 103 42 104 44 105
REMARK SMILES IDX 45 106 46 107 47 108
REMARK H PARENT 3 7 80 16 10 42 69 61 37 72
REMARK Flexibility Score: inf
ROOT
ATOM      1  C   UNL     1       4.119   2.411  -3.072  1.00  0.00     0.002 C 
ENDROOT
BRANCH   1   2
ATOM      2  C   UNL     1       4.592   1.083  -2.476  1.00  0.00     0.021 C 
BRANCH   2   3
ATOM      3  C   UNL     1       4.310   0.902  -0.988  1.00  0.00     0.116 C 
BRANCH   3   4
ATOM      4  N   UNL     1       2.884   0.869  -0.693  1.00  0.00    -0.352 N 
ATOM      5  O   UNL     1       0.928  -0.053  -0.032  1.00  0.00    -0.269 OA
ATOM      6  C   UNL     1       2.155  -0.106  -0.057  1.00  0.00     0.251 C 
ATOM      7  H   UNL     1       2.372   1.655  -0.992  1.00  0.00     0.163 HD
BRANCH   6   8
ATOM      8  C   UNL     1       2.855  -1.234   0.591  1.00  0.00     0.040 A 
ATOM      9  C   UNL     1       3.921  -0.991   1.457  1.00  0.00     0.018 A 
ATOM     10  C   UNL     1       2.437  -2.545   0.340  1.00  0.00     0.018 A 
ATOM     11  C   UNL     1       4.638  -2.064   1.973  1.00  0.00     0.052 A 
ATOM     12  C   UNL     1       3.139  -3.619   0.899  1.00  0.00     0.052 A 
ATOM     13  C   UNL     1       4.270  -3.383   1.684  1.00  0.00     0.125 A 
BRANCH  13  14
ATOM     14  N   UNL     1       5.016  -4.394   2.294  1.00  0.00    -0.235 N 
ATOM     15  C   UNL     1       5.816  -5.165   1.639  1.00  0.00     0.320 C 
ATOM     16  H   UNL     1       4.928  -4.523   3.266  1.00  0.00     0.313 HD
ATOM     17  S   UNL     1       5.971  -5.329  -0.088  1.00  0.00    -0.022 SA
ATOM     18  N   UNL     1       6.707  -5.979   2.284  1.00  0.00    -0.186 N 
ATOM     19  C   UNL     1       6.949  -6.862   0.066  1.00  0.00     0.178 C 
ATOM     20  C   UNL     1       7.442  -6.851   1.506  1.00  0.00     0.324 C 
ATOM     21  O   UNL     1       8.311  -7.599   1.941  1.00  0.00    -0.245 OA
BRANCH  18  22
ATOM     22  C   UNL     1       6.922  -5.902   3.725  1.00  0.00     0.283 C 
BRANCH  22  23
ATOM     23  C   UNL     1       7.748  -4.701   4.145  1.00  0.00    -0.006 A 
ATOM     24  C   UNL     1       9.144  -4.774   4.234  1.00  0.00     0.008 A 
ATOM     25  C   UNL     1       7.124  -3.478   4.443  1.00  0.00     0.008 A 
ATOM     26  C   UNL     1       9.890  -3.650   4.604  1.00  0.00     0.000 A 
ATOM     27  C   UNL     1       7.870  -2.349   4.779  1.00  0.00     0.000 A 
ATOM     28  C   UNL     1       9.255  -2.436   4.863  1.00  0.00     0.000 A 
ENDBRANCH  22  23
ENDBRANCH  18  22
BRANCH  19  29
ATOM     29  C   UNL     1       8.050  -6.923  -0.994  1.00  0.00     0.063 C 
BRANCH  29  30
ATOM     30  C   UNL     1       8.813  -8.232  -1.030  1.00  0.00    -0.046 A 
ATOM     31  C   UNL     1      10.200  -8.234  -0.812  1.00  0.00     0.007 A 
ATOM     32  C   UNL     1       8.164  -9.451  -1.286  1.00  0.00     0.007 A 
ATOM     33  C   UNL     1      10.919  -9.430  -0.821  1.00  0.00     0.039 A 
ATOM     34  C   UNL     1       8.885 -10.647  -1.290  1.00  0.00     0.039 A 
ATOM     35  C   UNL     1      10.255 -10.626  -1.052  1.00  0.00     0.123 A 
ATOM     36  F   UNL     1      10.941 -11.776  -1.050  1.00  0.00    -0.207 F 
ENDBRANCH  29  30
ENDBRANCH  19  29
ENDBRANCH  13  14
ENDBRANCH   6   8
ENDBRANCH   3   4
ENDBRANCH   2   3
ENDBRANCH   1   2
BRANCH   1  37
ATOM     37  C   UNL     1       4.636   3.672  -2.376  1.00  0.00     0.002 C 
BRANCH  37  38
ATOM     38  C   UNL     1       6.155   3.774  -2.220  1.00  0.00     0.021 C 
BRANCH  38  39
ATOM     39  C   UNL     1       6.961   3.634  -3.508  1.00  0.00     0.116 C 
BRANCH  39  40
ATOM     40  N   UNL     1       6.629   4.652  -4.491  1.00  0.00    -0.352 N 
ATOM     41  C   UNL     1       7.462   5.465  -5.220  1.00  0.00     0.251 C 
ATOM     42  H   UNL     1       5.667   4.777  -4.659  1.00  0.00     0.163 HD
ATOM     43  O   UNL     1       6.987   6.369  -5.903  1.00  0.00    -0.269 OA
BRANCH  41  44
ATOM     44  C   UNL     1       8.928   5.272  -5.166  1.00  0.00     0.039 A 
ATOM     45  C   UNL     1       9.749   6.394  -5.023  1.00  0.00     0.014 A 
ATOM     46  C   UNL     1       9.496   3.999  -5.268  1.00  0.00     0.014 A 
ATOM     47  C   UNL     1      11.134   6.235  -4.922  1.00  0.00     0.010 A 
ATOM     48  C   UNL     1      10.871   3.836  -5.103  1.00  0.00     0.010 A 
ATOM     49  C   UNL     1      11.704   4.952  -4.931  1.00  0.00    -0.014 A 
BRANCH  49  50
ATOM     50  C   UNL     1      13.166   4.755  -4.746  1.00  0.00     0.031 A 
ATOM     51  C   UNL     1      13.999   4.157  -5.848  1.00  0.00     0.074 A 
ATOM     52  C   UNL     1      13.729   5.033  -3.553  1.00  0.00     0.049 A 
ATOM     53  N   UNL     1      15.270   3.847  -5.845  1.00  0.00    -0.248 NA
ATOM     54  C   UNL     1      13.309   3.843  -7.110  1.00  0.00     0.031 C 
ATOM     55  C   UNL     1      13.015   5.540  -2.379  1.00  0.00     0.029 A 
ATOM     56  N   UNL     1      15.024   4.897  -3.119  1.00  0.00    -0.354 N 
ATOM     57  C   UNL     1      15.525   3.275  -7.085  1.00  0.00     0.074 A 
ATOM     58  C   UNL     1      14.270   3.250  -7.805  1.00  0.00     0.031 C 
ATOM     59  C   UNL     1      13.879   5.664  -1.359  1.00  0.00     0.029 A 
ATOM     60  C   UNL     1      15.201   5.226  -1.795  1.00  0.00     0.049 A 
ATOM     61  H   UNL     1      15.758   4.593  -3.701  1.00  0.00     0.167 HD
ATOM     62  C   UNL     1      16.703   2.839  -7.593  1.00  0.00     0.034 A 
ATOM     63  C   UNL     1      16.300   5.174  -1.018  1.00  0.00     0.034 A 
ATOM     64  C   UNL     1      17.959   2.908  -6.896  1.00  0.00     0.049 A 
ATOM     65  C   UNL     1      17.606   4.736  -1.624  1.00  0.00     0.074 A 
ATOM     66  C   UNL     1      19.218   2.564  -7.355  1.00  0.00     0.029 A 
ATOM     67  N   UNL     1      18.117   3.351  -5.592  1.00  0.00    -0.354 N 
ATOM     68  N   UNL     1      17.856   4.346  -2.850  1.00  0.00    -0.248 NA
ATOM     69  C   UNL     1      18.790   4.769  -0.752  1.00  0.00     0.031 C 
ATOM     70  C   UNL     1      20.137   2.791  -6.325  1.00  0.00     0.029 A 
ATOM     71  C   UNL     1      19.451   3.291  -5.230  1.00  0.00     0.049 A 
ATOM     72  H   UNL     1      17.387   3.663  -5.010  1.00  0.00     0.167 HD
ATOM     73  C   UNL     1      19.227   4.120  -2.907  1.00  0.00     0.074 A 
ATOM     74  C   UNL     1      19.757   4.440  -1.598  1.00  0.00     0.031 C 
ATOM     75  C   UNL     1      19.975   3.670  -3.943  1.00  0.00     0.034 A 
BRANCH  62  76
ATOM     76  C   UNL     1      16.704   2.310  -9.004  1.00  0.00     0.023 A 
ATOM     77  C   UNL     1      16.562   3.214 -10.077  1.00  0.00     0.012 A 
ATOM     78  C   UNL     1      16.911   0.944  -9.274  1.00  0.00     0.148 A 
ATOM     79  C   UNL     1      16.597   2.763 -11.396  1.00  0.00     0.002 A 
ATOM     80  C   UNL     1      16.986   0.507 -10.592  1.00  0.00     0.091 A 
ATOM     81  F   UNL     1      17.023   0.097  -8.240  1.00  0.00    -0.205 F 
ATOM     82  C   UNL     1      16.819   1.413 -11.653  1.00  0.00     0.022 A 
BRANCH  80  83
ATOM     83  S   UNL     1      17.342  -1.198 -11.031  1.00  0.00     0.127 S 
ATOM     84  O   UNL     1      16.047  -1.648 -11.541  1.00  0.00    -0.237 OA
ATOM     85  O   UNL     1      18.379  -1.044 -12.051  1.00  0.00    -0.237 OA
ATOM     86  O   UNL     1      17.788  -1.843  -9.804  1.00  0.00    -0.744 OA
ENDBRANCH  80  83
ENDBRANCH  62  76
BRANCH  63  87
ATOM     87  C   UNL     1      16.226   5.613   0.405  1.00  0.00     0.023 A 
ATOM     88  C   UNL     1      16.850   6.816   0.790  1.00  0.00     0.012 A 
ATOM     89  C   UNL     1      15.520   4.867   1.368  1.00  0.00     0.148 A 
ATOM     90  C   UNL     1      16.800   7.250   2.116  1.00  0.00     0.002 A 
ATOM     91  C   UNL     1      15.427   5.333   2.674  1.00  0.00     0.091 A 
ATOM     92  F   UNL     1      14.945   3.717   0.987  1.00  0.00    -0.205 F 
ATOM     93  C   UNL     1      16.081   6.516   3.055  1.00  0.00     0.022 A 
BRANCH  91  94
ATOM     94  S   UNL     1      14.407   4.518   3.909  1.00  0.00     0.127 S 
ATOM     95  O   UNL     1      15.409   3.834   4.722  1.00  0.00    -0.237 OA
ATOM     96  O   UNL     1      13.752   5.652   4.563  1.00  0.00    -0.237 OA
ATOM     97  O   UNL     1      13.500   3.661   3.157  1.00  0.00    -0.744 OA
ENDBRANCH  91  94
ENDBRANCH  63  87
BRANCH  75  98
ATOM     98  C   UNL     1      21.458   3.522  -3.724  1.00  0.00     0.023 A 
ATOM     99  C   UNL     1      21.944   2.458  -2.939  1.00  0.00     0.012 A 
ATOM    100  C   UNL     1      22.370   4.389  -4.357  1.00  0.00     0.148 A 
ATOM    101  C   UNL     1      23.315   2.275  -2.764  1.00  0.00     0.002 A 
ATOM    102  C   UNL     1      23.736   4.173  -4.215  1.00  0.00     0.091 A 
ATOM    103  F   UNL     1      21.888   5.408  -5.083  1.00  0.00    -0.205 F 
ATOM    104  C   UNL     1      24.210   3.124  -3.411  1.00  0.00     0.022 A 
BRANCH 102 105
ATOM    105  S   UNL     1      24.959   5.160  -5.085  1.00  0.00     0.127 S 
ATOM    106  O   UNL     1      25.480   6.004  -4.011  1.00  0.00    -0.237 OA
ATOM    107  O   UNL     1      25.894   4.144  -5.569  1.00  0.00    -0.237 OA
ATOM    108  O   UNL     1      24.233   5.860  -6.136  1.00  0.00    -0.744 OA
ENDBRANCH 102 105
ENDBRANCH  75  98
ENDBRANCH  49  50
ENDBRANCH  41  44
ENDBRANCH  39  40
ENDBRANCH  38  39
ENDBRANCH  37  38
ENDBRANCH   1  37
TORSDOF 21
