REMARK SMILES C[C@@H](C(=O)NCCCCCCNC(=O)c1ccc(-c2c3nc(c(-c4cccc(S(=O)(=O)[O-])c4F)c4ccc([nH]4)c(-c4cccc(S(=O)(=O)[O-])c4F)c4nc(c(-c5cccc(S(=O)(=O)[O-])c5F)c5ccc2[nH]5)C=C4)C=C3)cc1)[C@@H](C)C(=O)c1cccc(Cl)c1
REMARK SMILES IDX 8 1 7 2 6 3 5 4 3 5 4 6 2 8 1 9 78 10 79 11 80 12 81 13
REMARK SMILES IDX 82 14 83 15 88 16 84 17 86 18 85 19 87 20 9 21 10 22 11 23
REMARK SMILES IDX 12 24 13 25 14 27 15 28 16 29 77 30 17 31 76 32 18 33 19 34
REMARK SMILES IDX 20 35 70 36 21 37 75 38 69 39 71 40 22 41 74 42 68 43 67 44
REMARK SMILES IDX 23 46 55 47 35 48 54 49 36 50 39 51 53 52 72 53 37 54 38 55
REMARK SMILES IDX 52 57 73 58 40 59 24 60 25 61 33 62 26 63 28 64 34 65 27 66
REMARK SMILES IDX 29 67 30 68 31 69 32 70 56 71 57 72 65 73 58 74 60 75 66 76
REMARK SMILES IDX 59 77 61 78 62 79 63 80 64 81 41 82 42 83 50 84 43 85 45 86
REMARK SMILES IDX 51 87 44 88 46 89 47 90 48 91 49 92
REMARK H PARENT 5 7 12 26 71 45 39 56
REMARK Flexibility Score: inf
ROOT
ATOM      1  C   UNL     1       4.917  -2.890   0.093  1.00  0.00     0.002 C 
ENDROOT
BRANCH   1   2
ATOM      2  C   UNL     1       4.174  -1.549   0.038  1.00  0.00     0.021 C 
BRANCH   2   3
ATOM      3  C   UNL     1       3.308  -1.368  -1.210  1.00  0.00     0.116 C 
BRANCH   3   4
ATOM      4  N   UNL     1       2.220  -2.328  -1.209  1.00  0.00    -0.356 N 
ATOM      5  C   UNL     1       0.897  -2.148  -0.947  1.00  0.00     0.223 C 
ATOM      6  O   UNL     1       0.203  -3.150  -0.784  1.00  0.00    -0.275 OA
ATOM      7  H   UNL     1       2.478  -3.251  -1.433  1.00  0.00     0.163 HD
BRANCH   5   8
ATOM      8  C   UNL     1       0.325  -0.734  -0.895  1.00  0.00     0.086 C 
ATOM      9  C   UNL     1       0.611  -0.121   0.481  1.00  0.00     0.019 C 
BRANCH   8  10
ATOM     10  C   UNL     1      -1.187  -0.747  -1.215  1.00  0.00     0.070 C 
ATOM     11  C   UNL     1      -1.786   0.659  -1.313  1.00  0.00     0.017 C 
BRANCH  10  12
ATOM     12  C   UNL     1      -1.627  -1.546  -2.455  1.00  0.00     0.166 C 
ATOM     13  O   UNL     1      -2.508  -2.405  -2.373  1.00  0.00    -0.294 OA
BRANCH  12  14
ATOM     14  C   UNL     1      -1.188  -1.156  -3.825  1.00  0.00     0.019 A 
ATOM     15  C   UNL     1      -2.189  -1.012  -4.799  1.00  0.00     0.012 A 
ATOM     16  C   UNL     1       0.146  -0.961  -4.182  1.00  0.00     0.032 A 
ATOM     17  C   UNL     1      -1.863  -0.628  -6.101  1.00  0.00     0.002 A 
ATOM     18  C   UNL     1       0.464  -0.569  -5.483  1.00  0.00     0.041 A 
ATOM     19  C   UNL     1      -0.533  -0.393  -6.441  1.00  0.00     0.020 A 
ATOM     20  Cl  UNL     1       2.111  -0.307  -5.908  1.00  0.00    -0.084 Cl
ENDBRANCH  12  14
ENDBRANCH  10  12
ENDBRANCH   8  10
ENDBRANCH   5   8
ENDBRANCH   3   4
ENDBRANCH   2   3
ENDBRANCH   1   2
BRANCH   1  21
ATOM     21  C   UNL     1       5.860  -3.155  -1.084  1.00  0.00     0.002 C 
BRANCH  21  22
ATOM     22  C   UNL     1       6.905  -2.065  -1.328  1.00  0.00     0.021 C 
BRANCH  22  23
ATOM     23  C   UNL     1       7.812  -1.782  -0.135  1.00  0.00     0.116 C 
BRANCH  23  24
ATOM     24  N   UNL     1       8.623  -2.938   0.218  1.00  0.00    -0.352 N 
ATOM     25  C   UNL     1       9.986  -3.030   0.347  1.00  0.00     0.251 C 
ATOM     26  H   UNL     1       8.124  -3.769   0.389  1.00  0.00     0.163 HD
ATOM     27  O   UNL     1      10.521  -4.133   0.452  1.00  0.00    -0.269 OA
BRANCH  25  28
ATOM     28  C   UNL     1      10.809  -1.802   0.343  1.00  0.00     0.039 A 
ATOM     29  C   UNL     1      11.976  -1.770  -0.423  1.00  0.00     0.014 A 
ATOM     30  C   UNL     1      10.427  -0.684   1.091  1.00  0.00     0.014 A 
ATOM     31  C   UNL     1      12.730  -0.597  -0.483  1.00  0.00     0.010 A 
ATOM     32  C   UNL     1      11.136   0.506   0.967  1.00  0.00     0.010 A 
ATOM     33  C   UNL     1      12.300   0.561   0.185  1.00  0.00    -0.014 A 
BRANCH  33  34
ATOM     34  C   UNL     1      13.049   1.840   0.070  1.00  0.00     0.031 A 
ATOM     35  C   UNL     1      13.658   2.477   1.290  1.00  0.00     0.074 A 
ATOM     36  C   UNL     1      13.113   2.468  -1.121  1.00  0.00     0.049 A 
ATOM     37  N   UNL     1      14.304   3.610   1.391  1.00  0.00    -0.248 NA
ATOM     38  C   UNL     1      13.499   1.763   2.567  1.00  0.00     0.031 C 
ATOM     39  C   UNL     1      12.498   1.991  -2.362  1.00  0.00     0.029 A 
ATOM     40  N   UNL     1      13.702   3.655  -1.478  1.00  0.00    -0.354 N 
ATOM     41  C   UNL     1      14.597   3.762   2.741  1.00  0.00     0.074 A 
ATOM     42  C   UNL     1      14.028   2.623   3.427  1.00  0.00     0.031 C 
ATOM     43  C   UNL     1      12.748   2.872  -3.344  1.00  0.00     0.029 A 
ATOM     44  C   UNL     1      13.508   3.992  -2.798  1.00  0.00     0.049 A 
ATOM     45  H   UNL     1      14.215   4.212  -0.850  1.00  0.00     0.167 HD
ATOM     46  C   UNL     1      15.300   4.745   3.353  1.00  0.00     0.034 A 
ATOM     47  C   UNL     1      13.887   5.085  -3.488  1.00  0.00     0.034 A 
ATOM     48  C   UNL     1      15.894   5.859   2.664  1.00  0.00     0.049 A 
ATOM     49  C   UNL     1      14.688   6.151  -2.790  1.00  0.00     0.074 A 
ATOM     50  C   UNL     1      16.698   6.859   3.181  1.00  0.00     0.029 A 
ATOM     51  N   UNL     1      15.738   6.129   1.313  1.00  0.00    -0.354 N 
ATOM     52  N   UNL     1      15.091   6.197  -1.543  1.00  0.00    -0.248 NA
ATOM     53  C   UNL     1      15.119   7.298  -3.602  1.00  0.00     0.031 C 
ATOM     54  C   UNL     1      16.997   7.756   2.150  1.00  0.00     0.029 A 
ATOM     55  C   UNL     1      16.415   7.290   0.982  1.00  0.00     0.049 A 
ATOM     56  H   UNL     1      15.221   5.577   0.683  1.00  0.00     0.167 HD
ATOM     57  C   UNL     1      15.851   7.355  -1.430  1.00  0.00     0.074 A 
ATOM     58  C   UNL     1      15.870   7.970  -2.741  1.00  0.00     0.031 C 
ATOM     59  C   UNL     1      16.466   7.869  -0.337  1.00  0.00     0.034 A 
BRANCH  46  60
ATOM     60  C   UNL     1      15.501   4.639   4.844  1.00  0.00     0.023 A 
ATOM     61  C   UNL     1      16.347   3.639   5.367  1.00  0.00     0.012 A 
ATOM     62  C   UNL     1      14.902   5.564   5.721  1.00  0.00     0.148 A 
ATOM     63  C   UNL     1      16.562   3.536   6.740  1.00  0.00     0.002 A 
ATOM     64  C   UNL     1      15.160   5.485   7.085  1.00  0.00     0.091 A 
ATOM     65  F   UNL     1      14.086   6.496   5.209  1.00  0.00    -0.205 F 
ATOM     66  C   UNL     1      15.978   4.464   7.597  1.00  0.00     0.022 A 
BRANCH  64  67
ATOM     67  S   UNL     1      14.523   6.681   8.264  1.00  0.00     0.127 S 
ATOM     68  O   UNL     1      13.556   5.875   9.008  1.00  0.00    -0.237 OA
ATOM     69  O   UNL     1      15.725   7.040   9.016  1.00  0.00    -0.237 OA
ATOM     70  O   UNL     1      13.954   7.763   7.472  1.00  0.00    -0.744 OA
ENDBRANCH  64  67
ENDBRANCH  46  60
BRANCH  47  71
ATOM     71  C   UNL     1      13.558   5.204  -4.937  1.00  0.00     0.023 A 
ATOM     72  C   UNL     1      14.589   5.126  -5.893  1.00  0.00     0.012 A 
ATOM     73  C   UNL     1      12.229   5.373  -5.372  1.00  0.00     0.148 A 
ATOM     74  C   UNL     1      14.308   5.251  -7.254  1.00  0.00     0.002 A 
ATOM     75  C   UNL     1      11.949   5.438  -6.732  1.00  0.00     0.091 A 
ATOM     76  F   UNL     1      11.263   5.452  -4.446  1.00  0.00    -0.205 F 
ATOM     77  C   UNL     1      12.989   5.397  -7.674  1.00  0.00     0.022 A 
BRANCH  75  78
ATOM     78  S   UNL     1      10.271   5.494  -7.369  1.00  0.00     0.127 S 
ATOM     79  O   UNL     1      10.207   6.844  -7.923  1.00  0.00    -0.237 OA
ATOM     80  O   UNL     1      10.290   4.419  -8.361  1.00  0.00    -0.237 OA
ATOM     81  O   UNL     1       9.406   5.240  -6.225  1.00  0.00    -0.744 OA
ENDBRANCH  75  78
ENDBRANCH  47  71
BRANCH  59  82
ATOM     82  C   UNL     1      17.254   9.143  -0.511  1.00  0.00     0.023 A 
ATOM     83  C   UNL     1      16.584  10.363  -0.728  1.00  0.00     0.012 A 
ATOM     84  C   UNL     1      18.658   9.137  -0.388  1.00  0.00     0.148 A 
ATOM     85  C   UNL     1      17.302  11.552  -0.857  1.00  0.00     0.002 A 
ATOM     86  C   UNL     1      19.362  10.332  -0.464  1.00  0.00     0.091 A 
ATOM     87  F   UNL     1      19.278   7.963  -0.199  1.00  0.00    -0.205 F 
ATOM     88  C   UNL     1      18.687  11.539  -0.712  1.00  0.00     0.022 A 
BRANCH  86  89
ATOM     89  S   UNL     1      21.135  10.427  -0.192  1.00  0.00     0.127 S 
ATOM     90  O   UNL     1      21.626  10.729  -1.535  1.00  0.00    -0.237 OA
ATOM     91  O   UNL     1      21.242  11.533   0.761  1.00  0.00    -0.237 OA
ATOM     92  O   UNL     1      21.531   9.130   0.340  1.00  0.00    -0.744 OA
ENDBRANCH  86  89
ENDBRANCH  59  82
ENDBRANCH  33  34
ENDBRANCH  25  28
ENDBRANCH  23  24
ENDBRANCH  22  23
ENDBRANCH  21  22
ENDBRANCH   1  21
TORSDOF 19
