REMARK SMILES COC[C@@H](O)COc1ccc(C(=O)NCCCCCCNC(=O)c2ccc(-c3c4nc(c(-c5cccc(S(=O)(=O)[O-])c5F)c5ccc([nH]5)c(-c5cccc(S(=O)(=O)[O-])c5F)c5nc(c(-c6cccc(S(=O)(=O)[O-])c6F)c6ccc3[nH]6)C=C5)C=C4)cc2)nc1
REMARK SMILES IDX 16 1 15 2 14 3 12 4 13 5 11 7 8 8 9 9 88 10 10 11 87 12 7 13
REMARK SMILES IDX 6 14 4 15 3 16 2 17 1 18 5 19 17 21 18 22 19 23 20 24 21 25
REMARK SMILES IDX 22 26 23 28 24 29 25 30 86 31 26 32 85 33 27 34 28 35 29 36
REMARK SMILES IDX 79 37 30 38 84 39 78 40 80 41 31 42 83 43 77 44 76 45 32 47
REMARK SMILES IDX 64 48 44 49 63 50 45 51 48 52 62 53 81 54 46 55 47 56 61 58
REMARK SMILES IDX 82 59 49 60 33 61 34 62 42 63 35 64 37 65 43 66 36 67 38 68
REMARK SMILES IDX 39 69 40 70 41 71 65 72 66 73 74 74 67 75 69 76 75 77 68 78
REMARK SMILES IDX 70 79 71 80 72 81 73 82 50 83 51 84 59 85 52 86 54 87 60 88
REMARK SMILES IDX 53 89 55 90 56 91 57 92 58 93
REMARK H PARENT 14 6 5 20 21 27 80 46 48 57
REMARK Flexibility Score: inf
ROOT
ATOM      1  C   UNL     1      -0.119   2.317   5.497  1.00  0.00     0.021 C 
ENDROOT
BRANCH   1   2
ATOM      2  C   UNL     1       1.205   1.548   5.453  1.00  0.00     0.116 C 
BRANCH   2   3
ATOM      3  N   UNL     1       1.367   0.731   6.645  1.00  0.00    -0.351 N 
ATOM      4  C   UNL     1       1.292  -0.633   6.830  1.00  0.00     0.269 C 
ATOM      5  O   UNL     1       1.564  -1.069   7.950  1.00  0.00    -0.268 OA
ATOM      6  H   UNL     1       1.566   1.242   7.463  1.00  0.00     0.163 HD
BRANCH   4   7
ATOM      7  C   UNL     1       0.916  -1.575   5.722  1.00  0.00     0.128 A 
ATOM      8  C   UNL     1       0.400  -3.347   3.694  1.00  0.00     0.137 A 
ATOM      9  C   UNL     1      -0.319  -2.163   3.755  1.00  0.00     0.050 A 
ATOM     10  C   UNL     1       1.283  -3.634   4.721  1.00  0.00     0.158 A 
ATOM     11  C   UNL     1      -0.062  -1.263   4.785  1.00  0.00     0.038 A 
ATOM     12  N   UNL     1       1.569  -2.771   5.724  1.00  0.00    -0.247 NA
BRANCH   8  13
ATOM     13  O   UNL     1       0.176  -4.218   2.671  1.00  0.00    -0.489 OA
BRANCH  13  14
ATOM     14  C   UNL     1       1.094  -4.025   1.572  1.00  0.00     0.263 C 
BRANCH  14  15
ATOM     15  C   UNL     1       0.752  -2.792   0.710  1.00  0.00     0.177 C 
BRANCH  15  16
ATOM     16  C   UNL     1       1.644  -1.583   1.058  1.00  0.00     0.195 C 
BRANCH  16  17
ATOM     17  O   UNL     1       0.896  -0.365   0.958  1.00  0.00    -0.382 OA
ATOM     18  C   UNL     1       1.128   0.345  -0.253  1.00  0.00     0.195 C 
ENDBRANCH  16  17
ENDBRANCH  15  16
BRANCH  15  19
ATOM     19  O   UNL     1       0.953  -3.130  -0.671  1.00  0.00    -0.387 OA
ATOM     20  H   UNL     1       1.882  -3.372  -0.813  1.00  0.00     0.211 HD
ENDBRANCH  15  19
ENDBRANCH  14  15
ENDBRANCH  13  14
ENDBRANCH   8  13
ENDBRANCH   4   7
ENDBRANCH   2   3
ENDBRANCH   1   2
BRANCH   1  21
ATOM     21  C   UNL     1      -0.109   3.530   6.437  1.00  0.00     0.002 C 
BRANCH  21  22
ATOM     22  C   UNL     1       0.913   4.617   6.085  1.00  0.00     0.002 C 
BRANCH  22  23
ATOM     23  C   UNL     1       0.832   5.144   4.651  1.00  0.00     0.021 C 
BRANCH  23  24
ATOM     24  C   UNL     1      -0.504   5.786   4.286  1.00  0.00     0.116 C 
BRANCH  24  25
ATOM     25  N   UNL     1      -0.770   6.972   5.088  1.00  0.00    -0.352 N 
ATOM     26  C   UNL     1      -0.986   8.263   4.680  1.00  0.00     0.251 C 
ATOM     27  H   UNL     1      -0.800   6.826   6.062  1.00  0.00     0.163 HD
ATOM     28  O   UNL     1      -0.966   9.181   5.501  1.00  0.00    -0.269 OA
BRANCH  26  29
ATOM     29  C   UNL     1      -1.232   8.552   3.253  1.00  0.00     0.039 A 
ATOM     30  C   UNL     1      -0.571   9.624   2.649  1.00  0.00     0.014 A 
ATOM     31  C   UNL     1      -2.119   7.764   2.513  1.00  0.00     0.014 A 
ATOM     32  C   UNL     1      -0.752   9.868   1.286  1.00  0.00     0.010 A 
ATOM     33  C   UNL     1      -2.240   7.963   1.141  1.00  0.00     0.010 A 
ATOM     34  C   UNL     1      -1.562   9.019   0.513  1.00  0.00    -0.014 A 
BRANCH  34  35
ATOM     35  C   UNL     1      -1.698   9.203  -0.954  1.00  0.00     0.031 A 
ATOM     36  C   UNL     1      -3.041   9.509  -1.559  1.00  0.00     0.074 A 
ATOM     37  C   UNL     1      -0.629   8.999  -1.750  1.00  0.00     0.049 A 
ATOM     38  N   UNL     1      -3.369   9.627  -2.820  1.00  0.00    -0.248 NA
ATOM     39  C   UNL     1      -4.169   9.679  -0.628  1.00  0.00     0.031 C 
ATOM     40  C   UNL     1       0.710   8.624  -1.289  1.00  0.00     0.029 A 
ATOM     41  N   UNL     1      -0.507   9.046  -3.117  1.00  0.00    -0.354 N 
ATOM     42  C   UNL     1      -4.740   9.848  -2.837  1.00  0.00     0.074 A 
ATOM     43  C   UNL     1      -5.190   9.815  -1.462  1.00  0.00     0.031 C 
ATOM     44  C   UNL     1       1.516   8.477  -2.352  1.00  0.00     0.029 A 
ATOM     45  C   UNL     1       0.747   8.709  -3.570  1.00  0.00     0.049 A 
ATOM     46  H   UNL     1      -1.247   9.298  -3.715  1.00  0.00     0.167 HD
ATOM     47  C   UNL     1      -5.549  10.082  -3.897  1.00  0.00     0.034 A 
ATOM     48  C   UNL     1       1.221   8.584  -4.825  1.00  0.00     0.034 A 
ATOM     49  C   UNL     1      -5.092  10.148  -5.259  1.00  0.00     0.049 A 
ATOM     50  C   UNL     1       0.307   8.873  -5.985  1.00  0.00     0.074 A 
ATOM     51  C   UNL     1      -5.816  10.466  -6.394  1.00  0.00     0.029 A 
ATOM     52  N   UNL     1      -3.797   9.878  -5.674  1.00  0.00    -0.354 N 
ATOM     53  N   UNL     1      -0.953   9.232  -5.971  1.00  0.00    -0.248 NA
ATOM     54  C   UNL     1       0.888   8.773  -7.331  1.00  0.00     0.031 C 
ATOM     55  C   UNL     1      -4.967  10.354  -7.500  1.00  0.00     0.029 A 
ATOM     56  C   UNL     1      -3.704  10.006  -7.049  1.00  0.00     0.049 A 
ATOM     57  H   UNL     1      -3.053   9.633  -5.078  1.00  0.00     0.167 HD
ATOM     58  C   UNL     1      -1.306   9.437  -7.301  1.00  0.00     0.074 A 
ATOM     59  C   UNL     1      -0.120   9.180  -8.091  1.00  0.00     0.031 C 
ATOM     60  C   UNL     1      -2.506   9.794  -7.820  1.00  0.00     0.034 A 
BRANCH  47  61
ATOM     61  C   UNL     1      -7.011  10.326  -3.625  1.00  0.00     0.023 A 
ATOM     62  C   UNL     1      -7.415  11.523  -2.997  1.00  0.00     0.012 A 
ATOM     63  C   UNL     1      -7.989   9.403  -4.043  1.00  0.00     0.148 A 
ATOM     64  C   UNL     1      -8.764  11.780  -2.756  1.00  0.00     0.002 A 
ATOM     65  C   UNL     1      -9.335   9.688  -3.844  1.00  0.00     0.091 A 
ATOM     66  F   UNL     1      -7.586   8.262  -4.621  1.00  0.00    -0.205 F 
ATOM     67  C   UNL     1      -9.723  10.869  -3.189  1.00  0.00     0.022 A 
BRANCH  65  68
ATOM     68  S   UNL     1     -10.651   8.619  -4.436  1.00  0.00     0.127 S 
ATOM     69  O   UNL     1     -11.189   8.091  -3.183  1.00  0.00    -0.237 OA
ATOM     70  O   UNL     1     -11.528   9.565  -5.126  1.00  0.00    -0.237 OA
ATOM     71  O   UNL     1     -10.013   7.637  -5.302  1.00  0.00    -0.744 OA
ENDBRANCH  65  68
ENDBRANCH  47  61
BRANCH  48  72
ATOM     72  C   UNL     1       2.647   8.210  -5.049  1.00  0.00     0.023 A 
ATOM     73  C   UNL     1       3.541   9.165  -5.571  1.00  0.00     0.012 A 
ATOM     74  C   UNL     1       3.125   6.926  -4.724  1.00  0.00     0.148 A 
ATOM     75  C   UNL     1       4.877   8.836  -5.800  1.00  0.00     0.002 A 
ATOM     76  C   UNL     1       4.469   6.623  -4.900  1.00  0.00     0.091 A 
ATOM     77  F   UNL     1       2.256   6.029  -4.236  1.00  0.00    -0.205 F 
ATOM     78  C   UNL     1       5.344   7.570  -5.455  1.00  0.00     0.022 A 
BRANCH  76  79
ATOM     79  S   UNL     1       5.183   5.064  -4.364  1.00  0.00     0.127 S 
ATOM     80  O   UNL     1       5.504   4.427  -5.638  1.00  0.00    -0.237 OA
ATOM     81  O   UNL     1       6.339   5.513  -3.588  1.00  0.00    -0.237 OA
ATOM     82  O   UNL     1       4.150   4.407  -3.573  1.00  0.00    -0.744 OA
ENDBRANCH  76  79
ENDBRANCH  48  72
BRANCH  60  83
ATOM     83  C   UNL     1      -2.599   9.970  -9.314  1.00  0.00     0.023 A 
ATOM     84  C   UNL     1      -2.564   8.845 -10.160  1.00  0.00     0.012 A 
ATOM     85  C   UNL     1      -2.801  11.249  -9.870  1.00  0.00     0.148 A 
ATOM     86  C   UNL     1      -2.697   8.992 -11.541  1.00  0.00     0.002 A 
ATOM     87  C   UNL     1      -2.985  11.383 -11.241  1.00  0.00     0.091 A 
ATOM     88  F   UNL     1      -2.813  12.309  -9.049  1.00  0.00    -0.205 F 
ATOM     89  C   UNL     1      -2.920  10.258 -12.079  1.00  0.00     0.022 A 
BRANCH  87  90
ATOM     90  S   UNL     1      -3.377  12.957 -12.013  1.00  0.00     0.127 S 
ATOM     91  O   UNL     1      -2.148  13.239 -12.753  1.00  0.00    -0.237 OA
ATOM     92  O   UNL     1      -4.527  12.612 -12.848  1.00  0.00    -0.237 OA
ATOM     93  O   UNL     1      -3.673  13.878 -10.924  1.00  0.00    -0.744 OA
ENDBRANCH  87  90
ENDBRANCH  60  83
ENDBRANCH  34  35
ENDBRANCH  26  29
ENDBRANCH  24  25
ENDBRANCH  23  24
ENDBRANCH  22  23
ENDBRANCH  21  22
ENDBRANCH   1  21
TORSDOF 22
