REMARK SMILES COc1ccc(-c2ccc(C(=O)NCc3ccc(C(=O)NCCCCCCNC(=O)c4ccc(-c5c6nc(c(-c7cccc(S(=O)(=O)[O-])c7F)c7ccc([nH]7)c(-c7cccc(S(=O)(=O)[O-])c7F)c7nc(c(-c8cccc(S(=O)(=O)[O-])c8F)c8ccc5[nH]8)C=C7)C=C6)cc4)cc3)o2)c([N+](=O)[O-])c1
REMARK SMILES IDX 23 1 22 2 21 3 19 4 20 5 18 7 15 8 16 9 95 10 17 11 94 12
REMARK SMILES IDX 14 13 13 14 11 15 12 16 10 18 7 19 8 20 96 21 9 22 6 23 3 24
REMARK SMILES IDX 4 25 101 26 5 27 97 28 2 29 1 30 98 31 99 32 100 33 24 34
REMARK SMILES IDX 25 35 26 36 27 37 28 38 29 39 30 41 31 42 32 43 93 44 33 45
REMARK SMILES IDX 92 46 34 47 35 48 36 49 86 50 37 51 91 52 85 53 87 54 38 55
REMARK SMILES IDX 90 56 84 57 83 58 39 60 71 61 51 62 70 63 52 64 55 65 69 66
REMARK SMILES IDX 88 67 53 68 54 69 68 71 89 72 56 73 40 74 41 75 49 76 42 77
REMARK SMILES IDX 44 78 50 79 43 80 45 81 46 82 47 83 48 84 72 85 73 86 81 87
REMARK SMILES IDX 74 88 76 89 82 90 75 91 77 92 78 93 79 94 80 95 57 96 58 97
REMARK SMILES IDX 66 98 59 99 61 100 67 101 60 102 62 103 63 104 64 105 65 106
REMARK H PARENT 21 6 13 17 28 40 87 59 55 70
REMARK Flexibility Score: inf
ROOT
ATOM      1  C   UNL     1       0.396  11.734  -8.984  1.00  0.00     0.021 C 
ENDROOT
BRANCH   1   2
ATOM      2  C   UNL     1       1.907  11.808  -8.753  1.00  0.00     0.116 C 
BRANCH   2   3
ATOM      3  N   UNL     1       2.284  13.170  -8.422  1.00  0.00    -0.352 N 
ATOM      4  C   UNL     1       2.639  13.778  -7.248  1.00  0.00     0.251 C 
ATOM      5  O   UNL     1       2.881  14.986  -7.282  1.00  0.00    -0.269 OA
ATOM      6  H   UNL     1       2.285  13.777  -9.197  1.00  0.00     0.163 HD
BRANCH   4   7
ATOM      7  C   UNL     1       2.818  13.043  -5.967  1.00  0.00     0.039 A 
ATOM      8  C   UNL     1       3.393  11.726  -3.527  1.00  0.00    -0.029 A 
ATOM      9  C   UNL     1       4.062  12.905  -3.876  1.00  0.00     0.006 A 
ATOM     10  C   UNL     1       2.399  11.246  -4.393  1.00  0.00     0.006 A 
ATOM     11  C   UNL     1       3.776  13.555  -5.080  1.00  0.00     0.014 A 
ATOM     12  C   UNL     1       2.093  11.915  -5.585  1.00  0.00     0.014 A 
BRANCH   8  13
ATOM     13  C   UNL     1       3.766  10.991  -2.264  1.00  0.00     0.152 C 
BRANCH  13  14
ATOM     14  N   UNL     1       2.609  10.668  -1.466  1.00  0.00    -0.345 N 
ATOM     15  C   UNL     1       1.966   9.483  -1.211  1.00  0.00     0.287 C 
ATOM     16  O   UNL     1       1.059   9.553  -0.374  1.00  0.00    -0.266 OA
ATOM     17  H   UNL     1       2.202  11.445  -1.019  1.00  0.00     0.164 HD
BRANCH  15  18
ATOM     18  C   UNL     1       2.325   8.244  -1.879  1.00  0.00     0.192 A 
ATOM     19  C   UNL     1       2.236   6.040  -2.087  1.00  0.00     0.142 A 
ATOM     20  C   UNL     1       3.017   6.487  -3.125  1.00  0.00     0.052 A 
ATOM     21  O   UNL     1       1.795   7.089  -1.347  1.00  0.00    -0.451 OA
ATOM     22  C   UNL     1       3.069   7.897  -2.997  1.00  0.00     0.057 A 
BRANCH  19  23
ATOM     23  C   UNL     1       1.802   4.726  -1.653  1.00  0.00     0.095 A 
ATOM     24  C   UNL     1       0.871   2.123  -1.043  1.00  0.00     0.125 A 
ATOM     25  C   UNL     1       0.003   3.088  -1.556  1.00  0.00     0.047 A 
ATOM     26  C   UNL     1       2.206   2.453  -0.824  1.00  0.00     0.132 A 
ATOM     27  C   UNL     1       0.457   4.378  -1.847  1.00  0.00     0.023 A 
ATOM     28  C   UNL     1       2.663   3.751  -1.124  1.00  0.00     0.284 A 
BRANCH  24  29
ATOM     29  O   UNL     1       0.308   0.896  -0.835  1.00  0.00    -0.497 OA
ATOM     30  C   UNL     1       0.975   0.031   0.075  1.00  0.00     0.278 C 
ENDBRANCH  24  29
BRANCH  28  31
ATOM     31  N   UNL     1       4.071   4.044  -0.848  1.00  0.00     0.063 N 
ATOM     32  O   UNL     1       4.371   5.167  -0.421  1.00  0.00    -0.258 OA
ATOM     33  O   UNL     1       4.884   3.121  -1.008  1.00  0.00    -0.258 OA
ENDBRANCH  28  31
ENDBRANCH  19  23
ENDBRANCH  15  18
ENDBRANCH  13  14
ENDBRANCH   8  13
ENDBRANCH   4   7
ENDBRANCH   2   3
ENDBRANCH   1   2
BRANCH   1  34
ATOM     34  C   UNL     1      -0.037  12.330 -10.332  1.00  0.00     0.002 C 
BRANCH  34  35
ATOM     35  C   UNL     1       0.536  11.616 -11.562  1.00  0.00     0.002 C 
BRANCH  35  36
ATOM     36  C   UNL     1       0.255  10.113 -11.619  1.00  0.00     0.021 C 
BRANCH  36  37
ATOM     37  C   UNL     1      -1.227   9.759 -11.664  1.00  0.00     0.116 C 
BRANCH  37  38
ATOM     38  N   UNL     1      -1.854  10.247 -12.883  1.00  0.00    -0.352 N 
ATOM     39  C   UNL     1      -2.564   9.549 -13.827  1.00  0.00     0.251 C 
ATOM     40  H   UNL     1      -1.755  11.211 -13.054  1.00  0.00     0.163 HD
ATOM     41  O   UNL     1      -2.813  10.065 -14.913  1.00  0.00    -0.269 OA
BRANCH  39  42
ATOM     42  C   UNL     1      -3.025   8.176 -13.531  1.00  0.00     0.039 A 
ATOM     43  C   UNL     1      -2.919   7.195 -14.520  1.00  0.00     0.014 A 
ATOM     44  C   UNL     1      -3.584   7.866 -12.288  1.00  0.00     0.014 A 
ATOM     45  C   UNL     1      -3.348   5.894 -14.250  1.00  0.00     0.010 A 
ATOM     46  C   UNL     1      -3.936   6.553 -11.995  1.00  0.00     0.010 A 
ATOM     47  C   UNL     1      -3.846   5.559 -12.980  1.00  0.00    -0.014 A 
BRANCH  47  48
ATOM     48  C   UNL     1      -4.310   4.182 -12.674  1.00  0.00     0.031 A 
ATOM     49  C   UNL     1      -5.753   3.938 -12.320  1.00  0.00     0.074 A 
ATOM     50  C   UNL     1      -3.425   3.168 -12.643  1.00  0.00     0.049 A 
ATOM     51  N   UNL     1      -6.340   2.822 -11.975  1.00  0.00    -0.248 NA
ATOM     52  C   UNL     1      -6.650   5.107 -12.325  1.00  0.00     0.031 C 
ATOM     53  C   UNL     1      -1.987   3.291 -12.893  1.00  0.00     0.029 A 
ATOM     54  N   UNL     1      -3.600   1.836 -12.363  1.00  0.00    -0.354 N 
ATOM     55  C   UNL     1      -7.658   3.158 -11.686  1.00  0.00     0.074 A 
ATOM     56  C   UNL     1      -7.776   4.589 -11.857  1.00  0.00     0.031 C 
ATOM     57  C   UNL     1      -1.413   2.084 -12.761  1.00  0.00     0.029 A 
ATOM     58  C   UNL     1      -2.433   1.109 -12.389  1.00  0.00     0.049 A 
ATOM     59  H   UNL     1      -4.478   1.438 -12.163  1.00  0.00     0.167 HD
ATOM     60  C   UNL     1      -8.686   2.348 -11.341  1.00  0.00     0.034 A 
ATOM     61  C   UNL     1      -2.210  -0.196 -12.137  1.00  0.00     0.034 A 
ATOM     62  C   UNL     1      -8.575   0.920 -11.218  1.00  0.00     0.049 A 
ATOM     63  C   UNL     1      -3.378  -1.084 -11.800  1.00  0.00     0.074 A 
ATOM     64  C   UNL     1      -9.573  -0.002 -10.958  1.00  0.00     0.029 A 
ATOM     65  N   UNL     1      -7.393   0.206 -11.341  1.00  0.00    -0.354 N 
ATOM     66  N   UNL     1      -4.646  -0.771 -11.682  1.00  0.00    -0.248 NA
ATOM     67  C   UNL     1      -3.092  -2.512 -11.601  1.00  0.00     0.031 C 
ATOM     68  C   UNL     1      -8.989  -1.271 -10.898  1.00  0.00     0.029 A 
ATOM     69  C   UNL     1      -7.634  -1.144 -11.155  1.00  0.00     0.049 A 
ATOM     70  H   UNL     1      -6.511   0.601 -11.532  1.00  0.00     0.167 HD
ATOM     71  C   UNL     1      -5.313  -1.966 -11.437  1.00  0.00     0.074 A 
ATOM     72  C   UNL     1      -4.310  -3.011 -11.441  1.00  0.00     0.031 C 
ATOM     73  C   UNL     1      -6.634  -2.179 -11.218  1.00  0.00     0.034 A 
BRANCH  60  74
ATOM     74  C   UNL     1     -10.035   2.982 -11.118  1.00  0.00     0.023 A 
ATOM     75  C   UNL     1     -10.750   3.505 -12.216  1.00  0.00     0.012 A 
ATOM     76  C   UNL     1     -10.618   3.015  -9.837  1.00  0.00     0.148 A 
ATOM     77  C   UNL     1     -12.005   4.086 -12.037  1.00  0.00     0.002 A 
ATOM     78  C   UNL     1     -11.890   3.551  -9.674  1.00  0.00     0.091 A 
ATOM     79  F   UNL     1      -9.916   2.533  -8.802  1.00  0.00    -0.205 F 
ATOM     80  C   UNL     1     -12.579   4.099 -10.769  1.00  0.00     0.022 A 
BRANCH  78  81
ATOM     81  S   UNL     1     -12.752   3.542  -8.098  1.00  0.00     0.127 S 
ATOM     82  O   UNL     1     -12.745   4.962  -7.749  1.00  0.00    -0.237 OA
ATOM     83  O   UNL     1     -14.064   3.011  -8.469  1.00  0.00    -0.237 OA
ATOM     84  O   UNL     1     -11.974   2.680  -7.219  1.00  0.00    -0.744 OA
ENDBRANCH  78  81
ENDBRANCH  60  74
BRANCH  61  85
ATOM     85  C   UNL     1      -0.834  -0.755 -12.261  1.00  0.00     0.023 A 
ATOM     86  C   UNL     1      -0.537  -1.635 -13.320  1.00  0.00     0.012 A 
ATOM     87  C   UNL     1       0.184  -0.404 -11.354  1.00  0.00     0.148 A 
ATOM     88  C   UNL     1       0.739  -2.185 -13.452  1.00  0.00     0.002 A 
ATOM     89  C   UNL     1       1.467  -0.911 -11.524  1.00  0.00     0.091 A 
ATOM     90  F   UNL     1      -0.121   0.428 -10.348  1.00  0.00    -0.205 F 
ATOM     91  C   UNL     1       1.742  -1.816 -12.560  1.00  0.00     0.022 A 
BRANCH  89  92
ATOM     92  S   UNL     1       2.851  -0.390 -10.503  1.00  0.00     0.127 S 
ATOM     93  O   UNL     1       3.120  -1.596  -9.725  1.00  0.00    -0.237 OA
ATOM     94  O   UNL     1       3.862  -0.066 -11.510  1.00  0.00    -0.237 OA
ATOM     95  O   UNL     1       2.371   0.758  -9.745  1.00  0.00    -0.744 OA
ENDBRANCH  89  92
ENDBRANCH  61  85
BRANCH  73  96
ATOM     96  C   UNL     1      -7.090  -3.599 -11.014  1.00  0.00     0.023 A 
ATOM     97  C   UNL     1      -6.781  -4.275  -9.817  1.00  0.00     0.012 A 
ATOM     98  C   UNL     1      -7.894  -4.237 -11.980  1.00  0.00     0.148 A 
ATOM     99  C   UNL     1      -7.235  -5.575  -9.600  1.00  0.00     0.002 A 
ATOM    100  C   UNL     1      -8.386  -5.512 -11.735  1.00  0.00     0.091 A 
ATOM    101  F   UNL     1      -8.162  -3.584 -13.121  1.00  0.00    -0.205 F 
ATOM    102  C   UNL     1      -8.047  -6.188 -10.552  1.00  0.00     0.022 A 
BRANCH 100 103
ATOM    103  S   UNL     1      -9.520  -6.337 -12.857  1.00  0.00     0.127 S 
ATOM    104  O   UNL     1      -8.664  -7.370 -13.439  1.00  0.00    -0.237 OA
ATOM    105  O   UNL     1     -10.549  -6.840 -11.945  1.00  0.00    -0.237 OA
ATOM    106  O   UNL     1      -9.984  -5.314 -13.784  1.00  0.00    -0.744 OA
ENDBRANCH 100 103
ENDBRANCH  73  96
ENDBRANCH  47  48
ENDBRANCH  39  42
ENDBRANCH  37  38
ENDBRANCH  36  37
ENDBRANCH  35  36
ENDBRANCH  34  35
ENDBRANCH   1  34
TORSDOF 22
