REMARK SMILES O=C(CCC(=O)Nc1ccc(C(=O)N2CCOCC2)cc1)NCCCCCCNC(=O)c1ccc(-c2c3nc(c(-c4cccc(S(=O)(=O)[O-])c4F)c4ccc([nH]4)c(-c4cccc(S(=O)(=O)[O-])c4F)c4nc(c(-c5cccc(S(=O)(=O)[O-])c5F)c5ccc2[nH]5)C=C4)C=C3)cc1
REMARK SMILES IDX 25 1 24 2 23 3 22 4 1 5 2 6 3 8 4 9 5 10 6 11 7 12 8 14 9 15
REMARK SMILES IDX 21 16 10 17 20 18 11 19 12 20 13 21 14 22 15 23 19 24 16 25
REMARK SMILES IDX 18 26 17 27 26 28 27 29 28 30 29 31 30 32 31 34 32 35 33 36
REMARK SMILES IDX 94 37 34 38 93 39 35 40 36 41 37 42 87 43 38 44 92 45 86 46
REMARK SMILES IDX 88 47 39 48 91 49 85 50 84 51 40 53 72 54 52 55 71 56 53 57
REMARK SMILES IDX 56 58 70 59 89 60 54 61 55 62 69 64 90 65 57 66 41 67 42 68
REMARK SMILES IDX 50 69 43 70 45 71 51 72 44 73 46 74 47 75 48 76 49 77 73 78
REMARK SMILES IDX 74 79 82 80 75 81 77 82 83 83 76 84 78 85 79 86 80 87 81 88
REMARK SMILES IDX 58 89 59 90 67 91 60 92 62 93 68 94 61 95 63 96 64 97 65 98
REMARK SMILES IDX 66 99
REMARK H PARENT 22 7 7 13 29 33 88 52 56 63
REMARK Flexibility Score: inf
ROOT
ATOM      1  C   UNL     1       4.535   1.505   3.806  1.00  0.00     0.002 C 
ENDROOT
BRANCH   1   2
ATOM      2  C   UNL     1       3.138   0.876   3.866  1.00  0.00     0.021 C 
BRANCH   2   3
ATOM      3  C   UNL     1       2.448   0.669   2.521  1.00  0.00     0.116 C 
BRANCH   3   4
ATOM      4  N   UNL     1       3.270  -0.045   1.564  1.00  0.00    -0.356 N 
ATOM      5  O   UNL     1       1.560  -1.177   0.518  1.00  0.00    -0.275 OA
ATOM      6  C   UNL     1       2.745  -0.866   0.594  1.00  0.00     0.220 C 
ATOM      7  H   UNL     1       4.247   0.064   1.610  1.00  0.00     0.163 HD
BRANCH   6   8
ATOM      8  C   UNL     1       3.771  -1.357  -0.406  1.00  0.00     0.110 C 
BRANCH   8   9
ATOM      9  C   UNL     1       4.094  -0.389  -1.541  1.00  0.00     0.110 C 
BRANCH   9  10
ATOM     10  C   UNL     1       4.635   0.954  -1.101  1.00  0.00     0.224 C 
ATOM     11  O   UNL     1       5.849   1.055  -0.882  1.00  0.00    -0.275 OA
ATOM     12  N   UNL     1       3.875   2.058  -0.857  1.00  0.00    -0.326 N 
ATOM     13  H   UNL     1       4.413   2.871  -0.723  1.00  0.00     0.169 HD
BRANCH  12  14
ATOM     14  C   UNL     1       2.492   2.292  -0.754  1.00  0.00     0.041 A 
ATOM     15  C   UNL     1       2.095   3.448  -0.058  1.00  0.00     0.027 A 
ATOM     16  C   UNL     1       1.504   1.421  -1.192  1.00  0.00     0.027 A 
ATOM     17  C   UNL     1       0.761   3.629   0.343  1.00  0.00     0.016 A 
ATOM     18  C   UNL     1       0.182   1.589  -0.790  1.00  0.00     0.016 A 
ATOM     19  C   UNL     1      -0.183   2.654   0.033  1.00  0.00     0.040 A 
BRANCH  19  20
ATOM     20  C   UNL     1      -1.603   2.781   0.447  1.00  0.00     0.254 C 
ATOM     21  O   UNL     1      -2.132   3.885   0.460  1.00  0.00    -0.269 OA
ATOM     22  N   UNL     1      -2.294   1.594   0.610  1.00  0.00    -0.334 N 
ATOM     23  C   UNL     1      -1.911   0.543   1.556  1.00  0.00     0.148 C 
ATOM     24  C   UNL     1      -3.609   1.435   0.014  1.00  0.00     0.148 C 
ATOM     25  C   UNL     1      -2.153  -0.855   0.971  1.00  0.00     0.181 C 
ATOM     26  C   UNL     1      -3.705   0.030  -0.593  1.00  0.00     0.181 C 
ATOM     27  O   UNL     1      -3.473  -0.979   0.406  1.00  0.00    -0.378 OA
ENDBRANCH  19  20
ENDBRANCH  12  14
ENDBRANCH   9  10
ENDBRANCH   8   9
ENDBRANCH   6   8
ENDBRANCH   3   4
ENDBRANCH   2   3
ENDBRANCH   1   2
BRANCH   1  28
ATOM     28  C   UNL     1       4.634   2.871   3.121  1.00  0.00     0.002 C 
BRANCH  28  29
ATOM     29  C   UNL     1       3.844   4.010   3.769  1.00  0.00     0.021 C 
BRANCH  29  30
ATOM     30  C   UNL     1       4.039   4.193   5.273  1.00  0.00     0.116 C 
BRANCH  30  31
ATOM     31  N   UNL     1       5.433   4.305   5.670  1.00  0.00    -0.352 N 
ATOM     32  C   UNL     1       6.004   5.046   6.676  1.00  0.00     0.251 C 
ATOM     33  H   UNL     1       6.063   3.768   5.138  1.00  0.00     0.163 HD
ATOM     34  O   UNL     1       7.227   5.038   6.806  1.00  0.00    -0.269 OA
BRANCH  32  35
ATOM     35  C   UNL     1       5.173   5.882   7.574  1.00  0.00     0.039 A 
ATOM     36  C   UNL     1       5.631   7.164   7.896  1.00  0.00     0.014 A 
ATOM     37  C   UNL     1       3.967   5.423   8.109  1.00  0.00     0.014 A 
ATOM     38  C   UNL     1       4.852   8.004   8.695  1.00  0.00     0.010 A 
ATOM     39  C   UNL     1       3.160   6.285   8.853  1.00  0.00     0.010 A 
ATOM     40  C   UNL     1       3.592   7.585   9.152  1.00  0.00    -0.014 A 
BRANCH  40  41
ATOM     41  C   UNL     1       2.707   8.516   9.899  1.00  0.00     0.031 A 
ATOM     42  C   UNL     1       2.333   8.251  11.331  1.00  0.00     0.074 A 
ATOM     43  C   UNL     1       2.177   9.575   9.255  1.00  0.00     0.049 A 
ATOM     44  N   UNL     1       1.597   8.975  12.136  1.00  0.00    -0.248 NA
ATOM     45  C   UNL     1       2.826   7.002  11.932  1.00  0.00     0.031 C 
ATOM     46  C   UNL     1       2.382   9.891   7.839  1.00  0.00     0.029 A 
ATOM     47  N   UNL     1       1.346  10.572   9.700  1.00  0.00    -0.354 N 
ATOM     48  C   UNL     1       1.510   8.258  13.323  1.00  0.00     0.074 A 
ATOM     49  C   UNL     1       2.244   7.027  13.124  1.00  0.00     0.031 C 
ATOM     50  C   UNL     1       1.712  11.014   7.538  1.00  0.00     0.029 A 
ATOM     51  C   UNL     1       1.018  11.491   8.730  1.00  0.00     0.049 A 
ATOM     52  H   UNL     1       1.016  10.626  10.626  1.00  0.00     0.167 HD
ATOM     53  C   UNL     1       0.901   8.605  14.483  1.00  0.00     0.034 A 
ATOM     54  C   UNL     1       0.256  12.600   8.796  1.00  0.00     0.034 A 
ATOM     55  C   UNL     1       0.217   9.853  14.696  1.00  0.00     0.049 A 
ATOM     56  C   UNL     1      -0.353  12.995  10.113  1.00  0.00     0.074 A 
ATOM     57  C   UNL     1      -0.325  10.349  15.869  1.00  0.00     0.029 A 
ATOM     58  N   UNL     1      -0.030  10.798  13.713  1.00  0.00    -0.354 N 
ATOM     59  N   UNL     1      -0.254  12.404  11.278  1.00  0.00    -0.248 NA
ATOM     60  C   UNL     1      -1.146  14.233  10.131  1.00  0.00     0.031 C 
ATOM     61  C   UNL     1      -0.914  11.588  15.590  1.00  0.00     0.029 A 
ATOM     62  C   UNL     1      -0.729  11.869  14.246  1.00  0.00     0.049 A 
ATOM     63  H   UNL     1       0.251  10.720  12.772  1.00  0.00     0.167 HD
ATOM     64  C   UNL     1      -0.947  13.210  12.174  1.00  0.00     0.074 A 
ATOM     65  C   UNL     1      -1.435  14.347  11.420  1.00  0.00     0.031 C 
ATOM     66  C   UNL     1      -1.173  13.017  13.498  1.00  0.00     0.034 A 
BRANCH  53  67
ATOM     67  C   UNL     1       1.005   7.644  15.639  1.00  0.00     0.023 A 
ATOM     68  C   UNL     1       2.237   7.500  16.310  1.00  0.00     0.012 A 
ATOM     69  C   UNL     1      -0.117   6.924  16.094  1.00  0.00     0.148 A 
ATOM     70  C   UNL     1       2.360   6.630  17.392  1.00  0.00     0.002 A 
ATOM     71  C   UNL     1       0.005   6.088  17.199  1.00  0.00     0.091 A 
ATOM     72  F   UNL     1      -1.274   7.052  15.430  1.00  0.00    -0.205 F 
ATOM     73  C   UNL     1       1.243   5.932  17.842  1.00  0.00     0.022 A 
BRANCH  71  74
ATOM     74  S   UNL     1      -1.397   5.205  17.894  1.00  0.00     0.127 S 
ATOM     75  O   UNL     1      -1.173   3.851  17.390  1.00  0.00    -0.237 OA
ATOM     76  O   UNL     1      -1.183   5.361  19.334  1.00  0.00    -0.237 OA
ATOM     77  O   UNL     1      -2.582   5.881  17.386  1.00  0.00    -0.744 OA
ENDBRANCH  71  74
ENDBRANCH  53  67
BRANCH  54  78
ATOM     78  C   UNL     1       0.118  13.474   7.596  1.00  0.00     0.023 A 
ATOM     79  C   UNL     1       0.775  14.720   7.580  1.00  0.00     0.012 A 
ATOM     80  C   UNL     1      -0.615  13.068   6.465  1.00  0.00     0.148 A 
ATOM     81  C   UNL     1       0.685  15.558   6.469  1.00  0.00     0.002 A 
ATOM     82  C   UNL     1      -0.658  13.885   5.341  1.00  0.00     0.091 A 
ATOM     83  F   UNL     1      -1.244  11.885   6.506  1.00  0.00    -0.205 F 
ATOM     84  C   UNL     1      -0.021  15.136   5.346  1.00  0.00     0.022 A 
BRANCH  82  85
ATOM     85  S   UNL     1      -1.432  13.368   3.804  1.00  0.00     0.127 S 
ATOM     86  O   UNL     1      -2.630  14.203   3.778  1.00  0.00    -0.237 OA
ATOM     87  O   UNL     1      -0.411  13.723   2.817  1.00  0.00    -0.237 OA
ATOM     88  O   UNL     1      -1.657  11.936   3.944  1.00  0.00    -0.744 OA
ENDBRANCH  82  85
ENDBRANCH  54  78
BRANCH  66  89
ATOM     89  C   UNL     1      -1.982  14.062  14.221  1.00  0.00     0.023 A 
ATOM     90  C   UNL     1      -3.369  14.151  13.987  1.00  0.00     0.012 A 
ATOM     91  C   UNL     1      -1.385  14.922  15.163  1.00  0.00     0.148 A 
ATOM     92  C   UNL     1      -4.142  15.102  14.652  1.00  0.00     0.002 A 
ATOM     93  C   UNL     1      -2.170  15.838  15.856  1.00  0.00     0.091 A 
ATOM     94  F   UNL     1      -0.060  14.842  15.358  1.00  0.00    -0.205 F 
ATOM     95  C   UNL     1      -3.546  15.937  15.593  1.00  0.00     0.022 A 
BRANCH  93  96
ATOM     96  S   UNL     1      -1.491  16.884  17.149  1.00  0.00     0.127 S 
ATOM     97  O   UNL     1      -1.288  18.145  16.439  1.00  0.00    -0.237 OA
ATOM     98  O   UNL     1      -2.571  16.909  18.137  1.00  0.00    -0.237 OA
ATOM     99  O   UNL     1      -0.282  16.210  17.603  1.00  0.00    -0.744 OA
ENDBRANCH  93  96
ENDBRANCH  66  89
ENDBRANCH  40  41
ENDBRANCH  32  35
ENDBRANCH  30  31
ENDBRANCH  29  30
ENDBRANCH  28  29
ENDBRANCH   1  28
TORSDOF 20
