REMARK SMILES C[N@@H+]1CC[C@H]2CN(C(=O)c3csc(-c4ccncc4)n3)C[C@@]2(C(=O)NCCCCCCNC(=O)c2ccc(-c3c4nc(c(-c5cccc(S(=O)(=O)[O-])c5F)c5ccc([nH]5)c(-c5cccc(S(=O)(=O)[O-])c5F)c5nc(c(-c6cccc(S(=O)(=O)[O-])c6F)c6ccc3[nH]6)C=C5)C=C4)cc2)C1
REMARK SMILES IDX 28 1 27 2 26 3 25 4 23 5 24 6 22 8 1 9 2 10 3 11 98 12 4 14
REMARK SMILES IDX 5 15 21 16 6 17 7 18 8 19 9 20 10 21 11 22 20 23 12 24 13 25
REMARK SMILES IDX 14 26 15 27 19 28 16 29 18 30 17 31 29 32 30 33 31 34 32 35
REMARK SMILES IDX 33 36 34 38 35 39 36 40 97 41 37 42 96 43 38 44 39 45 40 46
REMARK SMILES IDX 90 47 41 48 95 49 89 50 91 51 42 52 94 53 88 54 87 55 43 57
REMARK SMILES IDX 75 58 55 59 74 60 56 61 59 62 73 63 92 64 57 65 58 66 72 68
REMARK SMILES IDX 93 69 60 70 44 71 45 72 53 73 46 74 48 75 54 76 47 77 49 78
REMARK SMILES IDX 50 79 51 80 52 81 76 82 77 83 85 84 78 85 80 86 86 87 79 88
REMARK SMILES IDX 81 89 82 90 83 91 84 92 61 93 62 94 70 95 63 96 65 97 71 98
REMARK SMILES IDX 64 99 66 100 67 101 68 102 69 103
REMARK H PARENT 25 7 2 13 32 37 91 56 59 67
REMARK Flexibility Score: inf
ROOT
ATOM      1  C   UNL     1       4.828   2.293   3.751  1.00  0.00     0.002 C 
ENDROOT
BRANCH   1   2
ATOM      2  C   UNL     1       3.900   3.310   3.090  1.00  0.00     0.021 C 
BRANCH   2   3
ATOM      3  C   UNL     1       4.219   3.649   1.632  1.00  0.00     0.116 C 
BRANCH   3   4
ATOM      4  N   UNL     1       3.760   2.728   0.569  1.00  0.00    -0.355 N 
ATOM      5  C   UNL     1       2.661   2.680  -0.286  1.00  0.00     0.234 C 
ATOM      6  O   UNL     1       2.772   2.006  -1.313  1.00  0.00    -0.274 OA
ATOM      7  H   UNL     1       4.375   1.971   0.433  1.00  0.00     0.163 HD
BRANCH   5   8
ATOM      8  C   UNL     1       1.306   3.290   0.133  1.00  0.00     0.120 C 
ATOM      9  C   UNL     1       0.686  -0.093   0.443  1.00  0.00     0.332 C 
ATOM     10  N   UNL     1      -0.020   1.134   0.813  1.00  0.00    -0.336 N 
ATOM     11  C   UNL     1      -1.041   1.417  -0.194  1.00  0.00     0.262 C 
ATOM     12  C   UNL     1       0.828   2.288   1.233  1.00  0.00     0.281 C 
ATOM     13  H   UNL     1      -0.493   0.962   1.700  1.00  0.00     0.347 HD
ATOM     14  C   UNL     1      -1.199   2.893  -0.435  1.00  0.00     0.068 C 
ATOM     15  C   UNL     1       0.134   3.494  -0.901  1.00  0.00     0.037 C 
ATOM     16  C   UNL     1       1.654   4.752   0.467  1.00  0.00     0.143 C 
ATOM     17  C   UNL     1      -0.129   5.000  -1.039  1.00  0.00     0.125 C 
ATOM     18  N   UNL     1       1.043   5.607  -0.522  1.00  0.00    -0.336 N 
BRANCH  18  19
ATOM     19  C   UNL     1       1.464   6.863  -0.943  1.00  0.00     0.273 C 
ATOM     20  O   UNL     1       0.683   7.656  -1.466  1.00  0.00    -0.267 OA
BRANCH  19  21
ATOM     21  C   UNL     1       2.891   7.195  -0.783  1.00  0.00     0.139 A 
ATOM     22  C   UNL     1       3.349   8.390  -0.262  1.00  0.00     0.101 A 
ATOM     23  N   UNL     1       3.910   6.351  -1.254  1.00  0.00    -0.231 NA
ATOM     24  S   UNL     1       5.061   8.452  -0.320  1.00  0.00    -0.122 S 
ATOM     25  C   UNL     1       5.089   6.925  -1.110  1.00  0.00     0.124 A 
BRANCH  25  26
ATOM     26  C   UNL     1       6.357   6.388  -1.615  1.00  0.00     0.013 A 
ATOM     27  C   UNL     1       6.526   6.185  -2.988  1.00  0.00     0.031 A 
ATOM     28  C   UNL     1       7.417   6.076  -0.760  1.00  0.00     0.031 A 
ATOM     29  C   UNL     1       7.735   5.682  -3.442  1.00  0.00     0.111 A 
ATOM     30  C   UNL     1       8.585   5.569  -1.311  1.00  0.00     0.111 A 
ATOM     31  N   UNL     1       8.761   5.349  -2.631  1.00  0.00    -0.265 NA
ENDBRANCH  25  26
ENDBRANCH  19  21
ENDBRANCH  18  19
ENDBRANCH   5   8
ENDBRANCH   3   4
ENDBRANCH   2   3
ENDBRANCH   1   2
BRANCH   1  32
ATOM     32  C   UNL     1       6.322   2.460   3.448  1.00  0.00     0.002 C 
BRANCH  32  33
ATOM     33  C   UNL     1       6.916   3.852   3.699  1.00  0.00     0.021 C 
BRANCH  33  34
ATOM     34  C   UNL     1       6.852   4.330   5.143  1.00  0.00     0.116 C 
BRANCH  34  35
ATOM     35  N   UNL     1       7.639   3.487   6.025  1.00  0.00    -0.352 N 
ATOM     36  C   UNL     1       8.712   3.821   6.817  1.00  0.00     0.251 C 
ATOM     37  H   UNL     1       7.366   2.542   6.061  1.00  0.00     0.163 HD
ATOM     38  O   UNL     1       9.401   2.940   7.315  1.00  0.00    -0.269 OA
BRANCH  36  39
ATOM     39  C   UNL     1       9.033   5.245   7.057  1.00  0.00     0.039 A 
ATOM     40  C   UNL     1      10.367   5.657   7.013  1.00  0.00     0.014 A 
ATOM     41  C   UNL     1       8.023   6.168   7.341  1.00  0.00     0.014 A 
ATOM     42  C   UNL     1      10.682   7.003   7.212  1.00  0.00     0.010 A 
ATOM     43  C   UNL     1       8.330   7.521   7.454  1.00  0.00     0.010 A 
ATOM     44  C   UNL     1       9.665   7.950   7.412  1.00  0.00    -0.014 A 
BRANCH  44  45
ATOM     45  C   UNL     1       9.979   9.390   7.602  1.00  0.00     0.031 A 
ATOM     46  C   UNL     1       9.619  10.078   8.893  1.00  0.00     0.074 A 
ATOM     47  C   UNL     1      10.523  10.095   6.591  1.00  0.00     0.049 A 
ATOM     48  N   UNL     1       9.772  11.332   9.229  1.00  0.00    -0.248 NA
ATOM     49  C   UNL     1       8.975   9.256   9.932  1.00  0.00     0.031 C 
ATOM     50  C   UNL     1      10.849   9.562   5.266  1.00  0.00     0.029 A 
ATOM     51  N   UNL     1      10.877  11.419   6.511  1.00  0.00    -0.354 N 
ATOM     52  C   UNL     1       9.215  11.457  10.496  1.00  0.00     0.074 A 
ATOM     53  C   UNL     1       8.682  10.161  10.853  1.00  0.00     0.031 C 
ATOM     54  C   UNL     1      11.362  10.546   4.510  1.00  0.00     0.029 A 
ATOM     55  C   UNL     1      11.372  11.785   5.282  1.00  0.00     0.049 A 
ATOM     56  H   UNL     1      10.784  12.047   7.264  1.00  0.00     0.167 HD
ATOM     57  C   UNL     1       9.176  12.543  11.305  1.00  0.00     0.034 A 
ATOM     58  C   UNL     1      11.780  12.985   4.824  1.00  0.00     0.034 A 
ATOM     59  C   UNL     1       9.741  13.820  10.963  1.00  0.00     0.049 A 
ATOM     60  C   UNL     1      11.757  14.168   5.753  1.00  0.00     0.074 A 
ATOM     61  C   UNL     1       9.829  14.958  11.744  1.00  0.00     0.029 A 
ATOM     62  N   UNL     1      10.305  14.132   9.736  1.00  0.00    -0.354 N 
ATOM     63  N   UNL     1      11.364  14.229   7.003  1.00  0.00    -0.248 NA
ATOM     64  C   UNL     1      12.268  15.440   5.223  1.00  0.00     0.031 C 
ATOM     65  C   UNL     1      10.416  15.969  10.976  1.00  0.00     0.029 A 
ATOM     66  C   UNL     1      10.732  15.448   9.732  1.00  0.00     0.049 A 
ATOM     67  H   UNL     1      10.389  13.509   8.978  1.00  0.00     0.167 HD
ATOM     68  C   UNL     1      11.619  15.530   7.420  1.00  0.00     0.074 A 
ATOM     69  C   UNL     1      12.217  16.219   6.295  1.00  0.00     0.031 C 
ATOM     70  C   UNL     1      11.372  16.107   8.622  1.00  0.00     0.034 A 
BRANCH  57  71
ATOM     71  C   UNL     1       8.533  12.385  12.660  1.00  0.00     0.023 A 
ATOM     72  C   UNL     1       9.166  11.602  13.648  1.00  0.00     0.012 A 
ATOM     73  C   UNL     1       7.332  13.051  12.973  1.00  0.00     0.148 A 
ATOM     74  C   UNL     1       8.594  11.451  14.910  1.00  0.00     0.002 A 
ATOM     75  C   UNL     1       6.794  12.937  14.249  1.00  0.00     0.091 A 
ATOM     76  F   UNL     1       6.734  13.774  12.015  1.00  0.00    -0.205 F 
ATOM     77  C   UNL     1       7.415  12.127  15.214  1.00  0.00     0.022 A 
BRANCH  75  78
ATOM     78  S   UNL     1       5.325  13.832  14.766  1.00  0.00     0.127 S 
ATOM     79  O   UNL     1       4.355  12.747  14.909  1.00  0.00    -0.237 OA
ATOM     80  O   UNL     1       5.760  14.432  16.027  1.00  0.00    -0.237 OA
ATOM     81  O   UNL     1       5.041  14.786  13.704  1.00  0.00    -0.744 OA
ENDBRANCH  75  78
ENDBRANCH  57  71
BRANCH  58  82
ATOM     82  C   UNL     1      12.298  13.116   3.433  1.00  0.00     0.023 A 
ATOM     83  C   UNL     1      13.667  13.374   3.221  1.00  0.00     0.012 A 
ATOM     84  C   UNL     1      11.447  12.968   2.321  1.00  0.00     0.148 A 
ATOM     85  C   UNL     1      14.172  13.518   1.929  1.00  0.00     0.002 A 
ATOM     86  C   UNL     1      11.967  13.056   1.036  1.00  0.00     0.091 A 
ATOM     87  F   UNL     1      10.147  12.732   2.544  1.00  0.00    -0.205 F 
ATOM     88  C   UNL     1      13.325  13.350   0.836  1.00  0.00     0.022 A 
BRANCH  86  89
ATOM     89  S   UNL     1      10.979  12.721  -0.426  1.00  0.00     0.127 S 
ATOM     90  O   UNL     1      10.880  14.047  -1.030  1.00  0.00    -0.237 OA
ATOM     91  O   UNL     1      11.826  11.773  -1.150  1.00  0.00    -0.237 OA
ATOM     92  O   UNL     1       9.729  12.155   0.065  1.00  0.00    -0.744 OA
ENDBRANCH  86  89
ENDBRANCH  58  82
BRANCH  70  93
ATOM     93  C   UNL     1      11.792  17.541   8.810  1.00  0.00     0.023 A 
ATOM     94  C   UNL     1      11.095  18.575   8.154  1.00  0.00     0.012 A 
ATOM     95  C   UNL     1      12.838  17.867   9.696  1.00  0.00     0.148 A 
ATOM     96  C   UNL     1      11.457  19.908   8.348  1.00  0.00     0.002 A 
ATOM     97  C   UNL     1      13.158  19.198   9.926  1.00  0.00     0.091 A 
ATOM     98  F   UNL     1      13.501  16.868  10.297  1.00  0.00    -0.205 F 
ATOM     99  C   UNL     1      12.479  20.220   9.242  1.00  0.00     0.022 A 
BRANCH  97 100
ATOM    100  S   UNL     1      14.389  19.698  11.135  1.00  0.00     0.127 S 
ATOM    101  O   UNL     1      15.474  20.171  10.278  1.00  0.00    -0.237 OA
ATOM    102  O   UNL     1      13.689  20.751  11.871  1.00  0.00    -0.237 OA
ATOM    103  O   UNL     1      14.687  18.508  11.921  1.00  0.00    -0.744 OA
ENDBRANCH  97 100
ENDBRANCH  70  93
ENDBRANCH  44  45
ENDBRANCH  36  39
ENDBRANCH  34  35
ENDBRANCH  33  34
ENDBRANCH  32  33
ENDBRANCH   1  32
TORSDOF 19
