REMARK SMILES O=C(NCCCCCCNC(=O)c1ccccc1/N=C/c1coc2ccccc2c1=O)c1ccc(-c2c3nc(c(-c4cccc(S(=O)(=O)[O-])c4F)c4ccc([nH]4)c(-c4cccc(S(=O)(=O)[O-])c4F)c4nc(c(-c5cccc(S(=O)(=O)[O-])c5F)c5ccc2[nH]5)C=C4)C=C3)cc1
REMARK SMILES IDX 6 1 5 2 4 3 3 4 1 5 2 6 32 8 33 9 94 10 34 11 93 12 35 13
REMARK SMILES IDX 36 14 37 15 87 16 38 17 92 18 86 19 88 20 39 21 91 22 85 23
REMARK SMILES IDX 84 24 40 26 72 27 52 28 71 29 53 30 56 31 70 32 89 33 54 34
REMARK SMILES IDX 55 35 69 37 90 38 57 39 41 40 42 41 50 42 43 43 45 44 51 45
REMARK SMILES IDX 44 46 46 47 47 48 48 49 49 50 73 51 74 52 82 53 75 54 77 55
REMARK SMILES IDX 83 56 76 57 78 58 79 59 80 60 81 61 58 62 59 63 67 64 60 65
REMARK SMILES IDX 62 66 68 67 61 68 63 69 64 70 65 71 66 72 7 73 8 74 9 75
REMARK SMILES IDX 10 76 11 77 12 79 13 80 14 81 18 82 15 83 17 84 16 85 19 86
REMARK SMILES IDX 20 87 21 88 22 89 30 90 23 91 29 92 31 93 24 94 28 95 25 96
REMARK SMILES IDX 27 97 26 98
REMARK H PARENT 3 7 88 25 56 36 10 78
REMARK Flexibility Score: inf
ROOT
ATOM      1  C   UNL     1       4.303   3.049   2.551  1.00  0.00     0.002 C 
ENDROOT
BRANCH   1   2
ATOM      2  C   UNL     1       4.897   2.413   1.293  1.00  0.00     0.021 C 
BRANCH   2   3
ATOM      3  C   UNL     1       4.579   0.940   1.069  1.00  0.00     0.116 C 
BRANCH   3   4
ATOM      4  N   UNL     1       3.162   0.695   0.884  1.00  0.00    -0.352 N 
ATOM      5  O   UNL     1       1.282  -0.014  -0.102  1.00  0.00    -0.269 OA
ATOM      6  C   UNL     1       2.509  -0.077  -0.044  1.00  0.00     0.251 C 
ATOM      7  H   UNL     1       2.575   1.154   1.527  1.00  0.00     0.163 HD
BRANCH   6   8
ATOM      8  C   UNL     1       3.245  -0.968  -0.978  1.00  0.00     0.039 A 
ATOM      9  C   UNL     1       4.367  -1.703  -0.583  1.00  0.00     0.014 A 
ATOM     10  C   UNL     1       2.732  -1.141  -2.271  1.00  0.00     0.014 A 
ATOM     11  C   UNL     1       5.013  -2.545  -1.492  1.00  0.00     0.010 A 
ATOM     12  C   UNL     1       3.346  -2.024  -3.165  1.00  0.00     0.010 A 
ATOM     13  C   UNL     1       4.498  -2.728  -2.786  1.00  0.00    -0.014 A 
BRANCH  13  14
ATOM     14  C   UNL     1       5.093  -3.751  -3.682  1.00  0.00     0.031 A 
ATOM     15  C   UNL     1       5.845  -3.370  -4.925  1.00  0.00     0.074 A 
ATOM     16  C   UNL     1       4.914  -5.052  -3.381  1.00  0.00     0.049 A 
ATOM     17  N   UNL     1       6.471  -4.148  -5.771  1.00  0.00    -0.248 NA
ATOM     18  C   UNL     1       5.902  -1.941  -5.268  1.00  0.00     0.031 C 
ATOM     19  C   UNL     1       4.141  -5.550  -2.240  1.00  0.00     0.029 A 
ATOM     20  N   UNL     1       5.354  -6.191  -4.008  1.00  0.00    -0.354 N 
ATOM     21  C   UNL     1       6.976  -3.312  -6.758  1.00  0.00     0.074 A 
ATOM     22  C   UNL     1       6.577  -1.964  -6.411  1.00  0.00     0.031 C 
ATOM     23  C   UNL     1       4.171  -6.891  -2.242  1.00  0.00     0.029 A 
ATOM     24  C   UNL     1       4.943  -7.350  -3.392  1.00  0.00     0.049 A 
ATOM     25  H   UNL     1       5.910  -6.179  -4.820  1.00  0.00     0.167 HD
ATOM     26  C   UNL     1       7.730  -3.637  -7.834  1.00  0.00     0.034 A 
ATOM     27  C   UNL     1       5.159  -8.639  -3.716  1.00  0.00     0.034 A 
ATOM     28  C   UNL     1       8.181  -4.969  -8.139  1.00  0.00     0.049 A 
ATOM     29  C   UNL     1       5.988  -8.967  -4.922  1.00  0.00     0.074 A 
ATOM     30  C   UNL     1       9.091  -5.372  -9.102  1.00  0.00     0.029 A 
ATOM     31  N   UNL     1       7.738  -6.117  -7.504  1.00  0.00    -0.354 N 
ATOM     32  N   UNL     1       6.636  -8.153  -5.718  1.00  0.00    -0.248 NA
ATOM     33  C   UNL     1       6.126 -10.389  -5.271  1.00  0.00     0.031 C 
ATOM     34  C   UNL     1       9.190  -6.768  -9.055  1.00  0.00     0.029 A 
ATOM     35  C   UNL     1       8.328  -7.232  -8.075  1.00  0.00     0.049 A 
ATOM     36  H   UNL     1       7.098  -6.137  -6.756  1.00  0.00     0.167 HD
ATOM     37  C   UNL     1       7.263  -8.960  -6.657  1.00  0.00     0.074 A 
ATOM     38  C   UNL     1       6.938 -10.331  -6.319  1.00  0.00     0.031 C 
ATOM     39  C   UNL     1       8.022  -8.592  -7.718  1.00  0.00     0.034 A 
BRANCH  26  40
ATOM     40  C   UNL     1       8.200  -2.520  -8.722  1.00  0.00     0.023 A 
ATOM     41  C   UNL     1       9.379  -1.832  -8.376  1.00  0.00     0.012 A 
ATOM     42  C   UNL     1       7.535  -2.203  -9.921  1.00  0.00     0.148 A 
ATOM     43  C   UNL     1       9.891  -0.840  -9.211  1.00  0.00     0.002 A 
ATOM     44  C   UNL     1       8.059  -1.222 -10.756  1.00  0.00     0.091 A 
ATOM     45  F   UNL     1       6.396  -2.848 -10.214  1.00  0.00    -0.205 F 
ATOM     46  C   UNL     1       9.237  -0.542 -10.404  1.00  0.00     0.022 A 
BRANCH  44  47
ATOM     47  S   UNL     1       7.299  -0.800 -12.329  1.00  0.00     0.127 S 
ATOM     48  O   UNL     1       6.541   0.399 -11.978  1.00  0.00    -0.237 OA
ATOM     49  O   UNL     1       8.460  -0.558 -13.187  1.00  0.00    -0.237 OA
ATOM     50  O   UNL     1       6.508  -1.964 -12.704  1.00  0.00    -0.744 OA
ENDBRANCH  44  47
ENDBRANCH  26  40
BRANCH  27  51
ATOM     51  C   UNL     1       4.622  -9.709  -2.833  1.00  0.00     0.023 A 
ATOM     52  C   UNL     1       5.506 -10.414  -1.995  1.00  0.00     0.012 A 
ATOM     53  C   UNL     1       3.244  -9.973  -2.755  1.00  0.00     0.148 A 
ATOM     54  C   UNL     1       5.022 -11.364  -1.094  1.00  0.00     0.002 A 
ATOM     55  C   UNL     1       2.765 -10.889  -1.823  1.00  0.00     0.091 A 
ATOM     56  F   UNL     1       2.409  -9.305  -3.566  1.00  0.00    -0.205 F 
ATOM     57  C   UNL     1       3.651 -11.593  -0.997  1.00  0.00     0.022 A 
BRANCH  55  58
ATOM     58  S   UNL     1       0.995 -11.085  -1.603  1.00  0.00     0.127 S 
ATOM     59  O   UNL     1       0.608 -11.820  -2.802  1.00  0.00    -0.237 OA
ATOM     60  O   UNL     1       0.896 -11.851  -0.359  1.00  0.00    -0.237 OA
ATOM     61  O   UNL     1       0.516  -9.711  -1.492  1.00  0.00    -0.744 OA
ENDBRANCH  55  58
ENDBRANCH  27  51
BRANCH  39  62
ATOM     62  C   UNL     1       8.525  -9.683  -8.619  1.00  0.00     0.023 A 
ATOM     63  C   UNL     1       7.661 -10.197  -9.604  1.00  0.00     0.012 A 
ATOM     64  C   UNL     1       9.849 -10.153  -8.545  1.00  0.00     0.148 A 
ATOM     65  C   UNL     1       8.104 -11.172 -10.497  1.00  0.00     0.002 A 
ATOM     66  C   UNL     1      10.292 -11.107  -9.456  1.00  0.00     0.091 A 
ATOM     67  F   UNL     1      10.653  -9.673  -7.584  1.00  0.00    -0.205 F 
ATOM     68  C   UNL     1       9.421 -11.620 -10.430  1.00  0.00     0.022 A 
BRANCH  66  69
ATOM     69  S   UNL     1      12.000 -11.664  -9.448  1.00  0.00     0.127 S 
ATOM     70  O   UNL     1      11.963 -12.748  -8.469  1.00  0.00    -0.237 OA
ATOM     71  O   UNL     1      12.210 -12.101 -10.830  1.00  0.00    -0.237 OA
ATOM     72  O   UNL     1      12.773 -10.486  -9.075  1.00  0.00    -0.744 OA
ENDBRANCH  66  69
ENDBRANCH  39  62
ENDBRANCH  13  14
ENDBRANCH   6   8
ENDBRANCH   3   4
ENDBRANCH   2   3
ENDBRANCH   1   2
BRANCH   1  73
ATOM     73  C   UNL     1       4.740   2.426   3.880  1.00  0.00     0.002 C 
BRANCH  73  74
ATOM     74  C   UNL     1       6.250   2.401   4.155  1.00  0.00     0.021 C 
BRANCH  74  75
ATOM     75  C   UNL     1       6.989   3.730   3.989  1.00  0.00     0.116 C 
BRANCH  75  76
ATOM     76  N   UNL     1       6.407   4.803   4.777  1.00  0.00    -0.352 N 
ATOM     77  C   UNL     1       7.027   5.881   5.348  1.00  0.00     0.253 C 
ATOM     78  H   UNL     1       5.435   4.746   4.920  1.00  0.00     0.163 HD
ATOM     79  O   UNL     1       6.371   6.743   5.928  1.00  0.00    -0.269 OA
BRANCH  77  80
ATOM     80  C   UNL     1       8.491   6.015   5.316  1.00  0.00     0.065 A 
ATOM     81  C   UNL     1       9.165   5.901   6.543  1.00  0.00     0.016 A 
ATOM     82  C   UNL     1       9.201   6.293   4.145  1.00  0.00     0.076 A 
ATOM     83  C   UNL     1      10.554   6.031   6.601  1.00  0.00     0.001 A 
ATOM     84  C   UNL     1      10.597   6.429   4.229  1.00  0.00     0.029 A 
ATOM     85  C   UNL     1      11.272   6.301   5.442  1.00  0.00     0.002 A 
BRANCH  82  86
ATOM     86  N   UNL     1       8.699   6.286   2.849  1.00  0.00    -0.255 NA
ATOM     87  C   UNL     1       7.700   6.995   2.435  1.00  0.00     0.127 C 
BRANCH  87  88
ATOM     88  C   UNL     1       7.459   6.925   0.975  1.00  0.00     0.076 A 
ATOM     89  C   UNL     1       8.103   7.923   0.342  1.00  0.00     0.209 A 
ATOM     90  C   UNL     1       7.582   5.600   0.317  1.00  0.00     0.201 A 
ATOM     91  O   UNL     1       8.948   7.722  -0.746  1.00  0.00    -0.463 OA
ATOM     92  C   UNL     1       8.917   5.366  -0.246  1.00  0.00     0.065 A 
ATOM     93  O   UNL     1       6.704   4.753   0.354  1.00  0.00    -0.288 OA
ATOM     94  C   UNL     1       9.583   6.494  -0.729  1.00  0.00     0.137 A 
ATOM     95  C   UNL     1       9.559   4.137  -0.115  1.00  0.00     0.016 A 
ATOM     96  C   UNL     1      10.919   6.402  -1.096  1.00  0.00     0.048 A 
ATOM     97  C   UNL     1      10.909   4.053  -0.450  1.00  0.00     0.001 A 
ATOM     98  C   UNL     1      11.586   5.181  -0.936  1.00  0.00     0.004 A 
ENDBRANCH  87  88
ENDBRANCH  82  86
ENDBRANCH  77  80
ENDBRANCH  75  76
ENDBRANCH  74  75
ENDBRANCH  73  74
ENDBRANCH   1  73
TORSDOF 18
