REMARK SMILES COc1cc(/C=C2/CCc3c2nc2ccccc2c3C(=O)NCCCCCCNC(=O)c2ccc(-c3c4nc(c(-c5cccc(S(=O)(=O)[O-])c5F)c5ccc([nH]5)c(-c5cccc(S(=O)(=O)[O-])c5F)c5nc(c(-c6cccc(S(=O)(=O)[O-])c6F)c6ccc3[nH]6)C=C5)C=C4)cc2)cc(Br)c1O
REMARK SMILES IDX 26 1 25 2 24 3 23 4 22 5 20 6 21 7 19 9 6 10 7 11 8 12 11 13
REMARK SMILES IDX 9 14 10 15 12 16 13 17 18 18 14 19 17 20 15 21 16 22 5 23
REMARK SMILES IDX 3 24 4 25 98 26 96 27 95 28 97 29 2 30 1 31 99 32 27 34
REMARK SMILES IDX 28 35 29 36 30 37 31 39 32 40 33 41 94 42 34 43 93 44 35 45
REMARK SMILES IDX 36 46 37 47 87 48 38 49 92 50 86 51 88 52 39 53 91 54 85 55
REMARK SMILES IDX 84 56 40 58 72 59 52 60 71 61 53 62 56 63 70 64 89 65 54 66
REMARK SMILES IDX 55 67 69 69 90 70 57 71 41 72 42 73 50 74 43 75 45 76 51 77
REMARK SMILES IDX 44 78 46 79 47 80 48 81 49 82 73 83 74 84 82 85 75 86 77 87
REMARK SMILES IDX 83 88 76 89 78 90 79 91 80 92 81 93 58 94 59 95 67 96 60 97
REMARK SMILES IDX 62 98 68 99 61 100 63 101 64 102 65 103 66 104
REMARK H PARENT 22 8 99 33 29 38 88 57 56 68
REMARK Flexibility Score: inf
ROOT
ATOM      1  C   UNL     1       0.239  -9.221  -6.883  1.00  0.00     0.002 C 
ENDROOT
BRANCH   1   2
ATOM      2  C   UNL     1       1.232  -8.916  -5.758  1.00  0.00     0.002 C 
BRANCH   2   3
ATOM      3  C   UNL     1       1.631  -7.451  -5.698  1.00  0.00     0.021 C 
BRANCH   3   4
ATOM      4  C   UNL     1       0.479  -6.638  -5.164  1.00  0.00     0.116 C 
BRANCH   4   5
ATOM      5  N   UNL     1       0.854  -5.817  -3.976  1.00  0.00    -0.352 N 
ATOM      6  C   UNL     1       2.091  -5.146  -3.612  1.00  0.00     0.252 C 
ATOM      7  O   UNL     1       3.049  -5.862  -3.333  1.00  0.00    -0.269 OA
ATOM      8  H   UNL     1       0.130  -5.710  -3.317  1.00  0.00     0.163 HD
BRANCH   6   9
ATOM      9  C   UNL     1       2.166  -3.438  -3.324  1.00  0.00     0.054 A 
ATOM     10  C   UNL     1      -0.636  -3.701  -3.815  1.00  0.00     0.014 C 
ATOM     11  C   UNL     1       0.117  -3.074  -4.846  1.00  0.00    -0.021 C 
ATOM     12  C   UNL     1       0.972  -3.756  -6.065  1.00  0.00     0.042 C 
ATOM     13  C   UNL     1       1.169  -1.979  -4.686  1.00  0.00     0.071 A 
ATOM     14  C   UNL     1       2.461  -3.322  -5.884  1.00  0.00     0.043 C 
ATOM     15  C   UNL     1       2.291  -2.748  -4.517  1.00  0.00    -0.008 A 
ATOM     16  N   UNL     1       0.931  -0.838  -4.098  1.00  0.00    -0.248 NA
ATOM     17  C   UNL     1       0.895  -1.032  -2.830  1.00  0.00     0.072 A 
ATOM     18  C   UNL     1       1.385  -2.633  -2.102  1.00  0.00     0.013 A 
ATOM     19  C   UNL     1      -0.135   0.079  -1.946  1.00  0.00     0.029 A 
ATOM     20  C   UNL     1       0.587  -2.926  -0.257  1.00  0.00     0.011 A 
ATOM     21  C   UNL     1      -0.846  -0.258  -0.365  1.00  0.00     0.002 A 
ATOM     22  C   UNL     1      -0.507  -1.729   0.509  1.00  0.00     0.001 A 
BRANCH  10  23
ATOM     23  C   UNL     1      -0.394  -3.759  -2.078  1.00  0.00    -0.020 A 
ATOM     24  C   UNL     1       1.260  -1.224  -0.748  1.00  0.00     0.162 A 
ATOM     25  C   UNL     1      -0.376  -2.053  -1.595  1.00  0.00     0.058 A 
ATOM     26  C   UNL     1       2.657  -2.275  -0.413  1.00  0.00     0.172 A 
ATOM     27  C   UNL     1       2.500  -3.976  -0.711  1.00  0.00     0.064 A 
ATOM     28  C   UNL     1       1.006  -4.702  -1.422  1.00  0.00     0.028 A 
ATOM     29  Br  UNL     1       4.058  -5.030  -0.433  1.00  0.00    -0.047 Br
BRANCH  24  30
ATOM     30  O   UNL     1       1.397  -0.270   0.334  1.00  0.00    -0.493 OA
ATOM     31  C   UNL     1       1.760   1.087   0.170  1.00  0.00     0.278 C 
ENDBRANCH  24  30
BRANCH  26  32
ATOM     32  O   UNL     1       3.850  -1.692  -0.091  1.00  0.00    -0.503 OA
ATOM     33  H   UNL     1       3.894  -0.769   0.062  1.00  0.00     0.293 HD
ENDBRANCH  26  32
ENDBRANCH  10  23
ENDBRANCH   6   9
ENDBRANCH   4   5
ENDBRANCH   3   4
ENDBRANCH   2   3
ENDBRANCH   1   2
BRANCH   1  34
ATOM     34  C   UNL     1       0.706  -8.730  -8.253  1.00  0.00     0.021 C 
BRANCH  34  35
ATOM     35  C   UNL     1       2.129  -9.170  -8.564  1.00  0.00     0.116 C 
BRANCH  35  36
ATOM     36  N   UNL     1       2.214 -10.625  -8.542  1.00  0.00    -0.352 N 
ATOM     37  C   UNL     1       2.385 -11.450  -9.624  1.00  0.00     0.251 C 
ATOM     38  H   UNL     1       2.140 -11.060  -7.662  1.00  0.00     0.163 HD
ATOM     39  O   UNL     1       2.030 -12.620  -9.600  1.00  0.00    -0.269 OA
BRANCH  37  40
ATOM     40  C   UNL     1       3.004 -10.839 -10.810  1.00  0.00     0.039 A 
ATOM     41  C   UNL     1       4.130 -10.029 -10.622  1.00  0.00     0.014 A 
ATOM     42  C   UNL     1       2.365 -10.926 -12.043  1.00  0.00     0.014 A 
ATOM     43  C   UNL     1       4.504  -9.155 -11.625  1.00  0.00     0.010 A 
ATOM     44  C   UNL     1       2.825 -10.130 -13.087  1.00  0.00     0.010 A 
ATOM     45  C   UNL     1       3.860  -9.202 -12.869  1.00  0.00    -0.014 A 
BRANCH  45  46
ATOM     46  C   UNL     1       4.268  -8.273 -13.944  1.00  0.00     0.031 A 
ATOM     47  C   UNL     1       3.279  -7.309 -14.534  1.00  0.00     0.074 A 
ATOM     48  C   UNL     1       5.534  -8.320 -14.399  1.00  0.00     0.049 A 
ATOM     49  N   UNL     1       3.421  -6.526 -15.570  1.00  0.00    -0.248 NA
ATOM     50  C   UNL     1       1.960  -7.208 -13.883  1.00  0.00     0.031 C 
ATOM     51  C   UNL     1       6.590  -9.195 -13.881  1.00  0.00     0.029 A 
ATOM     52  N   UNL     1       6.142  -7.630 -15.414  1.00  0.00    -0.354 N 
ATOM     53  C   UNL     1       2.202  -5.882 -15.730  1.00  0.00     0.074 A 
ATOM     54  C   UNL     1       1.326  -6.359 -14.682  1.00  0.00     0.031 C 
ATOM     55  C   UNL     1       7.714  -8.988 -14.578  1.00  0.00     0.029 A 
ATOM     56  C   UNL     1       7.437  -8.028 -15.638  1.00  0.00     0.049 A 
ATOM     57  H   UNL     1       5.696  -6.920 -15.930  1.00  0.00     0.167 HD
ATOM     58  C   UNL     1       1.852  -4.971 -16.665  1.00  0.00     0.034 A 
ATOM     59  C   UNL     1       8.296  -7.699 -16.618  1.00  0.00     0.034 A 
ATOM     60  C   UNL     1       2.738  -4.482 -17.686  1.00  0.00     0.049 A 
ATOM     61  C   UNL     1       7.864  -6.726 -17.670  1.00  0.00     0.074 A 
ATOM     62  C   UNL     1       2.480  -3.532 -18.657  1.00  0.00     0.029 A 
ATOM     63  N   UNL     1       4.042  -4.909 -17.878  1.00  0.00    -0.354 N 
ATOM     64  N   UNL     1       6.724  -6.091 -17.781  1.00  0.00    -0.248 NA
ATOM     65  C   UNL     1       8.840  -6.409 -18.720  1.00  0.00     0.031 C 
ATOM     66  C   UNL     1       3.614  -3.413 -19.463  1.00  0.00     0.029 A 
ATOM     67  C   UNL     1       4.595  -4.255 -18.965  1.00  0.00     0.049 A 
ATOM     68  H   UNL     1       4.506  -5.577 -17.324  1.00  0.00     0.167 HD
ATOM     69  C   UNL     1       6.849  -5.282 -18.903  1.00  0.00     0.074 A 
ATOM     70  C   UNL     1       8.186  -5.492 -19.421  1.00  0.00     0.031 C 
ATOM     71  C   UNL     1       5.933  -4.452 -19.456  1.00  0.00     0.034 A 
BRANCH  58  72
ATOM     72  C   UNL     1       0.456  -4.414 -16.636  1.00  0.00     0.023 A 
ATOM     73  C   UNL     1       0.113  -3.440 -15.680  1.00  0.00     0.012 A 
ATOM     74  C   UNL     1      -0.470  -4.767 -17.637  1.00  0.00     0.148 A 
ATOM     75  C   UNL     1      -1.133  -2.815 -15.726  1.00  0.00     0.002 A 
ATOM     76  C   UNL     1      -1.701  -4.127 -17.689  1.00  0.00     0.091 A 
ATOM     77  F   UNL     1      -0.118  -5.702 -18.531  1.00  0.00    -0.205 F 
ATOM     78  C   UNL     1      -2.032  -3.147 -16.738  1.00  0.00     0.022 A 
BRANCH  76  79
ATOM     79  S   UNL     1      -2.928  -4.477 -18.952  1.00  0.00     0.127 S 
ATOM     80  O   UNL     1      -4.035  -4.994 -18.148  1.00  0.00    -0.237 OA
ATOM     81  O   UNL     1      -3.160  -3.154 -19.530  1.00  0.00    -0.237 OA
ATOM     82  O   UNL     1      -2.318  -5.445 -19.852  1.00  0.00    -0.744 OA
ENDBRANCH  76  79
ENDBRANCH  58  72
BRANCH  59  83
ATOM     83  C   UNL     1       9.654  -8.300 -16.618  1.00  0.00     0.023 A 
ATOM     84  C   UNL     1      10.753  -7.511 -16.233  1.00  0.00     0.012 A 
ATOM     85  C   UNL     1       9.846  -9.664 -16.916  1.00  0.00     0.148 A 
ATOM     86  C   UNL     1      12.026  -8.072 -16.142  1.00  0.00     0.002 A 
ATOM     87  C   UNL     1      11.112 -10.222 -16.800  1.00  0.00     0.091 A 
ATOM     88  F   UNL     1       8.776 -10.392 -17.264  1.00  0.00    -0.205 F 
ATOM     89  C   UNL     1      12.203  -9.427 -16.414  1.00  0.00     0.022 A 
BRANCH  87  90
ATOM     90  S   UNL     1      11.435 -11.964 -17.090  1.00  0.00     0.127 S 
ATOM     91  O   UNL     1      12.376 -11.906 -18.207  1.00  0.00    -0.237 OA
ATOM     92  O   UNL     1      12.019 -12.375 -15.813  1.00  0.00    -0.237 OA
ATOM     93  O   UNL     1      10.144 -12.565 -17.394  1.00  0.00    -0.744 OA
ENDBRANCH  87  90
ENDBRANCH  59  83
BRANCH  71  94
ATOM     94  C   UNL     1       6.339  -3.683 -20.684  1.00  0.00     0.023 A 
ATOM     95  C   UNL     1       6.455  -4.350 -21.918  1.00  0.00     0.012 A 
ATOM     96  C   UNL     1       6.523  -2.288 -20.626  1.00  0.00     0.148 A 
ATOM     97  C   UNL     1       6.769  -3.642 -23.076  1.00  0.00     0.002 A 
ATOM     98  C   UNL     1       6.811  -1.584 -21.788  1.00  0.00     0.091 A 
ATOM     99  F   UNL     1       6.400  -1.676 -19.439  1.00  0.00    -0.205 F 
ATOM    100  C   UNL     1       6.936  -2.260 -23.014  1.00  0.00     0.022 A 
BRANCH  98 101
ATOM    101  S   UNL     1       7.027   0.198 -21.813  1.00  0.00     0.127 S 
ATOM    102  O   UNL     1       8.442   0.318 -22.163  1.00  0.00    -0.237 OA
ATOM    103  O   UNL     1       6.100   0.608 -22.867  1.00  0.00    -0.237 OA
ATOM    104  O   UNL     1       6.681   0.668 -20.478  1.00  0.00    -0.744 OA
ENDBRANCH  98 101
ENDBRANCH  71  94
ENDBRANCH  45  46
ENDBRANCH  37  40
ENDBRANCH  35  36
ENDBRANCH  34  35
ENDBRANCH   1  34
TORSDOF 19
