REMARK SMILES Cc1c(NCc2ccccn2)cccc1C(=O)N1CCOC[C@@H]1CC(=O)NCCCCCCNC(=O)c1ccc(-c2c3nc(c(-c4cccc(S(=O)(=O)[O-])c4F)c4ccc([nH]4)c(-c4cccc(S(=O)(=O)[O-])c4F)c4nc(c(-c5cccc(S(=O)(=O)[O-])c5F)c5ccc2[nH]5)C=C4)C=C3)cc1
REMARK SMILES IDX 29 1 28 2 27 3 25 4 26 5 24 7 23 8 18 9 19 10 20 11 22 12
REMARK SMILES IDX 21 13 16 14 17 15 15 16 1 17 2 18 3 19 12 20 14 21 13 22
REMARK SMILES IDX 4 23 5 25 6 26 7 27 11 28 8 29 10 30 9 31 30 32 31 33 32 34
REMARK SMILES IDX 33 35 34 36 35 37 36 39 37 40 38 41 99 42 39 43 98 44 40 45
REMARK SMILES IDX 41 46 42 47 92 48 43 49 97 50 91 51 93 52 44 53 96 54 90 55
REMARK SMILES IDX 89 56 45 58 77 59 57 60 76 61 58 62 61 63 75 64 94 65 59 66
REMARK SMILES IDX 60 67 74 69 95 70 62 71 46 72 47 73 55 74 48 75 50 76 56 77
REMARK SMILES IDX 49 78 51 79 52 80 53 81 54 82 78 83 79 84 87 85 80 86 82 87
REMARK SMILES IDX 88 88 81 89 83 90 84 91 85 92 86 93 63 94 64 95 72 96 65 97
REMARK SMILES IDX 67 98 73 99 66 100 68 101 69 102 70 103 71 104
REMARK H PARENT 27 6 4 24 34 38 93 57 61 68
REMARK Flexibility Score: inf
ROOT
ATOM      1  C   UNL     1       1.094   0.976   2.568  1.00  0.00     0.021 C 
ENDROOT
BRANCH   1   2
ATOM      2  C   UNL     1       0.459   2.301   2.986  1.00  0.00     0.116 C 
BRANCH   2   3
ATOM      3  N   UNL     1       1.399   3.011   3.816  1.00  0.00    -0.356 N 
ATOM      4  C   UNL     1       2.538   3.615   3.376  1.00  0.00     0.222 C 
ATOM      5  O   UNL     1       3.490   3.710   4.150  1.00  0.00    -0.275 OA
ATOM      6  H   UNL     1       1.202   3.064   4.779  1.00  0.00     0.163 HD
BRANCH   4   7
ATOM      7  C   UNL     1       2.569   4.238   1.996  1.00  0.00     0.127 C 
BRANCH   7   8
ATOM      8  C   UNL     1       3.293   3.519   0.847  1.00  0.00     0.120 C 
ATOM      9  N   UNL     1       2.511   2.691  -0.117  1.00  0.00    -0.331 N 
ATOM     10  C   UNL     1       3.355   2.366  -1.286  1.00  0.00     0.148 C 
ATOM     11  C   UNL     1       4.697   1.719  -0.879  1.00  0.00     0.181 C 
ATOM     12  C   UNL     1       4.515   2.689   1.293  1.00  0.00     0.185 C 
ATOM     13  O   UNL     1       5.372   2.447   0.160  1.00  0.00    -0.377 OA
BRANCH   9  14
ATOM     14  C   UNL     1       1.162   2.948  -0.362  1.00  0.00     0.254 C 
ATOM     15  O   UNL     1       0.714   4.088  -0.448  1.00  0.00    -0.269 OA
BRANCH  14  16
ATOM     16  C   UNL     1       0.180   1.809  -0.328  1.00  0.00     0.045 A 
ATOM     17  C   UNL     1       2.042  -0.398  -0.554  1.00  0.00     0.047 C 
ATOM     18  C   UNL     1       0.623   0.056  -0.414  1.00  0.00    -0.015 A 
ATOM     19  C   UNL     1      -0.663  -1.212  -0.289  1.00  0.00     0.038 A 
ATOM     20  C   UNL     1      -2.397  -0.752  -0.116  1.00  0.00     0.026 A 
ATOM     21  C   UNL     1      -1.561   2.281  -0.169  1.00  0.00     0.014 A 
ATOM     22  C   UNL     1      -2.847   1.001  -0.038  1.00  0.00     0.003 A 
BRANCH  19  23
ATOM     23  N   UNL     1      -0.307  -2.550  -0.355  1.00  0.00    -0.379 N 
ATOM     24  H   UNL     1       0.440  -2.898   0.184  1.00  0.00     0.160 HD
BRANCH  23  25
ATOM     25  C   UNL     1      -1.060  -3.430  -1.237  1.00  0.00     0.169 C 
BRANCH  25  26
ATOM     26  C   UNL     1      -0.275  -3.754  -2.499  1.00  0.00     0.059 A 
ATOM     27  C   UNL     1       1.392  -3.050  -2.828  1.00  0.00     0.026 A 
ATOM     28  N   UNL     1      -0.808  -5.291  -3.290  1.00  0.00    -0.259 NA
ATOM     29  C   UNL     1       2.550  -3.965  -3.930  1.00  0.00     0.004 A 
ATOM     30  C   UNL     1       0.297  -6.210  -4.369  1.00  0.00     0.111 A 
ATOM     31  C   UNL     1       1.996  -5.624  -4.668  1.00  0.00     0.020 A 
ENDBRANCH  25  26
ENDBRANCH  23  25
ENDBRANCH  19  23
ENDBRANCH  14  16
ENDBRANCH   9  14
ENDBRANCH   7   8
ENDBRANCH   4   7
ENDBRANCH   2   3
ENDBRANCH   1   2
BRANCH   1  32
ATOM     32  C   UNL     1       0.141  -0.074   1.989  1.00  0.00     0.002 C 
BRANCH  32  33
ATOM     33  C   UNL     1      -1.010   0.489   0.865  1.00  0.00     0.002 C 
BRANCH  33  34
ATOM     34  C   UNL     1      -1.237   0.530  -1.309  1.00  0.00     0.021 C 
BRANCH  34  35
ATOM     35  C   UNL     1      -1.739  -0.520  -2.536  1.00  0.00     0.116 C 
BRANCH  35  36
ATOM     36  N   UNL     1      -3.166  -0.803  -2.779  1.00  0.00    -0.352 N 
ATOM     37  C   UNL     1      -3.816  -1.315  -3.900  1.00  0.00     0.251 C 
ATOM     38  H   UNL     1      -3.759  -0.594  -2.022  1.00  0.00     0.163 HD
ATOM     39  O   UNL     1      -5.038  -1.431  -3.876  1.00  0.00    -0.269 OA
BRANCH  37  40
ATOM     40  C   UNL     1      -3.026  -1.857  -5.044  1.00  0.00     0.039 A 
ATOM     41  C   UNL     1      -3.173  -3.230  -5.236  1.00  0.00     0.014 A 
ATOM     42  C   UNL     1      -1.815  -1.256  -5.333  1.00  0.00     0.014 A 
ATOM     43  C   UNL     1      -2.034  -4.023  -5.204  1.00  0.00     0.010 A 
ATOM     44  C   UNL     1      -0.691  -2.027  -5.102  1.00  0.00     0.010 A 
ATOM     45  C   UNL     1      -0.812  -3.420  -4.889  1.00  0.00    -0.014 A 
BRANCH  45  46
ATOM     46  C   UNL     1       0.566  -4.186  -4.390  1.00  0.00     0.031 A 
ATOM     47  C   UNL     1       1.332  -3.858  -6.040  1.00  0.00     0.074 A 
ATOM     48  C   UNL     1       1.208  -5.110  -2.888  1.00  0.00     0.049 A 
ATOM     49  N   UNL     1       2.590  -4.047  -6.303  1.00  0.00    -0.248 NA
ATOM     50  C   UNL     1       0.670  -3.411  -7.290  1.00  0.00     0.031 C 
ATOM     51  C   UNL     1       2.770  -5.631  -2.340  1.00  0.00     0.029 A 
ATOM     52  N   UNL     1       0.640  -5.788  -1.628  1.00  0.00    -0.354 N 
ATOM     53  C   UNL     1       2.891  -3.914  -7.609  1.00  0.00     0.074 A 
ATOM     54  C   UNL     1       1.691  -3.356  -8.170  1.00  0.00     0.031 C 
ATOM     55  C   UNL     1       2.696  -6.654  -1.480  1.00  0.00     0.029 A 
ATOM     56  C   UNL     1       1.319  -7.005  -1.410  1.00  0.00     0.049 A 
ATOM     57  H   UNL     1      -0.083  -5.429  -1.064  1.00  0.00     0.167 HD
ATOM     58  C   UNL     1       4.168  -4.256  -7.930  1.00  0.00     0.034 A 
ATOM     59  C   UNL     1       0.792  -8.181  -1.856  1.00  0.00     0.034 A 
ATOM     60  C   UNL     1       4.716  -5.270  -6.961  1.00  0.00     0.049 A 
ATOM     61  C   UNL     1       1.703  -8.806  -2.937  1.00  0.00     0.074 A 
ATOM     62  C   UNL     1       5.469  -5.180  -5.797  1.00  0.00     0.029 A 
ATOM     63  N   UNL     1       4.244  -6.596  -6.984  1.00  0.00    -0.354 N 
ATOM     64  N   UNL     1       2.532  -8.163  -3.737  1.00  0.00    -0.248 NA
ATOM     65  C   UNL     1       1.843 -10.247  -3.074  1.00  0.00     0.031 C 
ATOM     66  C   UNL     1       5.331  -6.405  -5.062  1.00  0.00     0.029 A 
ATOM     67  C   UNL     1       4.526  -7.282  -5.780  1.00  0.00     0.049 A 
ATOM     68  H   UNL     1       3.772  -6.998  -7.748  1.00  0.00     0.167 HD
ATOM     69  C   UNL     1       3.251  -9.036  -4.525  1.00  0.00     0.074 A 
ATOM     70  C   UNL     1       2.836 -10.332  -3.978  1.00  0.00     0.031 C 
ATOM     71  C   UNL     1       4.102  -8.692  -5.567  1.00  0.00     0.034 A 
BRANCH  58  72
ATOM     72  C   UNL     1       5.016  -3.409  -8.864  1.00  0.00     0.023 A 
ATOM     73  C   UNL     1       6.418  -3.484  -8.694  1.00  0.00     0.012 A 
ATOM     74  C   UNL     1       4.553  -2.431  -9.779  1.00  0.00     0.148 A 
ATOM     75  C   UNL     1       7.303  -2.611  -9.339  1.00  0.00     0.002 A 
ATOM     76  C   UNL     1       5.436  -1.555 -10.422  1.00  0.00     0.091 A 
ATOM     77  F   UNL     1       3.250  -2.328 -10.038  1.00  0.00    -0.205 F 
ATOM     78  C   UNL     1       6.812  -1.637 -10.195  1.00  0.00     0.022 A 
BRANCH  76  79
ATOM     79  S   UNL     1       4.883  -0.244 -11.534  1.00  0.00     0.127 S 
ATOM     80  O   UNL     1       5.380   0.957 -10.862  1.00  0.00    -0.237 OA
ATOM     81  O   UNL     1       5.578  -0.577 -12.776  1.00  0.00    -0.237 OA
ATOM     82  O   UNL     1       3.430  -0.343 -11.598  1.00  0.00    -0.744 OA
ENDBRANCH  76  79
ENDBRANCH  58  72
BRANCH  59  83
ATOM     83  C   UNL     1      -0.724  -8.192  -1.717  1.00  0.00     0.023 A 
ATOM     84  C   UNL     1      -1.250  -7.705  -0.479  1.00  0.00     0.012 A 
ATOM     85  C   UNL     1      -1.611  -8.265  -2.800  1.00  0.00     0.148 A 
ATOM     86  C   UNL     1      -2.504  -7.090  -0.396  1.00  0.00     0.002 A 
ATOM     87  C   UNL     1      -2.868  -7.643  -2.715  1.00  0.00     0.091 A 
ATOM     88  F   UNL     1      -1.204  -8.882  -3.918  1.00  0.00    -0.205 F 
ATOM     89  C   UNL     1      -3.293  -7.014  -1.532  1.00  0.00     0.022 A 
BRANCH  87  90
ATOM     90  S   UNL     1      -3.938  -7.461  -4.151  1.00  0.00     0.127 S 
ATOM     91  O   UNL     1      -4.884  -8.557  -3.947  1.00  0.00    -0.237 OA
ATOM     92  O   UNL     1      -4.518  -6.129  -3.977  1.00  0.00    -0.237 OA
ATOM     93  O   UNL     1      -3.058  -7.594  -5.306  1.00  0.00    -0.744 OA
ENDBRANCH  87  90
ENDBRANCH  59  83
BRANCH  71  94
ATOM     94  C   UNL     1       4.675  -9.727  -6.540  1.00  0.00     0.023 A 
ATOM     95  C   UNL     1       4.084 -10.991  -6.732  1.00  0.00     0.012 A 
ATOM     96  C   UNL     1       5.752  -9.406  -7.407  1.00  0.00     0.148 A 
ATOM     97  C   UNL     1       4.594 -11.928  -7.634  1.00  0.00     0.002 A 
ATOM     98  C   UNL     1       6.152 -10.282  -8.413  1.00  0.00     0.091 A 
ATOM     99  F   UNL     1       6.421  -8.255  -7.259  1.00  0.00    -0.205 F 
ATOM    100  C   UNL     1       5.613 -11.564  -8.496  1.00  0.00     0.022 A 
BRANCH  98 101
ATOM    101  S   UNL     1       7.219  -9.731  -9.752  1.00  0.00     0.127 S 
ATOM    102  O   UNL     1       8.529 -10.199  -9.306  1.00  0.00    -0.237 OA
ATOM    103  O   UNL     1       6.669 -10.452 -10.901  1.00  0.00    -0.237 OA
ATOM    104  O   UNL     1       7.035  -8.287  -9.812  1.00  0.00    -0.744 OA
ENDBRANCH  98 101
ENDBRANCH  71  94
ENDBRANCH  45  46
ENDBRANCH  37  40
ENDBRANCH  35  36
ENDBRANCH  34  35
ENDBRANCH  33  34
ENDBRANCH  32  33
ENDBRANCH   1  32
TORSDOF 22
