REMARK SMILES C[C@@H](Sc1ccccc1[N+](=O)[O-])[C@@H](C)C(=O)NCCCCCCNC(=O)c1ccc(-c2c3nc(c(-c4cccc(S(=O)(=O)[O-])c4F)c4ccc([nH]4)c(-c4cccc(S(=O)(=O)[O-])c4F)c4nc(c(-c5cccc(S(=O)(=O)[O-])c5F)c5ccc2[nH]5)C=C4)C=C3)cc1
REMARK SMILES IDX 20 1 19 2 18 3 17 4 15 5 16 6 13 8 14 9 2 10 1 11 3 12 4 13
REMARK SMILES IDX 5 14 9 15 6 16 8 17 7 18 10 19 11 20 12 21 21 22 22 23 23 24
REMARK SMILES IDX 24 25 25 26 26 28 27 29 28 30 89 31 29 32 88 33 30 34 31 35
REMARK SMILES IDX 32 36 82 37 33 38 87 39 81 40 83 41 34 42 86 43 80 44 79 45
REMARK SMILES IDX 35 47 67 48 47 49 66 50 48 51 51 52 65 53 84 54 49 55 50 56
REMARK SMILES IDX 64 58 85 59 52 60 36 61 37 62 45 63 38 64 40 65 46 66 39 67
REMARK SMILES IDX 41 68 42 69 43 70 44 71 68 72 69 73 77 74 70 75 72 76 78 77
REMARK SMILES IDX 71 78 73 79 74 80 75 81 76 82 53 83 54 84 62 85 55 86 57 87
REMARK SMILES IDX 63 88 56 89 58 90 59 91 60 92 61 93
REMARK H PARENT 17 7 24 27 83 46 51 57
REMARK Flexibility Score: inf
ROOT
ATOM      1  C   UNL     1       0.533   3.063   5.405  1.00  0.00     0.002 C 
ENDROOT
BRANCH   1   2
ATOM      2  C   UNL     1       0.952   2.053   4.329  1.00  0.00     0.021 C 
BRANCH   2   3
ATOM      3  C   UNL     1      -0.215   1.280   3.720  1.00  0.00     0.116 C 
BRANCH   3   4
ATOM      4  N   UNL     1      -1.042   2.158   2.917  1.00  0.00    -0.356 N 
ATOM      5  C   UNL     1      -1.350   2.149   1.596  1.00  0.00     0.223 C 
ATOM      6  O   UNL     1      -2.080   3.053   1.179  1.00  0.00    -0.275 OA
ATOM      7  H   UNL     1      -1.455   2.896   3.421  1.00  0.00     0.163 HD
BRANCH   5   8
ATOM      8  C   UNL     1      -0.923   1.016   0.669  1.00  0.00     0.088 C 
ATOM      9  C   UNL     1      -1.649  -0.265   1.113  1.00  0.00     0.019 C 
BRANCH   8  10
ATOM     10  C   UNL     1       0.608   0.868   0.441  1.00  0.00     0.061 C 
ATOM     11  C   UNL     1       0.887  -0.402  -0.375  1.00  0.00     0.020 C 
BRANCH  10  12
ATOM     12  S   UNL     1       1.256   2.340  -0.498  1.00  0.00    -0.115 SA
BRANCH  12  13
ATOM     13  C   UNL     1       2.943   2.596   0.098  1.00  0.00     0.085 A 
ATOM     14  C   UNL     1       3.782   1.487   0.302  1.00  0.00     0.022 A 
ATOM     15  C   UNL     1       3.547   3.868   0.213  1.00  0.00     0.282 A 
ATOM     16  C   UNL     1       5.151   1.625   0.570  1.00  0.00     0.002 A 
ATOM     17  C   UNL     1       4.927   4.009   0.485  1.00  0.00     0.087 A 
ATOM     18  C   UNL     1       5.727   2.884   0.649  1.00  0.00     0.007 A 
BRANCH  15  19
ATOM     19  N   UNL     1       2.793   5.115   0.074  1.00  0.00     0.063 N 
ATOM     20  O   UNL     1       3.377   6.069  -0.466  1.00  0.00    -0.258 OA
ATOM     21  O   UNL     1       1.663   5.181   0.572  1.00  0.00    -0.258 OA
ENDBRANCH  15  19
ENDBRANCH  12  13
ENDBRANCH  10  12
ENDBRANCH   8  10
ENDBRANCH   5   8
ENDBRANCH   3   4
ENDBRANCH   2   3
ENDBRANCH   1   2
BRANCH   1  22
ATOM     22  C   UNL     1      -0.233   2.466   6.591  1.00  0.00     0.002 C 
BRANCH  22  23
ATOM     23  C   UNL     1       0.468   1.303   7.296  1.00  0.00     0.021 C 
BRANCH  23  24
ATOM     24  C   UNL     1       1.860   1.627   7.826  1.00  0.00     0.116 C 
BRANCH  24  25
ATOM     25  N   UNL     1       1.833   2.684   8.825  1.00  0.00    -0.352 N 
ATOM     26  C   UNL     1       2.350   2.692  10.094  1.00  0.00     0.251 C 
ATOM     27  H   UNL     1       1.376   3.512   8.551  1.00  0.00     0.163 HD
ATOM     28  O   UNL     1       2.058   3.603  10.870  1.00  0.00    -0.269 OA
BRANCH  26  29
ATOM     29  C   UNL     1       3.243   1.601  10.537  1.00  0.00     0.039 A 
ATOM     30  C   UNL     1       3.051   1.044  11.804  1.00  0.00     0.014 A 
ATOM     31  C   UNL     1       4.268   1.130   9.711  1.00  0.00     0.014 A 
ATOM     32  C   UNL     1       3.851  -0.024  12.217  1.00  0.00     0.010 A 
ATOM     33  C   UNL     1       5.013   0.017  10.095  1.00  0.00     0.010 A 
ATOM     34  C   UNL     1       4.816  -0.569  11.353  1.00  0.00    -0.014 A 
BRANCH  34  35
ATOM     35  C   UNL     1       5.600  -1.769  11.745  1.00  0.00     0.031 A 
ATOM     36  C   UNL     1       7.096  -1.698  11.882  1.00  0.00     0.074 A 
ATOM     37  C   UNL     1       4.965  -2.946  11.910  1.00  0.00     0.049 A 
ATOM     38  N   UNL     1       7.940  -2.647  12.197  1.00  0.00    -0.248 NA
ATOM     39  C   UNL     1       7.734  -0.400  11.604  1.00  0.00     0.031 C 
ATOM     40  C   UNL     1       3.528  -3.164  11.725  1.00  0.00     0.029 A 
ATOM     41  N   UNL     1       5.446  -4.186  12.250  1.00  0.00    -0.354 N 
ATOM     42  C   UNL     1       9.204  -2.074  12.129  1.00  0.00     0.074 A 
ATOM     43  C   UNL     1       9.021  -0.703  11.706  1.00  0.00     0.031 C 
ATOM     44  C   UNL     1       3.244  -4.454  11.964  1.00  0.00     0.029 A 
ATOM     45  C   UNL     1       4.478  -5.162  12.287  1.00  0.00     0.049 A 
ATOM     46  H   UNL     1       6.394  -4.360  12.448  1.00  0.00     0.167 HD
ATOM     47  C   UNL     1      10.405  -2.628  12.419  1.00  0.00     0.034 A 
ATOM     48  C   UNL     1       4.572  -6.481  12.545  1.00  0.00     0.034 A 
ATOM     49  C   UNL     1      10.581  -3.983  12.869  1.00  0.00     0.049 A 
ATOM     50  C   UNL     1       5.914  -7.064  12.894  1.00  0.00     0.074 A 
ATOM     51  C   UNL     1      11.746  -4.612  13.272  1.00  0.00     0.029 A 
ATOM     52  N   UNL     1       9.568  -4.925  12.964  1.00  0.00    -0.354 N 
ATOM     53  N   UNL     1       7.076  -6.464  12.983  1.00  0.00    -0.248 NA
ATOM     54  C   UNL     1       5.952  -8.498  13.215  1.00  0.00     0.031 C 
ATOM     55  C   UNL     1      11.444  -5.943  13.577  1.00  0.00     0.029 A 
ATOM     56  C   UNL     1      10.083  -6.134  13.401  1.00  0.00     0.049 A 
ATOM     57  H   UNL     1       8.621  -4.759  12.752  1.00  0.00     0.167 HD
ATOM     58  C   UNL     1       7.976  -7.438  13.400  1.00  0.00     0.074 A 
ATOM     59  C   UNL     1       7.218  -8.660  13.573  1.00  0.00     0.031 C 
ATOM     60  C   UNL     1       9.313  -7.334  13.608  1.00  0.00     0.034 A 
BRANCH  47  61
ATOM     61  C   UNL     1      11.628  -1.754  12.301  1.00  0.00     0.023 A 
ATOM     62  C   UNL     1      11.833  -0.711  13.229  1.00  0.00     0.012 A 
ATOM     63  C   UNL     1      12.602  -1.999  11.313  1.00  0.00     0.148 A 
ATOM     64  C   UNL     1      12.968   0.095  13.154  1.00  0.00     0.002 A 
ATOM     65  C   UNL     1      13.754  -1.221  11.275  1.00  0.00     0.091 A 
ATOM     66  F   UNL     1      12.382  -2.980  10.427  1.00  0.00    -0.205 F 
ATOM     67  C   UNL     1      13.932  -0.167  12.185  1.00  0.00     0.022 A 
BRANCH  65  68
ATOM     68  S   UNL     1      15.092  -1.527  10.117  1.00  0.00     0.127 S 
ATOM     69  O   UNL     1      14.992  -0.364   9.236  1.00  0.00    -0.237 OA
ATOM     70  O   UNL     1      16.263  -1.528  10.994  1.00  0.00    -0.237 OA
ATOM     71  O   UNL     1      14.799  -2.809   9.492  1.00  0.00    -0.744 OA
ENDBRANCH  65  68
ENDBRANCH  47  61
BRANCH  48  72
ATOM     72  C   UNL     1       3.348  -7.331  12.536  1.00  0.00     0.023 A 
ATOM     73  C   UNL     1       2.861  -7.860  13.747  1.00  0.00     0.012 A 
ATOM     74  C   UNL     1       2.653  -7.598  11.341  1.00  0.00     0.148 A 
ATOM     75  C   UNL     1       1.724  -8.669  13.764  1.00  0.00     0.002 A 
ATOM     76  C   UNL     1       1.488  -8.355  11.372  1.00  0.00     0.091 A 
ATOM     77  F   UNL     1       3.138  -7.093  10.198  1.00  0.00    -0.205 F 
ATOM     78  C   UNL     1       1.032  -8.908  12.579  1.00  0.00     0.022 A 
BRANCH  76  79
ATOM     79  S   UNL     1       0.461  -8.600   9.919  1.00  0.00     0.127 S 
ATOM     80  O   UNL     1       0.659 -10.022   9.649  1.00  0.00    -0.237 OA
ATOM     81  O   UNL     1      -0.866  -8.247  10.425  1.00  0.00    -0.237 OA
ATOM     82  O   UNL     1       0.980  -7.686   8.911  1.00  0.00    -0.744 OA
ENDBRANCH  76  79
ENDBRANCH  48  72
BRANCH  60  83
ATOM     83  C   UNL     1      10.042  -8.568  14.074  1.00  0.00     0.023 A 
ATOM     84  C   UNL     1      10.229  -9.650  13.190  1.00  0.00     0.012 A 
ATOM     85  C   UNL     1      10.589  -8.633  15.370  1.00  0.00     0.148 A 
ATOM     86  C   UNL     1      10.912 -10.794  13.604  1.00  0.00     0.002 A 
ATOM     87  C   UNL     1      11.314  -9.754  15.758  1.00  0.00     0.091 A 
ATOM     88  F   UNL     1      10.386  -7.602  16.203  1.00  0.00    -0.205 F 
ATOM     89  C   UNL     1      11.463 -10.841  14.882  1.00  0.00     0.022 A 
BRANCH  87  90
ATOM     90  S   UNL     1      12.142  -9.863  17.348  1.00  0.00     0.127 S 
ATOM     91  O   UNL     1      11.312 -10.841  18.049  1.00  0.00    -0.237 OA
ATOM     92  O   UNL     1      13.471 -10.349  16.972  1.00  0.00    -0.237 OA
ATOM     93  O   UNL     1      12.126  -8.517  17.903  1.00  0.00    -0.744 OA
ENDBRANCH  87  90
ENDBRANCH  60  83
ENDBRANCH  34  35
ENDBRANCH  26  29
ENDBRANCH  24  25
ENDBRANCH  23  24
ENDBRANCH  22  23
ENDBRANCH   1  22
TORSDOF 20
