REMARK SMILES C[C@H](CC(=O)NCCCCCCNC(=O)c1ccc(-c2c3nc(c(-c4cccc(S(=O)(=O)[O-])c4F)c4ccc([nH]4)c(-c4cccc(S(=O)(=O)[O-])c4F)c4nc(c(-c5cccc(S(=O)(=O)[O-])c5F)c5ccc2[nH]5)C=C4)C=C3)cc1)NC(=O)Cc1cn2ccsc2n1
REMARK SMILES IDX 9 1 8 2 7 3 6 4 4 5 5 6 3 8 2 9 1 10 79 11 80 12 81 14 82 15
REMARK SMILES IDX 83 16 84 17 90 18 85 19 89 20 86 21 88 22 87 23 10 24 11 25
REMARK SMILES IDX 12 26 13 27 14 28 15 30 16 31 17 32 78 33 18 34 77 35 19 36
REMARK SMILES IDX 20 37 21 38 71 39 22 40 76 41 70 42 72 43 23 44 75 45 69 46
REMARK SMILES IDX 68 47 24 49 56 50 36 51 55 52 37 53 40 54 54 55 73 56 38 57
REMARK SMILES IDX 39 58 53 60 74 61 41 62 25 63 26 64 34 65 27 66 29 67 35 68
REMARK SMILES IDX 28 69 30 70 31 71 32 72 33 73 57 74 58 75 66 76 59 77 61 78
REMARK SMILES IDX 67 79 60 80 62 81 63 82 64 83 65 84 42 85 43 86 51 87 44 88
REMARK SMILES IDX 46 89 52 90 45 91 47 92 48 93 49 94 50 95
REMARK H PARENT 6 7 79 13 13 29 72 48 40 59
REMARK Flexibility Score: inf
ROOT
ATOM      1  C   UNL     1       1.694   2.254   4.920  1.00  0.00     0.002 C 
ENDROOT
BRANCH   1   2
ATOM      2  C   UNL     1       0.780   1.344   4.101  1.00  0.00     0.021 C 
BRANCH   2   3
ATOM      3  C   UNL     1       0.620   1.762   2.642  1.00  0.00     0.116 C 
BRANCH   3   4
ATOM      4  N   UNL     1       1.857   1.542   1.915  1.00  0.00    -0.356 N 
ATOM      5  C   UNL     1       2.108   0.655   0.913  1.00  0.00     0.222 C 
ATOM      6  O   UNL     1       3.260   0.509   0.508  1.00  0.00    -0.275 OA
ATOM      7  H   UNL     1       2.615   2.112   2.180  1.00  0.00     0.163 HD
BRANCH   5   8
ATOM      8  C   UNL     1       0.952  -0.091   0.295  1.00  0.00     0.124 C 
BRANCH   8   9
ATOM      9  C   UNL     1       0.515  -1.401   0.968  1.00  0.00     0.088 C 
ATOM     10  C   UNL     1       0.982  -1.690   2.387  1.00  0.00     0.031 C 
BRANCH   9  11
ATOM     11  N   UNL     1      -0.954  -1.488   0.942  1.00  0.00    -0.353 N 
ATOM     12  C   UNL     1      -1.767  -2.497   0.512  1.00  0.00     0.226 C 
ATOM     13  H   UNL     1      -1.423  -0.694   1.288  1.00  0.00     0.163 HD
ATOM     14  O   UNL     1      -2.984  -2.358   0.643  1.00  0.00    -0.275 OA
BRANCH  12  15
ATOM     15  C   UNL     1      -1.168  -3.748  -0.091  1.00  0.00     0.157 C 
BRANCH  15  16
ATOM     16  C   UNL     1      -0.428  -3.488  -1.361  1.00  0.00     0.070 A 
ATOM     17  C   UNL     1      -0.421  -2.349  -2.164  1.00  0.00     0.118 A 
ATOM     18  N   UNL     1       0.510  -4.413  -1.806  1.00  0.00    -0.223 NA
ATOM     19  N   UNL     1       0.622  -2.543  -3.014  1.00  0.00    -0.297 N 
ATOM     20  C   UNL     1       1.090  -3.802  -2.800  1.00  0.00     0.193 A 
ATOM     21  C   UNL     1       1.319  -1.792  -3.930  1.00  0.00     0.104 A 
ATOM     22  S   UNL     1       2.453  -4.141  -3.821  1.00  0.00    -0.105 S 
ATOM     23  C   UNL     1       2.340  -2.488  -4.457  1.00  0.00     0.087 A 
ENDBRANCH  15  16
ENDBRANCH  12  15
ENDBRANCH   9  11
ENDBRANCH   8   9
ENDBRANCH   5   8
ENDBRANCH   3   4
ENDBRANCH   2   3
ENDBRANCH   1   2
BRANCH   1  24
ATOM     24  C   UNL     1       1.210   3.697   5.042  1.00  0.00     0.002 C 
BRANCH  24  25
ATOM     25  C   UNL     1      -0.227   3.848   5.545  1.00  0.00     0.021 C 
BRANCH  25  26
ATOM     26  C   UNL     1      -0.529   3.096   6.838  1.00  0.00     0.116 C 
BRANCH  26  27
ATOM     27  N   UNL     1       0.327   3.530   7.931  1.00  0.00    -0.352 N 
ATOM     28  C   UNL     1      -0.033   4.075   9.136  1.00  0.00     0.251 C 
ATOM     29  H   UNL     1       1.294   3.418   7.786  1.00  0.00     0.163 HD
ATOM     30  O   UNL     1       0.815   4.590   9.864  1.00  0.00    -0.269 OA
BRANCH  28  31
ATOM     31  C   UNL     1      -1.451   4.052   9.541  1.00  0.00     0.039 A 
ATOM     32  C   UNL     1      -2.048   5.230   9.992  1.00  0.00     0.014 A 
ATOM     33  C   UNL     1      -2.193   2.871   9.440  1.00  0.00     0.014 A 
ATOM     34  C   UNL     1      -3.413   5.237  10.286  1.00  0.00     0.010 A 
ATOM     35  C   UNL     1      -3.566   2.901   9.660  1.00  0.00     0.010 A 
ATOM     36  C   UNL     1      -4.189   4.083  10.089  1.00  0.00    -0.014 A 
BRANCH  36  37
ATOM     37  C   UNL     1      -5.658   4.097  10.305  1.00  0.00     0.031 A 
ATOM     38  C   UNL     1      -6.278   3.218  11.356  1.00  0.00     0.074 A 
ATOM     39  C   UNL     1      -6.440   4.837   9.494  1.00  0.00     0.049 A 
ATOM     40  N   UNL     1      -7.542   3.050  11.647  1.00  0.00    -0.248 NA
ATOM     41  C   UNL     1      -5.362   2.402  12.170  1.00  0.00     0.031 C 
ATOM     42  C   UNL     1      -5.963   5.673   8.390  1.00  0.00     0.029 A 
ATOM     43  N   UNL     1      -7.804   4.983   9.453  1.00  0.00    -0.354 N 
ATOM     44  C   UNL     1      -7.576   2.088  12.649  1.00  0.00     0.074 A 
ATOM     45  C   UNL     1      -6.208   1.685  12.894  1.00  0.00     0.031 C 
ATOM     46  C   UNL     1      -7.015   6.245   7.784  1.00  0.00     0.029 A 
ATOM     47  C   UNL     1      -8.242   5.789   8.427  1.00  0.00     0.049 A 
ATOM     48  H   UNL     1      -8.412   4.551  10.096  1.00  0.00     0.167 HD
ATOM     49  C   UNL     1      -8.645   1.603  13.323  1.00  0.00     0.034 A 
ATOM     50  C   UNL     1      -9.491   6.112   8.038  1.00  0.00     0.034 A 
ATOM     51  C   UNL     1      -9.999   2.031  13.098  1.00  0.00     0.049 A 
ATOM     52  C   UNL     1     -10.661   5.571   8.815  1.00  0.00     0.074 A 
ATOM     53  C   UNL     1     -11.141   1.666  13.788  1.00  0.00     0.029 A 
ATOM     54  N   UNL     1     -10.399   2.903  12.097  1.00  0.00    -0.354 N 
ATOM     55  N   UNL     1     -10.662   4.787   9.866  1.00  0.00    -0.248 NA
ATOM     56  C   UNL     1     -12.001   5.983   8.373  1.00  0.00     0.031 C 
ATOM     57  C   UNL     1     -12.236   2.289  13.181  1.00  0.00     0.029 A 
ATOM     58  C   UNL     1     -11.772   3.073  12.137  1.00  0.00     0.049 A 
ATOM     59  H   UNL     1      -9.794   3.337  11.452  1.00  0.00     0.167 HD
ATOM     60  C   UNL     1     -11.995   4.640  10.231  1.00  0.00     0.074 A 
ATOM     61  C   UNL     1     -12.772   5.434   9.302  1.00  0.00     0.031 C 
ATOM     62  C   UNL     1     -12.529   3.903  11.236  1.00  0.00     0.034 A 
BRANCH  49  63
ATOM     63  C   UNL     1      -8.392   0.581  14.402  1.00  0.00     0.023 A 
ATOM     64  C   UNL     1      -7.758   0.972  15.600  1.00  0.00     0.012 A 
ATOM     65  C   UNL     1      -8.835  -0.748  14.257  1.00  0.00     0.148 A 
ATOM     66  C   UNL     1      -7.538   0.049  16.621  1.00  0.00     0.002 A 
ATOM     67  C   UNL     1      -8.655  -1.650  15.299  1.00  0.00     0.091 A 
ATOM     68  F   UNL     1      -9.418  -1.106  13.104  1.00  0.00    -0.205 F 
ATOM     69  C   UNL     1      -7.996  -1.257  16.475  1.00  0.00     0.022 A 
BRANCH  67  70
ATOM     70  S   UNL     1      -9.281  -3.333  15.244  1.00  0.00     0.127 S 
ATOM     71  O   UNL     1      -8.041  -4.105  15.168  1.00  0.00    -0.237 OA
ATOM     72  O   UNL     1      -9.988  -3.439  16.520  1.00  0.00    -0.237 OA
ATOM     73  O   UNL     1     -10.134  -3.408  14.067  1.00  0.00    -0.744 OA
ENDBRANCH  67  70
ENDBRANCH  49  63
BRANCH  50  74
ATOM     74  C   UNL     1      -9.699   7.029   6.881  1.00  0.00     0.023 A 
ATOM     75  C   UNL     1     -10.215   8.320   7.104  1.00  0.00     0.012 A 
ATOM     76  C   UNL     1      -9.370   6.638   5.569  1.00  0.00     0.148 A 
ATOM     77  C   UNL     1     -10.433   9.193   6.036  1.00  0.00     0.002 A 
ATOM     78  C   UNL     1      -9.534   7.532   4.518  1.00  0.00     0.091 A 
ATOM     79  F   UNL     1      -8.888   5.401   5.377  1.00  0.00    -0.205 F 
ATOM     80  C   UNL     1     -10.084   8.803   4.746  1.00  0.00     0.022 A 
BRANCH  78  81
ATOM     81  S   UNL     1      -8.986   7.166   2.847  1.00  0.00     0.127 S 
ATOM     82  O   UNL     1     -10.256   7.045   2.135  1.00  0.00    -0.237 OA
ATOM     83  O   UNL     1      -8.205   8.359   2.518  1.00  0.00    -0.237 OA
ATOM     84  O   UNL     1      -8.199   5.944   2.949  1.00  0.00    -0.744 OA
ENDBRANCH  78  81
ENDBRANCH  50  74
BRANCH  62  85
ATOM     85  C   UNL     1     -14.025   3.942  11.416  1.00  0.00     0.023 A 
ATOM     86  C   UNL     1     -14.862   3.292  10.489  1.00  0.00     0.012 A 
ATOM     87  C   UNL     1     -14.593   4.554  12.551  1.00  0.00     0.148 A 
ATOM     88  C   UNL     1     -16.245   3.277  10.672  1.00  0.00     0.002 A 
ATOM     89  C   UNL     1     -15.965   4.490  12.755  1.00  0.00     0.091 A 
ATOM     90  F   UNL     1     -13.779   5.181  13.414  1.00  0.00    -0.205 F 
ATOM     91  C   UNL     1     -16.794   3.864  11.810  1.00  0.00     0.022 A 
BRANCH  89  92
ATOM     92  S   UNL     1     -16.754   5.130  14.236  1.00  0.00     0.127 S 
ATOM     93  O   UNL     1     -17.508   6.264  13.706  1.00  0.00    -0.237 OA
ATOM     94  O   UNL     1     -17.575   3.996  14.662  1.00  0.00    -0.237 OA
ATOM     95  O   UNL     1     -15.675   5.475  15.152  1.00  0.00    -0.744 OA
ENDBRANCH  89  92
ENDBRANCH  62  85
ENDBRANCH  36  37
ENDBRANCH  28  31
ENDBRANCH  26  27
ENDBRANCH  25  26
ENDBRANCH  24  25
ENDBRANCH   1  24
TORSDOF 20
