REMARK SMILES NS(=O)(=O)c1ccc(C#Cc2cc(Cl)cc3c2O[C@H](C(F)(F)F)C(C(=O)NCCCCCCNC(=O)c2ccc(-c4c5nc(c(-c6cccc(S(=O)(=O)[O-])c6F)c6ccc([nH]6)c(-c6cccc(S(=O)(=O)[O-])c6F)c6nc(c(-c7cccc(S(=O)(=O)[O-])c7F)c7ccc4[nH]7)C=C6)C=C5)cc2)=C3)cc1
REMARK SMILES IDX 30 1 29 2 28 3 27 4 25 5 26 6 24 8 11 9 12 10 17 11 13 12
REMARK SMILES IDX 16 13 18 14 14 15 15 16 100 17 19 18 10 19 9 20 8 21 5 22
REMARK SMILES IDX 6 23 102 24 7 25 101 26 2 27 3 28 4 29 1 30 20 33 21 34
REMARK SMILES IDX 22 35 23 36 31 37 32 38 33 39 34 40 35 41 36 43 37 44 38 45
REMARK SMILES IDX 99 46 39 47 98 48 40 49 41 50 42 51 92 52 43 53 97 54 91 55
REMARK SMILES IDX 93 56 44 57 96 58 90 59 89 60 45 62 77 63 57 64 76 65 58 66
REMARK SMILES IDX 61 67 75 68 94 69 59 70 60 71 74 73 95 74 62 75 46 76 47 77
REMARK SMILES IDX 55 78 48 79 50 80 56 81 49 82 51 83 52 84 53 85 54 86 78 87
REMARK SMILES IDX 79 88 87 89 80 90 82 91 88 92 81 93 83 94 84 95 85 96 86 97
REMARK SMILES IDX 63 98 64 99 72 100 65 101 67 102 73 103 66 104 68 105 69 106
REMARK SMILES IDX 70 107 71 108
REMARK H PARENT 27 7 1 31 1 32 34 42 93 61 61 72
REMARK Flexibility Score: inf
ROOT
ATOM      1  C   UNL     1       5.683  -6.987  -9.786  1.00  0.00     0.002 C 
ENDROOT
BRANCH   1   2
ATOM      2  C   UNL     1       5.368  -7.108  -8.294  1.00  0.00     0.021 C 
BRANCH   2   3
ATOM      3  C   UNL     1       3.951  -7.599  -8.026  1.00  0.00     0.116 C 
BRANCH   3   4
ATOM      4  N   UNL     1       3.871  -9.049  -8.049  1.00  0.00    -0.352 N 
ATOM      5  C   UNL     1       3.515 -10.034  -7.190  1.00  0.00     0.251 C 
ATOM      6  O   UNL     1       3.568 -11.182  -7.640  1.00  0.00    -0.270 OA
ATOM      7  H   UNL     1       4.149  -9.413  -8.920  1.00  0.00     0.163 HD
BRANCH   5   8
ATOM      8  C   UNL     1       3.080  -9.814  -5.778  1.00  0.00     0.067 C 
ATOM      9  C   UNL     1       2.081  -9.301  -1.725  1.00  0.00     0.069 A 
ATOM     10  C   UNL     1       1.781 -10.413  -0.940  1.00  0.00     0.041 A 
ATOM     11  C   UNL     1       2.441  -9.482  -3.067  1.00  0.00     0.143 A 
ATOM     12  C   UNL     1       1.848 -11.689  -1.501  1.00  0.00     0.043 A 
ATOM     13  C   UNL     1       2.516 -10.760  -3.629  1.00  0.00     0.020 A 
ATOM     14  O   UNL     1       2.755  -8.361  -3.775  1.00  0.00    -0.474 OA
ATOM     15  Cl  UNL     1       1.479 -13.063  -0.531  1.00  0.00    -0.084 Cl
ATOM     16  C   UNL     1       2.214 -11.870  -2.837  1.00  0.00     0.032 A 
ATOM     17  C   UNL     1       2.945 -10.914  -5.015  1.00  0.00     0.025 C 
ATOM     18  C   UNL     1       2.765  -8.460  -5.215  1.00  0.00     0.314 C 
BRANCH   9  19
ATOM     19  C   UNL     1       1.991  -7.979  -1.175  1.00  0.00    -0.058 C 
ATOM     20  C   UNL     1       1.877  -6.850  -0.772  1.00  0.00    -0.062 C 
BRANCH  20  21
ATOM     21  C   UNL     1       1.658  -5.517  -0.299  1.00  0.00     0.025 A 
ATOM     22  C   UNL     1       1.121  -2.931   0.612  1.00  0.00     0.082 A 
ATOM     23  C   UNL     1       1.900  -3.110  -0.534  1.00  0.00     0.023 A 
ATOM     24  C   UNL     1       0.617  -4.035   1.307  1.00  0.00     0.023 A 
ATOM     25  C   UNL     1       2.168  -4.409  -0.988  1.00  0.00     0.018 A 
ATOM     26  C   UNL     1       0.888  -5.326   0.851  1.00  0.00     0.018 A 
BRANCH  22  27
ATOM     27  S   UNL     1       0.713  -1.324   1.238  1.00  0.00     0.238 S 
ATOM     28  O   UNL     1       1.476  -1.129   2.448  1.00  0.00    -0.207 OA
ATOM     29  O   UNL     1      -0.726  -1.199   1.195  1.00  0.00    -0.207 OA
BRANCH  27  30
ATOM     30  N   UNL     1       1.314  -0.240   0.111  1.00  0.00    -0.225 NA
ATOM     31  H   UNL     1       1.111   0.713   0.413  1.00  0.00     0.137 HD
ATOM     32  H   UNL     1       0.874  -0.411  -0.793  1.00  0.00     0.137 HD
ENDBRANCH  27  30
ENDBRANCH  22  27
ENDBRANCH  20  21
ENDBRANCH   9  19
BRANCH  18  33
ATOM     33  C   UNL     1       1.452  -7.878  -5.772  1.00  0.00     0.429 C 
ATOM     34  F   UNL     1       1.397  -6.540  -5.564  1.00  0.00    -0.167 F 
ATOM     35  F   UNL     1       1.324  -8.062  -7.107  1.00  0.00    -0.167 F 
ATOM     36  F   UNL     1       0.361  -8.430  -5.196  1.00  0.00    -0.167 F 
ENDBRANCH  18  33
ENDBRANCH   5   8
ENDBRANCH   3   4
ENDBRANCH   2   3
ENDBRANCH   1   2
BRANCH   1  37
ATOM     37  C   UNL     1       4.704  -6.109 -10.578  1.00  0.00     0.002 C 
BRANCH  37  38
ATOM     38  C   UNL     1       4.448  -4.727  -9.975  1.00  0.00     0.021 C 
BRANCH  38  39
ATOM     39  C   UNL     1       5.705  -3.886  -9.813  1.00  0.00     0.116 C 
BRANCH  39  40
ATOM     40  N   UNL     1       6.365  -3.643 -11.088  1.00  0.00    -0.352 N 
ATOM     41  C   UNL     1       6.674  -2.450 -11.695  1.00  0.00     0.251 C 
ATOM     42  H   UNL     1       6.627  -4.450 -11.588  1.00  0.00     0.163 HD
ATOM     43  O   UNL     1       7.032  -2.430 -12.868  1.00  0.00    -0.269 OA
BRANCH  41  44
ATOM     44  C   UNL     1       6.540  -1.198 -10.922  1.00  0.00     0.039 A 
ATOM     45  C   UNL     1       6.964  -1.155  -9.594  1.00  0.00     0.014 A 
ATOM     46  C   UNL     1       5.942  -0.080 -11.507  1.00  0.00     0.014 A 
ATOM     47  C   UNL     1       6.599  -0.082  -8.797  1.00  0.00     0.010 A 
ATOM     48  C   UNL     1       5.691   1.054 -10.729  1.00  0.00     0.010 A 
ATOM     49  C   UNL     1       5.964   1.042  -9.353  1.00  0.00    -0.014 A 
BRANCH  49  50
ATOM     50  C   UNL     1       5.624   2.179  -8.458  1.00  0.00     0.031 A 
ATOM     51  C   UNL     1       4.199   2.627  -8.264  1.00  0.00     0.074 A 
ATOM     52  C   UNL     1       6.615   2.763  -7.753  1.00  0.00     0.049 A 
ATOM     53  N   UNL     1       3.735   3.526  -7.434  1.00  0.00    -0.248 NA
ATOM     54  C   UNL     1       3.160   1.999  -9.098  1.00  0.00     0.031 C 
ATOM     55  C   UNL     1       8.039   2.436  -7.877  1.00  0.00     0.029 A 
ATOM     56  N   UNL     1       6.582   3.724  -6.775  1.00  0.00    -0.354 N 
ATOM     57  C   UNL     1       2.368   3.596  -7.668  1.00  0.00     0.074 A 
ATOM     58  C   UNL     1       2.070   2.658  -8.726  1.00  0.00     0.031 C 
ATOM     59  C   UNL     1       8.733   3.133  -6.968  1.00  0.00     0.029 A 
ATOM     60  C   UNL     1       7.819   4.007  -6.243  1.00  0.00     0.049 A 
ATOM     61  H   UNL     1       5.754   4.168  -6.482  1.00  0.00     0.167 HD
ATOM     62  C   UNL     1       1.442   4.359  -7.042  1.00  0.00     0.034 A 
ATOM     63  C   UNL     1       8.188   4.879  -5.286  1.00  0.00     0.034 A 
ATOM     64  C   UNL     1       1.734   5.261  -5.963  1.00  0.00     0.049 A 
ATOM     65  C   UNL     1       7.143   5.716  -4.614  1.00  0.00     0.074 A 
ATOM     66  C   UNL     1       0.845   6.026  -5.229  1.00  0.00     0.029 A 
ATOM     67  N   UNL     1       3.000   5.529  -5.472  1.00  0.00    -0.354 N 
ATOM     68  N   UNL     1       5.844   5.688  -4.783  1.00  0.00    -0.248 NA
ATOM     69  C   UNL     1       7.602   6.693  -3.616  1.00  0.00     0.031 C 
ATOM     70  C   UNL     1       1.577   6.782  -4.314  1.00  0.00     0.029 A 
ATOM     71  C   UNL     1       2.918   6.462  -4.456  1.00  0.00     0.049 A 
ATOM     72  H   UNL     1       3.833   5.117  -5.797  1.00  0.00     0.167 HD
ATOM     73  C   UNL     1       5.328   6.633  -3.907  1.00  0.00     0.074 A 
ATOM     74  C   UNL     1       6.451   7.207  -3.196  1.00  0.00     0.031 C 
ATOM     75  C   UNL     1       4.038   6.995  -3.724  1.00  0.00     0.034 A 
BRANCH  62  76
ATOM     76  C   UNL     1       0.003   4.236  -7.463  1.00  0.00     0.023 A 
ATOM     77  C   UNL     1      -0.754   3.135  -7.019  1.00  0.00     0.012 A 
ATOM     78  C   UNL     1      -0.629   5.277  -8.171  1.00  0.00     0.148 A 
ATOM     79  C   UNL     1      -2.123   3.070  -7.274  1.00  0.00     0.002 A 
ATOM     80  C   UNL     1      -1.998   5.217  -8.399  1.00  0.00     0.091 A 
ATOM     81  F   UNL     1       0.116   6.312  -8.583  1.00  0.00    -0.205 F 
ATOM     82  C   UNL     1      -2.746   4.115  -7.952  1.00  0.00     0.022 A 
BRANCH  80  83
ATOM     83  S   UNL     1      -2.906   6.529  -9.225  1.00  0.00     0.127 S 
ATOM     84  O   UNL     1      -3.388   5.841 -10.423  1.00  0.00    -0.237 OA
ATOM     85  O   UNL     1      -3.944   6.846  -8.245  1.00  0.00    -0.237 OA
ATOM     86  O   UNL     1      -1.945   7.594  -9.472  1.00  0.00    -0.744 OA
ENDBRANCH  80  83
ENDBRANCH  62  76
BRANCH  63  87
ATOM     87  C   UNL     1       9.623   4.966  -4.904  1.00  0.00     0.023 A 
ATOM     88  C   UNL     1      10.053   4.406  -3.687  1.00  0.00     0.012 A 
ATOM     89  C   UNL     1      10.572   5.516  -5.788  1.00  0.00     0.148 A 
ATOM     90  C   UNL     1      11.408   4.391  -3.357  1.00  0.00     0.002 A 
ATOM     91  C   UNL     1      11.922   5.464  -5.470  1.00  0.00     0.091 A 
ATOM     92  F   UNL     1      10.132   6.035  -6.942  1.00  0.00    -0.205 F 
ATOM     93  C   UNL     1      12.342   4.908  -4.252  1.00  0.00     0.022 A 
BRANCH  91  94
ATOM     94  S   UNL     1      13.204   6.023  -6.596  1.00  0.00     0.127 S 
ATOM     95  O   UNL     1      13.811   7.113  -5.836  1.00  0.00    -0.237 OA
ATOM     96  O   UNL     1      14.030   4.824  -6.725  1.00  0.00    -0.237 OA
ATOM     97  O   UNL     1      12.516   6.422  -7.816  1.00  0.00    -0.744 OA
ENDBRANCH  91  94
ENDBRANCH  63  87
BRANCH  75  98
ATOM     98  C   UNL     1       3.723   8.053  -2.706  1.00  0.00     0.023 A 
ATOM     99  C   UNL     1       3.868   9.408  -3.054  1.00  0.00     0.012 A 
ATOM    100  C   UNL     1       3.097   7.701  -1.494  1.00  0.00     0.148 A 
ATOM    101  C   UNL     1       3.375  10.404  -2.212  1.00  0.00     0.002 A 
ATOM    102  C   UNL     1       2.581   8.698  -0.677  1.00  0.00     0.091 A 
ATOM    103  F   UNL     1       2.972   6.400  -1.197  1.00  0.00    -0.205 F 
ATOM    104  C   UNL     1       2.718  10.050  -1.035  1.00  0.00     0.022 A 
BRANCH 102 105
ATOM    105  S   UNL     1       1.661   8.338   0.823  1.00  0.00     0.127 S 
ATOM    106  O   UNL     1       2.485   8.990   1.840  1.00  0.00    -0.237 OA
ATOM    107  O   UNL     1       0.380   8.991   0.561  1.00  0.00    -0.237 OA
ATOM    108  O   UNL     1       1.602   6.885   0.923  1.00  0.00    -0.744 OA
ENDBRANCH 102 105
ENDBRANCH  75  98
ENDBRANCH  49  50
ENDBRANCH  41  44
ENDBRANCH  39  40
ENDBRANCH  38  39
ENDBRANCH  37  38
ENDBRANCH   1  37
TORSDOF 21
