REMARK SMILES O=C(CCN1C(=O)S/C(=C\c2ccccc2F)C1=O)Nc1ccc(C(=O)NCCCCCCNC(=O)c2ccc(-c3c4nc(c(-c5cccc(S(=O)(=O)[O-])c5F)c5ccc([nH]5)c(-c5cccc(S(=O)(=O)[O-])c5F)c5nc(c(-c6cccc(S(=O)(=O)[O-])c6F)c6ccc3[nH]6)C=C5)C=C4)cc2)c(O)c1
REMARK SMILES IDX 29 1 28 2 27 3 25 4 26 5 24 7 21 8 22 9 102 10 23 11 100 12
REMARK SMILES IDX 20 13 1 14 2 15 3 17 4 18 5 19 6 20 18 21 7 22 8 23 9 24
REMARK SMILES IDX 19 25 10 26 11 27 12 28 16 29 13 30 15 31 17 32 14 33 101 34
REMARK SMILES IDX 30 36 31 37 32 38 33 39 34 40 35 41 36 43 37 44 38 45 99 46
REMARK SMILES IDX 39 47 98 48 40 49 41 50 42 51 92 52 43 53 97 54 91 55 93 56
REMARK SMILES IDX 44 57 96 58 90 59 89 60 45 62 77 63 57 64 76 65 58 66 61 67
REMARK SMILES IDX 75 68 94 69 59 70 60 71 74 73 95 74 62 75 46 76 47 77 55 78
REMARK SMILES IDX 48 79 50 80 56 81 49 82 51 83 52 84 53 85 54 86 78 87 79 88
REMARK SMILES IDX 87 89 80 90 82 91 88 92 81 93 83 94 84 95 85 96 86 97 63 98
REMARK SMILES IDX 64 99 72 100 65 101 67 102 73 103 66 104 68 105 69 106
REMARK SMILES IDX 70 107 71 108
REMARK H PARENT 27 6 20 16 101 35 34 42 93 61 61 72
REMARK Flexibility Score: inf
ROOT
ATOM      1  C   UNL     1       1.185  -7.734  -3.708  1.00  0.00     0.021 C 
ENDROOT
BRANCH   1   2
ATOM      2  C   UNL     1       1.750  -6.342  -3.979  1.00  0.00     0.116 C 
BRANCH   2   3
ATOM      3  N   UNL     1       0.973  -5.559  -4.927  1.00  0.00    -0.352 N 
ATOM      4  C   UNL     1       0.730  -4.206  -4.976  1.00  0.00     0.255 C 
ATOM      5  O   UNL     1      -0.008  -3.766  -5.856  1.00  0.00    -0.269 OA
ATOM      6  H   UNL     1       0.553  -6.081  -5.648  1.00  0.00     0.163 HD
BRANCH   4   7
ATOM      7  C   UNL     1       1.305  -3.266  -3.980  1.00  0.00     0.081 A 
ATOM      8  C   UNL     1       2.187  -1.465  -1.999  1.00  0.00     0.044 A 
ATOM      9  C   UNL     1       0.892  -1.367  -2.499  1.00  0.00     0.027 A 
ATOM     10  C   UNL     1       3.054  -2.422  -2.538  1.00  0.00     0.073 A 
ATOM     11  C   UNL     1       0.456  -2.260  -3.489  1.00  0.00     0.020 A 
ATOM     12  C   UNL     1       2.627  -3.292  -3.539  1.00  0.00     0.130 A 
BRANCH   8  13
ATOM     13  N   UNL     1       2.714  -0.639  -0.994  1.00  0.00    -0.326 N 
ATOM     14  O   UNL     1       0.831   0.371  -0.075  1.00  0.00    -0.275 OA
ATOM     15  C   UNL     1       2.042   0.184  -0.115  1.00  0.00     0.226 C 
ATOM     16  H   UNL     1       3.694  -0.649  -0.904  1.00  0.00     0.169 HD
BRANCH  15  17
ATOM     17  C   UNL     1       2.980   0.919   0.832  1.00  0.00     0.122 C 
BRANCH  17  18
ATOM     18  C   UNL     1       3.797   0.006   1.757  1.00  0.00     0.140 C 
BRANCH  18  19
ATOM     19  N   UNL     1       4.830  -0.775   1.081  1.00  0.00    -0.268 N 
ATOM     20  C   UNL     1       5.916  -0.170   0.497  1.00  0.00     0.293 C 
ATOM     21  C   UNL     1       4.791  -2.155   1.042  1.00  0.00     0.268 C 
ATOM     22  O   UNL     1       6.145   1.025   0.460  1.00  0.00    -0.261 OA
ATOM     23  S   UNL     1       6.901  -1.364  -0.315  1.00  0.00    -0.022 SA
ATOM     24  C   UNL     1       5.918  -2.673   0.217  1.00  0.00     0.083 C 
ATOM     25  O   UNL     1       3.925  -2.857   1.541  1.00  0.00    -0.268 OA
ATOM     26  C   UNL     1       6.020  -3.971  -0.102  1.00  0.00     0.032 C 
BRANCH  26  27
ATOM     27  C   UNL     1       7.030  -4.570  -0.987  1.00  0.00     0.012 A 
ATOM     28  C   UNL     1       6.608  -5.264  -2.130  1.00  0.00     0.011 A 
ATOM     29  C   UNL     1       8.402  -4.501  -0.713  1.00  0.00     0.130 A 
ATOM     30  C   UNL     1       7.545  -5.847  -2.989  1.00  0.00     0.001 A 
ATOM     31  C   UNL     1       9.338  -5.075  -1.568  1.00  0.00     0.040 A 
ATOM     32  F   UNL     1       8.835  -3.878   0.395  1.00  0.00    -0.206 F 
ATOM     33  C   UNL     1       8.909  -5.749  -2.710  1.00  0.00     0.003 A 
ENDBRANCH  26  27
ENDBRANCH  18  19
ENDBRANCH  17  18
ENDBRANCH  15  17
ENDBRANCH   8  13
BRANCH  12  34
ATOM     34  O   UNL     1       3.599  -4.102  -4.054  1.00  0.00    -0.507 OA
ATOM     35  H   UNL     1       3.389  -4.714  -4.732  1.00  0.00     0.293 HD
ENDBRANCH  12  34
ENDBRANCH   4   7
ENDBRANCH   2   3
ENDBRANCH   1   2
BRANCH   1  36
ATOM     36  C   UNL     1       1.078  -8.671  -4.915  1.00  0.00     0.002 C 
BRANCH  36  37
ATOM     37  C   UNL     1       2.337  -8.843  -5.771  1.00  0.00     0.002 C 
BRANCH  37  38
ATOM     38  C   UNL     1       3.613  -9.252  -5.033  1.00  0.00     0.021 C 
BRANCH  38  39
ATOM     39  C   UNL     1       3.503 -10.482  -4.139  1.00  0.00     0.116 C 
BRANCH  39  40
ATOM     40  N   UNL     1       3.085 -11.672  -4.861  1.00  0.00    -0.352 N 
ATOM     41  C   UNL     1       3.645 -12.927  -4.877  1.00  0.00     0.251 C 
ATOM     42  H   UNL     1       2.282 -11.564  -5.420  1.00  0.00     0.163 HD
ATOM     43  O   UNL     1       3.224 -13.771  -5.664  1.00  0.00    -0.269 OA
BRANCH  41  44
ATOM     44  C   UNL     1       4.768 -13.255  -3.970  1.00  0.00     0.039 A 
ATOM     45  C   UNL     1       5.860 -13.961  -4.481  1.00  0.00     0.014 A 
ATOM     46  C   UNL     1       4.748 -12.878  -2.624  1.00  0.00     0.014 A 
ATOM     47  C   UNL     1       6.957 -14.233  -3.659  1.00  0.00     0.010 A 
ATOM     48  C   UNL     1       5.874 -13.082  -1.828  1.00  0.00     0.010 A 
ATOM     49  C   UNL     1       6.990 -13.764  -2.335  1.00  0.00    -0.014 A 
BRANCH  49  50
ATOM     50  C   UNL     1       8.187 -13.967  -1.476  1.00  0.00     0.031 A 
ATOM     51  C   UNL     1       8.089 -14.779  -0.212  1.00  0.00     0.074 A 
ATOM     52  C   UNL     1       9.351 -13.369  -1.804  1.00  0.00     0.049 A 
ATOM     53  N   UNL     1       9.012 -15.020   0.683  1.00  0.00    -0.248 NA
ATOM     54  C   UNL     1       6.784 -15.386   0.101  1.00  0.00     0.031 C 
ATOM     55  C   UNL     1       9.560 -12.512  -2.974  1.00  0.00     0.029 A 
ATOM     56  N   UNL     1      10.574 -13.376  -1.179  1.00  0.00    -0.354 N 
ATOM     57  C   UNL     1       8.399 -15.785   1.668  1.00  0.00     0.074 A 
ATOM     58  C   UNL     1       7.013 -15.936   1.285  1.00  0.00     0.031 C 
ATOM     59  C   UNL     1      10.835 -12.093  -2.993  1.00  0.00     0.029 A 
ATOM     60  C   UNL     1      11.526 -12.613  -1.817  1.00  0.00     0.049 A 
ATOM     61  H   UNL     1      10.753 -13.879  -0.352  1.00  0.00     0.167 HD
ATOM     62  C   UNL     1       8.948 -16.341   2.773  1.00  0.00     0.034 A 
ATOM     63  C   UNL     1      12.809 -12.354  -1.491  1.00  0.00     0.034 A 
ATOM     64  C   UNL     1      10.335 -16.222   3.131  1.00  0.00     0.049 A 
ATOM     65  C   UNL     1      13.390 -12.986  -0.254  1.00  0.00     0.074 A 
ATOM     66  C   UNL     1      10.994 -16.799   4.203  1.00  0.00     0.029 A 
ATOM     67  N   UNL     1      11.276 -15.484   2.433  1.00  0.00    -0.354 N 
ATOM     68  N   UNL     1      12.822 -13.805   0.598  1.00  0.00    -0.248 NA
ATOM     69  C   UNL     1      14.798 -12.687   0.052  1.00  0.00     0.031 C 
ATOM     70  C   UNL     1      12.327 -16.385   4.170  1.00  0.00     0.029 A 
ATOM     71  C   UNL     1      12.508 -15.585   3.054  1.00  0.00     0.049 A 
ATOM     72  H   UNL     1      11.096 -14.965   1.616  1.00  0.00     0.167 HD
ATOM     73  C   UNL     1      13.810 -14.150   1.513  1.00  0.00     0.074 A 
ATOM     74  C   UNL     1      15.018 -13.466   1.103  1.00  0.00     0.031 C 
ATOM     75  C   UNL     1      13.720 -14.952   2.602  1.00  0.00     0.034 A 
BRANCH  62  76
ATOM     76  C   UNL     1       8.075 -17.197   3.653  1.00  0.00     0.023 A 
ATOM     77  C   UNL     1       7.688 -18.476   3.205  1.00  0.00     0.012 A 
ATOM     78  C   UNL     1       7.754 -16.797   4.966  1.00  0.00     0.148 A 
ATOM     79  C   UNL     1       6.986 -19.340   4.043  1.00  0.00     0.002 A 
ATOM     80  C   UNL     1       7.096 -17.682   5.812  1.00  0.00     0.091 A 
ATOM     81  F   UNL     1       8.120 -15.571   5.367  1.00  0.00    -0.205 F 
ATOM     82  C   UNL     1       6.705 -18.949   5.350  1.00  0.00     0.022 A 
BRANCH  80  83
ATOM     83  S   UNL     1       6.763 -17.314   7.538  1.00  0.00     0.127 S 
ATOM     84  O   UNL     1       5.301 -17.320   7.565  1.00  0.00    -0.237 OA
ATOM     85  O   UNL     1       7.390 -18.448   8.217  1.00  0.00    -0.237 OA
ATOM     86  O   UNL     1       7.379 -16.022   7.804  1.00  0.00    -0.744 OA
ENDBRANCH  80  83
ENDBRANCH  62  76
BRANCH  63  87
ATOM     87  C   UNL     1      13.652 -11.507  -2.384  1.00  0.00     0.023 A 
ATOM     88  C   UNL     1      14.727 -12.094  -3.080  1.00  0.00     0.012 A 
ATOM     89  C   UNL     1      13.384 -10.136  -2.568  1.00  0.00     0.148 A 
ATOM     90  C   UNL     1      15.541 -11.325  -3.913  1.00  0.00     0.002 A 
ATOM     91  C   UNL     1      14.159  -9.389  -3.448  1.00  0.00     0.091 A 
ATOM     92  F   UNL     1      12.365  -9.590  -1.889  1.00  0.00    -0.205 F 
ATOM     93  C   UNL     1      15.251  -9.977  -4.106  1.00  0.00     0.022 A 
BRANCH  91  94
ATOM     94  S   UNL     1      13.770  -7.685  -3.865  1.00  0.00     0.127 S 
ATOM     95  O   UNL     1      14.865  -6.962  -3.226  1.00  0.00    -0.237 OA
ATOM     96  O   UNL     1      13.819  -7.715  -5.328  1.00  0.00    -0.237 OA
ATOM     97  O   UNL     1      12.442  -7.434  -3.319  1.00  0.00    -0.744 OA
ENDBRANCH  91  94
ENDBRANCH  63  87
BRANCH  75  98
ATOM     98  C   UNL     1      14.962 -15.187   3.421  1.00  0.00     0.023 A 
ATOM     99  C   UNL     1      15.466 -14.160   4.242  1.00  0.00     0.012 A 
ATOM    100  C   UNL     1      15.550 -16.467   3.473  1.00  0.00     0.148 A 
ATOM    101  C   UNL     1      16.549 -14.398   5.088  1.00  0.00     0.002 A 
ATOM    102  C   UNL     1      16.592 -16.712   4.357  1.00  0.00     0.091 A 
ATOM    103  F   UNL     1      15.062 -17.426   2.672  1.00  0.00    -0.205 F 
ATOM    104  C   UNL     1      17.100 -15.676   5.157  1.00  0.00     0.022 A 
BRANCH 102 105
ATOM    105  S   UNL     1      17.294 -18.348   4.598  1.00  0.00     0.127 S 
ATOM    106  O   UNL     1      18.645 -18.173   4.067  1.00  0.00    -0.237 OA
ATOM    107  O   UNL     1      17.224 -18.502   6.051  1.00  0.00    -0.237 OA
ATOM    108  O   UNL     1      16.448 -19.266   3.848  1.00  0.00    -0.744 OA
ENDBRANCH 102 105
ENDBRANCH  75  98
ENDBRANCH  49  50
ENDBRANCH  41  44
ENDBRANCH  39  40
ENDBRANCH  38  39
ENDBRANCH  37  38
ENDBRANCH  36  37
ENDBRANCH   1  36
TORSDOF 22
