REMARK SMILES CC[C@@](C)(NC(=O)Nc1c(C)cccc1Cl)C(=O)NCCCCCCNC(=O)c1ccc(-c2c3nc(c(-c4cccc(S(=O)(=O)[O-])c4F)c4ccc([nH]4)c(-c4cccc(S(=O)(=O)[O-])c4F)c4nc(c(-c5cccc(S(=O)(=O)[O-])c5F)c5ccc2[nH]5)C=C4)C=C3)cc1
REMARK SMILES IDX 23 1 22 2 21 3 20 4 19 5 17 6 18 7 3 9 4 10 2 11 1 12 5 13
REMARK SMILES IDX 6 14 7 16 8 17 9 19 10 20 15 21 11 22 12 23 14 24 16 25
REMARK SMILES IDX 13 26 24 27 25 28 26 29 27 30 28 32 29 33 30 34 91 35 31 36
REMARK SMILES IDX 90 37 32 38 33 39 34 40 84 41 35 42 89 43 83 44 85 45 36 46
REMARK SMILES IDX 88 47 82 48 81 49 37 51 69 52 49 53 68 54 50 55 53 56 67 57
REMARK SMILES IDX 86 58 51 59 52 60 66 62 87 63 54 64 38 65 39 66 47 67 40 68
REMARK SMILES IDX 42 69 48 70 41 71 43 72 44 73 45 74 46 75 70 76 71 77 79 78
REMARK SMILES IDX 72 79 74 80 80 81 73 82 75 83 76 84 77 85 78 86 55 87 56 88
REMARK SMILES IDX 64 89 57 90 59 91 65 92 58 93 60 94 61 95 62 96 63 97
REMARK H PARENT 19 8 5 15 8 18 26 31 85 50 53 61
REMARK Flexibility Score: inf
ROOT
ATOM      1  C   UNL     1       4.461   5.358  -4.034  1.00  0.00     0.002 C 
ENDROOT
BRANCH   1   2
ATOM      2  C   UNL     1       3.847   5.724  -2.683  1.00  0.00     0.002 C 
BRANCH   2   3
ATOM      3  C   UNL     1       2.333   5.963  -2.568  1.00  0.00     0.021 C 
BRANCH   3   4
ATOM      4  C   UNL     1       1.308   4.878  -2.949  1.00  0.00     0.116 C 
BRANCH   4   5
ATOM      5  N   UNL     1       1.684   3.486  -2.747  1.00  0.00    -0.354 N 
ATOM      6  C   UNL     1       1.095   2.410  -2.080  1.00  0.00     0.245 C 
ATOM      7  O   UNL     1       1.133   1.281  -2.575  1.00  0.00    -0.272 OA
ATOM      8  H   UNL     1       2.540   3.253  -3.174  1.00  0.00     0.163 HD
BRANCH   6   9
ATOM      9  C   UNL     1       0.287   2.642  -0.803  1.00  0.00     0.117 C 
ATOM     10  C   UNL     1      -1.144   2.897  -1.341  1.00  0.00     0.045 C 
BRANCH   9  11
ATOM     11  C   UNL     1       0.174   1.576   0.326  1.00  0.00     0.035 C 
ATOM     12  C   UNL     1       0.417   0.117  -0.000  1.00  0.00     0.007 C 
ENDBRANCH   9  11
BRANCH   9  13
ATOM     13  N   UNL     1       0.927   3.808  -0.229  1.00  0.00    -0.324 N 
ATOM     14  C   UNL     1       2.197   4.049   0.093  1.00  0.00     0.320 C 
ATOM     15  H   UNL     1       0.314   4.556  -0.044  1.00  0.00     0.166 HD
ATOM     16  O   UNL     1       2.358   5.098   0.741  1.00  0.00    -0.248 OA
ATOM     17  N   UNL     1       3.316   3.334  -0.083  1.00  0.00    -0.306 N 
ATOM     18  H   UNL     1       4.012   3.912   0.305  1.00  0.00     0.171 HD
BRANCH  17  19
ATOM     19  C   UNL     1       4.060   2.183  -0.529  1.00  0.00     0.064 A 
ATOM     20  C   UNL     1       4.103   1.338  -1.678  1.00  0.00    -0.026 A 
ATOM     21  C   UNL     1       5.076   1.875   0.432  1.00  0.00     0.064 A 
ATOM     22  C   UNL     1       3.956   1.683  -3.153  1.00  0.00     0.046 C 
ATOM     23  C   UNL     1       4.798   0.093  -1.617  1.00  0.00     0.005 A 
ATOM     24  C   UNL     1       5.876   0.728   0.392  1.00  0.00     0.023 A 
ATOM     25  Cl  UNL     1       5.419   2.956   1.766  1.00  0.00    -0.082 Cl
ATOM     26  C   UNL     1       5.686  -0.204  -0.603  1.00  0.00     0.002 A 
ENDBRANCH  17  19
ENDBRANCH   9  13
ENDBRANCH   6   9
ENDBRANCH   4   5
ENDBRANCH   3   4
ENDBRANCH   2   3
ENDBRANCH   1   2
BRANCH   1  27
ATOM     27  C   UNL     1       4.019   6.152  -5.247  1.00  0.00     0.021 C 
BRANCH  27  28
ATOM     28  C   UNL     1       4.296   7.641  -5.175  1.00  0.00     0.116 C 
BRANCH  28  29
ATOM     29  N   UNL     1       5.712   7.968  -5.263  1.00  0.00    -0.352 N 
ATOM     30  C   UNL     1       6.335   8.886  -6.089  1.00  0.00     0.251 C 
ATOM     31  H   UNL     1       6.304   7.470  -4.654  1.00  0.00     0.163 HD
ATOM     32  O   UNL     1       7.544   8.967  -6.130  1.00  0.00    -0.269 OA
BRANCH  30  33
ATOM     33  C   UNL     1       5.490   9.740  -6.961  1.00  0.00     0.039 A 
ATOM     34  C   UNL     1       5.795   9.823  -8.321  1.00  0.00     0.014 A 
ATOM     35  C   UNL     1       4.363  10.386  -6.448  1.00  0.00     0.014 A 
ATOM     36  C   UNL     1       4.915  10.483  -9.183  1.00  0.00     0.010 A 
ATOM     37  C   UNL     1       3.444  10.959  -7.320  1.00  0.00     0.010 A 
ATOM     38  C   UNL     1       3.708  11.012  -8.696  1.00  0.00    -0.014 A 
BRANCH  38  39
ATOM     39  C   UNL     1       2.694  11.593  -9.613  1.00  0.00     0.031 A 
ATOM     40  C   UNL     1       2.280  13.031  -9.474  1.00  0.00     0.074 A 
ATOM     41  C   UNL     1       2.073  10.798 -10.507  1.00  0.00     0.049 A 
ATOM     42  N   UNL     1       1.371  13.695 -10.139  1.00  0.00    -0.248 NA
ATOM     43  C   UNL     1       2.955  13.820  -8.430  1.00  0.00     0.031 C 
ATOM     44  C   UNL     1       2.316   9.364 -10.675  1.00  0.00     0.029 A 
ATOM     45  N   UNL     1       1.083  11.075 -11.418  1.00  0.00    -0.354 N 
ATOM     46  C   UNL     1       1.343  14.966  -9.579  1.00  0.00     0.074 A 
ATOM     47  C   UNL     1       2.295  14.967  -8.489  1.00  0.00     0.031 C 
ATOM     48  C   UNL     1       1.498   8.887 -11.625  1.00  0.00     0.029 A 
ATOM     49  C   UNL     1       0.647   9.969 -12.110  1.00  0.00     0.049 A 
ATOM     50  H   UNL     1       0.721  11.979 -11.562  1.00  0.00     0.167 HD
ATOM     51  C   UNL     1       0.617  16.046  -9.955  1.00  0.00     0.034 A 
ATOM     52  C   UNL     1      -0.341   9.834 -13.017  1.00  0.00     0.034 A 
ATOM     53  C   UNL     1      -0.313  16.046 -11.052  1.00  0.00     0.049 A 
ATOM     54  C   UNL     1      -1.120  11.049 -13.438  1.00  0.00     0.074 A 
ATOM     55  C   UNL     1      -1.032  17.109 -11.569  1.00  0.00     0.029 A 
ATOM     56  N   UNL     1      -0.670  14.927 -11.789  1.00  0.00    -0.354 N 
ATOM     57  N   UNL     1      -1.010  12.285 -13.015  1.00  0.00    -0.248 NA
ATOM     58  C   UNL     1      -2.134  10.860 -14.485  1.00  0.00     0.031 C 
ATOM     59  C   UNL     1      -1.851  16.624 -12.595  1.00  0.00     0.029 A 
ATOM     60  C   UNL     1      -1.614  15.267 -12.742  1.00  0.00     0.049 A 
ATOM     61  H   UNL     1      -0.305  14.022 -11.653  1.00  0.00     0.167 HD
ATOM     62  C   UNL     1      -1.922  13.026 -13.757  1.00  0.00     0.074 A 
ATOM     63  C   UNL     1      -2.558  12.103 -14.676  1.00  0.00     0.031 C 
ATOM     64  C   UNL     1      -2.216  14.347 -13.675  1.00  0.00     0.034 A 
BRANCH  51  65
ATOM     65  C   UNL     1       0.836  17.328  -9.193  1.00  0.00     0.023 A 
ATOM     66  C   UNL     1       2.064  18.011  -9.316  1.00  0.00     0.012 A 
ATOM     67  C   UNL     1      -0.177  17.874  -8.381  1.00  0.00     0.148 A 
ATOM     68  C   UNL     1       2.300  19.188  -8.606  1.00  0.00     0.002 A 
ATOM     69  C   UNL     1       0.047  19.074  -7.716  1.00  0.00     0.091 A 
ATOM     70  F   UNL     1      -1.331  17.203  -8.258  1.00  0.00    -0.205 F 
ATOM     71  C   UNL     1       1.288  19.723  -7.814  1.00  0.00     0.022 A 
BRANCH  69  72
ATOM     72  S   UNL     1      -1.220  19.888  -6.737  1.00  0.00     0.127 S 
ATOM     73  O   UNL     1      -0.732  19.663  -5.377  1.00  0.00    -0.237 OA
ATOM     74  O   UNL     1      -1.123  21.273  -7.198  1.00  0.00    -0.237 OA
ATOM     75  O   UNL     1      -2.472  19.224  -7.072  1.00  0.00    -0.744 OA
ENDBRANCH  69  72
ENDBRANCH  51  65
BRANCH  52  76
ATOM     76  C   UNL     1      -0.617   8.495 -13.608  1.00  0.00     0.023 A 
ATOM     77  C   UNL     1      -0.285   8.242 -14.953  1.00  0.00     0.012 A 
ATOM     78  C   UNL     1      -1.155   7.455 -12.825  1.00  0.00     0.148 A 
ATOM     79  C   UNL     1      -0.507   6.983 -15.514  1.00  0.00     0.002 A 
ATOM     80  C   UNL     1      -1.319   6.189 -13.373  1.00  0.00     0.091 A 
ATOM     81  F   UNL     1      -1.473   7.721 -11.550  1.00  0.00    -0.205 F 
ATOM     82  C   UNL     1      -1.012   5.955 -14.722  1.00  0.00     0.022 A 
BRANCH  80  83
ATOM     83  S   UNL     1      -1.827   4.773 -12.392  1.00  0.00     0.127 S 
ATOM     84  O   UNL     1      -3.144   4.478 -12.952  1.00  0.00    -0.237 OA
ATOM     85  O   UNL     1      -0.786   3.796 -12.714  1.00  0.00    -0.237 OA
ATOM     86  O   UNL     1      -1.818   5.226 -11.008  1.00  0.00    -0.744 OA
ENDBRANCH  80  83
ENDBRANCH  52  76
BRANCH  64  87
ATOM     87  C   UNL     1      -3.261  14.891 -14.616  1.00  0.00     0.023 A 
ATOM     88  C   UNL     1      -4.618  14.569 -14.419  1.00  0.00     0.012 A 
ATOM     89  C   UNL     1      -2.905  15.782 -15.648  1.00  0.00     0.148 A 
ATOM     90  C   UNL     1      -5.602  15.101 -15.252  1.00  0.00     0.002 A 
ATOM     91  C   UNL     1      -3.894  16.349 -16.441  1.00  0.00     0.091 A 
ATOM     92  F   UNL     1      -1.606  16.063 -15.829  1.00  0.00    -0.205 F 
ATOM     93  C   UNL     1      -5.242  16.000 -16.254  1.00  0.00     0.022 A 
BRANCH  91  94
ATOM     94  S   UNL     1      -3.539  17.587 -17.693  1.00  0.00     0.127 S 
ATOM     95  O   UNL     1      -3.824  16.854 -18.926  1.00  0.00    -0.237 OA
ATOM     96  O   UNL     1      -4.505  18.637 -17.371  1.00  0.00    -0.237 OA
ATOM     97  O   UNL     1      -2.145  17.965 -17.503  1.00  0.00    -0.744 OA
ENDBRANCH  91  94
ENDBRANCH  64  87
ENDBRANCH  38  39
ENDBRANCH  30  33
ENDBRANCH  28  29
ENDBRANCH  27  28
ENDBRANCH   1  27
TORSDOF 19
