REMARK SMILES O=C(CCCN1C(=O)/C(=C/c2cc(Br)ccc2O)SC1=S)NCCCCCCNC(=O)c1ccc(-c2c3nc(c(-c4cccc(S(=O)(=O)[O-])c4F)c4ccc([nH]4)c(-c4cccc(S(=O)(=O)[O-])c4F)c4nc(c(-c5cccc(S(=O)(=O)[O-])c5F)c5ccc2[nH]5)C=C4)C=C3)cc1
REMARK SMILES IDX 24 1 23 2 22 3 1 4 2 5 3 7 4 8 5 9 6 10 7 11 20 12 8 13 9 14
REMARK SMILES IDX 19 15 21 16 10 17 11 18 12 19 17 20 13 21 16 22 14 23 15 24
REMARK SMILES IDX 18 25 25 27 26 28 27 29 28 30 29 31 30 32 31 34 32 35 33 36
REMARK SMILES IDX 94 37 34 38 93 39 35 40 36 41 37 42 87 43 38 44 92 45 86 46
REMARK SMILES IDX 88 47 39 48 91 49 85 50 84 51 40 53 72 54 52 55 71 56 53 57
REMARK SMILES IDX 56 58 70 59 89 60 54 61 55 62 69 64 90 65 57 66 41 67 42 68
REMARK SMILES IDX 50 69 43 70 45 71 51 72 44 73 46 74 47 75 48 76 49 77 73 78
REMARK SMILES IDX 74 79 82 80 75 81 77 82 83 83 76 84 78 85 79 86 80 87 81 88
REMARK SMILES IDX 58 89 59 90 67 91 60 92 62 93 68 94 61 95 63 96 64 97 65 98
REMARK SMILES IDX 66 99
REMARK H PARENT 22 6 18 26 29 33 88 52 56 63
REMARK Flexibility Score: inf
ROOT
ATOM      1  C   UNL     1       2.348   3.461   1.094  1.00  0.00     0.021 C 
ENDROOT
BRANCH   1   2
ATOM      2  C   UNL     1       1.903   2.533  -0.037  1.00  0.00     0.116 C 
BRANCH   2   3
ATOM      3  N   UNL     1       2.616   1.269  -0.007  1.00  0.00    -0.356 N 
ATOM      4  O   UNL     1       0.755  -0.069  -0.154  1.00  0.00    -0.275 OA
ATOM      5  C   UNL     1       1.971   0.060  -0.058  1.00  0.00     0.220 C 
ATOM      6  H   UNL     1       3.599   1.281   0.051  1.00  0.00     0.163 HD
BRANCH   5   7
ATOM      7  C   UNL     1       2.881  -1.143   0.054  1.00  0.00     0.102 C 
BRANCH   7   8
ATOM      8  C   UNL     1       3.699  -1.412  -1.207  1.00  0.00     0.032 C 
BRANCH   8   9
ATOM      9  C   UNL     1       5.060  -0.705  -1.300  1.00  0.00     0.128 C 
BRANCH   9  10
ATOM     10  N   UNL     1       5.854  -0.693  -0.065  1.00  0.00    -0.293 N 
ATOM     11  C   UNL     1       6.217   0.531   0.473  1.00  0.00     0.266 C 
ATOM     12  C   UNL     1       6.371  -1.802   0.571  1.00  0.00     0.148 C 
ATOM     13  O   UNL     1       5.938   1.621  -0.002  1.00  0.00    -0.268 OA
ATOM     14  C   UNL     1       7.010   0.352   1.716  1.00  0.00     0.081 C 
ATOM     15  S   UNL     1       7.150  -1.322   2.072  1.00  0.00    -0.054 SA
ATOM     16  S   UNL     1       6.327  -3.397   0.085  1.00  0.00    -0.052 S 
ATOM     17  C   UNL     1       7.523   1.387   2.399  1.00  0.00     0.033 C 
BRANCH  17  18
ATOM     18  C   UNL     1       8.361   1.256   3.600  1.00  0.00     0.019 A 
ATOM     19  C   UNL     1       7.862   1.695   4.833  1.00  0.00     0.027 A 
ATOM     20  C   UNL     1       9.641   0.681   3.550  1.00  0.00     0.122 A 
ATOM     21  C   UNL     1       8.620   1.517   5.992  1.00  0.00     0.018 A 
ATOM     22  C   UNL     1      10.393   0.496   4.711  1.00  0.00     0.048 A 
ATOM     23  Br  UNL     1       7.936   2.088   7.660  1.00  0.00    -0.051 Br
ATOM     24  C   UNL     1       9.875   0.910   5.938  1.00  0.00     0.019 A 
BRANCH  20  25
ATOM     25  O   UNL     1      10.155   0.297   2.340  1.00  0.00    -0.507 OA
ATOM     26  H   UNL     1       9.653   0.419   1.558  1.00  0.00     0.293 HD
ENDBRANCH  20  25
ENDBRANCH  17  18
ENDBRANCH   9  10
ENDBRANCH   8   9
ENDBRANCH   7   8
ENDBRANCH   5   7
ENDBRANCH   2   3
ENDBRANCH   1   2
BRANCH   1  27
ATOM     27  C   UNL     1       3.848   3.773   1.123  1.00  0.00     0.002 C 
BRANCH  27  28
ATOM     28  C   UNL     1       4.429   4.318  -0.186  1.00  0.00     0.002 C 
BRANCH  28  29
ATOM     29  C   UNL     1       3.831   5.645  -0.650  1.00  0.00     0.021 C 
BRANCH  29  30
ATOM     30  C   UNL     1       3.986   6.789   0.345  1.00  0.00     0.116 C 
BRANCH  30  31
ATOM     31  N   UNL     1       5.380   7.130   0.595  1.00  0.00    -0.352 N 
ATOM     32  C   UNL     1       5.952   8.374   0.698  1.00  0.00     0.251 C 
ATOM     33  H   UNL     1       5.992   6.367   0.706  1.00  0.00     0.163 HD
ATOM     34  O   UNL     1       7.172   8.491   0.770  1.00  0.00    -0.269 OA
BRANCH  32  35
ATOM     35  C   UNL     1       5.087   9.573   0.690  1.00  0.00     0.039 A 
ATOM     36  C   UNL     1       5.418  10.641  -0.147  1.00  0.00     0.014 A 
ATOM     37  C   UNL     1       3.937   9.627   1.482  1.00  0.00     0.014 A 
ATOM     38  C   UNL     1       4.560  11.740  -0.234  1.00  0.00     0.010 A 
ATOM     39  C   UNL     1       3.048  10.687   1.336  1.00  0.00     0.010 A 
ATOM     40  C   UNL     1       3.351  11.757   0.481  1.00  0.00    -0.014 A 
BRANCH  40  41
ATOM     41  C   UNL     1       2.384  12.875   0.337  1.00  0.00     0.031 A 
ATOM     42  C   UNL     1       2.031  13.731   1.522  1.00  0.00     0.074 A 
ATOM     43  C   UNL     1       1.752  13.060  -0.839  1.00  0.00     0.049 A 
ATOM     44  N   UNL     1       1.172  14.714   1.602  1.00  0.00    -0.248 NA
ATOM     45  C   UNL     1       2.709  13.423   2.792  1.00  0.00     0.031 C 
ATOM     46  C   UNL     1       1.941  12.241  -2.038  1.00  0.00     0.029 A 
ATOM     47  N   UNL     1       0.800  13.976  -1.209  1.00  0.00    -0.354 N 
ATOM     48  C   UNL     1       1.178  15.117   2.932  1.00  0.00     0.074 A 
ATOM     49  C   UNL     1       2.098  14.247   3.631  1.00  0.00     0.031 C 
ATOM     50  C   UNL     1       1.133  12.692  -3.010  1.00  0.00     0.029 A 
ATOM     51  C   UNL     1       0.348  13.811  -2.498  1.00  0.00     0.049 A 
ATOM     52  H   UNL     1       0.471  14.685  -0.610  1.00  0.00     0.167 HD
ATOM     53  C   UNL     1       0.503  16.137   3.514  1.00  0.00     0.034 A 
ATOM     54  C   UNL     1      -0.597  14.479  -3.188  1.00  0.00     0.034 A 
ATOM     55  C   UNL     1      -0.383  17.023   2.808  1.00  0.00     0.049 A 
ATOM     56  C   UNL     1      -1.302  15.636  -2.534  1.00  0.00     0.074 A 
ATOM     57  C   UNL     1      -1.039  18.144   3.284  1.00  0.00     0.029 A 
ATOM     58  N   UNL     1      -0.748  16.881   1.478  1.00  0.00    -0.354 N 
ATOM     59  N   UNL     1      -1.157  16.110  -1.321  1.00  0.00    -0.248 NA
ATOM     60  C   UNL     1      -2.272  16.374  -3.356  1.00  0.00     0.031 C 
ATOM     61  C   UNL     1      -1.824  18.664   2.249  1.00  0.00     0.029 A 
ATOM     62  C   UNL     1      -1.631  17.886   1.119  1.00  0.00     0.049 A 
ATOM     63  H   UNL     1      -0.427  16.171   0.877  1.00  0.00     0.167 HD
ATOM     64  C   UNL     1      -1.990  17.220  -1.242  1.00  0.00     0.074 A 
ATOM     65  C   UNL     1      -2.622  17.359  -2.539  1.00  0.00     0.031 C 
ATOM     66  C   UNL     1      -2.219  18.042  -0.188  1.00  0.00     0.034 A 
BRANCH  53  67
ATOM     67  C   UNL     1       0.736  16.375   4.985  1.00  0.00     0.023 A 
ATOM     68  C   UNL     1       1.984  16.866   5.422  1.00  0.00     0.012 A 
ATOM     69  C   UNL     1      -0.285  16.150   5.929  1.00  0.00     0.148 A 
ATOM     70  C   UNL     1       2.229  17.084   6.777  1.00  0.00     0.002 A 
ATOM     71  C   UNL     1      -0.049  16.416   7.273  1.00  0.00     0.091 A 
ATOM     72  F   UNL     1      -1.458  15.663   5.501  1.00  0.00    -0.205 F 
ATOM     73  C   UNL     1       1.210  16.868   7.701  1.00  0.00     0.022 A 
BRANCH  71  74
ATOM     74  S   UNL     1      -1.323  16.249   8.529  1.00  0.00     0.127 S 
ATOM     75  O   UNL     1      -0.895  15.036   9.224  1.00  0.00    -0.237 OA
ATOM     76  O   UNL     1      -1.161  17.483   9.300  1.00  0.00    -0.237 OA
ATOM     77  O   UNL     1      -2.584  16.148   7.808  1.00  0.00    -0.744 OA
ENDBRANCH  71  74
ENDBRANCH  53  67
BRANCH  54  78
ATOM     78  C   UNL     1      -0.876  14.106  -4.604  1.00  0.00     0.023 A 
ATOM     79  C   UNL     1      -0.465  14.966  -5.640  1.00  0.00     0.012 A 
ATOM     80  C   UNL     1      -1.498  12.885  -4.929  1.00  0.00     0.148 A 
ATOM     81  C   UNL     1      -0.690  14.629  -6.975  1.00  0.00     0.002 A 
ATOM     82  C   UNL     1      -1.669  12.530  -6.262  1.00  0.00     0.091 A 
ATOM     83  F   UNL     1      -1.888  12.085  -3.926  1.00  0.00    -0.205 F 
ATOM     84  C   UNL     1      -1.282  13.408  -7.286  1.00  0.00     0.022 A 
BRANCH  82  85
ATOM     85  S   UNL     1      -2.297  10.922  -6.761  1.00  0.00     0.127 S 
ATOM     86  O   UNL     1      -3.580  11.276  -7.363  1.00  0.00    -0.237 OA
ATOM     87  O   UNL     1      -1.272  10.481  -7.707  1.00  0.00    -0.237 OA
ATOM     88  O   UNL     1      -2.371  10.130  -5.540  1.00  0.00    -0.744 OA
ENDBRANCH  82  85
ENDBRANCH  54  78
BRANCH  66  89
ATOM     89  C   UNL     1      -3.171  19.192  -0.392  1.00  0.00     0.023 A 
ATOM     90  C   UNL     1      -4.554  18.949  -0.504  1.00  0.00     0.012 A 
ATOM     91  C   UNL     1      -2.700  20.520  -0.394  1.00  0.00     0.148 A 
ATOM     92  C   UNL     1      -5.451  20.008  -0.647  1.00  0.00     0.002 A 
ATOM     93  C   UNL     1      -3.604  21.572  -0.486  1.00  0.00     0.091 A 
ATOM     94  F   UNL     1      -1.379  20.731  -0.304  1.00  0.00    -0.205 F 
ATOM     95  C   UNL     1      -4.978  21.318  -0.626  1.00  0.00     0.022 A 
BRANCH  93  96
ATOM     96  S   UNL     1      -3.096  23.292  -0.369  1.00  0.00     0.127 S 
ATOM     97  O   UNL     1      -3.269  23.748  -1.747  1.00  0.00    -0.237 OA
ATOM     98  O   UNL     1      -4.067  23.838   0.581  1.00  0.00    -0.237 OA
ATOM     99  O   UNL     1      -1.723  23.273   0.116  1.00  0.00    -0.744 OA
ENDBRANCH  93  96
ENDBRANCH  66  89
ENDBRANCH  40  41
ENDBRANCH  32  35
ENDBRANCH  30  31
ENDBRANCH  29  30
ENDBRANCH  28  29
ENDBRANCH  27  28
ENDBRANCH   1  27
TORSDOF 21
