REMARK SMILES O=C(NCCCCCCNC(=O)c1ccccc1-c1ccc(/C=C2/SC(=S)N(Cc3ccccc3)C2=O)o1)c1ccc(-c2c3nc(c(-c4cccc(S(=O)(=O)[O-])c4F)c4ccc([nH]4)c(-c4cccc(S(=O)(=O)[O-])c4F)c4nc(c(-c5cccc(S(=O)(=O)[O-])c5F)c5ccc2[nH]5)C=C4)C=C3)cc1
REMARK SMILES IDX 7 1 6 2 5 3 4 4 3 5 1 6 2 7 39 9 40 10 101 11 41 12 100 13
REMARK SMILES IDX 42 14 43 15 44 16 94 17 45 18 99 19 93 20 95 21 46 22 98 23
REMARK SMILES IDX 92 24 91 25 47 27 79 28 59 29 78 30 60 31 63 32 77 33 96 34
REMARK SMILES IDX 61 35 62 36 76 38 97 39 64 40 48 41 49 42 57 43 50 44 52 45
REMARK SMILES IDX 58 46 51 47 53 48 54 49 55 50 56 51 80 52 81 53 89 54 82 55
REMARK SMILES IDX 84 56 90 57 83 58 85 59 86 60 87 61 88 62 65 63 66 64 74 65
REMARK SMILES IDX 67 66 69 67 75 68 68 69 70 70 71 71 72 72 73 73 8 74 9 75
REMARK SMILES IDX 10 76 11 77 12 79 13 80 14 81 18 82 15 83 17 84 16 85 19 86
REMARK SMILES IDX 20 87 38 88 21 89 22 90 23 91 24 92 25 93 36 94 26 95 28 96
REMARK SMILES IDX 37 97 27 98 29 99 30 100 31 101 35 102 32 103 34 104 33 105
REMARK H PARENT 3 8 95 26 63 37 10 78
REMARK Flexibility Score: inf
ROOT
ATOM      1  C   UNL     1       4.719   0.060  -4.365  1.00  0.00     0.002 C 
ENDROOT
BRANCH   1   2
ATOM      2  C   UNL     1       4.321  -1.245  -3.667  1.00  0.00     0.002 C 
BRANCH   2   3
ATOM      3  C   UNL     1       4.835  -1.414  -2.239  1.00  0.00     0.021 C 
BRANCH   3   4
ATOM      4  C   UNL     1       4.511  -0.268  -1.292  1.00  0.00     0.116 C 
BRANCH   4   5
ATOM      5  N   UNL     1       3.083  -0.074  -1.107  1.00  0.00    -0.352 N 
ATOM      6  O   UNL     1       1.139   0.031   0.028  1.00  0.00    -0.269 OA
ATOM      7  C   UNL     1       2.365   0.010   0.062  1.00  0.00     0.251 C 
ATOM      8  H   UNL     1       2.556   0.010  -1.935  1.00  0.00     0.163 HD
BRANCH   7   9
ATOM      9  C   UNL     1       3.083   0.042   1.357  1.00  0.00     0.039 A 
ATOM     10  C   UNL     1       4.215   0.843   1.519  1.00  0.00     0.014 A 
ATOM     11  C   UNL     1       2.626  -0.750   2.413  1.00  0.00     0.014 A 
ATOM     12  C   UNL     1       4.977   0.735   2.676  1.00  0.00     0.010 A 
ATOM     13  C   UNL     1       3.339  -0.778   3.616  1.00  0.00     0.010 A 
ATOM     14  C   UNL     1       4.537  -0.059   3.747  1.00  0.00    -0.014 A 
BRANCH  14  15
ATOM     15  C   UNL     1       5.298  -0.041   5.022  1.00  0.00     0.031 A 
ATOM     16  C   UNL     1       5.932  -1.285   5.580  1.00  0.00     0.074 A 
ATOM     17  C   UNL     1       5.407   1.129   5.683  1.00  0.00     0.049 A 
ATOM     18  N   UNL     1       6.636  -1.425   6.674  1.00  0.00    -0.248 NA
ATOM     19  C   UNL     1       5.749  -2.534   4.824  1.00  0.00     0.031 C 
ATOM     20  C   UNL     1       4.795   2.392   5.259  1.00  0.00     0.029 A 
ATOM     21  N   UNL     1       6.058   1.451   6.845  1.00  0.00    -0.354 N 
ATOM     22  C   UNL     1       6.944  -2.777   6.764  1.00  0.00     0.074 A 
ATOM     23  C   UNL     1       6.346  -3.419   5.612  1.00  0.00     0.031 C 
ATOM     24  C   UNL     1       5.119   3.355   6.133  1.00  0.00     0.029 A 
ATOM     25  C   UNL     1       5.903   2.768   7.212  1.00  0.00     0.049 A 
ATOM     26  H   UNL     1       6.586   0.804   7.366  1.00  0.00     0.167 HD
ATOM     27  C   UNL     1       7.665  -3.420   7.714  1.00  0.00     0.034 A 
ATOM     28  C   UNL     1       6.318   3.428   8.308  1.00  0.00     0.034 A 
ATOM     29  C   UNL     1       8.273  -2.768   8.846  1.00  0.00     0.049 A 
ATOM     30  C   UNL     1       7.122   2.691   9.337  1.00  0.00     0.074 A 
ATOM     31  C   UNL     1       9.081  -3.321   9.824  1.00  0.00     0.029 A 
ATOM     32  N   UNL     1       8.127  -1.426   9.164  1.00  0.00    -0.354 N 
ATOM     33  N   UNL     1       7.513   1.440   9.335  1.00  0.00    -0.248 NA
ATOM     34  C   UNL     1       7.566   3.460  10.507  1.00  0.00     0.031 C 
ATOM     35  C   UNL     1       9.391  -2.323  10.754  1.00  0.00     0.029 A 
ATOM     36  C   UNL     1       8.813  -1.137  10.332  1.00  0.00     0.049 A 
ATOM     37  H   UNL     1       7.611  -0.774   8.636  1.00  0.00     0.167 HD
ATOM     38  C   UNL     1       8.273   1.278  10.486  1.00  0.00     0.074 A 
ATOM     39  C   UNL     1       8.308   2.567  11.147  1.00  0.00     0.031 C 
ATOM     40  C   UNL     1       8.875   0.159  10.959  1.00  0.00     0.034 A 
BRANCH  27  41
ATOM     41  C   UNL     1       7.857  -4.910   7.571  1.00  0.00     0.023 A 
ATOM     42  C   UNL     1       8.708  -5.415   6.567  1.00  0.00     0.012 A 
ATOM     43  C   UNL     1       7.255  -5.805   8.479  1.00  0.00     0.148 A 
ATOM     44  C   UNL     1       8.933  -6.787   6.449  1.00  0.00     0.002 A 
ATOM     45  C   UNL     1       7.520  -7.166   8.384  1.00  0.00     0.091 A 
ATOM     46  F   UNL     1       6.436  -5.309   9.417  1.00  0.00    -0.205 F 
ATOM     47  C   UNL     1       8.348  -7.660   7.363  1.00  0.00     0.022 A 
BRANCH  45  48
ATOM     48  S   UNL     1       6.885  -8.364   9.564  1.00  0.00     0.127 S 
ATOM     49  O   UNL     1       5.920  -9.099   8.747  1.00  0.00    -0.237 OA
ATOM     50  O   UNL     1       8.089  -9.119   9.913  1.00  0.00    -0.237 OA
ATOM     51  O   UNL     1       6.315  -7.589  10.657  1.00  0.00    -0.744 OA
ENDBRANCH  45  48
ENDBRANCH  27  41
BRANCH  28  52
ATOM     52  C   UNL     1       5.994   4.873   8.465  1.00  0.00     0.023 A 
ATOM     53  C   UNL     1       7.022   5.831   8.387  1.00  0.00     0.012 A 
ATOM     54  C   UNL     1       4.664   5.303   8.644  1.00  0.00     0.148 A 
ATOM     55  C   UNL     1       6.736   7.190   8.514  1.00  0.00     0.002 A 
ATOM     56  C   UNL     1       4.379   6.661   8.707  1.00  0.00     0.091 A 
ATOM     57  F   UNL     1       3.702   4.374   8.724  1.00  0.00    -0.205 F 
ATOM     58  C   UNL     1       5.415   7.606   8.662  1.00  0.00     0.022 A 
BRANCH  56  59
ATOM     59  S   UNL     1       2.697   7.289   8.754  1.00  0.00     0.127 S 
ATOM     60  O   UNL     1       2.618   7.828  10.109  1.00  0.00    -0.237 OA
ATOM     61  O   UNL     1       2.723   8.294   7.690  1.00  0.00    -0.237 OA
ATOM     62  O   UNL     1       1.841   6.144   8.477  1.00  0.00    -0.744 OA
ENDBRANCH  56  59
ENDBRANCH  28  52
BRANCH  40  63
ATOM     63  C   UNL     1       9.660   0.285  12.238  1.00  0.00     0.023 A 
ATOM     64  C   UNL     1       8.989   0.464  13.464  1.00  0.00     0.012 A 
ATOM     65  C   UNL     1      11.064   0.166  12.229  1.00  0.00     0.148 A 
ATOM     66  C   UNL     1       9.706   0.561  14.656  1.00  0.00     0.002 A 
ATOM     67  C   UNL     1      11.767   0.210  13.426  1.00  0.00     0.091 A 
ATOM     68  F   UNL     1      11.685   0.016  11.050  1.00  0.00    -0.205 F 
ATOM     69  C   UNL     1      11.091   0.422  14.639  1.00  0.00     0.022 A 
BRANCH  67  70
ATOM     70  S   UNL     1      13.541  -0.057  13.511  1.00  0.00     0.127 S 
ATOM     71  O   UNL     1      14.028   1.282  13.841  1.00  0.00    -0.237 OA
ATOM     72  O   UNL     1      13.655  -1.032  14.597  1.00  0.00    -0.237 OA
ATOM     73  O   UNL     1      13.936  -0.560  12.203  1.00  0.00    -0.744 OA
ENDBRANCH  67  70
ENDBRANCH  40  63
ENDBRANCH  14  15
ENDBRANCH   7   9
ENDBRANCH   4   5
ENDBRANCH   3   4
ENDBRANCH   2   3
ENDBRANCH   1   2
BRANCH   1  74
ATOM     74  C   UNL     1       6.218   0.386  -4.394  1.00  0.00     0.021 C 
BRANCH  74  75
ATOM     75  C   UNL     1       7.103  -0.712  -4.968  1.00  0.00     0.116 C 
BRANCH  75  76
ATOM     76  N   UNL     1       6.810  -1.015  -6.358  1.00  0.00    -0.352 N 
ATOM     77  C   UNL     1       7.670  -1.445  -7.338  1.00  0.00     0.252 C 
ATOM     78  H   UNL     1       5.872  -0.896  -6.633  1.00  0.00     0.163 HD
ATOM     79  O   UNL     1       7.258  -1.665  -8.473  1.00  0.00    -0.269 OA
BRANCH  77  80
ATOM     80  C   UNL     1       9.113  -1.602  -7.048  1.00  0.00     0.050 A 
ATOM     81  C   UNL     1       9.988  -0.785  -7.779  1.00  0.00     0.014 A 
ATOM     82  C   UNL     1       9.608  -2.524  -6.109  1.00  0.00     0.030 A 
ATOM     83  C   UNL     1      11.361  -0.851  -7.546  1.00  0.00     0.001 A 
ATOM     84  C   UNL     1      10.991  -2.563  -5.874  1.00  0.00     0.013 A 
ATOM     85  C   UNL     1      11.860  -1.731  -6.587  1.00  0.00     0.001 A 
BRANCH  82  86
ATOM     86  C   UNL     1       8.734  -3.441  -5.400  1.00  0.00     0.135 A 
ATOM     87  C   UNL     1       7.751  -4.316  -5.801  1.00  0.00     0.051 A 
ATOM     88  O   UNL     1       8.787  -3.385  -4.038  1.00  0.00    -0.457 OA
ATOM     89  C   UNL     1       7.154  -4.798  -4.618  1.00  0.00     0.051 A 
ATOM     90  C   UNL     1       7.814  -4.216  -3.539  1.00  0.00     0.128 A 
BRANCH  90  91
ATOM     91  C   UNL     1       7.543  -4.401  -2.157  1.00  0.00     0.068 C 
ATOM     92  C   UNL     1       7.821  -5.565  -1.561  1.00  0.00     0.084 C 
ATOM     93  S   UNL     1       7.120  -6.104  -0.087  1.00  0.00    -0.054 SA
ATOM     94  C   UNL     1       8.600  -6.673  -2.160  1.00  0.00     0.266 C 
ATOM     95  C   UNL     1       7.386  -7.802  -0.514  1.00  0.00     0.148 C 
ATOM     96  N   UNL     1       8.171  -7.876  -1.645  1.00  0.00    -0.288 N 
ATOM     97  O   UNL     1       9.511  -6.515  -2.964  1.00  0.00    -0.268 OA
ATOM     98  S   UNL     1       6.733  -9.054   0.370  1.00  0.00    -0.052 S 
BRANCH  96  99
ATOM     99  C   UNL     1       8.636  -9.101  -2.289  1.00  0.00     0.163 C 
BRANCH  99 100
ATOM    100  C   UNL     1       7.827  -9.458  -3.525  1.00  0.00    -0.028 A 
ATOM    101  C   UNL     1       7.055 -10.628  -3.556  1.00  0.00     0.005 A 
ATOM    102  C   UNL     1       7.865  -8.658  -4.681  1.00  0.00     0.005 A 
ATOM    103  C   UNL     1       6.351 -10.987  -4.710  1.00  0.00     0.000 A 
ATOM    104  C   UNL     1       7.146  -9.006  -5.825  1.00  0.00     0.000 A 
ATOM    105  C   UNL     1       6.394 -10.175  -5.842  1.00  0.00     0.000 A 
ENDBRANCH  99 100
ENDBRANCH  96  99
ENDBRANCH  90  91
ENDBRANCH  82  86
ENDBRANCH  77  80
ENDBRANCH  75  76
ENDBRANCH  74  75
ENDBRANCH   1  74
TORSDOF 20
