REMARK SMILES C[C@@H]1C[N@@H+](CC(C)(C)C(=O)NCCCCCCNC(=O)c2ccc(-c3c4nc(c(-c5cccc(S(=O)(=O)[O-])c5F)c5ccc([nH]5)c(-c5cccc(S(=O)(=O)[O-])c5F)c5nc(c(-c6cccc(S(=O)(=O)[O-])c6F)c6ccc3[nH]6)C=C5)C=C4)cc2)CC[C@@H]1[NH3+]
REMARK SMILES IDX 14 1 13 2 12 3 11 4 9 5 10 6 6 8 7 9 8 10 5 11 4 12 1 13
REMARK SMILES IDX 2 14 3 15 86 16 85 17 84 18 87 20 15 24 16 25 17 26 18 27
REMARK SMILES IDX 19 28 20 30 21 31 22 32 83 33 23 34 82 35 24 36 25 37 26 38
REMARK SMILES IDX 76 39 27 40 81 41 75 42 77 43 28 44 80 45 74 46 73 47 29 49
REMARK SMILES IDX 61 50 41 51 60 52 42 53 45 54 59 55 78 56 43 57 44 58 58 60
REMARK SMILES IDX 79 61 46 62 30 63 31 64 39 65 32 66 34 67 40 68 33 69 35 70
REMARK SMILES IDX 36 71 37 72 38 73 62 74 63 75 71 76 64 77 66 78 72 79 65 80
REMARK SMILES IDX 67 81 68 82 69 83 70 84 47 85 48 86 56 87 49 88 51 89 57 90
REMARK SMILES IDX 50 91 52 92 53 93 54 94 55 95
REMARK H PARENT 11 7 4 19 87 21 87 22 87 23 18 29 77 48 45 59
REMARK Flexibility Score: inf
ROOT
ATOM      1  C   UNL     1       0.369   6.743  -5.870  1.00  0.00     0.002 C 
ENDROOT
BRANCH   1   2
ATOM      2  C   UNL     1       1.005   7.303  -4.593  1.00  0.00     0.021 C 
BRANCH   2   3
ATOM      3  C   UNL     1       0.495   6.667  -3.303  1.00  0.00     0.116 C 
BRANCH   3   4
ATOM      4  N   UNL     1       0.908   5.282  -3.240  1.00  0.00    -0.355 N 
ATOM      5  C   UNL     1       1.804   4.676  -2.424  1.00  0.00     0.231 C 
ATOM      6  O   UNL     1       2.421   3.731  -2.928  1.00  0.00    -0.274 OA
ATOM      7  H   UNL     1       0.471   4.688  -3.892  1.00  0.00     0.163 HD
BRANCH   5   8
ATOM      8  C   UNL     1       2.084   5.155  -0.987  1.00  0.00     0.092 C 
ATOM      9  C   UNL     1       0.926   5.898  -0.301  1.00  0.00     0.027 C 
ATOM     10  C   UNL     1       3.281   6.125  -1.095  1.00  0.00     0.027 C 
BRANCH   8  11
ATOM     11  C   UNL     1       2.532   3.914  -0.111  1.00  0.00     0.278 C 
BRANCH  11  12
ATOM     12  N   UNL     1       1.628   2.781   0.233  1.00  0.00    -0.333 N 
ATOM     13  C   UNL     1       1.217  -0.337   0.019  1.00  0.00     0.020 C 
ATOM     14  C   UNL     1       0.364   0.769  -0.616  1.00  0.00     0.099 C 
ATOM     15  C   UNL     1       1.200   2.018  -0.944  1.00  0.00     0.271 C 
ATOM     16  C   UNL     1      -0.840   1.211   0.237  1.00  0.00     0.194 C 
ATOM     17  C   UNL     1      -0.365   1.939   1.498  1.00  0.00     0.126 C 
ATOM     18  C   UNL     1       0.517   3.132   1.118  1.00  0.00     0.268 C 
ATOM     19  H   UNL     1       2.208   2.156   0.792  1.00  0.00     0.348 HD
BRANCH  16  20
ATOM     20  N   UNL     1      -1.740   0.107   0.573  1.00  0.00    -0.355 N 
ATOM     21  H   UNL     1      -1.244  -0.574   1.148  1.00  0.00     0.344 HD
ATOM     22  H   UNL     1      -2.063  -0.343  -0.284  1.00  0.00     0.344 HD
ATOM     23  H   UNL     1      -2.542   0.468   1.090  1.00  0.00     0.344 HD
ENDBRANCH  16  20
ENDBRANCH  11  12
ENDBRANCH   8  11
ENDBRANCH   5   8
ENDBRANCH   3   4
ENDBRANCH   2   3
ENDBRANCH   1   2
BRANCH   1  24
ATOM     24  C   UNL     1      -1.160   6.812  -5.915  1.00  0.00     0.002 C 
BRANCH  24  25
ATOM     25  C   UNL     1      -1.752   8.194  -5.629  1.00  0.00     0.021 C 
BRANCH  25  26
ATOM     26  C   UNL     1      -1.208   9.315  -6.506  1.00  0.00     0.116 C 
BRANCH  26  27
ATOM     27  N   UNL     1      -1.465   9.079  -7.916  1.00  0.00    -0.352 N 
ATOM     28  C   UNL     1      -1.998   9.930  -8.851  1.00  0.00     0.251 C 
ATOM     29  H   UNL     1      -1.223   8.184  -8.247  1.00  0.00     0.163 HD
ATOM     30  O   UNL     1      -2.320   9.503  -9.954  1.00  0.00    -0.269 OA
BRANCH  28  31
ATOM     31  C   UNL     1      -2.199  11.357  -8.515  1.00  0.00     0.039 A 
ATOM     32  C   UNL     1      -3.397  11.970  -8.886  1.00  0.00     0.014 A 
ATOM     33  C   UNL     1      -1.211  12.088  -7.848  1.00  0.00     0.014 A 
ATOM     34  C   UNL     1      -3.619  13.307  -8.553  1.00  0.00     0.010 A 
ATOM     35  C   UNL     1      -1.467  13.398  -7.449  1.00  0.00     0.010 A 
ATOM     36  C   UNL     1      -2.668  14.026  -7.810  1.00  0.00    -0.014 A 
BRANCH  36  37
ATOM     37  C   UNL     1      -2.927  15.430  -7.402  1.00  0.00     0.031 A 
ATOM     38  C   UNL     1      -2.051  16.547  -7.901  1.00  0.00     0.074 A 
ATOM     39  C   UNL     1      -3.923  15.693  -6.532  1.00  0.00     0.049 A 
ATOM     40  N   UNL     1      -2.135  17.830  -7.659  1.00  0.00    -0.248 NA
ATOM     41  C   UNL     1      -0.917  16.178  -8.765  1.00  0.00     0.031 C 
ATOM     42  C   UNL     1      -4.785  14.687  -5.906  1.00  0.00     0.029 A 
ATOM     43  N   UNL     1      -4.369  16.881  -6.011  1.00  0.00    -0.354 N 
ATOM     44  C   UNL     1      -1.055  18.414  -8.309  1.00  0.00     0.074 A 
ATOM     45  C   UNL     1      -0.307  17.343  -8.928  1.00  0.00     0.031 C 
ATOM     46  C   UNL     1      -5.661  15.301  -5.096  1.00  0.00     0.029 A 
ATOM     47  C   UNL     1      -5.410  16.738  -5.123  1.00  0.00     0.049 A 
ATOM     48  H   UNL     1      -3.981  17.753  -6.250  1.00  0.00     0.167 HD
ATOM     49  C   UNL     1      -0.732  19.726  -8.409  1.00  0.00     0.034 A 
ATOM     50  C   UNL     1      -6.086  17.660  -4.410  1.00  0.00     0.034 A 
ATOM     51  C   UNL     1      -1.502  20.791  -7.826  1.00  0.00     0.049 A 
ATOM     52  C   UNL     1      -5.739  19.114  -4.583  1.00  0.00     0.074 A 
ATOM     53  C   UNL     1      -1.312  22.157  -7.949  1.00  0.00     0.029 A 
ATOM     54  N   UNL     1      -2.602  20.614  -7.002  1.00  0.00    -0.354 N 
ATOM     55  N   UNL     1      -4.819  19.658  -5.342  1.00  0.00    -0.248 NA
ATOM     56  C   UNL     1      -6.550  20.083  -3.833  1.00  0.00     0.031 C 
ATOM     57  C   UNL     1      -2.279  22.804  -7.174  1.00  0.00     0.029 A 
ATOM     58  C   UNL     1      -3.094  21.844  -6.598  1.00  0.00     0.049 A 
ATOM     59  H   UNL     1      -2.978  19.742  -6.742  1.00  0.00     0.167 HD
ATOM     60  C   UNL     1      -4.963  21.032  -5.189  1.00  0.00     0.074 A 
ATOM     61  C   UNL     1      -6.077  21.236  -4.285  1.00  0.00     0.031 C 
ATOM     62  C   UNL     1      -4.232  22.035  -5.736  1.00  0.00     0.034 A 
BRANCH  49  63
ATOM     63  C   UNL     1       0.484  20.091  -9.222  1.00  0.00     0.023 A 
ATOM     64  C   UNL     1       0.451  19.956 -10.626  1.00  0.00     0.012 A 
ATOM     65  C   UNL     1       1.630  20.634  -8.608  1.00  0.00     0.148 A 
ATOM     66  C   UNL     1       1.550  20.323 -11.402  1.00  0.00     0.002 A 
ATOM     67  C   UNL     1       2.703  21.042  -9.392  1.00  0.00     0.091 A 
ATOM     68  F   UNL     1       1.651  20.737  -7.272  1.00  0.00    -0.205 F 
ATOM     69  C   UNL     1       2.669  20.877 -10.787  1.00  0.00     0.022 A 
BRANCH  67  70
ATOM     70  S   UNL     1       4.158  21.842  -8.707  1.00  0.00     0.127 S 
ATOM     71  O   UNL     1       5.181  20.818  -8.912  1.00  0.00    -0.237 OA
ATOM     72  O   UNL     1       4.293  23.020  -9.564  1.00  0.00    -0.237 OA
ATOM     73  O   UNL     1       3.840  22.134  -7.316  1.00  0.00    -0.744 OA
ENDBRANCH  67  70
ENDBRANCH  49  63
BRANCH  50  74
ATOM     74  C   UNL     1      -7.201  17.240  -3.515  1.00  0.00     0.023 A 
ATOM     75  C   UNL     1      -8.527  17.574  -3.853  1.00  0.00     0.012 A 
ATOM     76  C   UNL     1      -6.957  16.496  -2.345  1.00  0.00     0.148 A 
ATOM     77  C   UNL     1      -9.587  17.208  -3.021  1.00  0.00     0.002 A 
ATOM     78  C   UNL     1      -8.021  16.084  -1.552  1.00  0.00     0.091 A 
ATOM     79  F   UNL     1      -5.687  16.198  -2.036  1.00  0.00    -0.205 F 
ATOM     80  C   UNL     1      -9.335  16.455  -1.877  1.00  0.00     0.022 A 
BRANCH  78  81
ATOM     81  S   UNL     1      -7.801  14.998  -0.139  1.00  0.00     0.127 S 
ATOM     82  O   UNL     1      -8.058  15.904   0.977  1.00  0.00    -0.237 OA
ATOM     83  O   UNL     1      -8.837  13.990  -0.367  1.00  0.00    -0.237 OA
ATOM     84  O   UNL     1      -6.440  14.489  -0.243  1.00  0.00    -0.744 OA
ENDBRANCH  78  81
ENDBRANCH  50  74
BRANCH  62  85
ATOM     85  C   UNL     1      -4.630  23.449  -5.403  1.00  0.00     0.023 A 
ATOM     86  C   UNL     1      -4.408  23.957  -4.107  1.00  0.00     0.012 A 
ATOM     87  C   UNL     1      -5.173  24.293  -6.392  1.00  0.00     0.148 A 
ATOM     88  C   UNL     1      -4.758  25.269  -3.791  1.00  0.00     0.002 A 
ATOM     89  C   UNL     1      -5.470  25.615  -6.084  1.00  0.00     0.091 A 
ATOM     90  F   UNL     1      -5.395  23.787  -7.614  1.00  0.00    -0.205 F 
ATOM     91  C   UNL     1      -5.277  26.100  -4.780  1.00  0.00     0.022 A 
BRANCH  89  92
ATOM     92  S   UNL     1      -6.049  26.783  -7.319  1.00  0.00     0.127 S 
ATOM     93  O   UNL     1      -7.457  26.930  -6.953  1.00  0.00    -0.237 OA
ATOM     94  O   UNL     1      -5.222  27.959  -7.047  1.00  0.00    -0.237 OA
ATOM     95  O   UNL     1      -5.800  26.157  -8.611  1.00  0.00    -0.744 OA
ENDBRANCH  89  92
ENDBRANCH  62  85
ENDBRANCH  36  37
ENDBRANCH  28  31
ENDBRANCH  26  27
ENDBRANCH  25  26
ENDBRANCH  24  25
ENDBRANCH   1  24
TORSDOF 19
