REMARK SMILES CS(=O)(=O)c1ccc(-c2cc(Cl)cc3c2O[C@H](C(F)(F)F)C(C(=O)NCCCCCCNC(=O)c2ccc(-c4c5nc(c(-c6cccc(S(=O)(=O)[O-])c6F)c6ccc([nH]6)c(-c6cccc(S(=O)(=O)[O-])c6F)c6nc(c(-c7cccc(S(=O)(=O)[O-])c7F)c7ccc4[nH]7)C=C6)C=C5)cc2)=C3)cc1
REMARK SMILES IDX 29 1 28 2 27 3 26 4 25 5 23 6 24 7 22 9 9 10 10 11 15 12
REMARK SMILES IDX 11 13 14 14 16 15 12 16 13 17 98 18 17 19 8 20 5 21 6 22
REMARK SMILES IDX 100 23 7 24 99 25 2 26 1 27 3 28 4 29 18 30 19 31 20 32
REMARK SMILES IDX 21 33 30 34 31 35 32 36 33 37 34 39 35 40 36 41 97 42 37 43
REMARK SMILES IDX 96 44 38 45 39 46 40 47 90 48 41 49 95 50 89 51 91 52 42 53
REMARK SMILES IDX 94 54 88 55 87 56 43 58 75 59 55 60 74 61 56 62 59 63 73 64
REMARK SMILES IDX 92 65 57 66 58 67 72 69 93 70 60 71 44 72 45 73 53 74 46 75
REMARK SMILES IDX 48 76 54 77 47 78 49 79 50 80 51 81 52 82 76 83 77 84 85 85
REMARK SMILES IDX 78 86 80 87 86 88 79 89 81 90 82 91 83 92 84 93 61 94 62 95
REMARK SMILES IDX 70 96 63 97 65 98 71 99 64 100 66 101 67 102 68 103 69 104
REMARK H PARENT 25 8 32 38 91 57 59 68
REMARK Flexibility Score: inf
ROOT
ATOM      1  C   UNL     1       3.515   2.966  16.355  1.00  0.00     0.002 C 
ENDROOT
BRANCH   1   2
ATOM      2  C   UNL     1       2.686   1.856  15.704  1.00  0.00     0.002 C 
BRANCH   2   3
ATOM      3  C   UNL     1       1.442   2.342  14.940  1.00  0.00     0.021 C 
BRANCH   3   4
ATOM      4  C   UNL     1       1.722   3.389  13.851  1.00  0.00     0.116 C 
BRANCH   4   5
ATOM      5  N   UNL     1       2.641   2.841  12.872  1.00  0.00    -0.352 N 
ATOM      6  C   UNL     1       2.373   2.652  11.556  1.00  0.00     0.251 C 
ATOM      7  O   UNL     1       2.629   1.577  11.026  1.00  0.00    -0.270 OA
ATOM      8  H   UNL     1       3.537   2.583  13.190  1.00  0.00     0.163 HD
BRANCH   6   9
ATOM      9  C   UNL     1       1.941   3.857  10.787  1.00  0.00     0.067 C 
ATOM     10  C   UNL     1       1.952   2.250   7.049  1.00  0.00     0.026 A 
ATOM     11  C   UNL     1       3.152   1.496   6.949  1.00  0.00     0.033 A 
ATOM     12  C   UNL     1       1.864   3.131   8.145  1.00  0.00     0.135 A 
ATOM     13  C   UNL     1       4.261   1.736   7.757  1.00  0.00     0.042 A 
ATOM     14  C   UNL     1       3.042   3.446   8.871  1.00  0.00     0.019 A 
ATOM     15  O   UNL     1       0.667   3.667   8.610  1.00  0.00    -0.475 OA
ATOM     16  Cl  UNL     1       5.666   0.761   7.587  1.00  0.00    -0.084 Cl
ATOM     17  C   UNL     1       4.241   2.769   8.670  1.00  0.00     0.032 A 
ATOM     18  C   UNL     1       2.924   4.368  10.021  1.00  0.00     0.025 C 
ATOM     19  C   UNL     1       0.585   3.745  10.108  1.00  0.00     0.314 C 
BRANCH  10  20
ATOM     20  C   UNL     1       1.079   2.172   5.841  1.00  0.00    -0.015 A 
ATOM     21  C   UNL     1       0.463   1.961   3.071  1.00  0.00     0.067 A 
ATOM     22  C   UNL     1       0.505   0.813   3.859  1.00  0.00     0.021 A 
ATOM     23  C   UNL     1       0.622   3.215   3.671  1.00  0.00     0.021 A 
ATOM     24  C   UNL     1       0.789   0.926   5.233  1.00  0.00     0.010 A 
ATOM     25  C   UNL     1       0.912   3.318   5.043  1.00  0.00     0.010 A 
BRANCH  21  26
ATOM     26  S   UNL     1       0.274   1.882   1.298  1.00  0.00     0.175 S 
ATOM     27  C   UNL     1       1.034   0.385   0.726  1.00  0.00     0.163 C 
ATOM     28  O   UNL     1       1.064   2.970   0.741  1.00  0.00    -0.224 OA
ATOM     29  O   UNL     1      -1.145   1.785   1.037  1.00  0.00    -0.224 OA
ENDBRANCH  21  26
ENDBRANCH  10  20
BRANCH  19  30
ATOM     30  C   UNL     1      -0.279   4.934  10.592  1.00  0.00     0.429 C 
ATOM     31  F   UNL     1      -0.487   5.853   9.623  1.00  0.00    -0.167 F 
ATOM     32  F   UNL     1      -1.489   4.514  11.031  1.00  0.00    -0.167 F 
ATOM     33  F   UNL     1       0.292   5.596  11.635  1.00  0.00    -0.167 F 
ENDBRANCH  19  30
ENDBRANCH   6   9
ENDBRANCH   4   5
ENDBRANCH   3   4
ENDBRANCH   2   3
ENDBRANCH   1   2
BRANCH   1  34
ATOM     34  C   UNL     1       2.752   3.811  17.375  1.00  0.00     0.021 C 
BRANCH  34  35
ATOM     35  C   UNL     1       2.096   3.014  18.498  1.00  0.00     0.116 C 
BRANCH  35  36
ATOM     36  N   UNL     1       3.062   2.249  19.271  1.00  0.00    -0.352 N 
ATOM     37  C   UNL     1       3.206   2.160  20.633  1.00  0.00     0.251 C 
ATOM     38  H   UNL     1       3.702   1.720  18.742  1.00  0.00     0.163 HD
ATOM     39  O   UNL     1       4.189   1.599  21.110  1.00  0.00    -0.269 OA
BRANCH  37  40
ATOM     40  C   UNL     1       2.188   2.761  21.520  1.00  0.00     0.039 A 
ATOM     41  C   UNL     1       2.614   3.507  22.621  1.00  0.00     0.014 A 
ATOM     42  C   UNL     1       0.823   2.595  21.268  1.00  0.00     0.014 A 
ATOM     43  C   UNL     1       1.669   4.129  23.439  1.00  0.00     0.010 A 
ATOM     44  C   UNL     1      -0.113   3.283  22.037  1.00  0.00     0.010 A 
ATOM     45  C   UNL     1       0.299   4.049  23.136  1.00  0.00    -0.014 A 
BRANCH  45  46
ATOM     46  C   UNL     1      -0.701   4.785  23.951  1.00  0.00     0.031 A 
ATOM     47  C   UNL     1      -1.768   4.048  24.713  1.00  0.00     0.074 A 
ATOM     48  C   UNL     1      -0.686   6.133  23.951  1.00  0.00     0.049 A 
ATOM     49  N   UNL     1      -2.710   4.529  25.483  1.00  0.00    -0.248 NA
ATOM     50  C   UNL     1      -1.801   2.583  24.573  1.00  0.00     0.031 C 
ATOM     51  C   UNL     1       0.234   6.967  23.174  1.00  0.00     0.029 A 
ATOM     52  N   UNL     1      -1.481   7.039  24.607  1.00  0.00    -0.354 N 
ATOM     53  C   UNL     1      -3.466   3.437  25.890  1.00  0.00     0.074 A 
ATOM     54  C   UNL     1      -2.894   2.270  25.255  1.00  0.00     0.031 C 
ATOM     55  C   UNL     1      -0.043   8.260  23.405  1.00  0.00     0.029 A 
ATOM     56  C   UNL     1      -1.175   8.349  24.321  1.00  0.00     0.049 A 
ATOM     57  H   UNL     1      -2.202   6.776  25.224  1.00  0.00     0.167 HD
ATOM     58  C   UNL     1      -4.524   3.403  26.735  1.00  0.00     0.034 A 
ATOM     59  C   UNL     1      -1.746   9.495  24.740  1.00  0.00     0.034 A 
ATOM     60  C   UNL     1      -5.071   4.562  27.388  1.00  0.00     0.049 A 
ATOM     61  C   UNL     1      -2.884   9.429  25.721  1.00  0.00     0.074 A 
ATOM     62  C   UNL     1      -6.071   4.620  28.343  1.00  0.00     0.029 A 
ATOM     63  N   UNL     1      -4.683   5.870  27.139  1.00  0.00    -0.354 N 
ATOM     64  N   UNL     1      -3.465   8.375  26.240  1.00  0.00    -0.248 NA
ATOM     65  C   UNL     1      -3.416  10.710  26.206  1.00  0.00     0.031 C 
ATOM     66  C   UNL     1      -6.316   5.965  28.640  1.00  0.00     0.029 A 
ATOM     67  C   UNL     1      -5.438   6.744  27.904  1.00  0.00     0.049 A 
ATOM     68  H   UNL     1      -3.974   6.138  26.511  1.00  0.00     0.167 HD
ATOM     69  C   UNL     1      -4.413   8.863  27.131  1.00  0.00     0.074 A 
ATOM     70  C   UNL     1      -4.304  10.308  27.104  1.00  0.00     0.031 C 
ATOM     71  C   UNL     1      -5.303   8.179  27.893  1.00  0.00     0.034 A 
BRANCH  58  72
ATOM     72  C   UNL     1      -5.143   2.059  27.028  1.00  0.00     0.023 A 
ATOM     73  C   UNL     1      -4.431   1.109  27.789  1.00  0.00     0.012 A 
ATOM     74  C   UNL     1      -6.449   1.756  26.596  1.00  0.00     0.148 A 
ATOM     75  C   UNL     1      -4.990  -0.136  28.077  1.00  0.00     0.002 A 
ATOM     76  C   UNL     1      -7.019   0.533  26.929  1.00  0.00     0.091 A 
ATOM     77  F   UNL     1      -7.104   2.662  25.856  1.00  0.00    -0.205 F 
ATOM     78  C   UNL     1      -6.287  -0.419  27.657  1.00  0.00     0.022 A 
BRANCH  76  79
ATOM     79  S   UNL     1      -8.712   0.107  26.508  1.00  0.00     0.127 S 
ATOM     80  O   UNL     1      -8.511  -0.914  25.480  1.00  0.00    -0.237 OA
ATOM     81  O   UNL     1      -9.226  -0.402  27.779  1.00  0.00    -0.237 OA
ATOM     82  O   UNL     1      -9.335   1.340  26.050  1.00  0.00    -0.744 OA
ENDBRANCH  76  79
ENDBRANCH  58  72
BRANCH  59  83
ATOM     83  C   UNL     1      -1.213  10.802  24.265  1.00  0.00     0.023 A 
ATOM     84  C   UNL     1      -0.524  11.644  25.159  1.00  0.00     0.012 A 
ATOM     85  C   UNL     1      -1.352  11.195  22.919  1.00  0.00     0.148 A 
ATOM     86  C   UNL     1      -0.010  12.868  24.729  1.00  0.00     0.002 A 
ATOM     87  C   UNL     1      -0.786  12.386  22.484  1.00  0.00     0.091 A 
ATOM     88  F   UNL     1      -2.019  10.382  22.088  1.00  0.00    -0.205 F 
ATOM     89  C   UNL     1      -0.131  13.233  23.391  1.00  0.00     0.022 A 
BRANCH  87  90
ATOM     90  S   UNL     1      -0.769  12.868  20.754  1.00  0.00     0.127 S 
ATOM     91  O   UNL     1      -1.661  14.024  20.757  1.00  0.00    -0.237 OA
ATOM     92  O   UNL     1       0.645  13.179  20.543  1.00  0.00    -0.237 OA
ATOM     93  O   UNL     1      -1.244  11.706  20.016  1.00  0.00    -0.744 OA
ENDBRANCH  87  90
ENDBRANCH  59  83
BRANCH  71  94
ATOM     94  C   UNL     1      -6.219   8.982  28.781  1.00  0.00     0.023 A 
ATOM     95  C   UNL     1      -7.240   9.771  28.213  1.00  0.00     0.012 A 
ATOM     96  C   UNL     1      -6.096   8.920  30.183  1.00  0.00     0.148 A 
ATOM     97  C   UNL     1      -8.092  10.520  29.023  1.00  0.00     0.002 A 
ATOM     98  C   UNL     1      -6.984   9.627  30.986  1.00  0.00     0.091 A 
ATOM     99  F   UNL     1      -5.108   8.180  30.708  1.00  0.00    -0.205 F 
ATOM    100  C   UNL     1      -7.971  10.440  30.408  1.00  0.00     0.022 A 
BRANCH  98 101
ATOM    101  S   UNL     1      -6.965   9.505  32.778  1.00  0.00     0.127 S 
ATOM    102  O   UNL     1      -6.416  10.806  33.159  1.00  0.00    -0.237 OA
ATOM    103  O   UNL     1      -8.384   9.327  33.091  1.00  0.00    -0.237 OA
ATOM    104  O   UNL     1      -6.129   8.355  33.094  1.00  0.00    -0.744 OA
ENDBRANCH  98 101
ENDBRANCH  71  94
ENDBRANCH  45  46
ENDBRANCH  37  40
ENDBRANCH  35  36
ENDBRANCH  34  35
ENDBRANCH   1  34
TORSDOF 19
