REMARK SMILES O=C(NCCCCCCNC(=O)c1ccc(Cl)cc1NC(=O)c1cc(Cl)nnc1Cl)c1ccc(-c2c3nc(c(-c4cccc(S(=O)(=O)[O-])c4F)c4ccc([nH]4)c(-c4cccc(S(=O)(=O)[O-])c4F)c4nc(c(-c5cccc(S(=O)(=O)[O-])c5F)c5ccc2[nH]5)C=C4)C=C3)cc1
REMARK SMILES IDX 6 1 5 2 4 3 3 4 1 5 2 6 31 8 32 9 93 10 33 11 92 12 34 13
REMARK SMILES IDX 35 14 36 15 86 16 37 17 91 18 85 19 87 20 38 21 90 22 84 23
REMARK SMILES IDX 83 24 39 26 71 27 51 28 70 29 52 30 55 31 69 32 88 33 53 34
REMARK SMILES IDX 54 35 68 37 89 38 56 39 40 40 41 41 49 42 42 43 44 44 50 45
REMARK SMILES IDX 43 46 45 47 46 48 47 49 48 50 72 51 73 52 81 53 74 54 76 55
REMARK SMILES IDX 82 56 75 57 77 58 78 59 79 60 80 61 57 62 58 63 66 64 59 65
REMARK SMILES IDX 61 66 67 67 60 68 62 69 63 70 64 71 65 72 7 73 8 74 9 75
REMARK SMILES IDX 10 76 11 77 12 79 13 80 14 81 19 82 15 83 18 84 16 85 17 86
REMARK SMILES IDX 20 87 21 88 22 90 23 91 24 92 29 93 25 94 28 95 30 96 26 97
REMARK SMILES IDX 27 98
REMARK H PARENT 3 7 87 25 55 36 10 78 20 89
REMARK Flexibility Score: inf
ROOT
ATOM      1  C   UNL     1       4.326  -3.460  -1.261  1.00  0.00     0.002 C 
ENDROOT
BRANCH   1   2
ATOM      2  C   UNL     1       4.802  -2.412  -0.249  1.00  0.00     0.021 C 
BRANCH   2   3
ATOM      3  C   UNL     1       4.454  -0.966  -0.599  1.00  0.00     0.116 C 
BRANCH   3   4
ATOM      4  N   UNL     1       3.018  -0.750  -0.654  1.00  0.00    -0.352 N 
ATOM      5  O   UNL     1       1.033   0.097  -0.010  1.00  0.00    -0.269 OA
ATOM      6  C   UNL     1       2.257   0.187  -0.000  1.00  0.00     0.251 C 
ATOM      7  H   UNL     1       2.521  -1.363  -1.243  1.00  0.00     0.163 HD
BRANCH   6   8
ATOM      8  C   UNL     1       2.918   1.294   0.723  1.00  0.00     0.039 A 
ATOM      9  C   UNL     1       3.901   2.065   0.096  1.00  0.00     0.014 A 
ATOM     10  C   UNL     1       2.530   1.578   2.036  1.00  0.00     0.014 A 
ATOM     11  C   UNL     1       4.566   3.056   0.815  1.00  0.00     0.010 A 
ATOM     12  C   UNL     1       3.173   2.598   2.744  1.00  0.00     0.010 A 
ATOM     13  C   UNL     1       4.216   3.323   2.148  1.00  0.00    -0.014 A 
BRANCH  13  14
ATOM     14  C   UNL     1       4.943   4.378   2.896  1.00  0.00     0.031 A 
ATOM     15  C   UNL     1       5.918   4.016   3.982  1.00  0.00     0.074 A 
ATOM     16  C   UNL     1       4.734   5.671   2.582  1.00  0.00     0.049 A 
ATOM     17  N   UNL     1       6.708   4.802   4.666  1.00  0.00    -0.248 NA
ATOM     18  C   UNL     1       6.023   2.594   4.350  1.00  0.00     0.031 C 
ATOM     19  C   UNL     1       3.774   6.150   1.586  1.00  0.00     0.029 A 
ATOM     20  N   UNL     1       5.308   6.816   3.072  1.00  0.00    -0.354 N 
ATOM     21  C   UNL     1       7.391   3.980   5.553  1.00  0.00     0.074 A 
ATOM     22  C   UNL     1       6.916   2.631   5.332  1.00  0.00     0.031 C 
ATOM     23  C   UNL     1       3.825   7.491   1.540  1.00  0.00     0.029 A 
ATOM     24  C   UNL     1       4.811   7.966   2.508  1.00  0.00     0.049 A 
ATOM     25  H   UNL     1       6.010   6.815   3.763  1.00  0.00     0.167 HD
ATOM     26  C   UNL     1       8.345   4.317   6.449  1.00  0.00     0.034 A 
ATOM     27  C   UNL     1       5.112   9.259   2.741  1.00  0.00     0.034 A 
ATOM     28  C   UNL     1       8.846   5.650   6.640  1.00  0.00     0.049 A 
ATOM     29  C   UNL     1       6.188   9.601   3.732  1.00  0.00     0.074 A 
ATOM     30  C   UNL     1       9.883   6.064   7.459  1.00  0.00     0.029 A 
ATOM     31  N   UNL     1       8.343   6.782   6.024  1.00  0.00    -0.354 N 
ATOM     32  N   UNL     1       6.944   8.792   4.433  1.00  0.00    -0.248 NA
ATOM     33  C   UNL     1       6.475  11.028   3.946  1.00  0.00     0.031 C 
ATOM     34  C   UNL     1       9.998   7.452   7.348  1.00  0.00     0.029 A 
ATOM     35  C   UNL     1       9.035   7.898   6.458  1.00  0.00     0.049 A 
ATOM     36  H   UNL     1       7.603   6.792   5.374  1.00  0.00     0.167 HD
ATOM     37  C   UNL     1       7.801   9.608   5.161  1.00  0.00     0.074 A 
ATOM     38  C   UNL     1       7.489  10.975   4.801  1.00  0.00     0.031 C 
ATOM     39  C   UNL     1       8.748   9.251   6.061  1.00  0.00     0.034 A 
BRANCH  26  40
ATOM     40  C   UNL     1       8.983   3.225   7.260  1.00  0.00     0.023 A 
ATOM     41  C   UNL     1      10.030   2.478   6.687  1.00  0.00     0.012 A 
ATOM     42  C   UNL     1       8.656   3.044   8.617  1.00  0.00     0.148 A 
ATOM     43  C   UNL     1      10.748   1.563   7.455  1.00  0.00     0.002 A 
ATOM     44  C   UNL     1       9.391   2.147   9.383  1.00  0.00     0.091 A 
ATOM     45  F   UNL     1       7.653   3.768   9.134  1.00  0.00    -0.205 F 
ATOM     46  C   UNL     1      10.436   1.406   8.804  1.00  0.00     0.022 A 
BRANCH  44  47
ATOM     47  S   UNL     1       9.108   1.901  11.139  1.00  0.00     0.127 S 
ATOM     48  O   UNL     1       8.763   0.479  11.184  1.00  0.00    -0.237 OA
ATOM     49  O   UNL     1      10.415   2.229  11.707  1.00  0.00    -0.237 OA
ATOM     50  O   UNL     1       8.028   2.805  11.506  1.00  0.00    -0.744 OA
ENDBRANCH  44  47
ENDBRANCH  26  40
BRANCH  27  51
ATOM     51  C   UNL     1       4.405  10.321   1.978  1.00  0.00     0.023 A 
ATOM     52  C   UNL     1       5.076  10.990   0.938  1.00  0.00     0.012 A 
ATOM     53  C   UNL     1       3.057  10.629   2.243  1.00  0.00     0.148 A 
ATOM     54  C   UNL     1       4.418  11.959   0.179  1.00  0.00     0.002 A 
ATOM     55  C   UNL     1       2.396  11.565   1.459  1.00  0.00     0.091 A 
ATOM     56  F   UNL     1       2.446   9.983   3.247  1.00  0.00    -0.205 F 
ATOM     57  C   UNL     1       3.077  12.239   0.433  1.00  0.00     0.022 A 
BRANCH  55  58
ATOM     58  S   UNL     1       0.644  11.918   1.644  1.00  0.00     0.127 S 
ATOM     59  O   UNL     1       0.669  13.289   2.148  1.00  0.00    -0.237 OA
ATOM     60  O   UNL     1       0.163  11.775   0.270  1.00  0.00    -0.237 OA
ATOM     61  O   UNL     1       0.135  10.915   2.569  1.00  0.00    -0.744 OA
ENDBRANCH  55  58
ENDBRANCH  27  51
BRANCH  39  62
ATOM     62  C   UNL     1       9.526  10.338   6.749  1.00  0.00     0.023 A 
ATOM     63  C   UNL     1       8.943  11.005   7.842  1.00  0.00     0.012 A 
ATOM     64  C   UNL     1      10.873  10.581   6.419  1.00  0.00     0.148 A 
ATOM     65  C   UNL     1       9.691  11.902   8.602  1.00  0.00     0.002 A 
ATOM     66  C   UNL     1      11.623  11.452   7.201  1.00  0.00     0.091 A 
ATOM     67  F   UNL     1      11.400   9.932   5.372  1.00  0.00    -0.205 F 
ATOM     68  C   UNL     1      11.033  12.115   8.290  1.00  0.00     0.022 A 
BRANCH  66  69
ATOM     69  S   UNL     1      13.377  11.733   6.933  1.00  0.00     0.127 S 
ATOM     70  O   UNL     1      13.400  13.151   6.578  1.00  0.00    -0.237 OA
ATOM     71  O   UNL     1      13.943  11.422   8.245  1.00  0.00    -0.237 OA
ATOM     72  O   UNL     1      13.774  10.824   5.865  1.00  0.00    -0.744 OA
ENDBRANCH  66  69
ENDBRANCH  39  62
ENDBRANCH  13  14
ENDBRANCH   6   8
ENDBRANCH   3   4
ENDBRANCH   2   3
ENDBRANCH   1   2
BRANCH   1  73
ATOM     73  C   UNL     1       4.841  -3.280  -2.692  1.00  0.00     0.002 C 
BRANCH  73  74
ATOM     74  C   UNL     1       6.363  -3.201  -2.839  1.00  0.00     0.021 C 
BRANCH  74  75
ATOM     75  C   UNL     1       7.130  -4.395  -2.273  1.00  0.00     0.116 C 
BRANCH  75  76
ATOM     76  N   UNL     1       6.879  -5.620  -3.022  1.00  0.00    -0.352 N 
ATOM     77  C   UNL     1       7.785  -6.451  -3.634  1.00  0.00     0.253 C 
ATOM     78  H   UNL     1       5.934  -5.886  -3.100  1.00  0.00     0.163 HD
ATOM     79  O   UNL     1       7.413  -7.331  -4.405  1.00  0.00    -0.269 OA
BRANCH  77  80
ATOM     80  C   UNL     1       9.231  -6.229  -3.415  1.00  0.00     0.063 A 
ATOM     81  C   UNL     1       9.704  -6.211  -2.092  1.00  0.00     0.017 A 
ATOM     82  C   UNL     1      10.101  -6.009  -4.503  1.00  0.00     0.055 A 
ATOM     83  C   UNL     1      11.020  -5.844  -1.830  1.00  0.00     0.021 A 
ATOM     84  C   UNL     1      11.391  -5.556  -4.211  1.00  0.00     0.047 A 
ATOM     85  C   UNL     1      11.844  -5.482  -2.889  1.00  0.00     0.043 A 
ATOM     86  Cl  UNL     1      13.445  -4.937  -2.575  1.00  0.00    -0.084 Cl
BRANCH  82  87
ATOM     87  N   UNL     1       9.631  -6.246  -5.820  1.00  0.00    -0.321 N 
ATOM     88  C   UNL     1      10.255  -6.359  -7.039  1.00  0.00     0.258 C 
ATOM     89  H   UNL     1       8.653  -6.352  -5.871  1.00  0.00     0.170 HD
ATOM     90  O   UNL     1       9.603  -6.460  -8.077  1.00  0.00    -0.269 OA
BRANCH  88  91
ATOM     91  C   UNL     1      11.707  -6.369  -7.178  1.00  0.00     0.082 A 
ATOM     92  C   UNL     1      12.303  -5.315  -7.873  1.00  0.00     0.060 A 
ATOM     93  C   UNL     1      12.495  -7.397  -6.692  1.00  0.00     0.164 A 
ATOM     94  C   UNL     1      13.674  -5.322  -7.977  1.00  0.00     0.152 A 
ATOM     95  N   UNL     1      13.839  -7.361  -6.811  1.00  0.00    -0.136 NA
ATOM     96  Cl  UNL     1      11.903  -8.796  -5.899  1.00  0.00    -0.059 Cl
ATOM     97  Cl  UNL     1      14.521  -4.067  -8.771  1.00  0.00    -0.060 Cl
ATOM     98  N   UNL     1      14.437  -6.301  -7.453  1.00  0.00    -0.137 NA
ENDBRANCH  88  91
ENDBRANCH  82  87
ENDBRANCH  77  80
ENDBRANCH  75  76
ENDBRANCH  74  75
ENDBRANCH  73  74
ENDBRANCH   1  73
TORSDOF 18
