REMARK SMILES O=C(Cn1cnc(-c2ccccc2)c1-c1ccccc1)NCCCCCCNC(=O)c1ccc(-c2c3nc(c(-c4cccc(S(=O)(=O)[O-])c4F)c4ccc([nH]4)c(-c4cccc(S(=O)(=O)[O-])c4F)c4nc(c(-c5cccc(S(=O)(=O)[O-])c5F)c5ccc2[nH]5)C=C4)C=C3)cc1
REMARK SMILES IDX 25 1 24 2 23 3 22 4 21 5 1 6 2 7 3 9 4 10 5 11 14 12 6 13
REMARK SMILES IDX 7 14 15 15 16 16 20 17 17 18 19 19 18 20 8 21 9 22 13 23
REMARK SMILES IDX 10 24 12 25 11 26 26 27 27 28 28 29 29 30 30 32 31 33 32 34
REMARK SMILES IDX 93 35 33 36 92 37 34 38 35 39 36 40 86 41 37 42 91 43 85 44
REMARK SMILES IDX 87 45 38 46 90 47 84 48 83 49 39 51 71 52 51 53 70 54 52 55
REMARK SMILES IDX 55 56 69 57 88 58 53 59 54 60 68 62 89 63 56 64 40 65 41 66
REMARK SMILES IDX 49 67 42 68 44 69 50 70 43 71 45 72 46 73 47 74 48 75 72 76
REMARK SMILES IDX 73 77 81 78 74 79 76 80 82 81 75 82 77 83 78 84 79 85 80 86
REMARK SMILES IDX 57 87 58 88 66 89 59 90 61 91 67 92 60 93 62 94 63 95 64 96
REMARK SMILES IDX 65 97
REMARK H PARENT 21 8 28 31 87 50 55 61
REMARK Flexibility Score: inf
ROOT
ATOM      1  C   UNL     1       4.602  -0.205   4.269  1.00  0.00     0.002 C 
ENDROOT
BRANCH   1   2
ATOM      2  C   UNL     1       4.134  -1.417   3.447  1.00  0.00     0.002 C 
BRANCH   2   3
ATOM      3  C   UNL     1       2.630  -1.488   3.143  1.00  0.00     0.021 C 
BRANCH   3   4
ATOM      4  C   UNL     1       2.058  -0.258   2.439  1.00  0.00     0.116 C 
BRANCH   4   5
ATOM      5  N   UNL     1       2.706  -0.043   1.162  1.00  0.00    -0.355 N 
ATOM      6  O   UNL     1       0.798   0.340  -0.069  1.00  0.00    -0.273 OA
ATOM      7  C   UNL     1       2.014   0.193  -0.004  1.00  0.00     0.239 C 
ATOM      8  H   UNL     1       3.690  -0.068   1.126  1.00  0.00     0.163 HD
BRANCH   7   9
ATOM      9  C   UNL     1       2.887   0.235  -1.239  1.00  0.00     0.223 C 
BRANCH   9  10
ATOM     10  N   UNL     1       3.817   1.349  -1.206  1.00  0.00    -0.321 N 
ATOM     11  C   UNL     1       3.428   2.663  -1.167  1.00  0.00     0.201 A 
ATOM     12  C   UNL     1       5.196   1.311  -1.158  1.00  0.00     0.076 A 
ATOM     13  N   UNL     1       4.457   3.473  -1.093  1.00  0.00    -0.236 NA
ATOM     14  C   UNL     1       5.558   2.654  -1.114  1.00  0.00     0.096 A 
BRANCH  12  15
ATOM     15  C   UNL     1       6.032   0.112  -1.133  1.00  0.00     0.000 A 
ATOM     16  C   UNL     1       6.918  -0.101  -0.067  1.00  0.00     0.010 A 
ATOM     17  C   UNL     1       6.035  -0.784  -2.208  1.00  0.00     0.010 A 
ATOM     18  C   UNL     1       7.797  -1.186  -0.081  1.00  0.00     0.001 A 
ATOM     19  C   UNL     1       6.909  -1.873  -2.217  1.00  0.00     0.001 A 
ATOM     20  C   UNL     1       7.793  -2.070  -1.157  1.00  0.00     0.000 A 
ENDBRANCH  12  15
BRANCH  14  21
ATOM     21  C   UNL     1       6.917   3.160  -1.090  1.00  0.00     0.002 A 
ATOM     22  C   UNL     1       7.325   4.022  -0.068  1.00  0.00     0.010 A 
ATOM     23  C   UNL     1       7.837   2.777  -2.076  1.00  0.00     0.010 A 
ATOM     24  C   UNL     1       8.647   4.473  -0.017  1.00  0.00     0.001 A 
ATOM     25  C   UNL     1       9.154   3.232  -2.027  1.00  0.00     0.001 A 
ATOM     26  C   UNL     1       9.560   4.076  -0.995  1.00  0.00     0.000 A 
ENDBRANCH  14  21
ENDBRANCH   9  10
ENDBRANCH   7   9
ENDBRANCH   4   5
ENDBRANCH   3   4
ENDBRANCH   2   3
ENDBRANCH   1   2
BRANCH   1  27
ATOM     27  C   UNL     1       3.907   0.013   5.621  1.00  0.00     0.021 C 
BRANCH  27  28
ATOM     28  C   UNL     1       4.095  -1.133   6.602  1.00  0.00     0.116 C 
BRANCH  28  29
ATOM     29  N   UNL     1       5.476  -1.258   7.084  1.00  0.00    -0.352 N 
ATOM     30  C   UNL     1       5.969  -2.134   8.043  1.00  0.00     0.251 C 
ATOM     31  H   UNL     1       6.133  -0.647   6.679  1.00  0.00     0.163 HD
ATOM     32  O   UNL     1       7.011  -1.906   8.632  1.00  0.00    -0.269 OA
BRANCH  30  33
ATOM     33  C   UNL     1       5.208  -3.374   8.302  1.00  0.00     0.039 A 
ATOM     34  C   UNL     1       5.081  -3.942   9.573  1.00  0.00     0.014 A 
ATOM     35  C   UNL     1       4.586  -3.954   7.203  1.00  0.00     0.014 A 
ATOM     36  C   UNL     1       4.282  -5.077   9.714  1.00  0.00     0.010 A 
ATOM     37  C   UNL     1       3.611  -4.885   7.390  1.00  0.00     0.010 A 
ATOM     38  C   UNL     1       3.549  -5.536   8.607  1.00  0.00    -0.014 A 
BRANCH  38  39
ATOM     39  C   UNL     1       2.583  -6.620   8.692  1.00  0.00     0.031 A 
ATOM     40  C   UNL     1       1.497  -6.323   9.657  1.00  0.00     0.074 A 
ATOM     41  C   UNL     1       2.558  -7.637   7.796  1.00  0.00     0.049 A 
ATOM     42  N   UNL     1       1.343  -6.836  10.832  1.00  0.00    -0.248 NA
ATOM     43  C   UNL     1       0.624  -5.163   9.400  1.00  0.00     0.031 C 
ATOM     44  C   UNL     1       3.400  -7.821   6.602  1.00  0.00     0.029 A 
ATOM     45  N   UNL     1       1.678  -8.668   7.678  1.00  0.00    -0.354 N 
ATOM     46  C   UNL     1       0.163  -6.280  11.316  1.00  0.00     0.074 A 
ATOM     47  C   UNL     1      -0.053  -5.085  10.549  1.00  0.00     0.031 C 
ATOM     48  C   UNL     1       2.827  -8.722   5.771  1.00  0.00     0.029 A 
ATOM     49  C   UNL     1       1.672  -9.299   6.432  1.00  0.00     0.049 A 
ATOM     50  H   UNL     1       1.089  -8.948   8.416  1.00  0.00     0.167 HD
ATOM     51  C   UNL     1      -0.700  -7.037  12.050  1.00  0.00     0.034 A 
ATOM     52  C   UNL     1       0.757 -10.195   5.970  1.00  0.00     0.034 A 
ATOM     53  C   UNL     1      -0.056  -8.256  12.488  1.00  0.00     0.049 A 
ATOM     54  C   UNL     1       0.057 -10.737   7.157  1.00  0.00     0.074 A 
ATOM     55  C   UNL     1       1.072  -8.560  13.223  1.00  0.00     0.029 A 
ATOM     56  N   UNL     1      -0.363  -9.390  11.775  1.00  0.00    -0.354 N 
ATOM     57  N   UNL     1       0.651 -11.460   8.064  1.00  0.00    -0.248 NA
ATOM     58  C   UNL     1      -1.158 -10.063   7.580  1.00  0.00     0.031 C 
ATOM     59  C   UNL     1       1.649  -9.684  12.559  1.00  0.00     0.029 A 
ATOM     60  C   UNL     1       0.796 -10.069  11.523  1.00  0.00     0.049 A 
ATOM     61  H   UNL     1      -1.266  -9.666  11.493  1.00  0.00     0.167 HD
ATOM     62  C   UNL     1       0.189 -10.936   9.263  1.00  0.00     0.074 A 
ATOM     63  C   UNL     1      -0.993 -10.147   8.903  1.00  0.00     0.031 C 
ATOM     64  C   UNL     1       0.983 -10.926  10.373  1.00  0.00     0.034 A 
BRANCH  51  65
ATOM     65  C   UNL     1      -2.214  -6.935  12.001  1.00  0.00     0.023 A 
ATOM     66  C   UNL     1      -2.928  -7.776  12.886  1.00  0.00     0.012 A 
ATOM     67  C   UNL     1      -2.964  -6.310  10.977  1.00  0.00     0.148 A 
ATOM     68  C   UNL     1      -4.289  -8.048  12.709  1.00  0.00     0.002 A 
ATOM     69  C   UNL     1      -4.331  -6.528  10.847  1.00  0.00     0.091 A 
ATOM     70  F   UNL     1      -2.356  -5.590  10.035  1.00  0.00    -0.205 F 
ATOM     71  C   UNL     1      -4.991  -7.424  11.688  1.00  0.00     0.022 A 
BRANCH  69  72
ATOM     72  S   UNL     1      -5.301  -5.723   9.563  1.00  0.00     0.127 S 
ATOM     73  O   UNL     1      -5.644  -6.855   8.706  1.00  0.00    -0.237 OA
ATOM     74  O   UNL     1      -6.412  -5.171  10.338  1.00  0.00    -0.237 OA
ATOM     75  O   UNL     1      -4.426  -4.719   8.971  1.00  0.00    -0.744 OA
ENDBRANCH  69  72
ENDBRANCH  51  65
BRANCH  52  76
ATOM     76  C   UNL     1       0.213 -10.416   4.603  1.00  0.00     0.023 A 
ATOM     77  C   UNL     1      -0.495 -11.604   4.307  1.00  0.00     0.012 A 
ATOM     78  C   UNL     1       0.104  -9.343   3.693  1.00  0.00     0.148 A 
ATOM     79  C   UNL     1      -1.312 -11.701   3.170  1.00  0.00     0.002 A 
ATOM     80  C   UNL     1      -0.710  -9.443   2.566  1.00  0.00     0.091 A 
ATOM     81  F   UNL     1       0.722  -8.191   3.983  1.00  0.00    -0.205 F 
ATOM     82  C   UNL     1      -1.431 -10.617   2.307  1.00  0.00     0.022 A 
BRANCH  80  83
ATOM     83  S   UNL     1      -0.946  -8.068   1.430  1.00  0.00     0.127 S 
ATOM     84  O   UNL     1      -0.678  -8.696   0.136  1.00  0.00    -0.237 OA
ATOM     85  O   UNL     1      -2.345  -7.719   1.664  1.00  0.00    -0.237 OA
ATOM     86  O   UNL     1       0.029  -7.058   1.820  1.00  0.00    -0.744 OA
ENDBRANCH  80  83
ENDBRANCH  52  76
BRANCH  64  87
ATOM     87  C   UNL     1       2.263 -11.725  10.335  1.00  0.00     0.023 A 
ATOM     88  C   UNL     1       3.345 -11.423   9.480  1.00  0.00     0.012 A 
ATOM     89  C   UNL     1       2.429 -12.715  11.314  1.00  0.00     0.148 A 
ATOM     90  C   UNL     1       4.559 -12.110   9.592  1.00  0.00     0.002 A 
ATOM     91  C   UNL     1       3.648 -13.363  11.453  1.00  0.00     0.091 A 
ATOM     92  F   UNL     1       1.391 -12.986  12.119  1.00  0.00    -0.205 F 
ATOM     93  C   UNL     1       4.714 -13.072  10.588  1.00  0.00     0.022 A 
BRANCH  91  94
ATOM     94  S   UNL     1       3.937 -14.522  12.789  1.00  0.00     0.127 S 
ATOM     95  O   UNL     1       3.943 -15.802  12.085  1.00  0.00    -0.237 OA
ATOM     96  O   UNL     1       5.242 -14.094  13.297  1.00  0.00    -0.237 OA
ATOM     97  O   UNL     1       2.841 -14.331  13.732  1.00  0.00    -0.744 OA
ENDBRANCH  91  94
ENDBRANCH  64  87
ENDBRANCH  38  39
ENDBRANCH  30  33
ENDBRANCH  28  29
ENDBRANCH  27  28
ENDBRANCH   1  27
TORSDOF 19
