REMARK SMILES CC(C)C(=O)Nc1ccc2c([C@H](C(=O)NCCCCCCNC(=O)c3ccc(-c4c5nc(c(-c6cccc(S(=O)(=O)[O-])c6F)c6ccc([nH]6)c(-c6cccc(S(=O)(=O)[O-])c6F)c6nc(c(-c7cccc(S(=O)(=O)[O-])c7F)c7ccc4[nH]7)C=C6)C=C5)cc3)[NH+]3CC[NH+](CC(=O)N(C)C)CC3)c[nH]c2c1
REMARK SMILES IDX 18 1 17 2 16 3 15 4 13 5 14 6 12 8 11 9 7 10 8 11 103 12
REMARK SMILES IDX 9 13 102 14 10 15 101 16 100 17 6 19 4 20 5 21 2 23 1 24
REMARK SMILES IDX 3 25 88 26 89 27 99 28 90 30 98 31 91 32 92 34 93 35 94 36
REMARK SMILES IDX 95 37 96 38 97 39 19 40 20 41 21 42 22 43 23 44 24 46 25 47
REMARK SMILES IDX 26 48 87 49 27 50 86 51 28 52 29 53 30 54 80 55 31 56 85 57
REMARK SMILES IDX 79 58 81 59 32 60 84 61 78 62 77 63 33 65 65 66 45 67 64 68
REMARK SMILES IDX 46 69 49 70 63 71 82 72 47 73 48 74 62 76 83 77 50 78 34 79
REMARK SMILES IDX 35 80 43 81 36 82 38 83 44 84 37 85 39 86 40 87 41 88 42 89
REMARK SMILES IDX 66 90 67 91 75 92 68 93 70 94 76 95 69 96 71 97 72 98 73 99
REMARK SMILES IDX 74 100 51 101 52 102 60 103 53 104 55 105 61 106 54 107
REMARK SMILES IDX 56 108 57 109 58 110 59 111
REMARK H PARENT 15 7 101 18 6 22 88 29 91 33 22 45 81 64 49 75
REMARK Flexibility Score: inf
ROOT
ATOM      1  C   UNL     1       0.040  -3.762   4.024  1.00  0.00     0.002 C 
ENDROOT
BRANCH   1   2
ATOM      2  C   UNL     1       0.907  -2.685   4.667  1.00  0.00     0.021 C 
BRANCH   2   3
ATOM      3  C   UNL     1       0.797  -1.227   4.138  1.00  0.00     0.116 C 
BRANCH   3   4
ATOM      4  N   UNL     1      -0.057  -0.429   5.028  1.00  0.00    -0.351 N 
ATOM      5  C   UNL     1       0.169   0.351   6.143  1.00  0.00     0.283 C 
ATOM      6  O   UNL     1      -0.754   0.275   6.969  1.00  0.00    -0.268 OA
ATOM      7  H   UNL     1      -1.006  -0.457   4.769  1.00  0.00     0.163 HD
BRANCH   5   8
ATOM      8  C   UNL     1       1.372   1.369   6.318  1.00  0.00     0.308 C 
BRANCH   8   9
ATOM      9  C   UNL     1       1.000   2.639   7.140  1.00  0.00     0.044 A 
ATOM     10  C   UNL     1       3.169   5.849   8.887  1.00  0.00     0.043 A 
ATOM     11  C   UNL     1       3.924   4.920   8.185  1.00  0.00     0.027 A 
ATOM     12  C   UNL     1       1.805   5.628   9.100  1.00  0.00     0.052 A 
ATOM     13  C   UNL     1       3.318   3.833   7.545  1.00  0.00     0.013 A 
ATOM     14  C   UNL     1       1.209   4.542   8.437  1.00  0.00     0.048 A 
ATOM     15  C   UNL     1       1.923   3.644   7.641  1.00  0.00     0.009 A 
ATOM     16  N   UNL     1      -0.100   4.133   8.414  1.00  0.00    -0.361 N 
ATOM     17  C   UNL     1      -0.243   3.034   7.612  1.00  0.00     0.094 A 
ATOM     18  H   UNL     1      -0.833   4.569   8.906  1.00  0.00     0.166 HD
BRANCH  10  19
ATOM     19  N   UNL     1       3.740   7.003   9.435  1.00  0.00    -0.326 N 
ATOM     20  C   UNL     1       4.628   7.894   8.903  1.00  0.00     0.226 C 
ATOM     21  O   UNL     1       5.105   8.743   9.668  1.00  0.00    -0.274 OA
ATOM     22  H   UNL     1       3.456   7.205  10.355  1.00  0.00     0.169 HD
BRANCH  20  23
ATOM     23  C   UNL     1       4.953   7.971   7.403  1.00  0.00     0.072 C 
ATOM     24  C   UNL     1       6.024   7.004   6.918  1.00  0.00     0.018 C 
ATOM     25  C   UNL     1       3.718   7.990   6.504  1.00  0.00     0.018 C 
ENDBRANCH  20  23
ENDBRANCH  10  19
ENDBRANCH   8   9
BRANCH   8  26
ATOM     26  N   UNL     1       2.587   0.830   6.950  1.00  0.00    -0.312 N 
ATOM     27  C   UNL     1       2.595   0.400   8.352  1.00  0.00     0.325 C 
ATOM     28  C   UNL     1       3.513   0.084   6.130  1.00  0.00     0.325 C 
ATOM     29  H   UNL     1       2.968   1.772   7.037  1.00  0.00     0.349 HD
ATOM     30  C   UNL     1       2.657  -1.130   8.625  1.00  0.00     0.325 C 
ATOM     31  C   UNL     1       3.247  -1.407   6.307  1.00  0.00     0.325 C 
ATOM     32  N   UNL     1       3.332  -1.981   7.636  1.00  0.00    -0.318 N 
ATOM     33  H   UNL     1       2.790  -2.845   7.639  1.00  0.00     0.348 HD
BRANCH  32  34
ATOM     34  C   UNL     1       4.646  -2.526   7.989  1.00  0.00     0.364 C 
BRANCH  34  35
ATOM     35  C   UNL     1       5.792  -1.526   7.825  1.00  0.00     0.277 C 
ATOM     36  O   UNL     1       6.064  -0.773   8.767  1.00  0.00    -0.268 OA
ATOM     37  N   UNL     1       6.447  -1.434   6.595  1.00  0.00    -0.344 N 
ATOM     38  C   UNL     1       6.293  -2.318   5.442  1.00  0.00     0.146 C 
ATOM     39  C   UNL     1       7.387  -0.343   6.401  1.00  0.00     0.146 C 
ENDBRANCH  34  35
ENDBRANCH  32  34
ENDBRANCH   8  26
ENDBRANCH   5   8
ENDBRANCH   3   4
ENDBRANCH   2   3
ENDBRANCH   1   2
BRANCH   1  40
ATOM     40  C   UNL     1       0.574  -4.333   2.708  1.00  0.00     0.002 C 
BRANCH  40  41
ATOM     41  C   UNL     1       2.012  -4.878   2.714  1.00  0.00     0.021 C 
BRANCH  41  42
ATOM     42  C   UNL     1       2.356  -5.894   3.807  1.00  0.00     0.116 C 
BRANCH  42  43
ATOM     43  N   UNL     1       1.518  -7.081   3.745  1.00  0.00    -0.352 N 
ATOM     44  C   UNL     1       1.809  -8.352   3.313  1.00  0.00     0.251 C 
ATOM     45  H   UNL     1       0.596  -6.954   4.064  1.00  0.00     0.163 HD
ATOM     46  O   UNL     1       0.897  -9.154   3.129  1.00  0.00    -0.269 OA
BRANCH  44  47
ATOM     47  C   UNL     1       3.208  -8.763   3.058  1.00  0.00     0.039 A 
ATOM     48  C   UNL     1       3.504  -9.471   1.888  1.00  0.00     0.014 A 
ATOM     49  C   UNL     1       4.215  -8.507   3.991  1.00  0.00     0.014 A 
ATOM     50  C   UNL     1       4.819  -9.867   1.625  1.00  0.00     0.010 A 
ATOM     51  C   UNL     1       5.535  -8.852   3.701  1.00  0.00     0.010 A 
ATOM     52  C   UNL     1       5.852  -9.537   2.517  1.00  0.00    -0.014 A 
BRANCH  52  53
ATOM     53  C   UNL     1       7.270  -9.881   2.228  1.00  0.00     0.031 A 
ATOM     54  C   UNL     1       8.020 -10.826   3.127  1.00  0.00     0.074 A 
ATOM     55  C   UNL     1       7.915  -9.259   1.221  1.00  0.00     0.049 A 
ATOM     56  N   UNL     1       9.285 -11.161   3.102  1.00  0.00    -0.248 NA
ATOM     57  C   UNL     1       7.255 -11.459   4.214  1.00  0.00     0.031 C 
ATOM     58  C   UNL     1       7.318  -8.272   0.319  1.00  0.00     0.029 A 
ATOM     59  N   UNL     1       9.223  -9.334   0.810  1.00  0.00    -0.354 N 
ATOM     60  C   UNL     1       9.477 -12.005   4.189  1.00  0.00     0.074 A 
ATOM     61  C   UNL     1       8.204 -12.115   4.867  1.00  0.00     0.031 C 
ATOM     62  C   UNL     1       8.258  -7.825  -0.529  1.00  0.00     0.029 A 
ATOM     63  C   UNL     1       9.531  -8.466  -0.212  1.00  0.00     0.049 A 
ATOM     64  H   UNL     1       9.879  -9.950   1.210  1.00  0.00     0.167 HD
ATOM     65  C   UNL     1      10.605 -12.650   4.574  1.00  0.00     0.034 A 
ATOM     66  C   UNL     1      10.707  -8.200  -0.815  1.00  0.00     0.034 A 
ATOM     67  C   UNL     1      11.857 -12.575   3.870  1.00  0.00     0.049 A 
ATOM     68  C   UNL     1      11.938  -8.955  -0.391  1.00  0.00     0.074 A 
ATOM     69  C   UNL     1      13.029 -13.266   4.126  1.00  0.00     0.029 A 
ATOM     70  N   UNL     1      12.105 -11.758   2.780  1.00  0.00    -0.354 N 
ATOM     71  N   UNL     1      12.062  -9.868   0.541  1.00  0.00    -0.248 NA
ATOM     72  C   UNL     1      13.182  -8.670  -1.121  1.00  0.00     0.031 C 
ATOM     73  C   UNL     1      13.993 -12.846   3.205  1.00  0.00     0.029 A 
ATOM     74  C   UNL     1      13.414 -11.915   2.358  1.00  0.00     0.049 A 
ATOM     75  H   UNL     1      11.447 -11.153   2.366  1.00  0.00     0.167 HD
ATOM     76  C   UNL     1      13.385 -10.294   0.485  1.00  0.00     0.074 A 
ATOM     77  C   UNL     1      14.018  -9.548  -0.583  1.00  0.00     0.031 C 
ATOM     78  C   UNL     1      14.018 -11.211   1.256  1.00  0.00     0.034 A 
BRANCH  65  79
ATOM     79  C   UNL     1      10.528 -13.534   5.792  1.00  0.00     0.023 A 
ATOM     80  C   UNL     1       9.826 -14.755   5.723  1.00  0.00     0.012 A 
ATOM     81  C   UNL     1      11.201 -13.191   6.981  1.00  0.00     0.148 A 
ATOM     82  C   UNL     1       9.765 -15.603   6.828  1.00  0.00     0.002 A 
ATOM     83  C   UNL     1      11.173 -14.063   8.064  1.00  0.00     0.091 A 
ATOM     84  F   UNL     1      11.848 -12.018   7.035  1.00  0.00    -0.205 F 
ATOM     85  C   UNL     1      10.446 -15.263   7.993  1.00  0.00     0.022 A 
BRANCH  83  86
ATOM     86  S   UNL     1      12.085 -13.754   9.581  1.00  0.00     0.127 S 
ATOM     87  O   UNL     1      11.006 -13.424  10.510  1.00  0.00    -0.237 OA
ATOM     88  O   UNL     1      12.727 -15.045   9.824  1.00  0.00    -0.237 OA
ATOM     89  O   UNL     1      13.006 -12.665   9.279  1.00  0.00    -0.744 OA
ENDBRANCH  83  86
ENDBRANCH  65  79
BRANCH  66  90
ATOM     90  C   UNL     1      10.761  -7.206  -1.925  1.00  0.00     0.023 A 
ATOM     91  C   UNL     1      10.975  -7.653  -3.243  1.00  0.00     0.012 A 
ATOM     92  C   UNL     1      10.562  -5.832  -1.689  1.00  0.00     0.148 A 
ATOM     93  C   UNL     1      11.018  -6.746  -4.303  1.00  0.00     0.002 A 
ATOM     94  C   UNL     1      10.549  -4.941  -2.756  1.00  0.00     0.091 A 
ATOM     95  F   UNL     1      10.372  -5.425  -0.426  1.00  0.00    -0.205 F 
ATOM     96  C   UNL     1      10.793  -5.393  -4.062  1.00  0.00     0.022 A 
BRANCH  94  97
ATOM     97  S   UNL     1      10.130  -3.205  -2.553  1.00  0.00     0.127 S 
ATOM     98  O   UNL     1      11.419  -2.557  -2.776  1.00  0.00    -0.237 OA
ATOM     99  O   UNL     1       9.145  -3.005  -3.617  1.00  0.00    -0.237 OA
ATOM    100  O   UNL     1       9.585  -3.087  -1.207  1.00  0.00    -0.744 OA
ENDBRANCH  94  97
ENDBRANCH  66  90
BRANCH  78 101
ATOM    101  C   UNL     1      15.465 -11.506   0.959  1.00  0.00     0.023 A 
ATOM    102  C   UNL     1      16.459 -10.575   1.320  1.00  0.00     0.012 A 
ATOM    103  C   UNL     1      15.844 -12.751   0.418  1.00  0.00     0.148 A 
ATOM    104  C   UNL     1      17.808 -10.871   1.128  1.00  0.00     0.002 A 
ATOM    105  C   UNL     1      17.191 -13.058   0.275  1.00  0.00     0.091 A 
ATOM    106  F   UNL     1      14.880 -13.614   0.066  1.00  0.00    -0.205 F 
ATOM    107  C   UNL     1      18.174 -12.116   0.619  1.00  0.00     0.022 A 
BRANCH 105 108
ATOM    108  S   UNL     1      17.761 -14.669  -0.279  1.00  0.00     0.127 S 
ATOM    109  O   UNL     1      18.308 -14.354  -1.598  1.00  0.00    -0.237 OA
ATOM    110  O   UNL     1      18.762 -15.007   0.732  1.00  0.00    -0.237 OA
ATOM    111  O   UNL     1      16.588 -15.532  -0.283  1.00  0.00    -0.744 OA
ENDBRANCH 105 108
ENDBRANCH  78 101
ENDBRANCH  52  53
ENDBRANCH  44  47
ENDBRANCH  42  43
ENDBRANCH  41  42
ENDBRANCH  40  41
ENDBRANCH   1  40
TORSDOF 22
