REMARK SMILES CSc1nc(O)nc(C)c1C(=O)N1C[C@@H](O)C[C@@H]1C(=O)NCCCCCCNC(=O)c1ccc(-c2c3nc(c(-c4cccc(S(=O)(=O)[O-])c4F)c4ccc([nH]4)c(-c4cccc(S(=O)(=O)[O-])c4F)c4nc(c(-c5cccc(S(=O)(=O)[O-])c5F)c5ccc2[nH]5)C=C4)C=C3)cc1
REMARK SMILES IDX 24 1 23 2 22 3 21 4 19 5 20 6 18 8 13 9 14 10 15 11 17 12
REMARK SMILES IDX 11 13 12 14 10 15 3 16 4 17 5 18 8 19 7 20 9 21 2 22 1 23
REMARK SMILES IDX 6 24 16 26 25 28 26 29 27 30 28 31 29 32 30 34 31 35 32 36
REMARK SMILES IDX 93 37 33 38 92 39 34 40 35 41 36 42 86 43 37 44 91 45 85 46
REMARK SMILES IDX 87 47 38 48 90 49 84 50 83 51 39 53 71 54 51 55 70 56 52 57
REMARK SMILES IDX 55 58 69 59 88 60 53 61 54 62 68 64 89 65 56 66 40 67 41 68
REMARK SMILES IDX 49 69 42 70 44 71 50 72 43 73 45 74 46 75 47 76 48 77 72 78
REMARK SMILES IDX 73 79 81 80 74 81 76 82 82 83 75 84 77 85 78 86 79 87 80 88
REMARK SMILES IDX 57 89 58 90 66 91 59 92 61 93 67 94 60 95 62 96 63 97 64 98
REMARK SMILES IDX 65 99
REMARK H PARENT 21 7 6 25 16 27 28 33 87 52 55 63
REMARK Flexibility Score: inf
ROOT
ATOM      1  C   UNL     1       3.543  -7.532   1.674  1.00  0.00     0.002 C 
ENDROOT
BRANCH   1   2
ATOM      2  C   UNL     1       2.072  -7.116   1.619  1.00  0.00     0.021 C 
BRANCH   2   3
ATOM      3  C   UNL     1       1.501  -6.588   2.937  1.00  0.00     0.116 C 
BRANCH   3   4
ATOM      4  N   UNL     1       2.053  -5.288   3.282  1.00  0.00    -0.354 N 
ATOM      5  C   UNL     1       1.437  -4.074   3.402  1.00  0.00     0.242 C 
ATOM      6  O   UNL     1       2.139  -3.103   3.699  1.00  0.00    -0.273 OA
ATOM      7  H   UNL     1       3.022  -5.281   3.457  1.00  0.00     0.163 HD
BRANCH   5   8
ATOM      8  C   UNL     1      -0.064  -3.927   3.076  1.00  0.00     0.177 C 
ATOM      9  N   UNL     1      -0.246  -3.493   1.683  1.00  0.00    -0.324 N 
ATOM     10  C   UNL     1      -1.199  -2.400   1.627  1.00  0.00     0.152 C 
ATOM     11  C   UNL     1      -0.994  -1.678   2.954  1.00  0.00     0.136 C 
ATOM     12  C   UNL     1      -0.717  -2.824   3.929  1.00  0.00     0.069 C 
BRANCH   9  13
ATOM     13  C   UNL     1      -0.050  -4.381   0.644  1.00  0.00     0.259 C 
ATOM     14  O   UNL     1      -0.360  -5.557   0.811  1.00  0.00    -0.269 OA
BRANCH  13  15
ATOM     15  C   UNL     1       0.586  -3.944  -0.645  1.00  0.00     0.093 A 
ATOM     16  C   UNL     1       1.298  -2.752  -0.842  1.00  0.00     0.116 A 
ATOM     17  N   UNL     1       1.835  -2.389  -2.034  1.00  0.00    -0.188 NA
ATOM     18  C   UNL     1       1.715  -3.263  -3.016  1.00  0.00     0.315 A 
ATOM     19  C   UNL     1       0.583  -4.799  -1.763  1.00  0.00     0.058 A 
ATOM     20  N   UNL     1       1.143  -4.454  -2.954  1.00  0.00    -0.200 NA
ATOM     21  C   UNL     1       0.116  -6.230  -1.766  1.00  0.00     0.068 C 
BRANCH  16  22
ATOM     22  S   UNL     1       1.785  -1.596   0.435  1.00  0.00    -0.109 SA
ATOM     23  C   UNL     1       1.268  -0.048  -0.350  1.00  0.00     0.092 C 
ENDBRANCH  16  22
BRANCH  18  24
ATOM     24  O   UNL     1       2.275  -2.959  -4.214  1.00  0.00    -0.479 OA
ATOM     25  H   UNL     1       2.700  -2.133  -4.336  1.00  0.00     0.297 HD
ENDBRANCH  18  24
ENDBRANCH  13  15
ENDBRANCH   9  13
BRANCH  11  26
ATOM     26  O   UNL     1      -2.123  -0.912   3.344  1.00  0.00    -0.391 OA
ATOM     27  H   UNL     1      -2.899  -1.491   3.410  1.00  0.00     0.211 HD
ENDBRANCH  11  26
ENDBRANCH   5   8
ENDBRANCH   3   4
ENDBRANCH   2   3
ENDBRANCH   1   2
BRANCH   1  28
ATOM     28  C   UNL     1       3.879  -8.609   2.707  1.00  0.00     0.002 C 
BRANCH  28  29
ATOM     29  C   UNL     1       3.037  -9.885   2.617  1.00  0.00     0.021 C 
BRANCH  29  30
ATOM     30  C   UNL     1       3.098 -10.599   1.270  1.00  0.00     0.116 C 
BRANCH  30  31
ATOM     31  N   UNL     1       4.437 -11.088   0.975  1.00  0.00    -0.352 N 
ATOM     32  C   UNL     1       4.837 -12.370   0.692  1.00  0.00     0.251 C 
ATOM     33  H   UNL     1       5.151 -10.409   0.979  1.00  0.00     0.163 HD
ATOM     34  O   UNL     1       6.029 -12.660   0.652  1.00  0.00    -0.269 OA
BRANCH  32  35
ATOM     35  C   UNL     1       3.812 -13.404   0.450  1.00  0.00     0.039 A 
ATOM     36  C   UNL     1       3.848 -14.586   1.193  1.00  0.00     0.014 A 
ATOM     37  C   UNL     1       2.805 -13.184  -0.495  1.00  0.00     0.014 A 
ATOM     38  C   UNL     1       2.832 -15.530   1.030  1.00  0.00     0.010 A 
ATOM     39  C   UNL     1       1.771 -14.105  -0.625  1.00  0.00     0.010 A 
ATOM     40  C   UNL     1       1.776 -15.283   0.138  1.00  0.00    -0.014 A 
BRANCH  40  41
ATOM     41  C   UNL     1       0.656 -16.241  -0.013  1.00  0.00     0.031 A 
ATOM     42  C   UNL     1       0.503 -17.021  -1.285  1.00  0.00     0.074 A 
ATOM     43  C   UNL     1      -0.263 -16.347   0.965  1.00  0.00     0.049 A 
ATOM     44  N   UNL     1      -0.448 -17.847  -1.633  1.00  0.00    -0.248 NA
ATOM     45  C   UNL     1       1.548 -16.838  -2.306  1.00  0.00     0.031 C 
ATOM     46  C   UNL     1      -0.243 -15.606   2.226  1.00  0.00     0.029 A 
ATOM     47  N   UNL     1      -1.404 -17.105   1.039  1.00  0.00    -0.354 N 
ATOM     48  C   UNL     1      -0.129 -18.270  -2.915  1.00  0.00     0.074 A 
ATOM     49  C   UNL     1       1.089 -17.588  -3.298  1.00  0.00     0.031 C 
ATOM     50  C   UNL     1      -1.320 -15.948   2.952  1.00  0.00     0.029 A 
ATOM     51  C   UNL     1      -2.115 -16.916   2.200  1.00  0.00     0.049 A 
ATOM     52  H   UNL     1      -1.687 -17.725   0.329  1.00  0.00     0.167 HD
ATOM     53  C   UNL     1      -0.773 -19.171  -3.692  1.00  0.00     0.034 A 
ATOM     54  C   UNL     1      -3.275 -17.461   2.614  1.00  0.00     0.034 A 
ATOM     55  C   UNL     1      -1.966 -19.868  -3.301  1.00  0.00     0.049 A 
ATOM     56  C   UNL     1      -3.968 -18.469   1.742  1.00  0.00     0.074 A 
ATOM     57  C   UNL     1      -2.676 -20.820  -4.010  1.00  0.00     0.029 A 
ATOM     58  N   UNL     1      -2.623 -19.694  -2.093  1.00  0.00    -0.354 N 
ATOM     59  N   UNL     1      -3.608 -18.919   0.564  1.00  0.00    -0.248 NA
ATOM     60  C   UNL     1      -5.206 -19.068   2.262  1.00  0.00     0.031 C 
ATOM     61  C   UNL     1      -3.762 -21.225  -3.227  1.00  0.00     0.029 A 
ATOM     62  C   UNL     1      -3.722 -20.530  -2.028  1.00  0.00     0.049 A 
ATOM     63  H   UNL     1      -2.347 -19.067  -1.385  1.00  0.00     0.167 HD
ATOM     64  C   UNL     1      -4.554 -19.875   0.215  1.00  0.00     0.074 A 
ATOM     65  C   UNL     1      -5.503 -19.942   1.308  1.00  0.00     0.031 C 
ATOM     66  C   UNL     1      -4.628 -20.623  -0.912  1.00  0.00     0.034 A 
BRANCH  53  67
ATOM     67  C   UNL     1      -0.154 -19.506  -5.020  1.00  0.00     0.023 A 
ATOM     68  C   UNL     1       0.973 -20.353  -5.050  1.00  0.00     0.012 A 
ATOM     69  C   UNL     1      -0.703 -19.035  -6.227  1.00  0.00     0.148 A 
ATOM     70  C   UNL     1       1.559 -20.710  -6.263  1.00  0.00     0.002 A 
ATOM     71  C   UNL     1      -0.131 -19.421  -7.434  1.00  0.00     0.091 A 
ATOM     72  F   UNL     1      -1.760 -18.213  -6.171  1.00  0.00    -0.205 F 
ATOM     73  C   UNL     1       1.002 -20.252  -7.454  1.00  0.00     0.022 A 
BRANCH  71  74
ATOM     74  S   UNL     1      -0.802 -18.927  -9.025  1.00  0.00     0.127 S 
ATOM     75  O   UNL     1       0.217 -17.989  -9.496  1.00  0.00    -0.237 OA
ATOM     76  O   UNL     1      -0.844 -20.197  -9.751  1.00  0.00    -0.237 OA
ATOM     77  O   UNL     1      -2.106 -18.342  -8.748  1.00  0.00    -0.744 OA
ENDBRANCH  71  74
ENDBRANCH  53  67
BRANCH  54  78
ATOM     78  C   UNL     1      -3.782 -17.126   3.971  1.00  0.00     0.023 A 
ATOM     79  C   UNL     1      -3.574 -18.044   5.019  1.00  0.00     0.012 A 
ATOM     80  C   UNL     1      -4.364 -15.875   4.252  1.00  0.00     0.148 A 
ATOM     81  C   UNL     1      -3.937 -17.722   6.326  1.00  0.00     0.002 A 
ATOM     82  C   UNL     1      -4.690 -15.547   5.563  1.00  0.00     0.091 A 
ATOM     83  F   UNL     1      -4.540 -15.018   3.237  1.00  0.00    -0.205 F 
ATOM     84  C   UNL     1      -4.486 -16.472   6.599  1.00  0.00     0.022 A 
BRANCH  82  85
ATOM     85  S   UNL     1      -5.306 -13.927   6.036  1.00  0.00     0.127 S 
ATOM     86  O   UNL     1      -6.573 -14.263   6.682  1.00  0.00    -0.237 OA
ATOM     87  O   UNL     1      -4.255 -13.465   6.942  1.00  0.00    -0.237 OA
ATOM     88  O   UNL     1      -5.425 -13.168   4.799  1.00  0.00    -0.744 OA
ENDBRANCH  82  85
ENDBRANCH  54  78
BRANCH  66  89
ATOM     89  C   UNL     1      -5.755 -21.611  -1.033  1.00  0.00     0.023 A 
ATOM     90  C   UNL     1      -7.032 -21.162  -1.420  1.00  0.00     0.012 A 
ATOM     91  C   UNL     1      -5.512 -22.992  -0.897  1.00  0.00     0.148 A 
ATOM     92  C   UNL     1      -8.056 -22.076  -1.665  1.00  0.00     0.002 A 
ATOM     93  C   UNL     1      -6.529 -23.898  -1.175  1.00  0.00     0.091 A 
ATOM     94  F   UNL     1      -4.290 -23.391  -0.517  1.00  0.00    -0.205 F 
ATOM     95  C   UNL     1      -7.802 -23.442  -1.555  1.00  0.00     0.022 A 
BRANCH  93  96
ATOM     96  S   UNL     1      -6.277 -25.677  -1.136  1.00  0.00     0.127 S 
ATOM     97  O   UNL     1      -7.085 -26.066   0.019  1.00  0.00    -0.237 OA
ATOM     98  O   UNL     1      -6.820 -26.094  -2.429  1.00  0.00    -0.237 OA
ATOM     99  O   UNL     1      -4.842 -25.879  -0.986  1.00  0.00    -0.744 OA
ENDBRANCH  93  96
ENDBRANCH  66  89
ENDBRANCH  40  41
ENDBRANCH  32  35
ENDBRANCH  30  31
ENDBRANCH  29  30
ENDBRANCH  28  29
ENDBRANCH   1  28
TORSDOF 21
