REMARK SMILES O=C(CCC/[NH+]=C1/CCCc2ccccc2N1)NCCCCCCNC(=O)c1ccc(-c2c3nc(c(-c4cccc(S(=O)(=O)[O-])c4F)c4ccc([nH]4)c(-c4cccc(S(=O)(=O)[O-])c4F)c4nc(c(-c5cccc(S(=O)(=O)[O-])c5F)c5ccc2[nH]5)C=C4)C=C3)cc1
REMARK SMILES IDX 20 1 19 2 18 3 1 4 2 5 3 7 4 8 5 9 6 10 7 11 17 13 8 15 9 16
REMARK SMILES IDX 16 18 11 19 15 20 12 21 14 22 13 23 10 24 21 26 22 27 23 28
REMARK SMILES IDX 24 29 25 30 26 31 27 33 28 34 29 35 90 36 30 37 89 38 31 39
REMARK SMILES IDX 32 40 33 41 83 42 34 43 88 44 82 45 84 46 35 47 87 48 81 49
REMARK SMILES IDX 80 50 36 52 68 53 48 54 67 55 49 56 52 57 66 58 85 59 50 60
REMARK SMILES IDX 51 61 65 63 86 64 53 65 37 66 38 67 46 68 39 69 41 70 47 71
REMARK SMILES IDX 40 72 42 73 43 74 44 75 45 76 69 77 70 78 78 79 71 80 73 81
REMARK SMILES IDX 79 82 72 83 74 84 75 85 76 86 77 87 54 88 55 89 63 90 56 91
REMARK SMILES IDX 58 92 64 93 57 94 59 95 60 96 61 97 62 98
REMARK H PARENT 18 6 6 12 17 14 25 32 84 51 52 62
REMARK Flexibility Score: 90.00
ROOT
ATOM      1  C   UNL     1       2.520   2.502  -1.717  1.00  0.00     0.021 C 
ENDROOT
BRANCH   1   2
ATOM      2  C   UNL     1       1.512   1.049  -1.405  1.00  0.00     0.116 C 
BRANCH   2   3
ATOM      3  N   UNL     1       2.097  -0.025  -0.577  1.00  0.00    -0.356 N 
ATOM      4  O   UNL     1       0.552  -0.226   1.083  1.00  0.00    -0.275 OA
ATOM      5  C   UNL     1       1.653  -0.509   0.619  1.00  0.00     0.220 C 
ATOM      6  H   UNL     1       2.912  -0.447  -0.934  1.00  0.00     0.163 HD
BRANCH   5   7
ATOM      7  C   UNL     1       2.708  -1.258   1.462  1.00  0.00     0.104 C 
BRANCH   7   8
ATOM      8  C   UNL     1       3.814  -2.131   0.837  1.00  0.00     0.056 C 
BRANCH   8   9
ATOM      9  C   UNL     1       5.112  -1.520   0.267  1.00  0.00     0.234 C 
BRANCH   9  10
ATOM     10  N   UNL     1       5.769  -0.499   1.129  1.00  0.00    -0.278 N 
ATOM     11  C   UNL     1       5.405   0.724   0.872  1.00  0.00     0.247 C 
ATOM     12  H   UNL     1       6.420  -0.728   1.831  1.00  0.00     0.304 HD
ATOM     13  N   UNL     1       4.364   0.946   0.048  1.00  0.00    -0.245 N 
ATOM     14  H   UNL     1       3.512   0.520   0.297  1.00  0.00     0.312 HD
BRANCH  11  15
ATOM     15  C   UNL     1       5.970   1.902   1.654  1.00  0.00     0.128 C 
BRANCH  15  16
ATOM     16  C   UNL     1       6.114   3.240   0.897  1.00  0.00     0.018 CG0
ATOM     17  G   UNL     1       4.809   3.973   0.499  1.00  0.00     0.000 G0
ENDBRANCH  15  16
ENDBRANCH  11  15
BRANCH  13  18
ATOM     18  C   UNL     1       4.355   1.715  -1.126  1.00  0.00     0.127 A 
ATOM     19  C   UNL     1       4.229   3.478  -0.800  1.00  0.00    -0.001 A 
ATOM     20  C   UNL     1       3.608   0.995  -2.611  1.00  0.00     0.052 A 
ATOM     21  C   UNL     1       3.280   4.507  -1.910  1.00  0.00     0.008 A 
ATOM     22  C   UNL     1       2.651   2.054  -3.729  1.00  0.00     0.004 A 
ATOM     23  C   UNL     1       2.531   3.818  -3.403  1.00  0.00     0.001 A 
BRANCH  19  24
ATOM     24  C   UNL     1       4.809   3.973   0.499  1.00  0.00     0.040 CG0
ATOM     25  G   UNL     1       6.114   3.240   0.897  1.00  0.00     0.000 G0
ENDBRANCH  19  24
ENDBRANCH  13  18
ENDBRANCH   9  10
ENDBRANCH   8   9
ENDBRANCH   7   8
ENDBRANCH   5   7
ENDBRANCH   2   3
ENDBRANCH   1   2
BRANCH   1  26
ATOM     26  C   UNL     1       4.345   2.893  -2.862  1.00  0.00     0.002 C 
BRANCH  26  27
ATOM     27  C   UNL     1       5.120   2.175  -4.256  1.00  0.00     0.002 C 
BRANCH  27  28
ATOM     28  C   UNL     1       4.718   2.591  -5.674  1.00  0.00     0.021 C 
BRANCH  28  29
ATOM     29  C   UNL     1       4.729   4.079  -5.944  1.00  0.00     0.116 C 
BRANCH  29  30
ATOM     30  N   UNL     1       6.065   4.648  -6.029  1.00  0.00    -0.352 N 
ATOM     31  C   UNL     1       6.488   5.586  -6.946  1.00  0.00     0.251 C 
ATOM     32  H   UNL     1       6.727   4.334  -5.371  1.00  0.00     0.163 HD
ATOM     33  O   UNL     1       7.651   5.961  -7.002  1.00  0.00    -0.269 OA
BRANCH  31  34
ATOM     34  C   UNL     1       5.466   6.085  -7.890  1.00  0.00     0.039 A 
ATOM     35  C   UNL     1       4.307   6.668  -7.370  1.00  0.00     0.014 A 
ATOM     36  C   UNL     1       5.553   5.728  -9.235  1.00  0.00     0.014 A 
ATOM     37  C   UNL     1       3.172   6.735  -8.166  1.00  0.00     0.010 A 
ATOM     38  C   UNL     1       4.439   5.904 -10.058  1.00  0.00     0.010 A 
ATOM     39  C   UNL     1       3.224   6.366  -9.523  1.00  0.00    -0.014 A 
BRANCH  39  40
ATOM     40  C   UNL     1       2.016   6.512 -10.379  1.00  0.00     0.031 A 
ATOM     41  C   UNL     1       1.420   5.339 -11.114  1.00  0.00     0.074 A 
ATOM     42  C   UNL     1       1.461   7.734 -10.504  1.00  0.00     0.049 A 
ATOM     43  N   UNL     1       0.426   5.328 -11.966  1.00  0.00    -0.248 NA
ATOM     44  C   UNL     1       2.007   4.010 -10.872  1.00  0.00     0.031 C 
ATOM     45  C   UNL     1       1.948   8.952  -9.849  1.00  0.00     0.029 A 
ATOM     46  N   UNL     1       0.377   8.161 -11.227  1.00  0.00    -0.354 N 
ATOM     47  C   UNL     1       0.301   4.013 -12.400  1.00  0.00     0.074 A 
ATOM     48  C   UNL     1       1.317   3.246 -11.712  1.00  0.00     0.031 C 
ATOM     49  C   UNL     1       1.152   9.978 -10.174  1.00  0.00     0.029 A 
ATOM     50  C   UNL     1       0.152   9.513 -11.126  1.00  0.00     0.049 A 
ATOM     51  H   UNL     1      -0.185   7.558 -11.765  1.00  0.00     0.167 HD
ATOM     52  C   UNL     1      -0.585   3.494 -13.283  1.00  0.00     0.034 A 
ATOM     53  C   UNL     1      -0.729  10.311 -11.755  1.00  0.00     0.034 A 
ATOM     54  C   UNL     1      -1.619   4.253 -13.934  1.00  0.00     0.049 A 
ATOM     55  C   UNL     1      -1.681   9.715 -12.745  1.00  0.00     0.074 A 
ATOM     56  C   UNL     1      -2.592   3.798 -14.806  1.00  0.00     0.029 A 
ATOM     57  N   UNL     1      -1.813   5.618 -13.795  1.00  0.00    -0.354 N 
ATOM     58  N   UNL     1      -1.815   8.461 -13.096  1.00  0.00    -0.248 NA
ATOM     59  C   UNL     1      -2.608  10.635 -13.416  1.00  0.00     0.031 C 
ATOM     60  C   UNL     1      -3.356   4.891 -15.219  1.00  0.00     0.029 A 
ATOM     61  C   UNL     1      -2.882   6.022 -14.574  1.00  0.00     0.049 A 
ATOM     62  H   UNL     1      -1.271   6.211 -13.226  1.00  0.00     0.167 HD
ATOM     63  C   UNL     1      -2.857   8.434 -14.012  1.00  0.00     0.074 A 
ATOM     64  C   UNL     1      -3.326   9.798 -14.155  1.00  0.00     0.031 C 
ATOM     65  C   UNL     1      -3.368   7.373 -14.679  1.00  0.00     0.034 A 
BRANCH  52  66
ATOM     66  C   UNL     1      -0.519   2.022 -13.593  1.00  0.00     0.023 A 
ATOM     67  C   UNL     1      -1.051   1.095 -12.675  1.00  0.00     0.012 A 
ATOM     68  C   UNL     1      -0.064   1.572 -14.849  1.00  0.00     0.148 A 
ATOM     69  C   UNL     1      -1.130  -0.259 -13.003  1.00  0.00     0.002 A 
ATOM     70  C   UNL     1      -0.170   0.226 -15.178  1.00  0.00     0.091 A 
ATOM     71  F   UNL     1       0.438   2.474 -15.704  1.00  0.00    -0.205 F 
ATOM     72  C   UNL     1      -0.702  -0.690 -14.256  1.00  0.00     0.022 A 
BRANCH  70  73
ATOM     73  S   UNL     1       0.316  -0.429 -16.779  1.00  0.00     0.127 S 
ATOM     74  O   UNL     1       1.407  -1.329 -16.407  1.00  0.00    -0.237 OA
ATOM     75  O   UNL     1      -0.906  -1.101 -17.219  1.00  0.00    -0.237 OA
ATOM     76  O   UNL     1       0.712   0.718 -17.583  1.00  0.00    -0.744 OA
ENDBRANCH  70  73
ENDBRANCH  52  66
BRANCH  53  77
ATOM     77  C   UNL     1      -0.745  11.762 -11.431  1.00  0.00     0.023 A 
ATOM     78  C   UNL     1      -1.775  12.272 -10.620  1.00  0.00     0.012 A 
ATOM     79  C   UNL     1       0.305  12.609 -11.838  1.00  0.00     0.148 A 
ATOM     80  C   UNL     1      -1.760  13.607 -10.218  1.00  0.00     0.002 A 
ATOM     81  C   UNL     1       0.333  13.927 -11.404  1.00  0.00     0.091 A 
ATOM     82  F   UNL     1       1.277  12.089 -12.599  1.00  0.00    -0.205 F 
ATOM     83  C   UNL     1      -0.702  14.430 -10.599  1.00  0.00     0.022 A 
BRANCH  81  84
ATOM     84  S   UNL     1       1.692  15.041 -11.770  1.00  0.00     0.127 S 
ATOM     85  O   UNL     1       1.023  16.080 -12.549  1.00  0.00    -0.237 OA
ATOM     86  O   UNL     1       2.112  15.448 -10.429  1.00  0.00    -0.237 OA
ATOM     87  O   UNL     1       2.672  14.248 -12.500  1.00  0.00    -0.744 OA
ENDBRANCH  81  84
ENDBRANCH  53  77
BRANCH  65  88
ATOM     88  C   UNL     1      -4.521   7.612 -15.612  1.00  0.00     0.023 A 
ATOM     89  C   UNL     1      -4.286   8.166 -16.884  1.00  0.00     0.012 A 
ATOM     90  C   UNL     1      -5.813   7.164 -15.273  1.00  0.00     0.148 A 
ATOM     91  C   UNL     1      -5.324   8.273 -17.808  1.00  0.00     0.002 A 
ATOM     92  C   UNL     1      -6.835   7.244 -16.209  1.00  0.00     0.091 A 
ATOM     93  F   UNL     1      -6.006   6.644 -14.052  1.00  0.00    -0.205 F 
ATOM     94  C   UNL     1      -6.593   7.800 -17.476  1.00  0.00     0.022 A 
BRANCH  92  95
ATOM     95  S   UNL     1      -8.487   6.612 -15.896  1.00  0.00     0.127 S 
ATOM     96  O   UNL     1      -9.286   7.836 -15.949  1.00  0.00    -0.237 OA
ATOM     97  O   UNL     1      -8.687   5.702 -17.023  1.00  0.00    -0.237 OA
ATOM     98  O   UNL     1      -8.435   5.967 -14.591  1.00  0.00    -0.744 OA
ENDBRANCH  92  95
ENDBRANCH  65  88
ENDBRANCH  39  40
ENDBRANCH  31  34
ENDBRANCH  29  30
ENDBRANCH  28  29
ENDBRANCH  27  28
ENDBRANCH  26  27
ENDBRANCH   1  26
TORSDOF 19
