REMARK SMILES Cc1ccccc1C(=O)Nc1cc(C(=O)NCCCCCCNC(=O)c2ccc(-c3c4nc(c(-c5cccc(S(=O)(=O)[O-])c5F)c5ccc([nH]5)c(-c5cccc(S(=O)(=O)[O-])c5F)c5nc(c(-c6cccc(S(=O)(=O)[O-])c6F)c6ccc3[nH]6)C=C5)C=C4)cc2)ccc1N1CC[NH+](CC(=O)Nc2ccc(F)cc2)CC1
REMARK SMILES IDX 19 1 18 2 17 3 16 4 14 5 15 6 13 8 11 9 12 10 91 11 90 12
REMARK SMILES IDX 89 13 10 14 8 15 9 16 7 18 1 19 2 20 3 21 4 22 6 23 5 24
REMARK SMILES IDX 92 25 93 26 108 27 94 28 107 29 95 30 96 32 97 33 98 34
REMARK SMILES IDX 99 35 100 37 101 38 106 39 102 40 105 41 103 42 104 43 20 44
REMARK SMILES IDX 21 45 22 46 23 47 24 48 25 50 26 51 27 52 88 53 28 54 87 55
REMARK SMILES IDX 29 56 30 57 31 58 81 59 32 60 86 61 80 62 82 63 33 64 85 65
REMARK SMILES IDX 79 66 78 67 34 69 66 70 46 71 65 72 47 73 50 74 64 75 83 76
REMARK SMILES IDX 48 77 49 78 63 80 84 81 51 82 35 83 36 84 44 85 37 86 39 87
REMARK SMILES IDX 45 88 38 89 40 90 41 91 42 92 43 93 67 94 68 95 76 96 69 97
REMARK SMILES IDX 71 98 77 99 70 100 72 101 73 102 74 103 75 104 52 105 53 106
REMARK SMILES IDX 61 107 54 108 56 109 62 110 55 111 57 112 58 113 59 114
REMARK SMILES IDX 60 115
REMARK H PARENT 16 7 10 17 95 31 99 36 23 49 82 68 50 79
REMARK Flexibility Score: inf
ROOT
ATOM      1  C   UNL     1       0.461  -1.534  -5.238  1.00  0.00     0.002 C 
ENDROOT
BRANCH   1   2
ATOM      2  C   UNL     1       1.172  -0.748  -4.132  1.00  0.00     0.021 C 
BRANCH   2   3
ATOM      3  C   UNL     1       1.272  -1.522  -2.815  1.00  0.00     0.116 C 
BRANCH   3   4
ATOM      4  N   UNL     1       2.476  -2.329  -2.764  1.00  0.00    -0.352 N 
ATOM      5  C   UNL     1       3.734  -2.103  -2.261  1.00  0.00     0.251 C 
ATOM      6  O   UNL     1       4.546  -3.027  -2.339  1.00  0.00    -0.269 OA
ATOM      7  H   UNL     1       2.370  -3.218  -3.173  1.00  0.00     0.163 HD
BRANCH   5   8
ATOM      8  C   UNL     1       4.140  -0.846  -1.565  1.00  0.00     0.042 A 
ATOM      9  C   UNL     1       3.710   1.381  -0.727  1.00  0.00     0.065 A 
ATOM     10  C   UNL     1       3.409   0.330  -1.592  1.00  0.00     0.042 A 
ATOM     11  C   UNL     1       4.902   1.403   0.051  1.00  0.00     0.061 A 
ATOM     12  C   UNL     1       5.697   0.251  -0.029  1.00  0.00     0.029 A 
ATOM     13  C   UNL     1       5.304  -0.868  -0.786  1.00  0.00     0.016 A 
BRANCH   9  14
ATOM     14  N   UNL     1       2.790   2.437  -0.661  1.00  0.00    -0.320 N 
ATOM     15  C   UNL     1       1.478   2.423  -0.211  1.00  0.00     0.255 C 
ATOM     16  O   UNL     1       0.975   3.512   0.091  1.00  0.00    -0.269 OA
ATOM     17  H   UNL     1       3.121   3.308  -0.978  1.00  0.00     0.170 HD
BRANCH  15  18
ATOM     18  C   UNL     1       0.612   1.213  -0.045  1.00  0.00     0.043 A 
ATOM     19  C   UNL     1       2.120  -0.266   1.460  1.00  0.00     0.045 C 
ATOM     20  C   UNL     1       0.884   0.021   0.659  1.00  0.00    -0.038 A 
ATOM     21  C   UNL     1      -0.090  -1.008   0.664  1.00  0.00     0.004 A 
ATOM     22  C   UNL     1      -1.347  -0.825   0.092  1.00  0.00     0.000 A 
ATOM     23  C   UNL     1      -0.686   1.389  -0.573  1.00  0.00     0.014 A 
ATOM     24  C   UNL     1      -1.658   0.390  -0.496  1.00  0.00     0.001 A 
ENDBRANCH  15  18
ENDBRANCH   9  14
BRANCH  11  25
ATOM     25  N   UNL     1       5.251   2.462   0.886  1.00  0.00    -0.359 N 
ATOM     26  C   UNL     1       6.612   2.640   1.461  1.00  0.00     0.178 C 
ATOM     27  C   UNL     1       4.231   3.109   1.707  1.00  0.00     0.178 C 
ATOM     28  C   UNL     1       6.851   4.082   2.061  1.00  0.00     0.284 C 
ATOM     29  C   UNL     1       4.545   4.606   1.729  1.00  0.00     0.284 C 
ATOM     30  N   UNL     1       5.702   4.861   2.579  1.00  0.00    -0.324 N 
ATOM     31  H   UNL     1       5.997   5.835   2.517  1.00  0.00     0.348 HD
BRANCH  30  32
ATOM     32  C   UNL     1       5.403   4.825   4.028  1.00  0.00     0.364 C 
BRANCH  32  33
ATOM     33  C   UNL     1       5.216   3.466   4.701  1.00  0.00     0.279 C 
ATOM     34  O   UNL     1       6.204   2.736   4.884  1.00  0.00    -0.268 OA
ATOM     35  N   UNL     1       4.034   2.994   5.208  1.00  0.00    -0.321 N 
ATOM     36  H   UNL     1       4.195   2.288   5.875  1.00  0.00     0.170 HD
BRANCH  35  37
ATOM     37  C   UNL     1       2.650   3.232   5.048  1.00  0.00     0.041 A 
ATOM     38  C   UNL     1       1.792   2.444   5.837  1.00  0.00     0.029 A 
ATOM     39  C   UNL     1       2.060   4.071   4.109  1.00  0.00     0.029 A 
ATOM     40  C   UNL     1       0.403   2.457   5.651  1.00  0.00     0.041 A 
ATOM     41  C   UNL     1       0.675   4.043   3.870  1.00  0.00     0.041 A 
ATOM     42  C   UNL     1      -0.142   3.236   4.644  1.00  0.00     0.123 A 
ATOM     43  F   UNL     1      -1.464   3.213   4.428  1.00  0.00    -0.207 F 
ENDBRANCH  35  37
ENDBRANCH  32  33
ENDBRANCH  30  32
ENDBRANCH  11  25
ENDBRANCH   5   8
ENDBRANCH   3   4
ENDBRANCH   2   3
ENDBRANCH   1   2
BRANCH   1  44
ATOM     44  C   UNL     1      -0.963  -2.010  -4.898  1.00  0.00     0.002 C 
BRANCH  44  45
ATOM     45  C   UNL     1      -1.868  -0.960  -4.249  1.00  0.00     0.021 C 
BRANCH  45  46
ATOM     46  C   UNL     1      -2.268   0.156  -5.200  1.00  0.00     0.116 C 
BRANCH  46  47
ATOM     47  N   UNL     1      -3.503  -0.128  -5.913  1.00  0.00    -0.352 N 
ATOM     48  C   UNL     1      -4.158   0.607  -6.879  1.00  0.00     0.251 C 
ATOM     49  H   UNL     1      -3.940  -0.976  -5.667  1.00  0.00     0.163 HD
ATOM     50  O   UNL     1      -5.309   0.284  -7.181  1.00  0.00    -0.269 OA
BRANCH  48  51
ATOM     51  C   UNL     1      -3.434   1.657  -7.633  1.00  0.00     0.039 A 
ATOM     52  C   UNL     1      -3.575   1.671  -9.028  1.00  0.00     0.014 A 
ATOM     53  C   UNL     1      -2.460   2.442  -7.024  1.00  0.00     0.014 A 
ATOM     54  C   UNL     1      -2.584   2.253  -9.816  1.00  0.00     0.010 A 
ATOM     55  C   UNL     1      -1.433   2.937  -7.795  1.00  0.00     0.010 A 
ATOM     56  C   UNL     1      -1.462   2.776  -9.184  1.00  0.00    -0.014 A 
BRANCH  56  57
ATOM     57  C   UNL     1      -0.234   3.166  -9.852  1.00  0.00     0.031 A 
ATOM     58  C   UNL     1       0.025   4.602 -10.101  1.00  0.00     0.074 A 
ATOM     59  C   UNL     1       0.737   2.239 -10.031  1.00  0.00     0.049 A 
ATOM     60  N   UNL     1       1.003   5.051 -10.807  1.00  0.00    -0.248 NA
ATOM     61  C   UNL     1      -0.828   5.659  -9.567  1.00  0.00     0.031 C 
ATOM     62  C   UNL     1       2.152   2.495 -10.287  1.00  0.00     0.029 A 
ATOM     63  N   UNL     1       0.661   0.850 -10.142  1.00  0.00    -0.354 N 
ATOM     64  C   UNL     1       1.078   6.413 -10.615  1.00  0.00     0.074 A 
ATOM     65  C   UNL     1      -0.126   6.749  -9.893  1.00  0.00     0.031 C 
ATOM     66  C   UNL     1       2.695   1.397 -10.837  1.00  0.00     0.029 A 
ATOM     67  C   UNL     1       1.593   0.503 -11.131  1.00  0.00     0.049 A 
ATOM     68  H   UNL     1       0.076   0.241  -9.634  1.00  0.00     0.167 HD
ATOM     69  C   UNL     1       2.221   7.057 -10.985  1.00  0.00     0.034 A 
ATOM     70  C   UNL     1       1.274   0.062 -12.389  1.00  0.00     0.034 A 
ATOM     71  C   UNL     1       3.120   6.140 -11.704  1.00  0.00     0.049 A 
ATOM     72  C   UNL     1       1.878   0.911 -13.508  1.00  0.00     0.074 A 
ATOM     73  C   UNL     1       4.224   5.391 -11.328  1.00  0.00     0.029 A 
ATOM     74  N   UNL     1       2.736   5.669 -12.954  1.00  0.00    -0.354 N 
ATOM     75  N   UNL     1       2.433   2.079 -13.326  1.00  0.00    -0.248 NA
ATOM     76  C   UNL     1       1.913   0.515 -14.914  1.00  0.00     0.031 C 
ATOM     77  C   UNL     1       4.454   4.411 -12.334  1.00  0.00     0.029 A 
ATOM     78  C   UNL     1       3.511   4.585 -13.334  1.00  0.00     0.049 A 
ATOM     79  H   UNL     1       2.011   6.055 -13.497  1.00  0.00     0.167 HD
ATOM     80  C   UNL     1       2.803   2.634 -14.526  1.00  0.00     0.074 A 
ATOM     81  C   UNL     1       2.520   1.576 -15.482  1.00  0.00     0.031 C 
ATOM     82  C   UNL     1       3.263   3.925 -14.615  1.00  0.00     0.034 A 
BRANCH  69  83
ATOM     83  C   UNL     1       2.672   8.425 -10.491  1.00  0.00     0.023 A 
ATOM     84  C   UNL     1       4.051   8.726 -10.594  1.00  0.00     0.012 A 
ATOM     85  C   UNL     1       1.877   9.415  -9.870  1.00  0.00     0.148 A 
ATOM     86  C   UNL     1       4.619   9.877 -10.034  1.00  0.00     0.002 A 
ATOM     87  C   UNL     1       2.447  10.538  -9.260  1.00  0.00     0.091 A 
ATOM     88  F   UNL     1       0.548   9.334  -9.926  1.00  0.00    -0.205 F 
ATOM     89  C   UNL     1       3.822  10.769  -9.336  1.00  0.00     0.022 A 
BRANCH  87  90
ATOM     90  S   UNL     1       1.479  11.708  -8.287  1.00  0.00     0.127 S 
ATOM     91  O   UNL     1       2.202  11.720  -7.013  1.00  0.00    -0.237 OA
ATOM     92  O   UNL     1       1.598  12.940  -9.064  1.00  0.00    -0.237 OA
ATOM     93  O   UNL     1       0.133  11.153  -8.200  1.00  0.00    -0.744 OA
ENDBRANCH  87  90
ENDBRANCH  69  83
BRANCH  70  94
ATOM     94  C   UNL     1      -0.010  -0.697 -12.453  1.00  0.00     0.023 A 
ATOM     95  C   UNL     1      -0.083  -1.871 -11.663  1.00  0.00     0.012 A 
ATOM     96  C   UNL     1      -1.205  -0.126 -12.924  1.00  0.00     0.148 A 
ATOM     97  C   UNL     1      -1.307  -2.355 -11.204  1.00  0.00     0.002 A 
ATOM     98  C   UNL     1      -2.429  -0.634 -12.482  1.00  0.00     0.091 A 
ATOM     99  F   UNL     1      -1.135   0.930 -13.745  1.00  0.00    -0.205 F 
ATOM    100  C   UNL     1      -2.478  -1.712 -11.582  1.00  0.00     0.022 A 
BRANCH  98 101
ATOM    101  S   UNL     1      -3.997   0.122 -12.941  1.00  0.00     0.127 S 
ATOM    102  O   UNL     1      -4.395  -0.700 -14.080  1.00  0.00    -0.237 OA
ATOM    103  O   UNL     1      -4.804  -0.068 -11.736  1.00  0.00    -0.237 OA
ATOM    104  O   UNL     1      -3.673   1.512 -13.227  1.00  0.00    -0.744 OA
ENDBRANCH  98 101
ENDBRANCH  70  94
BRANCH  82 105
ATOM    105  C   UNL     1       3.502   4.731 -15.892  1.00  0.00     0.023 A 
ATOM    106  C   UNL     1       3.029   4.329 -17.154  1.00  0.00     0.012 A 
ATOM    107  C   UNL     1       4.106   6.021 -15.838  1.00  0.00     0.148 A 
ATOM    108  C   UNL     1       3.165   5.131 -18.296  1.00  0.00     0.002 A 
ATOM    109  C   UNL     1       4.133   6.862 -16.949  1.00  0.00     0.091 A 
ATOM    110  F   UNL     1       4.692   6.445 -14.709  1.00  0.00    -0.205 F 
ATOM    111  C   UNL     1       3.688   6.411 -18.189  1.00  0.00     0.022 A 
BRANCH 109 112
ATOM    112  S   UNL     1       4.583   8.598 -16.783  1.00  0.00     0.127 S 
ATOM    113  O   UNL     1       6.014   8.572 -17.077  1.00  0.00    -0.237 OA
ATOM    114  O   UNL     1       3.762   9.237 -17.814  1.00  0.00    -0.237 OA
ATOM    115  O   UNL     1       4.207   8.952 -15.421  1.00  0.00    -0.744 OA
ENDBRANCH 109 112
ENDBRANCH  82 105
ENDBRANCH  56  57
ENDBRANCH  48  51
ENDBRANCH  46  47
ENDBRANCH  45  46
ENDBRANCH  44  45
ENDBRANCH   1  44
TORSDOF 22
