REMARK SMILES O=C(NCCCCCCNC(=O)[C@H]1CCCC[C@@H]1C(=O)Nc1ccc(Br)c(Cl)c1)c1ccc(-c2c3nc(c(-c4cccc(S(=O)(=O)[O-])c4F)c4ccc([nH]4)c(-c4cccc(S(=O)(=O)[O-])c4F)c4nc(c(-c5cccc(S(=O)(=O)[O-])c5F)c5ccc2[nH]5)C=C4)C=C3)cc1
REMARK SMILES IDX 6 1 5 2 4 3 3 4 1 5 2 6 30 8 31 9 92 10 32 11 91 12 33 13
REMARK SMILES IDX 34 14 35 15 85 16 36 17 90 18 84 19 86 20 37 21 89 22 83 23
REMARK SMILES IDX 82 24 38 26 70 27 50 28 69 29 51 30 54 31 68 32 87 33 52 34
REMARK SMILES IDX 53 35 67 37 88 38 55 39 39 40 40 41 48 42 41 43 43 44 49 45
REMARK SMILES IDX 42 46 44 47 45 48 46 49 47 50 71 51 72 52 80 53 73 54 75 55
REMARK SMILES IDX 81 56 74 57 76 58 77 59 78 60 79 61 56 62 57 63 65 64 58 65
REMARK SMILES IDX 60 66 66 67 59 68 61 69 62 70 63 71 64 72 7 73 8 74 9 75
REMARK SMILES IDX 10 76 11 77 12 79 13 80 14 81 18 82 15 83 17 84 16 85 19 86
REMARK SMILES IDX 20 87 21 88 22 90 23 91 29 92 24 93 27 94 25 95 28 96 26 97
REMARK H PARENT 3 7 86 25 54 36 10 78 21 89
REMARK Flexibility Score: inf
ROOT
ATOM      1  C   UNL     1       6.446   7.425   0.279  1.00  0.00     0.002 C 
ENDROOT
BRANCH   1   2
ATOM      2  C   UNL     1       5.141   8.021   0.816  1.00  0.00     0.021 C 
BRANCH   2   3
ATOM      3  C   UNL     1       4.980   9.528   0.624  1.00  0.00     0.116 C 
BRANCH   3   4
ATOM      4  N   UNL     1       4.994   9.899  -0.780  1.00  0.00    -0.352 N 
ATOM      5  O   UNL     1       4.189  10.691  -2.719  1.00  0.00    -0.269 OA
ATOM      6  C   UNL     1       4.111  10.669  -1.493  1.00  0.00     0.251 C 
ATOM      7  H   UNL     1       5.751   9.543  -1.299  1.00  0.00     0.163 HD
BRANCH   6   8
ATOM      8  C   UNL     1       3.073  11.473  -0.807  1.00  0.00     0.039 A 
ATOM      9  C   UNL     1       1.802  11.558  -1.385  1.00  0.00     0.014 A 
ATOM     10  C   UNL     1       3.365  12.211   0.344  1.00  0.00     0.014 A 
ATOM     11  C   UNL     1       0.820  12.365  -0.803  1.00  0.00     0.010 A 
ATOM     12  C   UNL     1       2.370  12.978   0.952  1.00  0.00     0.010 A 
ATOM     13  C   UNL     1       1.096  13.080   0.372  1.00  0.00    -0.014 A 
BRANCH  13  14
ATOM     14  C   UNL     1       0.091  13.987   0.982  1.00  0.00     0.031 A 
ATOM     15  C   UNL     1       0.333  15.474   0.982  1.00  0.00     0.074 A 
ATOM     16  C   UNL     1      -1.010  13.482   1.572  1.00  0.00     0.049 A 
ATOM     17  N   UNL     1      -0.356  16.420   1.564  1.00  0.00    -0.248 NA
ATOM     18  C   UNL     1       1.509  15.961   0.239  1.00  0.00     0.031 C 
ATOM     19  C   UNL     1      -1.358  12.061   1.643  1.00  0.00     0.029 A 
ATOM     20  N   UNL     1      -2.034  14.108   2.238  1.00  0.00    -0.354 N 
ATOM     21  C   UNL     1       0.319  17.605   1.292  1.00  0.00     0.074 A 
ATOM     22  C   UNL     1       1.478  17.262   0.499  1.00  0.00     0.031 C 
ATOM     23  C   UNL     1      -2.521  11.927   2.304  1.00  0.00     0.029 A 
ATOM     24  C   UNL     1      -2.981  13.243   2.735  1.00  0.00     0.049 A 
ATOM     25  H   UNL     1      -2.085  15.085   2.350  1.00  0.00     0.167 HD
ATOM     26  C   UNL     1      -0.012  18.866   1.651  1.00  0.00     0.034 A 
ATOM     27  C   UNL     1      -4.092  13.485   3.458  1.00  0.00     0.034 A 
ATOM     28  C   UNL     1      -1.194  19.216   2.387  1.00  0.00     0.049 A 
ATOM     29  C   UNL     1      -4.438  14.900   3.831  1.00  0.00     0.074 A 
ATOM     30  C   UNL     1      -1.620  20.474   2.777  1.00  0.00     0.029 A 
ATOM     31  N   UNL     1      -2.150  18.314   2.823  1.00  0.00    -0.354 N 
ATOM     32  N   UNL     1      -3.806  16.008   3.531  1.00  0.00    -0.248 NA
ATOM     33  C   UNL     1      -5.662  15.103   4.622  1.00  0.00     0.031 C 
ATOM     34  C   UNL     1      -2.841  20.334   3.441  1.00  0.00     0.029 A 
ATOM     35  C   UNL     1      -3.176  18.991   3.457  1.00  0.00     0.049 A 
ATOM     36  H   UNL     1      -2.106  17.339   2.699  1.00  0.00     0.167 HD
ATOM     37  C   UNL     1      -4.576  17.039   4.054  1.00  0.00     0.074 A 
ATOM     38  C   UNL     1      -5.723  16.427   4.692  1.00  0.00     0.031 C 
ATOM     39  C   UNL     1      -4.347  18.373   4.017  1.00  0.00     0.034 A 
BRANCH  26  40
ATOM     40  C   UNL     1       0.873  19.994   1.198  1.00  0.00     0.023 A 
ATOM     41  C   UNL     1       0.730  20.487  -0.113  1.00  0.00     0.012 A 
ATOM     42  C   UNL     1       1.727  20.654   2.103  1.00  0.00     0.148 A 
ATOM     43  C   UNL     1       1.424  21.625  -0.520  1.00  0.00     0.002 A 
ATOM     44  C   UNL     1       2.393  21.805   1.700  1.00  0.00     0.091 A 
ATOM     45  F   UNL     1       1.845  20.160   3.343  1.00  0.00    -0.205 F 
ATOM     46  C   UNL     1       2.244  22.290   0.389  1.00  0.00     0.022 A 
BRANCH  44  47
ATOM     47  S   UNL     1       3.426  22.773   2.805  1.00  0.00     0.127 S 
ATOM     48  O   UNL     1       4.717  22.728   2.119  1.00  0.00    -0.237 OA
ATOM     49  O   UNL     1       2.765  24.076   2.777  1.00  0.00    -0.237 OA
ATOM     50  O   UNL     1       3.393  22.090   4.091  1.00  0.00    -0.744 OA
ENDBRANCH  44  47
ENDBRANCH  26  40
BRANCH  27  51
ATOM     51  C   UNL     1      -5.010  12.366   3.808  1.00  0.00     0.023 A 
ATOM     52  C   UNL     1      -6.236  12.255   3.123  1.00  0.00     0.012 A 
ATOM     53  C   UNL     1      -4.675  11.407   4.782  1.00  0.00     0.148 A 
ATOM     54  C   UNL     1      -7.123  11.220   3.415  1.00  0.00     0.002 A 
ATOM     55  C   UNL     1      -5.546  10.355   5.042  1.00  0.00     0.091 A 
ATOM     56  F   UNL     1      -3.509  11.541   5.429  1.00  0.00    -0.205 F 
ATOM     57  C   UNL     1      -6.775  10.267   4.368  1.00  0.00     0.022 A 
BRANCH  55  58
ATOM     58  S   UNL     1      -5.148   9.026   6.182  1.00  0.00     0.127 S 
ATOM     59  O   UNL     1      -6.091   9.272   7.269  1.00  0.00    -0.237 OA
ATOM     60  O   UNL     1      -5.432   7.840   5.375  1.00  0.00    -0.237 OA
ATOM     61  O   UNL     1      -3.740   9.203   6.518  1.00  0.00    -0.744 OA
ENDBRANCH  55  58
ENDBRANCH  27  51
BRANCH  39  62
ATOM     62  C   UNL     1      -5.373  19.287   4.625  1.00  0.00     0.023 A 
ATOM     63  C   UNL     1      -5.406  19.468   6.020  1.00  0.00     0.012 A 
ATOM     64  C   UNL     1      -6.218  20.056   3.801  1.00  0.00     0.148 A 
ATOM     65  C   UNL     1      -6.275  20.397   6.589  1.00  0.00     0.002 A 
ATOM     66  C   UNL     1      -7.056  21.004   4.372  1.00  0.00     0.091 A 
ATOM     67  F   UNL     1      -6.174  19.854   2.476  1.00  0.00    -0.205 F 
ATOM     68  C   UNL     1      -7.089  21.173   5.766  1.00  0.00     0.022 A 
BRANCH  66  69
ATOM     69  S   UNL     1      -8.082  22.102   3.388  1.00  0.00     0.127 S 
ATOM     70  O   UNL     1      -9.421  21.585   3.665  1.00  0.00    -0.237 OA
ATOM     71  O   UNL     1      -7.798  23.409   3.982  1.00  0.00    -0.237 OA
ATOM     72  O   UNL     1      -7.629  21.952   2.011  1.00  0.00    -0.744 OA
ENDBRANCH  66  69
ENDBRANCH  39  62
ENDBRANCH  13  14
ENDBRANCH   6   8
ENDBRANCH   3   4
ENDBRANCH   2   3
ENDBRANCH   1   2
BRANCH   1  73
ATOM     73  C   UNL     1       7.731   8.025   0.856  1.00  0.00     0.002 C 
BRANCH  73  74
ATOM     74  C   UNL     1       7.833   8.012   2.385  1.00  0.00     0.021 C 
BRANCH  74  75
ATOM     75  C   UNL     1       7.702   6.633   3.024  1.00  0.00     0.116 C 
BRANCH  75  76
ATOM     76  N   UNL     1       8.826   5.774   2.718  1.00  0.00    -0.356 N 
ATOM     77  C   UNL     1       9.490   4.885   3.506  1.00  0.00     0.223 C 
ATOM     78  H   UNL     1       9.163   5.844   1.795  1.00  0.00     0.163 HD
ATOM     79  O   UNL     1      10.318   4.164   2.948  1.00  0.00    -0.275 OA
BRANCH  77  80
ATOM     80  C   UNL     1       9.192   4.795   5.013  1.00  0.00     0.091 C 
ATOM     81  C   UNL     1       9.783   3.512   5.627  1.00  0.00     0.014 C 
ATOM     82  C   UNL     1       9.671   6.037   5.781  1.00  0.00     0.091 C 
ATOM     83  C   UNL     1      11.308   3.519   5.731  1.00  0.00     0.001 C 
ATOM     84  C   UNL     1      11.220   6.066   5.804  1.00  0.00     0.014 C 
ATOM     85  C   UNL     1      11.859   4.791   6.359  1.00  0.00     0.001 C 
BRANCH  82  86
ATOM     86  C   UNL     1       9.115   6.181   7.216  1.00  0.00     0.228 C 
ATOM     87  O   UNL     1       9.832   5.998   8.206  1.00  0.00    -0.274 OA
ATOM     88  N   UNL     1       7.864   6.661   7.478  1.00  0.00    -0.326 N 
ATOM     89  H   UNL     1       7.725   6.923   8.416  1.00  0.00     0.169 HD
BRANCH  88  90
ATOM     90  C   UNL     1       6.746   6.849   6.668  1.00  0.00     0.042 A 
ATOM     91  C   UNL     1       6.066   5.768   6.108  1.00  0.00     0.027 A 
ATOM     92  C   UNL     1       6.200   8.130   6.574  1.00  0.00     0.047 A 
ATOM     93  C   UNL     1       4.900   5.980   5.366  1.00  0.00     0.019 A 
ATOM     94  C   UNL     1       5.042   8.350   5.819  1.00  0.00     0.057 A 
ATOM     95  C   UNL     1       4.393   7.273   5.207  1.00  0.00     0.036 A 
ATOM     96  Cl  UNL     1       4.490   9.979   5.671  1.00  0.00    -0.083 Cl
ATOM     97  Br  UNL     1       2.823   7.476   4.161  1.00  0.00    -0.049 Br
ENDBRANCH  88  90
ENDBRANCH  82  86
ENDBRANCH  77  80
ENDBRANCH  75  76
ENDBRANCH  74  75
ENDBRANCH  73  74
ENDBRANCH   1  73
TORSDOF 18
