REMARK SMILES Cc1ccc2c(c1)OCCN2c1sc(C(=O)NCCCCCCNC(=O)c2ccc(-c3c4nc(c(-c5cccc(S(=O)(=O)[O-])c5F)c5ccc([nH]5)c(-c5cccc(S(=O)(=O)[O-])c5F)c5nc(c(-c6cccc(S(=O)(=O)[O-])c6F)c6ccc3[nH]6)C=C5)C=C4)cc2)cc1C
REMARK SMILES IDX 21 1 20 2 19 3 18 4 17 5 15 6 16 7 14 9 12 10 13 11 91 12
REMARK SMILES IDX 90 13 92 14 11 15 1 16 2 17 3 18 7 19 4 20 6 21 5 22 8 23
REMARK SMILES IDX 9 24 10 25 22 26 23 27 24 28 25 29 26 31 27 32 28 33 89 34
REMARK SMILES IDX 29 35 88 36 30 37 31 38 32 39 82 40 33 41 87 42 81 43 83 44
REMARK SMILES IDX 34 45 86 46 80 47 79 48 35 50 67 51 47 52 66 53 48 54 51 55
REMARK SMILES IDX 65 56 84 57 49 58 50 59 64 61 85 62 52 63 36 64 37 65 45 66
REMARK SMILES IDX 38 67 40 68 46 69 39 70 41 71 42 72 43 73 44 74 68 75 69 76
REMARK SMILES IDX 77 77 70 78 72 79 78 80 71 81 73 82 74 83 75 84 76 85 53 86
REMARK SMILES IDX 54 87 62 88 55 89 57 90 63 91 56 92 58 93 59 94 60 95 61 96
REMARK H PARENT 17 8 24 30 83 49 51 60
REMARK Flexibility Score: inf
ROOT
ATOM      1  C   UNL     1      -4.120   2.278   9.255  1.00  0.00     0.002 C 
ENDROOT
BRANCH   1   2
ATOM      2  C   UNL     1      -3.649   3.712   8.978  1.00  0.00     0.002 C 
BRANCH   2   3
ATOM      3  C   UNL     1      -2.808   3.896   7.704  1.00  0.00     0.021 C 
BRANCH   3   4
ATOM      4  C   UNL     1      -3.538   3.492   6.424  1.00  0.00     0.116 C 
BRANCH   4   5
ATOM      5  N   UNL     1      -4.553   4.473   6.088  1.00  0.00    -0.351 N 
ATOM      6  C   UNL     1      -4.663   5.442   5.124  1.00  0.00     0.261 C 
ATOM      7  O   UNL     1      -5.711   6.097   5.183  1.00  0.00    -0.268 OA
ATOM      8  H   UNL     1      -5.335   4.434   6.684  1.00  0.00     0.163 HD
BRANCH   6   9
ATOM      9  C   UNL     1      -3.698   5.672   4.058  1.00  0.00     0.094 A 
ATOM     10  C   UNL     1      -1.846   5.620   2.395  1.00  0.00     0.099 A 
ATOM     11  S   UNL     1      -2.064   5.196   4.046  1.00  0.00    -0.112 S 
ATOM     12  C   UNL     1      -2.913   6.384   1.946  1.00  0.00    -0.015 A 
ATOM     13  C   UNL     1      -3.970   6.403   2.913  1.00  0.00     0.031 A 
ATOM     14  C   UNL     1      -3.029   7.050   0.616  1.00  0.00     0.047 C 
BRANCH  10  15
ATOM     15  N   UNL     1      -0.727   5.287   1.689  1.00  0.00    -0.327 N 
ATOM     16  C   UNL     1       0.936   0.020   0.023  1.00  0.00     0.044 C 
ATOM     17  C   UNL     1       0.504   1.385   0.469  1.00  0.00    -0.047 A 
ATOM     18  C   UNL     1      -0.632   1.552   1.264  1.00  0.00     0.006 A 
ATOM     19  C   UNL     1       1.198   2.521   0.045  1.00  0.00     0.052 A 
ATOM     20  C   UNL     1      -1.049   2.831   1.656  1.00  0.00     0.030 A 
ATOM     21  C   UNL     1       0.780   3.797   0.439  1.00  0.00     0.143 A 
ATOM     22  C   UNL     1      -0.339   3.983   1.282  1.00  0.00     0.085 A 
ATOM     23  O   UNL     1       1.541   4.834  -0.058  1.00  0.00    -0.490 OA
ATOM     24  C   UNL     1       0.875   6.095   0.048  1.00  0.00     0.251 C 
ATOM     25  C   UNL     1       0.297   6.302   1.442  1.00  0.00     0.165 C 
ENDBRANCH  10  15
ENDBRANCH   6   9
ENDBRANCH   4   5
ENDBRANCH   3   4
ENDBRANCH   2   3
ENDBRANCH   1   2
BRANCH   1  26
ATOM     26  C   UNL     1      -3.023   1.212   9.224  1.00  0.00     0.021 C 
BRANCH  26  27
ATOM     27  C   UNL     1      -1.889   1.437  10.216  1.00  0.00     0.116 C 
BRANCH  27  28
ATOM     28  N   UNL     1      -2.322   1.287  11.597  1.00  0.00    -0.352 N 
ATOM     29  C   UNL     1      -1.760   0.528  12.598  1.00  0.00     0.251 C 
ATOM     30  H   UNL     1      -3.126   1.797  11.849  1.00  0.00     0.163 HD
ATOM     31  O   UNL     1      -2.346   0.387  13.667  1.00  0.00    -0.269 OA
BRANCH  29  32
ATOM     32  C   UNL     1      -0.463  -0.141  12.358  1.00  0.00     0.039 A 
ATOM     33  C   UNL     1       0.601   0.564  11.788  1.00  0.00     0.014 A 
ATOM     34  C   UNL     1      -0.324  -1.495  12.672  1.00  0.00     0.014 A 
ATOM     35  C   UNL     1       1.744  -0.121  11.391  1.00  0.00     0.010 A 
ATOM     36  C   UNL     1       0.858  -2.165  12.339  1.00  0.00     0.010 A 
ATOM     37  C   UNL     1       1.883  -1.494  11.655  1.00  0.00    -0.014 A 
BRANCH  37  38
ATOM     38  C   UNL     1       3.111  -2.202  11.211  1.00  0.00     0.031 A 
ATOM     39  C   UNL     1       3.049  -3.272  10.155  1.00  0.00     0.074 A 
ATOM     40  C   UNL     1       4.299  -1.840  11.731  1.00  0.00     0.049 A 
ATOM     41  N   UNL     1       4.028  -3.965   9.631  1.00  0.00    -0.248 NA
ATOM     42  C   UNL     1       1.722  -3.611   9.614  1.00  0.00     0.031 C 
ATOM     43  C   UNL     1       4.486  -0.821  12.766  1.00  0.00     0.029 A 
ATOM     44  N   UNL     1       5.571  -2.266  11.448  1.00  0.00    -0.354 N 
ATOM     45  C   UNL     1       3.438  -4.840   8.728  1.00  0.00     0.074 A 
ATOM     46  C   UNL     1       2.012  -4.599   8.778  1.00  0.00     0.031 C 
ATOM     47  C   UNL     1       5.798  -0.663  12.993  1.00  0.00     0.029 A 
ATOM     48  C   UNL     1       6.542  -1.601  12.157  1.00  0.00     0.049 A 
ATOM     49  H   UNL     1       5.770  -2.980  10.800  1.00  0.00     0.167 HD
ATOM     50  C   UNL     1       4.030  -5.744   7.912  1.00  0.00     0.034 A 
ATOM     51  C   UNL     1       7.883  -1.725  12.139  1.00  0.00     0.034 A 
ATOM     52  C   UNL     1       5.450  -5.952   7.828  1.00  0.00     0.049 A 
ATOM     53  C   UNL     1       8.517  -2.730  11.225  1.00  0.00     0.074 A 
ATOM     54  C   UNL     1       6.141  -6.838   7.019  1.00  0.00     0.029 A 
ATOM     55  N   UNL     1       6.398  -5.261   8.566  1.00  0.00    -0.354 N 
ATOM     56  N   UNL     1       7.942  -3.517  10.348  1.00  0.00    -0.248 NA
ATOM     57  C   UNL     1       9.979  -2.861  11.288  1.00  0.00     0.031 C 
ATOM     58  C   UNL     1       7.509  -6.679   7.266  1.00  0.00     0.029 A 
ATOM     59  C   UNL     1       7.668  -5.693   8.227  1.00  0.00     0.049 A 
ATOM     60  H   UNL     1       6.197  -4.566   9.234  1.00  0.00     0.167 HD
ATOM     61  C   UNL     1       8.971  -4.231   9.748  1.00  0.00     0.074 A 
ATOM     62  C   UNL     1      10.207  -3.769  10.347  1.00  0.00     0.031 C 
ATOM     63  C   UNL     1       8.892  -5.196   8.801  1.00  0.00     0.034 A 
BRANCH  50  64
ATOM     64  C   UNL     1       3.147  -6.541   6.992  1.00  0.00     0.023 A 
ATOM     65  C   UNL     1       2.678  -5.942   5.806  1.00  0.00     0.012 A 
ATOM     66  C   UNL     1       2.845  -7.891   7.256  1.00  0.00     0.148 A 
ATOM     67  C   UNL     1       1.908  -6.670   4.901  1.00  0.00     0.002 A 
ATOM     68  C   UNL     1       2.099  -8.619   6.335  1.00  0.00     0.091 A 
ATOM     69  F   UNL     1       3.286  -8.434   8.399  1.00  0.00    -0.205 F 
ATOM     70  C   UNL     1       1.627  -8.009   5.160  1.00  0.00     0.022 A 
BRANCH  68  71
ATOM     71  S   UNL     1       1.725 -10.363   6.550  1.00  0.00     0.127 S 
ATOM     72  O   UNL     1       0.293 -10.322   6.843  1.00  0.00    -0.237 OA
ATOM     73  O   UNL     1       2.062 -10.916   5.238  1.00  0.00    -0.237 OA
ATOM     74  O   UNL     1       2.574 -10.823   7.640  1.00  0.00    -0.744 OA
ENDBRANCH  68  71
ENDBRANCH  50  64
BRANCH  51  75
ATOM     75  C   UNL     1       8.700  -0.806  12.977  1.00  0.00     0.023 A 
ATOM     76  C   UNL     1       9.358   0.274  12.361  1.00  0.00     0.012 A 
ATOM     77  C   UNL     1       8.728  -0.928  14.379  1.00  0.00     0.148 A 
ATOM     78  C   UNL     1      10.029   1.225  13.130  1.00  0.00     0.002 A 
ATOM     79  C   UNL     1       9.361   0.045  15.142  1.00  0.00     0.091 A 
ATOM     80  F   UNL     1       8.090  -1.967  14.937  1.00  0.00    -0.205 F 
ATOM     81  C   UNL     1      10.019   1.118  14.519  1.00  0.00     0.022 A 
BRANCH  79  82
ATOM     82  S   UNL     1       9.302   0.063  16.937  1.00  0.00     0.127 S 
ATOM     83  O   UNL     1      10.719  -0.028  17.283  1.00  0.00    -0.237 OA
ATOM     84  O   UNL     1       8.685   1.363  17.200  1.00  0.00    -0.237 OA
ATOM     85  O   UNL     1       8.493  -1.085  17.320  1.00  0.00    -0.744 OA
ENDBRANCH  79  82
ENDBRANCH  51  75
BRANCH  63  86
ATOM     86  C   UNL     1      10.172  -5.834   8.340  1.00  0.00     0.023 A 
ATOM     87  C   UNL     1      10.753  -6.849   9.125  1.00  0.00     0.012 A 
ATOM     88  C   UNL     1      10.729  -5.515   7.087  1.00  0.00     0.148 A 
ATOM     89  C   UNL     1      11.877  -7.535   8.670  1.00  0.00     0.002 A 
ATOM     90  C   UNL     1      11.832  -6.224   6.627  1.00  0.00     0.091 A 
ATOM     91  F   UNL     1      10.161  -4.537   6.366  1.00  0.00    -0.205 F 
ATOM     92  C   UNL     1      12.410  -7.232   7.419  1.00  0.00     0.022 A 
BRANCH  90  93
ATOM     93  S   UNL     1      12.548  -5.956   5.002  1.00  0.00     0.127 S 
ATOM     94  O   UNL     1      13.848  -5.377   5.341  1.00  0.00    -0.237 OA
ATOM     95  O   UNL     1      12.607  -7.314   4.461  1.00  0.00    -0.237 OA
ATOM     96  O   UNL     1      11.636  -5.062   4.301  1.00  0.00    -0.744 OA
ENDBRANCH  90  93
ENDBRANCH  63  86
ENDBRANCH  37  38
ENDBRANCH  29  32
ENDBRANCH  27  28
ENDBRANCH  26  27
ENDBRANCH   1  26
TORSDOF 17
