REMARK SMILES CCNC(=O)NC(=O)[C@@H](C)[NH2+][C@](C)(CC)C(=O)NCCCCCCNC(=O)c1ccc(-c2c3nc(c(-c4cccc(S(=O)(=O)[O-])c4F)c4ccc([nH]4)c(-c4cccc(S(=O)(=O)[O-])c4F)c4nc(c(-c5cccc(S(=O)(=O)[O-])c5F)c5ccc2[nH]5)C=C4)C=C3)cc1
REMARK SMILES IDX 21 1 20 2 19 3 18 4 16 5 17 6 12 8 13 9 11 10 9 13 10 14
REMARK SMILES IDX 7 15 3 16 4 17 5 19 6 20 8 22 2 23 1 24 14 25 15 26 22 27
REMARK SMILES IDX 23 28 24 29 25 30 26 31 27 33 28 34 29 35 90 36 30 37 89 38
REMARK SMILES IDX 31 39 32 40 33 41 83 42 34 43 88 44 82 45 84 46 35 47 87 48
REMARK SMILES IDX 81 49 80 50 36 52 68 53 48 54 67 55 49 56 52 57 66 58 85 59
REMARK SMILES IDX 50 60 51 61 65 63 86 64 53 65 37 66 38 67 46 68 39 69 41 70
REMARK SMILES IDX 47 71 40 72 42 73 43 74 44 75 45 76 69 77 70 78 78 79 71 80
REMARK SMILES IDX 73 81 79 82 72 83 74 84 75 85 76 86 77 87 54 88 55 89 63 90
REMARK SMILES IDX 56 91 58 92 64 93 57 94 59 95 60 96 61 97 62 98
REMARK H PARENT 18 7 11 11 11 12 3 18 6 21 25 32 84 51 52 62
REMARK Flexibility Score: inf
ROOT
ATOM      1  C   UNL     1       2.139  -2.406   6.153  1.00  0.00     0.002 C 
ENDROOT
BRANCH   1   2
ATOM      2  C   UNL     1       2.726  -1.237   5.351  1.00  0.00     0.021 C 
BRANCH   2   3
ATOM      3  C   UNL     1       2.379  -1.293   3.866  1.00  0.00     0.116 C 
BRANCH   3   4
ATOM      4  N   UNL     1       0.952  -1.089   3.689  1.00  0.00    -0.351 N 
ATOM      5  C   UNL     1       0.228   0.035   3.401  1.00  0.00     0.281 C 
ATOM      6  O   UNL     1      -0.990  -0.027   3.596  1.00  0.00    -0.268 OA
ATOM      7  H   UNL     1       0.410  -1.903   3.795  1.00  0.00     0.163 HD
BRANCH   5   8
ATOM      8  C   UNL     1       0.916   1.280   2.711  1.00  0.00     0.173 C 
ATOM      9  C   UNL     1      -0.216   2.290   2.411  1.00  0.00     0.090 C 
BRANCH   8  10
ATOM     10  N   UNL     1       1.446   0.700   1.454  1.00  0.00    -0.324 N 
ATOM     11  H   UNL     1       1.941  -0.147   1.732  1.00  0.00     0.347 HD
ATOM     12  H   UNL     1       0.594   0.664   0.894  1.00  0.00     0.347 HD
BRANCH  10  13
ATOM     13  C   UNL     1       2.341   1.389   0.530  1.00  0.00     0.270 C 
ATOM     14  C   UNL     1       1.858   2.614  -0.244  1.00  0.00     0.086 C 
BRANCH  13  15
ATOM     15  C   UNL     1       2.831   0.368  -0.519  1.00  0.00     0.285 C 
ATOM     16  N   UNL     1      -0.407  -0.603  -1.283  1.00  0.00    -0.338 N 
ATOM     17  C   UNL     1       0.807  -1.026  -1.635  1.00  0.00     0.321 C 
ATOM     18  H   UNL     1      -1.129  -1.105  -1.728  1.00  0.00     0.165 HD
ATOM     19  O   UNL     1       0.840  -1.990  -2.411  1.00  0.00    -0.248 OA
ATOM     20  N   UNL     1       2.021  -0.510  -1.250  1.00  0.00    -0.273 N 
ATOM     21  H   UNL     1       2.670  -1.043  -1.765  1.00  0.00     0.175 HD
ATOM     22  O   UNL     1       4.044   0.314  -0.774  1.00  0.00    -0.268 OA
BRANCH  16  23
ATOM     23  C   UNL     1      -0.900   0.416  -0.405  1.00  0.00     0.114 C 
ATOM     24  C   UNL     1      -1.810   1.428  -1.069  1.00  0.00     0.027 C 
ENDBRANCH  16  23
ENDBRANCH  13  15
ENDBRANCH  10  13
ENDBRANCH   8  10
BRANCH   8  25
ATOM     25  C   UNL     1       1.949   1.977   3.633  1.00  0.00     0.075 C 
ATOM     26  C   UNL     1       1.357   2.498   4.947  1.00  0.00     0.011 C 
ENDBRANCH   8  25
ENDBRANCH   5   8
ENDBRANCH   3   4
ENDBRANCH   2   3
ENDBRANCH   1   2
BRANCH   1  27
ATOM     27  C   UNL     1       2.561  -3.795   5.663  1.00  0.00     0.002 C 
BRANCH  27  28
ATOM     28  C   UNL     1       4.072  -3.994   5.530  1.00  0.00     0.021 C 
BRANCH  28  29
ATOM     29  C   UNL     1       4.852  -3.737   6.813  1.00  0.00     0.116 C 
BRANCH  29  30
ATOM     30  N   UNL     1       4.486  -4.671   7.865  1.00  0.00    -0.352 N 
ATOM     31  C   UNL     1       5.300  -5.487   8.614  1.00  0.00     0.251 C 
ATOM     32  H   UNL     1       3.524  -4.728   8.069  1.00  0.00     0.163 HD
ATOM     33  O   UNL     1       4.816  -6.366   9.315  1.00  0.00    -0.269 OA
BRANCH  31  34
ATOM     34  C   UNL     1       6.765  -5.301   8.550  1.00  0.00     0.039 A 
ATOM     35  C   UNL     1       7.584  -6.423   8.405  1.00  0.00     0.014 A 
ATOM     36  C   UNL     1       7.325  -4.022   8.621  1.00  0.00     0.014 A 
ATOM     37  C   UNL     1       8.964  -6.256   8.282  1.00  0.00     0.010 A 
ATOM     38  C   UNL     1       8.690  -3.853   8.416  1.00  0.00     0.010 A 
ATOM     39  C   UNL     1       9.526  -4.968   8.256  1.00  0.00    -0.014 A 
BRANCH  39  40
ATOM     40  C   UNL     1      10.984  -4.770   8.058  1.00  0.00     0.031 A 
ATOM     41  C   UNL     1      11.812  -4.107   9.126  1.00  0.00     0.074 A 
ATOM     42  C   UNL     1      11.549  -5.114   6.885  1.00  0.00     0.049 A 
ATOM     43  N   UNL     1      13.084  -3.805   9.114  1.00  0.00    -0.248 NA
ATOM     44  C   UNL     1      11.113  -3.704  10.357  1.00  0.00     0.031 C 
ATOM     45  C   UNL     1      10.838  -5.688   5.741  1.00  0.00     0.029 A 
ATOM     46  N   UNL     1      12.846  -5.005   6.448  1.00  0.00    -0.354 N 
ATOM     47  C   UNL     1      13.332  -3.153  10.315  1.00  0.00     0.074 A 
ATOM     48  C   UNL     1      12.068  -3.063  11.014  1.00  0.00     0.031 C 
ATOM     49  C   UNL     1      11.706  -5.883   4.736  1.00  0.00     0.029 A 
ATOM     50  C   UNL     1      13.026  -5.418   5.149  1.00  0.00     0.049 A 
ATOM     51  H   UNL     1      13.577  -4.664   7.012  1.00  0.00     0.167 HD
ATOM     52  C   UNL     1      14.508  -2.697  10.809  1.00  0.00     0.034 A 
ATOM     53  C   UNL     1      14.127  -5.411   4.372  1.00  0.00     0.034 A 
ATOM     54  C   UNL     1      15.766  -2.812  10.122  1.00  0.00     0.049 A 
ATOM     55  C   UNL     1      15.427  -4.925   4.950  1.00  0.00     0.074 A 
ATOM     56  C   UNL     1      17.026  -2.454  10.569  1.00  0.00     0.029 A 
ATOM     57  N   UNL     1      15.924  -3.310   8.838  1.00  0.00    -0.354 N 
ATOM     58  N   UNL     1      15.671  -4.452   6.148  1.00  0.00    -0.248 NA
ATOM     59  C   UNL     1      16.611  -5.005   4.083  1.00  0.00     0.031 C 
ATOM     60  C   UNL     1      17.941  -2.704   9.541  1.00  0.00     0.029 A 
ATOM     61  C   UNL     1      17.258  -3.257   8.469  1.00  0.00     0.049 A 
ATOM     62  H   UNL     1      15.195  -3.651   8.271  1.00  0.00     0.167 HD
ATOM     63  C   UNL     1      17.040  -4.210   6.191  1.00  0.00     0.074 A 
ATOM     64  C   UNL     1      17.573  -4.609   4.905  1.00  0.00     0.031 C 
ATOM     65  C   UNL     1      17.784  -3.695   7.201  1.00  0.00     0.034 A 
BRANCH  52  66
ATOM     66  C   UNL     1      14.490  -2.069  12.180  1.00  0.00     0.023 A 
ATOM     67  C   UNL     1      14.239  -2.872  13.313  1.00  0.00     0.012 A 
ATOM     68  C   UNL     1      14.758  -0.697  12.355  1.00  0.00     0.148 A 
ATOM     69  C   UNL     1      14.207  -2.313  14.590  1.00  0.00     0.002 A 
ATOM     70  C   UNL     1      14.774  -0.157  13.636  1.00  0.00     0.091 A 
ATOM     71  F   UNL     1      14.975   0.057  11.268  1.00  0.00    -0.205 F 
ATOM     72  C   UNL     1      14.484  -0.959  14.752  1.00  0.00     0.022 A 
BRANCH  70  73
ATOM     73  S   UNL     1      15.201   1.558  13.959  1.00  0.00     0.127 S 
ATOM     74  O   UNL     1      13.907   2.114  14.354  1.00  0.00    -0.237 OA
ATOM     75  O   UNL     1      16.169   1.434  15.049  1.00  0.00    -0.237 OA
ATOM     76  O   UNL     1      15.750   2.077  12.714  1.00  0.00    -0.744 OA
ENDBRANCH  70  73
ENDBRANCH  52  66
BRANCH  53  77
ATOM     77  C   UNL     1      14.049  -5.928   2.977  1.00  0.00     0.023 A 
ATOM     78  C   UNL     1      14.676  -7.146   2.648  1.00  0.00     0.012 A 
ATOM     79  C   UNL     1      13.323  -5.239   1.986  1.00  0.00     0.148 A 
ATOM     80  C   UNL     1      14.605  -7.653   1.351  1.00  0.00     0.002 A 
ATOM     81  C   UNL     1      13.208  -5.779   0.711  1.00  0.00     0.091 A 
ATOM     82  F   UNL     1      12.741  -4.078   2.320  1.00  0.00    -0.205 F 
ATOM     83  C   UNL     1      13.863  -6.977   0.386  1.00  0.00     0.022 A 
BRANCH  81  84
ATOM     84  S   UNL     1      12.164  -5.049  -0.554  1.00  0.00     0.127 S 
ATOM     85  O   UNL     1      13.151  -4.603  -1.535  1.00  0.00    -0.237 OA
ATOM     86  O   UNL     1      11.354  -6.194  -0.970  1.00  0.00    -0.237 OA
ATOM     87  O   UNL     1      11.415  -3.993   0.112  1.00  0.00    -0.744 OA
ENDBRANCH  81  84
ENDBRANCH  53  77
BRANCH  65  88
ATOM     88  C   UNL     1      19.269  -3.565   6.979  1.00  0.00     0.023 A 
ATOM     89  C   UNL     1      19.767  -2.588   6.095  1.00  0.00     0.012 A 
ATOM     90  C   UNL     1      20.173  -4.367   7.703  1.00  0.00     0.148 A 
ATOM     91  C   UNL     1      21.141  -2.435   5.909  1.00  0.00     0.002 A 
ATOM     92  C   UNL     1      21.541  -4.173   7.553  1.00  0.00     0.091 A 
ATOM     93  F   UNL     1      19.679  -5.303   8.526  1.00  0.00    -0.205 F 
ATOM     94  C   UNL     1      22.026  -3.217   6.646  1.00  0.00     0.022 A 
BRANCH  92  95
ATOM     95  S   UNL     1      22.754  -5.064   8.532  1.00  0.00     0.127 S 
ATOM     96  O   UNL     1      23.360  -5.940   7.530  1.00  0.00    -0.237 OA
ATOM     97  O   UNL     1      23.623  -3.986   9.004  1.00  0.00    -0.237 OA
ATOM     98  O   UNL     1      22.006  -5.742   9.582  1.00  0.00    -0.744 OA
ENDBRANCH  92  95
ENDBRANCH  65  88
ENDBRANCH  39  40
ENDBRANCH  31  34
ENDBRANCH  29  30
ENDBRANCH  28  29
ENDBRANCH  27  28
ENDBRANCH   1  27
TORSDOF 21
