REMARK SMILES COc1c(C(=O)NCCCCCCNC(=O)c2ccc(-c3c4nc(c(-c5cccc(S(=O)(=O)[O-])c5F)c5ccc([nH]5)c(-c5cccc(S(=O)(=O)[O-])c5F)c5nc(c(-c6cccc(S(=O)(=O)[O-])c6F)c6ccc3[nH]6)C=C5)C=C4)cc2)ccc(F)c1F
REMARK SMILES IDX 11 1 10 2 9 3 8 4 7 5 5 6 6 7 4 9 3 10 84 11 80 12 82 13
REMARK SMILES IDX 85 14 81 15 83 16 2 17 1 18 12 19 13 20 14 21 15 22 16 24
REMARK SMILES IDX 17 25 18 26 79 27 19 28 78 29 20 30 21 31 22 32 72 33 23 34
REMARK SMILES IDX 77 35 71 36 73 37 24 38 76 39 70 40 69 41 25 43 57 44 37 45
REMARK SMILES IDX 56 46 38 47 41 48 55 49 74 50 39 51 40 52 54 54 75 55 42 56
REMARK SMILES IDX 26 57 27 58 35 59 28 60 30 61 36 62 29 63 31 64 32 65 33 66
REMARK SMILES IDX 34 67 58 68 59 69 67 70 60 71 62 72 68 73 61 74 63 75 64 76
REMARK SMILES IDX 65 77 66 78 43 79 44 80 52 81 45 82 47 83 53 84 46 85 48 86
REMARK SMILES IDX 49 87 50 88 51 89
REMARK H PARENT 7 8 14 23 73 42 41 53
REMARK Flexibility Score: inf
ROOT
ATOM      1  C   UNL     1       8.155   2.795   1.925  1.00  0.00     0.002 C 
ENDROOT
BRANCH   1   2
ATOM      2  C   UNL     1       6.976   2.013   2.520  1.00  0.00     0.002 C 
BRANCH   2   3
ATOM      3  C   UNL     1       5.691   2.834   2.723  1.00  0.00     0.021 C 
BRANCH   3   4
ATOM      4  C   UNL     1       5.201   3.511   1.443  1.00  0.00     0.116 C 
BRANCH   4   5
ATOM      5  N   UNL     1       4.573   2.544   0.570  1.00  0.00    -0.352 N 
ATOM      6  C   UNL     1       3.297   2.171   0.250  1.00  0.00     0.255 C 
ATOM      7  O   UNL     1       3.248   1.262  -0.582  1.00  0.00    -0.269 OA
ATOM      8  H   UNL     1       5.240   2.014   0.075  1.00  0.00     0.163 HD
BRANCH   6   9
ATOM      9  C   UNL     1       2.032   2.794   0.780  1.00  0.00     0.085 A 
ATOM     10  C   UNL     1       0.785   2.397   0.243  1.00  0.00     0.170 A 
ATOM     11  C   UNL     1      -0.388   3.104   0.546  1.00  0.00     0.201 A 
ATOM     12  C   UNL     1       2.002   3.798   1.761  1.00  0.00     0.021 A 
ATOM     13  C   UNL     1      -0.359   4.162   1.438  1.00  0.00     0.162 A 
ATOM     14  F   UNL     1      -1.554   2.742  -0.010  1.00  0.00    -0.200 F 
ATOM     15  C   UNL     1       0.824   4.495   2.072  1.00  0.00     0.043 A 
ATOM     16  F   UNL     1      -1.477   4.843   1.722  1.00  0.00    -0.204 F 
BRANCH  10  17
ATOM     17  O   UNL     1       0.630   1.331  -0.611  1.00  0.00    -0.493 OA
ATOM     18  C   UNL     1       0.609   0.104   0.127  1.00  0.00     0.278 C 
ENDBRANCH  10  17
ENDBRANCH   6   9
ENDBRANCH   4   5
ENDBRANCH   3   4
ENDBRANCH   2   3
ENDBRANCH   1   2
BRANCH   1  19
ATOM     19  C   UNL     1       8.486   4.105   2.645  1.00  0.00     0.021 C 
BRANCH  19  20
ATOM     20  C   UNL     1       8.893   3.924   4.102  1.00  0.00     0.116 C 
BRANCH  20  21
ATOM     21  N   UNL     1      10.131   3.169   4.218  1.00  0.00    -0.352 N 
ATOM     22  C   UNL     1      11.305   3.526   4.833  1.00  0.00     0.251 C 
ATOM     23  H   UNL     1      10.127   2.280   3.796  1.00  0.00     0.163 HD
ATOM     24  O   UNL     1      12.328   2.882   4.627  1.00  0.00    -0.269 OA
BRANCH  22  25
ATOM     25  C   UNL     1      11.325   4.693   5.740  1.00  0.00     0.039 A 
ATOM     26  C   UNL     1      12.385   5.598   5.658  1.00  0.00     0.014 A 
ATOM     27  C   UNL     1      10.303   4.884   6.674  1.00  0.00     0.014 A 
ATOM     28  C   UNL     1      12.396   6.721   6.487  1.00  0.00     0.010 A 
ATOM     29  C   UNL     1      10.275   6.044   7.441  1.00  0.00     0.010 A 
ATOM     30  C   UNL     1      11.329   6.966   7.368  1.00  0.00    -0.014 A 
BRANCH  30  31
ATOM     31  C   UNL     1      11.303   8.180   8.222  1.00  0.00     0.031 A 
ATOM     32  C   UNL     1      11.319   8.054   9.722  1.00  0.00     0.074 A 
ATOM     33  C   UNL     1      11.189   9.393   7.646  1.00  0.00     0.049 A 
ATOM     34  N   UNL     1      11.283   8.997  10.627  1.00  0.00    -0.248 NA
ATOM     35  C   UNL     1      11.351   6.692  10.279  1.00  0.00     0.031 C 
ATOM     36  C   UNL     1      11.082   9.640   6.207  1.00  0.00     0.029 A 
ATOM     37  N   UNL     1      11.123  10.646   8.203  1.00  0.00    -0.354 N 
ATOM     38  C   UNL     1      11.245   8.345  11.854  1.00  0.00     0.074 A 
ATOM     39  C   UNL     1      11.229   6.926  11.578  1.00  0.00     0.031 C 
ATOM     40  C   UNL     1      10.983  10.961   5.992  1.00  0.00     0.029 A 
ATOM     41  C   UNL     1      10.986  11.654   7.277  1.00  0.00     0.049 A 
ATOM     42  H   UNL     1      11.170  10.808   9.172  1.00  0.00     0.167 HD
ATOM     43  C   UNL     1      11.252   8.878  13.099  1.00  0.00     0.034 A 
ATOM     44  C   UNL     1      10.874  12.986   7.445  1.00  0.00     0.034 A 
ATOM     45  C   UNL     1      11.313  10.289  13.367  1.00  0.00     0.049 A 
ATOM     46  C   UNL     1      10.924  13.553   8.837  1.00  0.00     0.074 A 
ATOM     47  C   UNL     1      11.433  10.927  14.589  1.00  0.00     0.029 A 
ATOM     48  N   UNL     1      11.243  11.282  12.402  1.00  0.00    -0.354 N 
ATOM     49  N   UNL     1      11.066  12.926   9.980  1.00  0.00    -0.248 NA
ATOM     50  C   UNL     1      10.833  15.015   8.962  1.00  0.00     0.031 C 
ATOM     51  C   UNL     1      11.397  12.307  14.365  1.00  0.00     0.029 A 
ATOM     52  C   UNL     1      11.295  12.529  13.001  1.00  0.00     0.049 A 
ATOM     53  H   UNL     1      11.168  11.123  11.434  1.00  0.00     0.167 HD
ATOM     54  C   UNL     1      11.121  13.916  10.954  1.00  0.00     0.074 A 
ATOM     55  C   UNL     1      11.017  15.185  10.264  1.00  0.00     0.031 C 
ATOM     56  C   UNL     1      11.237  13.785  12.299  1.00  0.00     0.034 A 
BRANCH  43  57
ATOM     57  C   UNL     1      11.226   7.928  14.269  1.00  0.00     0.023 A 
ATOM     58  C   UNL     1      12.354   7.131  14.552  1.00  0.00     0.012 A 
ATOM     59  C   UNL     1      10.105   7.864  15.120  1.00  0.00     0.148 A 
ATOM     60  C   UNL     1      12.352   6.255  15.637  1.00  0.00     0.002 A 
ATOM     61  C   UNL     1      10.129   7.025  16.228  1.00  0.00     0.091 A 
ATOM     62  F   UNL     1       9.033   8.612  14.824  1.00  0.00    -0.205 F 
ATOM     63  C   UNL     1      11.245   6.210  16.480  1.00  0.00     0.022 A 
BRANCH  61  64
ATOM     64  S   UNL     1       8.787   6.957  17.419  1.00  0.00     0.127 S 
ATOM     65  O   UNL     1       8.216   5.638  17.145  1.00  0.00    -0.237 OA
ATOM     66  O   UNL     1       9.501   7.059  18.693  1.00  0.00    -0.237 OA
ATOM     67  O   UNL     1       7.922   8.088  17.116  1.00  0.00    -0.744 OA
ENDBRANCH  61  64
ENDBRANCH  43  57
BRANCH  44  68
ATOM     68  C   UNL     1      10.777  13.882   6.257  1.00  0.00     0.023 A 
ATOM     69  C   UNL     1      11.860  14.725   5.939  1.00  0.00     0.012 A 
ATOM     70  C   UNL     1       9.637  13.886   5.431  1.00  0.00     0.148 A 
ATOM     71  C   UNL     1      11.795  15.582   4.840  1.00  0.00     0.002 A 
ATOM     72  C   UNL     1       9.602  14.700   4.306  1.00  0.00     0.091 A 
ATOM     73  F   UNL     1       8.616  13.081   5.756  1.00  0.00    -0.205 F 
ATOM     74  C   UNL     1      10.671  15.563   4.018  1.00  0.00     0.022 A 
BRANCH  72  75
ATOM     75  S   UNL     1       8.253  14.648   3.120  1.00  0.00     0.127 S 
ATOM     76  O   UNL     1       7.630  15.954   3.319  1.00  0.00    -0.237 OA
ATOM     77  O   UNL     1       8.972  14.493   1.855  1.00  0.00    -0.237 OA
ATOM     78  O   UNL     1       7.443  13.497   3.494  1.00  0.00    -0.744 OA
ENDBRANCH  72  75
ENDBRANCH  44  68
BRANCH  56  79
ATOM     79  C   UNL     1      11.297  15.047  13.121  1.00  0.00     0.023 A 
ATOM     80  C   UNL     1      10.143  15.839  13.283  1.00  0.00     0.012 A 
ATOM     81  C   UNL     1      12.482  15.406  13.793  1.00  0.00     0.148 A 
ATOM     82  C   UNL     1      10.178  16.988  14.072  1.00  0.00     0.002 A 
ATOM     83  C   UNL     1      12.495  16.522  14.621  1.00  0.00     0.091 A 
ATOM     84  F   UNL     1      13.574  14.649  13.613  1.00  0.00    -0.205 F 
ATOM     85  C   UNL     1      11.348  17.322  14.750  1.00  0.00     0.022 A 
BRANCH  83  86
ATOM     86  S   UNL     1      13.924  16.970  15.612  1.00  0.00     0.127 S 
ATOM     87  O   UNL     1      14.392  18.176  14.931  1.00  0.00    -0.237 OA
ATOM     88  O   UNL     1      13.326  17.205  16.927  1.00  0.00    -0.237 OA
ATOM     89  O   UNL     1      14.828  15.830  15.554  1.00  0.00    -0.744 OA
ENDBRANCH  83  86
ENDBRANCH  56  79
ENDBRANCH  30  31
ENDBRANCH  22  25
ENDBRANCH  20  21
ENDBRANCH  19  20
ENDBRANCH   1  19
TORSDOF 17
