REMARK SMILES O=C(CCOCc1ccccc1)NCCCCCCNC(=O)c1ccc(-c2c3nc(c(-c4cccc(S(=O)(=O)[O-])c4F)c4ccc([nH]4)c(-c4cccc(S(=O)(=O)[O-])c4F)c4nc(c(-c5cccc(S(=O)(=O)[O-])c5F)c5ccc2[nH]5)C=C4)C=C3)cc1
REMARK SMILES IDX 16 1 15 2 14 3 13 4 1 5 2 6 3 8 4 9 5 10 6 11 7 12 8 13
REMARK SMILES IDX 12 14 9 15 11 16 10 17 17 18 18 19 19 20 20 21 21 22 22 24
REMARK SMILES IDX 23 25 24 26 85 27 25 28 84 29 26 30 27 31 28 32 78 33 29 34
REMARK SMILES IDX 83 35 77 36 79 37 30 38 82 39 76 40 75 41 31 43 63 44 43 45
REMARK SMILES IDX 62 46 44 47 47 48 61 49 80 50 45 51 46 52 60 54 81 55 48 56
REMARK SMILES IDX 32 57 33 58 41 59 34 60 36 61 42 62 35 63 37 64 38 65 39 66
REMARK SMILES IDX 40 67 64 68 65 69 73 70 66 71 68 72 74 73 67 74 69 75 70 76
REMARK SMILES IDX 71 77 72 78 49 79 50 80 58 81 51 82 53 83 59 84 52 85 54 86
REMARK SMILES IDX 55 87 56 88 57 89
REMARK H PARENT 13 7 20 23 79 42 47 53
REMARK Flexibility Score: inf
ROOT
ATOM      1  C   UNL     1       4.130   2.571   2.931  1.00  0.00     0.002 C 
ENDROOT
BRANCH   1   2
ATOM      2  C   UNL     1       2.630   2.230   2.980  1.00  0.00     0.021 C 
BRANCH   2   3
ATOM      3  C   UNL     1       2.040   1.717   1.665  1.00  0.00     0.116 C 
BRANCH   3   4
ATOM      4  N   UNL     1       2.692   0.493   1.241  1.00  0.00    -0.356 N 
ATOM      5  O   UNL     1       1.196  -0.105  -0.403  1.00  0.00    -0.275 OA
ATOM      6  C   UNL     1       2.273  -0.248   0.161  1.00  0.00     0.222 C 
ATOM      7  H   UNL     1       3.472   0.177   1.752  1.00  0.00     0.163 HD
BRANCH   6   8
ATOM      8  C   UNL     1       3.308  -1.254  -0.293  1.00  0.00     0.128 C 
BRANCH   8   9
ATOM      9  C   UNL     1       3.973  -0.904  -1.621  1.00  0.00     0.170 C 
BRANCH   9  10
ATOM     10  O   UNL     1       4.888   0.184  -1.668  1.00  0.00    -0.376 OA
BRANCH  10  11
ATOM     11  C   UNL     1       4.476   1.510  -1.339  1.00  0.00     0.195 C 
BRANCH  11  12
ATOM     12  C   UNL     1       3.485   2.267  -2.207  1.00  0.00    -0.022 A 
ATOM     13  C   UNL     1       3.642   3.661  -2.334  1.00  0.00     0.006 A 
ATOM     14  C   UNL     1       2.342   1.703  -2.782  1.00  0.00     0.006 A 
ATOM     15  C   UNL     1       2.717   4.439  -3.040  1.00  0.00     0.000 A 
ATOM     16  C   UNL     1       1.421   2.473  -3.498  1.00  0.00     0.000 A 
ATOM     17  C   UNL     1       1.609   3.841  -3.631  1.00  0.00     0.000 A 
ENDBRANCH  11  12
ENDBRANCH  10  11
ENDBRANCH   9  10
ENDBRANCH   8   9
ENDBRANCH   6   8
ENDBRANCH   3   4
ENDBRANCH   2   3
ENDBRANCH   1   2
BRANCH   1  18
ATOM     18  C   UNL     1       4.506   3.808   2.111  1.00  0.00     0.002 C 
BRANCH  18  19
ATOM     19  C   UNL     1       3.886   5.124   2.583  1.00  0.00     0.021 C 
BRANCH  19  20
ATOM     20  C   UNL     1       4.084   5.452   4.061  1.00  0.00     0.116 C 
BRANCH  20  21
ATOM     21  N   UNL     1       5.484   5.606   4.427  1.00  0.00    -0.352 N 
ATOM     22  C   UNL     1       6.086   6.592   5.175  1.00  0.00     0.251 C 
ATOM     23  H   UNL     1       6.087   4.903   4.091  1.00  0.00     0.163 HD
ATOM     24  O   UNL     1       7.307   6.627   5.268  1.00  0.00    -0.269 OA
BRANCH  22  25
ATOM     25  C   UNL     1       5.260   7.626   5.842  1.00  0.00     0.039 A 
ATOM     26  C   UNL     1       5.659   8.962   5.756  1.00  0.00     0.014 A 
ATOM     27  C   UNL     1       4.097   7.288   6.540  1.00  0.00     0.014 A 
ATOM     28  C   UNL     1       4.856   9.963   6.309  1.00  0.00     0.010 A 
ATOM     29  C   UNL     1       3.259   8.293   7.022  1.00  0.00     0.010 A 
ATOM     30  C   UNL     1       3.628   9.641   6.913  1.00  0.00    -0.014 A 
BRANCH  30  31
ATOM     31  C   UNL     1       2.709  10.710   7.387  1.00  0.00     0.031 A 
ATOM     32  C   UNL     1       2.334  10.823   8.840  1.00  0.00     0.074 A 
ATOM     33  C   UNL     1       2.153  11.546   6.488  1.00  0.00     0.049 A 
ATOM     34  N   UNL     1       1.562  11.702   9.425  1.00  0.00    -0.248 NA
ATOM     35  C   UNL     1       2.876   9.802   9.751  1.00  0.00     0.031 C 
ATOM     36  C   UNL     1       2.362  11.489   5.039  1.00  0.00     0.029 A 
ATOM     37  N   UNL     1       1.285  12.598   6.654  1.00  0.00    -0.354 N 
ATOM     38  C   UNL     1       1.497  11.326  10.761  1.00  0.00     0.074 A 
ATOM     39  C   UNL     1       2.281  10.116  10.893  1.00  0.00     0.031 C 
ATOM     40  C   UNL     1       1.664  12.474   4.453  1.00  0.00     0.029 A 
ATOM     41  C   UNL     1       0.931  13.213   5.476  1.00  0.00     0.049 A 
ATOM     42  H   UNL     1       0.949  12.884   7.534  1.00  0.00     0.167 HD
ATOM     43  C   UNL     1       0.866  11.941  11.790  1.00  0.00     0.034 A 
ATOM     44  C   UNL     1       0.110  14.255   5.242  1.00  0.00     0.034 A 
ATOM     45  C   UNL     1       0.108  13.159  11.660  1.00  0.00     0.049 A 
ATOM     46  C   UNL     1      -0.553  14.941   6.404  1.00  0.00     0.074 A 
ATOM     47  C   UNL     1      -0.484  13.915  12.656  1.00  0.00     0.029 A 
ATOM     48  N   UNL     1      -0.183  13.787  10.459  1.00  0.00    -0.354 N 
ATOM     49  N   UNL     1      -0.457  14.676   7.684  1.00  0.00    -0.248 NA
ATOM     50  C   UNL     1      -1.412  16.092   6.091  1.00  0.00     0.031 C 
ATOM     51  C   UNL     1      -1.168  14.976  12.054  1.00  0.00     0.029 A 
ATOM     52  C   UNL     1      -0.968  14.907  10.685  1.00  0.00     0.049 A 
ATOM     53  H   UNL     1       0.122  13.482   9.574  1.00  0.00     0.167 HD
ATOM     54  C   UNL     1      -1.215  15.644   8.332  1.00  0.00     0.074 A 
ATOM     55  C   UNL     1      -1.742  16.517   7.303  1.00  0.00     0.031 C 
ATOM     56  C   UNL     1      -1.463  15.789   9.658  1.00  0.00     0.034 A 
BRANCH  43  57
ATOM     57  C   UNL     1       0.995  11.323  13.160  1.00  0.00     0.023 A 
ATOM     58  C   UNL     1       2.239  11.344  13.824  1.00  0.00     0.012 A 
ATOM     59  C   UNL     1      -0.121  10.760  13.809  1.00  0.00     0.148 A 
ATOM     60  C   UNL     1       2.381  10.774  15.089  1.00  0.00     0.002 A 
ATOM     61  C   UNL     1       0.017  10.239  15.091  1.00  0.00     0.091 A 
ATOM     62  F   UNL     1      -1.293  10.729  13.158  1.00  0.00    -0.205 F 
ATOM     63  C   UNL     1       1.269  10.231  15.726  1.00  0.00     0.022 A 
BRANCH  61  64
ATOM     64  S   UNL     1      -1.373   9.592  16.028  1.00  0.00     0.127 S 
ATOM     65  O   UNL     1      -1.099   8.155  16.007  1.00  0.00    -0.237 OA
ATOM     66  O   UNL     1      -1.188  10.229  17.332  1.00  0.00    -0.237 OA
ATOM     67  O   UNL     1      -2.569  10.011  15.312  1.00  0.00    -0.744 OA
ENDBRANCH  61  64
ENDBRANCH  43  57
BRANCH  44  68
ATOM     68  C   UNL     1      -0.072  14.757   3.851  1.00  0.00     0.023 A 
ATOM     69  C   UNL     1       0.475  16.004   3.489  1.00  0.00     0.012 A 
ATOM     70  C   UNL     1      -0.746  13.994   2.878  1.00  0.00     0.148 A 
ATOM     71  C   UNL     1       0.329  16.495   2.192  1.00  0.00     0.002 A 
ATOM     72  C   UNL     1      -0.838  14.463   1.573  1.00  0.00     0.091 A 
ATOM     73  F   UNL     1      -1.265  12.814   3.246  1.00  0.00    -0.205 F 
ATOM     74  C   UNL     1      -0.318  15.722   1.232  1.00  0.00     0.022 A 
BRANCH  72  75
ATOM     75  S   UNL     1      -1.534  13.481   0.240  1.00  0.00     0.127 S 
ATOM     76  O   UNL     1      -2.729  14.248  -0.104  1.00  0.00    -0.237 OA
ATOM     77  O   UNL     1      -0.463  13.527  -0.755  1.00  0.00    -0.237 OA
ATOM     78  O   UNL     1      -1.775  12.161   0.806  1.00  0.00    -0.744 OA
ENDBRANCH  72  75
ENDBRANCH  44  68
BRANCH  56  79
ATOM     79  C   UNL     1      -2.327  16.951  10.081  1.00  0.00     0.023 A 
ATOM     80  C   UNL     1      -3.704  16.952   9.778  1.00  0.00     0.012 A 
ATOM     81  C   UNL     1      -1.784  18.021  10.820  1.00  0.00     0.148 A 
ATOM     82  C   UNL     1      -4.516  18.017  10.165  1.00  0.00     0.002 A 
ATOM     83  C   UNL     1      -2.610  19.053  11.249  1.00  0.00     0.091 A 
ATOM     84  F   UNL     1      -0.469  18.014  11.084  1.00  0.00    -0.205 F 
ATOM     85  C   UNL     1      -3.972  19.061  10.909  1.00  0.00     0.022 A 
BRANCH  83  86
ATOM     86  S   UNL     1      -2.019  20.389  12.294  1.00  0.00     0.127 S 
ATOM     87  O   UNL     1      -2.016  21.517  11.364  1.00  0.00    -0.237 OA
ATOM     88  O   UNL     1      -3.053  20.455  13.328  1.00  0.00    -0.237 OA
ATOM     89  O   UNL     1      -0.709  19.973  12.776  1.00  0.00    -0.744 OA
ENDBRANCH  83  86
ENDBRANCH  56  79
ENDBRANCH  30  31
ENDBRANCH  22  25
ENDBRANCH  20  21
ENDBRANCH  19  20
ENDBRANCH  18  19
ENDBRANCH   1  18
TORSDOF 20
