REMARK SMILES O=C(NCCCCCCNC(=O)c1ccccc1[C@@H]1SCC(=O)N1NC(=S)Nc1ccccc1)c1ccc(-c2c3nc(c(-c4cccc(S(=O)(=O)[O-])c4F)c4ccc([nH]4)c(-c4cccc(S(=O)(=O)[O-])c4F)c4nc(c(-c5cccc(S(=O)(=O)[O-])c5F)c5ccc2[nH]5)C=C4)C=C3)cc1
REMARK SMILES IDX 7 1 6 2 5 3 4 4 3 5 1 6 2 7 35 9 36 10 97 11 37 12 96 13
REMARK SMILES IDX 38 14 39 15 40 16 90 17 41 18 95 19 89 20 91 21 42 22 94 23
REMARK SMILES IDX 88 24 87 25 43 27 75 28 55 29 74 30 56 31 59 32 73 33 92 34
REMARK SMILES IDX 57 35 58 36 72 38 93 39 60 40 44 41 45 42 53 43 46 44 48 45
REMARK SMILES IDX 54 46 47 47 49 48 50 49 51 50 52 51 76 52 77 53 85 54 78 55
REMARK SMILES IDX 80 56 86 57 79 58 81 59 82 60 83 61 84 62 61 63 62 64 70 65
REMARK SMILES IDX 63 66 65 67 71 68 64 69 66 70 67 71 68 72 69 73 8 74 9 75
REMARK SMILES IDX 10 76 11 77 12 79 13 80 14 81 18 82 15 83 17 84 16 85 19 86
REMARK SMILES IDX 20 87 24 88 21 89 22 90 23 91 25 92 26 94 27 95 28 96 29 98
REMARK SMILES IDX 30 99 34 100 31 101 33 102 32 103
REMARK H PARENT 3 8 91 26 59 37 10 78 25 93 28 97
REMARK Flexibility Score: inf
ROOT
ATOM      1  C   UNL     1       4.271  -4.880  -1.754  1.00  0.00     0.002 C 
ENDROOT
BRANCH   1   2
ATOM      2  C   UNL     1       3.490  -3.940  -0.805  1.00  0.00     0.002 C 
BRANCH   2   3
ATOM      3  C   UNL     1       4.034  -2.545  -0.480  1.00  0.00     0.021 C 
BRANCH   3   4
ATOM      4  C   UNL     1       3.703  -1.410  -1.447  1.00  0.00     0.116 C 
BRANCH   4   5
ATOM      5  N   UNL     1       2.393  -0.818  -1.215  1.00  0.00    -0.352 N 
ATOM      6  O   UNL     1       0.755   0.476  -0.441  1.00  0.00    -0.269 OA
ATOM      7  C   UNL     1       1.970   0.347  -0.612  1.00  0.00     0.251 C 
ATOM      8  H   UNL     1       1.652  -1.366  -1.562  1.00  0.00     0.163 HD
BRANCH   7   9
ATOM      9  C   UNL     1       2.875   1.447  -0.158  1.00  0.00     0.039 A 
ATOM     10  C   UNL     1       4.077   1.764  -0.788  1.00  0.00     0.014 A 
ATOM     11  C   UNL     1       2.423   2.300   0.867  1.00  0.00     0.014 A 
ATOM     12  C   UNL     1       4.854   2.844  -0.349  1.00  0.00     0.010 A 
ATOM     13  C   UNL     1       3.157   3.438   1.248  1.00  0.00     0.010 A 
ATOM     14  C   UNL     1       4.385   3.724   0.641  1.00  0.00    -0.014 A 
BRANCH  14  15
ATOM     15  C   UNL     1       5.109   5.007   0.884  1.00  0.00     0.031 A 
ATOM     16  C   UNL     1       5.739   5.342   2.208  1.00  0.00     0.074 A 
ATOM     17  C   UNL     1       5.184   5.898  -0.127  1.00  0.00     0.049 A 
ATOM     18  N   UNL     1       6.452   6.392   2.536  1.00  0.00    -0.248 NA
ATOM     19  C   UNL     1       5.537   4.391   3.311  1.00  0.00     0.031 C 
ATOM     20  C   UNL     1       4.548   5.731  -1.436  1.00  0.00     0.029 A 
ATOM     21  N   UNL     1       5.827   7.108  -0.227  1.00  0.00    -0.354 N 
ATOM     22  C   UNL     1       6.754   6.250   3.885  1.00  0.00     0.074 A 
ATOM     23  C   UNL     1       6.141   5.010   4.318  1.00  0.00     0.031 C 
ATOM     24  C   UNL     1       4.875   6.765  -2.223  1.00  0.00     0.029 A 
ATOM     25  C   UNL     1       5.704   7.696  -1.466  1.00  0.00     0.049 A 
ATOM     26  H   UNL     1       6.329   7.515   0.516  1.00  0.00     0.167 HD
ATOM     27  C   UNL     1       7.486   7.066   4.684  1.00  0.00     0.034 A 
ATOM     28  C   UNL     1       6.200   8.852  -1.949  1.00  0.00     0.034 A 
ATOM     29  C   UNL     1       8.127   8.279   4.242  1.00  0.00     0.049 A 
ATOM     30  C   UNL     1       7.058   9.705  -1.060  1.00  0.00     0.074 A 
ATOM     31  C   UNL     1       8.944   9.134   4.963  1.00  0.00     0.029 A 
ATOM     32  N   UNL     1       8.022   8.815   2.967  1.00  0.00    -0.354 N 
ATOM     33  N   UNL     1       7.447   9.478   0.171  1.00  0.00    -0.248 NA
ATOM     34  C   UNL     1       7.563  10.962  -1.631  1.00  0.00     0.031 C 
ATOM     35  C   UNL     1       9.325  10.190   4.127  1.00  0.00     0.029 A 
ATOM     36  C   UNL     1       8.752   9.990   2.881  1.00  0.00     0.049 A 
ATOM     37  H   UNL     1       7.504   8.418   2.230  1.00  0.00     0.167 HD
ATOM     38  C   UNL     1       8.249  10.556   0.521  1.00  0.00     0.074 A 
ATOM     39  C   UNL     1       8.320  11.420  -0.641  1.00  0.00     0.031 C 
ATOM     40  C   UNL     1       8.849  10.820   1.707  1.00  0.00     0.034 A 
BRANCH  27  41
ATOM     41  C   UNL     1       7.682   6.649   6.120  1.00  0.00     0.023 A 
ATOM     42  C   UNL     1       8.587   5.610   6.419  1.00  0.00     0.012 A 
ATOM     43  C   UNL     1       7.027   7.316   7.174  1.00  0.00     0.148 A 
ATOM     44  C   UNL     1       8.816   5.223   7.739  1.00  0.00     0.002 A 
ATOM     45  C   UNL     1       7.285   6.946   8.491  1.00  0.00     0.091 A 
ATOM     46  F   UNL     1       6.154   8.289   6.875  1.00  0.00    -0.205 F 
ATOM     47  C   UNL     1       8.173   5.896   8.775  1.00  0.00     0.022 A 
BRANCH  45  48
ATOM     48  S   UNL     1       6.550   7.804   9.889  1.00  0.00     0.127 S 
ATOM     49  O   UNL     1       5.449   6.909  10.241  1.00  0.00    -0.237 OA
ATOM     50  O   UNL     1       7.647   7.829  10.858  1.00  0.00    -0.237 OA
ATOM     51  O   UNL     1       6.166   9.116   9.386  1.00  0.00    -0.744 OA
ENDBRANCH  45  48
ENDBRANCH  27  41
BRANCH  28  52
ATOM     52  C   UNL     1       5.952   9.216  -3.373  1.00  0.00     0.023 A 
ATOM     53  C   UNL     1       7.016   9.153  -4.294  1.00  0.00     0.012 A 
ATOM     54  C   UNL     1       4.662   9.537  -3.836  1.00  0.00     0.148 A 
ATOM     55  C   UNL     1       6.799   9.409  -5.649  1.00  0.00     0.002 A 
ATOM     56  C   UNL     1       4.441   9.730  -5.195  1.00  0.00     0.091 A 
ATOM     57  F   UNL     1       3.666   9.617  -2.942  1.00  0.00    -0.205 F 
ATOM     58  C   UNL     1       5.511   9.680  -6.102  1.00  0.00     0.022 A 
BRANCH  56  59
ATOM     59  S   UNL     1       2.789   9.923  -5.874  1.00  0.00     0.127 S 
ATOM     60  O   UNL     1       2.739  11.358  -6.139  1.00  0.00    -0.237 OA
ATOM     61  O   UNL     1       2.846   9.077  -7.067  1.00  0.00    -0.237 OA
ATOM     62  O   UNL     1       1.887   9.432  -4.840  1.00  0.00    -0.744 OA
ENDBRANCH  56  59
ENDBRANCH  28  52
BRANCH  40  63
ATOM     63  C   UNL     1       9.635  12.099   1.813  1.00  0.00     0.023 A 
ATOM     64  C   UNL     1       8.947  13.323   1.934  1.00  0.00     0.012 A 
ATOM     65  C   UNL     1      11.042  12.090   1.852  1.00  0.00     0.148 A 
ATOM     66  C   UNL     1       9.648  14.521   2.067  1.00  0.00     0.002 A 
ATOM     67  C   UNL     1      11.734  13.285   2.024  1.00  0.00     0.091 A 
ATOM     68  F   UNL     1      11.681  10.919   1.709  1.00  0.00    -0.205 F 
ATOM     69  C   UNL     1      11.039  14.501   2.123  1.00  0.00     0.022 A 
BRANCH  67  70
ATOM     70  S   UNL     1      13.523  13.336   2.185  1.00  0.00     0.127 S 
ATOM     71  O   UNL     1      13.932  13.759   0.847  1.00  0.00    -0.237 OA
ATOM     72  O   UNL     1      13.718  14.343   3.229  1.00  0.00    -0.237 OA
ATOM     73  O   UNL     1      13.922  11.989   2.571  1.00  0.00    -0.744 OA
ENDBRANCH  67  70
ENDBRANCH  40  63
ENDBRANCH  14  15
ENDBRANCH   7   9
ENDBRANCH   4   5
ENDBRANCH   3   4
ENDBRANCH   2   3
ENDBRANCH   1   2
BRANCH   1  74
ATOM     74  C   UNL     1       5.795  -4.771  -1.963  1.00  0.00     0.021 C 
BRANCH  74  75
ATOM     75  C   UNL     1       6.769  -5.317  -0.904  1.00  0.00     0.116 C 
BRANCH  75  76
ATOM     76  N   UNL     1       6.656  -6.724  -0.559  1.00  0.00    -0.352 N 
ATOM     77  C   UNL     1       7.559  -7.477   0.173  1.00  0.00     0.251 C 
ATOM     78  H   UNL     1       5.852  -7.192  -0.881  1.00  0.00     0.163 HD
ATOM     79  O   UNL     1       7.178  -8.473   0.784  1.00  0.00    -0.269 OA
BRANCH  77  80
ATOM     80  C   UNL     1       9.016  -7.188   0.164  1.00  0.00     0.046 A 
ATOM     81  C   UNL     1       9.663  -7.581  -1.022  1.00  0.00     0.014 A 
ATOM     82  C   UNL     1       9.783  -6.790   1.293  1.00  0.00    -0.001 A 
ATOM     83  C   UNL     1      11.054  -7.572  -1.117  1.00  0.00     0.001 A 
ATOM     84  C   UNL     1      11.193  -6.787   1.158  1.00  0.00     0.007 A 
ATOM     85  C   UNL     1      11.818  -7.173  -0.028  1.00  0.00     0.000 A 
BRANCH  82  86
ATOM     86  C   UNL     1       9.239  -6.347   2.650  1.00  0.00     0.197 C 
ATOM     87  S   UNL     1       8.761  -7.715   3.718  1.00  0.00    -0.120 SA
ATOM     88  N   UNL     1       8.107  -5.455   2.558  1.00  0.00    -0.236 N 
ATOM     89  C   UNL     1       7.030  -7.190   3.767  1.00  0.00     0.174 C 
ATOM     90  C   UNL     1       6.883  -6.090   2.736  1.00  0.00     0.252 C 
ATOM     91  O   UNL     1       5.818  -5.855   2.166  1.00  0.00    -0.272 OA
BRANCH  88  92
ATOM     92  N   UNL     1       8.392  -4.207   1.962  1.00  0.00    -0.270 N 
ATOM     93  H   UNL     1       9.307  -4.119   1.610  1.00  0.00     0.191 HD
BRANCH  92  94
ATOM     94  C   UNL     1       7.610  -3.107   1.794  1.00  0.00     0.189 C 
ATOM     95  S   UNL     1       8.264  -1.850   0.901  1.00  0.00    -0.039 S 
BRANCH  94  96
ATOM     96  N   UNL     1       6.289  -3.146   2.042  1.00  0.00    -0.331 N 
ATOM     97  H   UNL     1       5.714  -3.098   1.244  1.00  0.00     0.169 HD
BRANCH  96  98
ATOM     98  C   UNL     1       5.606  -3.246   3.258  1.00  0.00     0.040 A 
ATOM     99  C   UNL     1       4.292  -3.733   3.198  1.00  0.00     0.026 A 
ATOM    100  C   UNL     1       6.175  -2.926   4.481  1.00  0.00     0.026 A 
ATOM    101  C   UNL     1       3.571  -3.982   4.356  1.00  0.00     0.002 A 
ATOM    102  C   UNL     1       5.431  -3.132   5.645  1.00  0.00     0.002 A 
ATOM    103  C   UNL     1       4.143  -3.677   5.584  1.00  0.00     0.000 A 
ENDBRANCH  96  98
ENDBRANCH  94  96
ENDBRANCH  92  94
ENDBRANCH  88  92
ENDBRANCH  82  86
ENDBRANCH  77  80
ENDBRANCH  75  76
ENDBRANCH  74  75
ENDBRANCH   1  74
TORSDOF 21
