REMARK SMILES O=C(NCCCCCCNC(=O)c1nn(-c2ccc([N+](=O)[O-])cc2)cc1CCO)c1ccc(-c2c3nc(c(-c4cccc(S(=O)(=O)[O-])c4F)c4ccc([nH]4)c(-c4cccc(S(=O)(=O)[O-])c4F)c4nc(c(-c5cccc(S(=O)(=O)[O-])c5F)c5ccc2[nH]5)C=C4)C=C3)cc1
REMARK SMILES IDX 6 1 5 2 4 3 3 4 1 5 2 6 30 8 31 9 92 10 32 11 91 12 33 13
REMARK SMILES IDX 34 14 35 15 85 16 36 17 90 18 84 19 86 20 37 21 89 22 83 23
REMARK SMILES IDX 82 24 38 26 70 27 50 28 69 29 51 30 54 31 68 32 87 33 52 34
REMARK SMILES IDX 53 35 67 37 88 38 55 39 39 40 40 41 48 42 41 43 43 44 49 45
REMARK SMILES IDX 42 46 44 47 45 48 46 49 47 50 71 51 72 52 80 53 73 54 75 55
REMARK SMILES IDX 81 56 74 57 76 58 77 59 78 60 79 61 56 62 57 63 65 64 58 65
REMARK SMILES IDX 60 66 66 67 59 68 61 69 62 70 63 71 64 72 7 73 8 74 9 75
REMARK SMILES IDX 10 76 11 77 12 79 13 80 14 81 26 82 15 83 25 84 27 85 28 86
REMARK SMILES IDX 29 87 16 89 17 90 24 91 18 92 23 93 19 94 20 95 21 96 22 97
REMARK H PARENT 3 7 86 25 54 36 10 78 29 88
REMARK Flexibility Score: inf
ROOT
ATOM      1  C   UNL     1       4.414  -3.353  -1.131  1.00  0.00     0.002 C 
ENDROOT
BRANCH   1   2
ATOM      2  C   UNL     1       4.906  -2.261  -0.176  1.00  0.00     0.021 C 
BRANCH   2   3
ATOM      3  C   UNL     1       4.767  -0.831  -0.701  1.00  0.00     0.116 C 
BRANCH   3   4
ATOM      4  N   UNL     1       3.414  -0.441  -1.033  1.00  0.00    -0.352 N 
ATOM      5  O   UNL     1       1.358   0.354  -0.967  1.00  0.00    -0.269 OA
ATOM      6  C   UNL     1       2.332  -0.019  -0.309  1.00  0.00     0.251 C 
ATOM      7  H   UNL     1       3.230  -0.491  -1.999  1.00  0.00     0.163 HD
BRANCH   6   8
ATOM      8  C   UNL     1       2.241  -0.037   1.178  1.00  0.00     0.039 A 
ATOM      9  C   UNL     1       3.309  -0.246   2.052  1.00  0.00     0.014 A 
ATOM     10  C   UNL     1       0.958   0.153   1.723  1.00  0.00     0.014 A 
ATOM     11  C   UNL     1       3.097  -0.350   3.421  1.00  0.00     0.010 A 
ATOM     12  C   UNL     1       0.742   0.079   3.095  1.00  0.00     0.010 A 
ATOM     13  C   UNL     1       1.812  -0.204   3.940  1.00  0.00    -0.014 A 
BRANCH  13  14
ATOM     14  C   UNL     1       1.666  -0.215   5.393  1.00  0.00     0.031 A 
ATOM     15  C   UNL     1       2.282   0.942   6.104  1.00  0.00     0.074 A 
ATOM     16  C   UNL     1       0.903  -1.110   6.050  1.00  0.00     0.049 A 
ATOM     17  N   UNL     1       3.185   0.932   7.032  1.00  0.00    -0.248 NA
ATOM     18  C   UNL     1       1.905   2.289   5.650  1.00  0.00     0.031 C 
ATOM     19  C   UNL     1      -0.012  -2.089   5.460  1.00  0.00     0.029 A 
ATOM     20  N   UNL     1       0.664  -1.219   7.391  1.00  0.00    -0.354 N 
ATOM     21  C   UNL     1       3.328   2.264   7.432  1.00  0.00     0.074 A 
ATOM     22  C   UNL     1       2.652   3.057   6.441  1.00  0.00     0.031 C 
ATOM     23  C   UNL     1      -0.884  -2.497   6.406  1.00  0.00     0.029 A 
ATOM     24  C   UNL     1      -0.510  -1.905   7.679  1.00  0.00     0.049 A 
ATOM     25  H   UNL     1       1.261  -0.850   8.081  1.00  0.00     0.167 HD
ATOM     26  C   UNL     1       3.784   2.598   8.671  1.00  0.00     0.034 A 
ATOM     27  C   UNL     1      -1.184  -1.903   8.854  1.00  0.00     0.034 A 
ATOM     28  C   UNL     1       4.482   1.504   9.296  1.00  0.00     0.049 A 
ATOM     29  C   UNL     1      -0.259  -1.450   9.915  1.00  0.00     0.074 A 
ATOM     30  C   UNL     1       5.577   0.721   8.993  1.00  0.00     0.029 A 
ATOM     31  N   UNL     1       3.846   0.872  10.335  1.00  0.00    -0.354 N 
ATOM     32  N   UNL     1       0.759  -2.141  10.345  1.00  0.00    -0.248 NA
ATOM     33  C   UNL     1      -0.263  -0.044  10.286  1.00  0.00     0.031 C 
ATOM     34  C   UNL     1       5.290  -0.556   9.558  1.00  0.00     0.029 A 
ATOM     35  C   UNL     1       4.048  -0.469  10.189  1.00  0.00     0.049 A 
ATOM     36  H   UNL     1       3.336   1.308  11.055  1.00  0.00     0.167 HD
ATOM     37  C   UNL     1       1.719  -1.189  10.653  1.00  0.00     0.074 A 
ATOM     38  C   UNL     1       0.988   0.071  10.735  1.00  0.00     0.031 C 
ATOM     39  C   UNL     1       3.051  -1.464  10.516  1.00  0.00     0.034 A 
BRANCH  26  40
ATOM     40  C   UNL     1       3.271   3.766   9.503  1.00  0.00     0.023 A 
ATOM     41  C   UNL     1       3.884   3.969  10.765  1.00  0.00     0.012 A 
ATOM     42  C   UNL     1       2.052   4.444   9.279  1.00  0.00     0.148 A 
ATOM     43  C   UNL     1       3.259   4.696  11.784  1.00  0.00     0.002 A 
ATOM     44  C   UNL     1       1.471   5.229  10.271  1.00  0.00     0.091 A 
ATOM     45  F   UNL     1       1.364   4.248   8.153  1.00  0.00    -0.205 F 
ATOM     46  C   UNL     1       2.046   5.322  11.539  1.00  0.00     0.022 A 
BRANCH  44  47
ATOM     47  S   UNL     1      -0.072   6.105   9.983  1.00  0.00     0.127 S 
ATOM     48  O   UNL     1      -1.032   5.226  10.643  1.00  0.00    -0.237 OA
ATOM     49  O   UNL     1       0.172   7.379  10.660  1.00  0.00    -0.237 OA
ATOM     50  O   UNL     1      -0.186   6.216   8.534  1.00  0.00    -0.744 OA
ENDBRANCH  44  47
ENDBRANCH  26  40
BRANCH  27  51
ATOM     51  C   UNL     1      -2.636  -2.053   9.098  1.00  0.00     0.023 A 
ATOM     52  C   UNL     1      -3.090  -2.459  10.368  1.00  0.00     0.012 A 
ATOM     53  C   UNL     1      -3.588  -1.565   8.175  1.00  0.00     0.148 A 
ATOM     54  C   UNL     1      -4.443  -2.361  10.715  1.00  0.00     0.002 A 
ATOM     55  C   UNL     1      -4.934  -1.489   8.517  1.00  0.00     0.091 A 
ATOM     56  F   UNL     1      -3.163  -1.089   6.997  1.00  0.00    -0.205 F 
ATOM     57  C   UNL     1      -5.364  -1.874   9.792  1.00  0.00     0.022 A 
BRANCH  55  58
ATOM     58  S   UNL     1      -6.175  -0.875   7.369  1.00  0.00     0.127 S 
ATOM     59  O   UNL     1      -7.248  -1.859   7.525  1.00  0.00    -0.237 OA
ATOM     60  O   UNL     1      -6.471   0.445   7.918  1.00  0.00    -0.237 OA
ATOM     61  O   UNL     1      -5.540  -0.892   6.056  1.00  0.00    -0.744 OA
ENDBRANCH  55  58
ENDBRANCH  27  51
BRANCH  39  62
ATOM     62  C   UNL     1       3.478  -2.900  10.372  1.00  0.00     0.023 A 
ATOM     63  C   UNL     1       3.060  -3.698   9.289  1.00  0.00     0.012 A 
ATOM     64  C   UNL     1       4.463  -3.396  11.244  1.00  0.00     0.148 A 
ATOM     65  C   UNL     1       3.591  -4.974   9.095  1.00  0.00     0.002 A 
ATOM     66  C   UNL     1       5.026  -4.646  11.019  1.00  0.00     0.091 A 
ATOM     67  F   UNL     1       4.856  -2.622  12.268  1.00  0.00    -0.205 F 
ATOM     68  C   UNL     1       4.584  -5.443   9.951  1.00  0.00     0.022 A 
BRANCH  66  69
ATOM     69  S   UNL     1       6.406  -5.243  11.999  1.00  0.00     0.127 S 
ATOM     70  O   UNL     1       5.755  -6.189  12.902  1.00  0.00    -0.237 OA
ATOM     71  O   UNL     1       7.269  -5.857  10.989  1.00  0.00    -0.237 OA
ATOM     72  O   UNL     1       6.984  -4.062  12.631  1.00  0.00    -0.744 OA
ENDBRANCH  66  69
ENDBRANCH  39  62
ENDBRANCH  13  14
ENDBRANCH   6   8
ENDBRANCH   3   4
ENDBRANCH   2   3
ENDBRANCH   1   2
BRANCH   1  73
ATOM     73  C   UNL     1       5.019  -3.325  -2.535  1.00  0.00     0.002 C 
BRANCH  73  74
ATOM     74  C   UNL     1       6.550  -3.361  -2.594  1.00  0.00     0.021 C 
BRANCH  74  75
ATOM     75  C   UNL     1       7.197  -4.568  -1.911  1.00  0.00     0.116 C 
BRANCH  75  76
ATOM     76  N   UNL     1       6.803  -5.822  -2.538  1.00  0.00    -0.351 N 
ATOM     77  C   UNL     1       7.597  -6.728  -3.189  1.00  0.00     0.272 C 
ATOM     78  H   UNL     1       5.846  -6.045  -2.489  1.00  0.00     0.163 HD
ATOM     79  O   UNL     1       7.075  -7.666  -3.819  1.00  0.00    -0.267 OA
BRANCH  77  80
ATOM     80  C   UNL     1       9.044  -6.528  -3.188  1.00  0.00     0.153 A 
ATOM     81  N   UNL     1       9.740  -6.468  -2.039  1.00  0.00    -0.162 NA
ATOM     82  C   UNL     1       9.903  -6.399  -4.316  1.00  0.00     0.006 A 
ATOM     83  N   UNL     1      10.980  -6.088  -2.401  1.00  0.00    -0.240 N 
ATOM     84  C   UNL     1      11.120  -6.040  -3.768  1.00  0.00     0.119 A 
BRANCH  82  85
ATOM     85  C   UNL     1       9.562  -6.545  -5.766  1.00  0.00     0.068 C 
BRANCH  85  86
ATOM     86  C   UNL     1       9.383  -8.003  -6.203  1.00  0.00     0.161 C 
BRANCH  86  87
ATOM     87  O   UNL     1       8.014  -8.389  -6.219  1.00  0.00    -0.396 OA
ATOM     88  H   UNL     1       7.645  -8.308  -5.326  1.00  0.00     0.210 HD
ENDBRANCH  86  87
ENDBRANCH  85  86
ENDBRANCH  82  85
BRANCH  83  89
ATOM     89  C   UNL     1      11.940  -5.757  -1.414  1.00  0.00     0.065 A 
ATOM     90  C   UNL     1      11.885  -6.396  -0.165  1.00  0.00     0.035 A 
ATOM     91  C   UNL     1      12.908  -4.776  -1.667  1.00  0.00     0.035 A 
ATOM     92  C   UNL     1      12.818  -6.080   0.825  1.00  0.00     0.088 A 
ATOM     93  C   UNL     1      13.810  -4.421  -0.659  1.00  0.00     0.088 A 
ATOM     94  C   UNL     1      13.771  -5.084   0.577  1.00  0.00     0.269 A 
BRANCH  94  95
ATOM     95  N   UNL     1      14.745  -4.734   1.617  1.00  0.00     0.062 N 
ATOM     96  O   UNL     1      14.847  -5.494   2.590  1.00  0.00    -0.258 OA
ATOM     97  O   UNL     1      15.426  -3.712   1.445  1.00  0.00    -0.258 OA
ENDBRANCH  94  95
ENDBRANCH  83  89
ENDBRANCH  77  80
ENDBRANCH  75  76
ENDBRANCH  74  75
ENDBRANCH  73  74
ENDBRANCH   1  73
TORSDOF 21
