REMARK SMILES COCCCC(=O)N[C@H]1CC[C@@H](C(=O)NCCCCCCNC(=O)c2ccc(-c3c4nc(c(-c5cccc(S(=O)(=O)[O-])c5F)c5ccc([nH]5)c(-c5cccc(S(=O)(=O)[O-])c5F)c5nc(c(-c6cccc(S(=O)(=O)[O-])c6F)c6ccc3[nH]6)C=C5)C=C4)cc2)CC1
REMARK SMILES IDX 17 1 16 2 15 3 13 4 14 5 12 7 9 8 10 9 89 10 11 11 88 12
REMARK SMILES IDX 8 13 6 14 7 15 5 17 4 18 3 19 2 20 1 21 18 22 19 23 20 24
REMARK SMILES IDX 21 25 22 26 23 27 24 29 25 30 26 31 87 32 27 33 86 34 28 35
REMARK SMILES IDX 29 36 30 37 80 38 31 39 85 40 79 41 81 42 32 43 84 44 78 45
REMARK SMILES IDX 77 46 33 48 65 49 45 50 64 51 46 52 49 53 63 54 82 55 47 56
REMARK SMILES IDX 48 57 62 59 83 60 50 61 34 62 35 63 43 64 36 65 38 66 44 67
REMARK SMILES IDX 37 68 39 69 40 70 41 71 42 72 66 73 67 74 75 75 68 76 70 77
REMARK SMILES IDX 76 78 69 79 71 80 72 81 73 82 74 83 51 84 52 85 60 86 53 87
REMARK SMILES IDX 55 88 61 89 54 90 56 91 57 92 58 93 59 94
REMARK H PARENT 15 6 8 16 22 28 81 47 49 58
REMARK Flexibility Score: inf
ROOT
ATOM      1  C   UNL     1       5.350  -0.286   1.774  1.00  0.00     0.021 C 
ENDROOT
BRANCH   1   2
ATOM      2  C   UNL     1       5.369  -1.566   0.931  1.00  0.00     0.116 C 
BRANCH   2   3
ATOM      3  N   UNL     1       4.867  -2.728   1.636  1.00  0.00    -0.356 N 
ATOM      4  C   UNL     1       3.814  -3.559   1.453  1.00  0.00     0.223 C 
ATOM      5  O   UNL     1       3.824  -4.583   2.150  1.00  0.00    -0.275 OA
ATOM      6  H   UNL     1       5.413  -2.966   2.420  1.00  0.00     0.163 HD
BRANCH   4   7
ATOM      7  C   UNL     1       2.614  -3.311   0.526  1.00  0.00     0.078 C 
ATOM      8  C   UNL     1       2.334  -0.758  -1.005  1.00  0.00     0.082 C 
ATOM      9  C   UNL     1       3.050  -1.955  -1.648  1.00  0.00     0.026 C 
ATOM     10  C   UNL     1       2.111  -0.822   0.506  1.00  0.00     0.026 C 
ATOM     11  C   UNL     1       2.846  -3.308  -0.982  1.00  0.00     0.015 C 
ATOM     12  C   UNL     1       1.685  -2.194   0.989  1.00  0.00     0.015 C 
BRANCH   8  13
ATOM     13  N   UNL     1       3.034   0.459  -1.393  1.00  0.00    -0.353 N 
ATOM     14  C   UNL     1       2.627   1.685  -1.791  1.00  0.00     0.220 C 
ATOM     15  O   UNL     1       3.525   2.513  -1.975  1.00  0.00    -0.275 OA
ATOM     16  H   UNL     1       4.013   0.369  -1.358  1.00  0.00     0.163 HD
BRANCH  14  17
ATOM     17  C   UNL     1       1.173   2.097  -1.866  1.00  0.00     0.102 C 
BRANCH  17  18
ATOM     18  C   UNL     1       0.259   1.560  -2.967  1.00  0.00     0.038 C 
BRANCH  18  19
ATOM     19  C   UNL     1      -0.252   0.116  -2.989  1.00  0.00     0.160 C 
BRANCH  19  20
ATOM     20  O   UNL     1      -0.835  -0.498  -1.840  1.00  0.00    -0.385 OA
ATOM     21  C   UNL     1      -1.276   0.313  -0.773  1.00  0.00     0.194 C 
ENDBRANCH  19  20
ENDBRANCH  18  19
ENDBRANCH  17  18
ENDBRANCH  14  17
ENDBRANCH   8  13
ENDBRANCH   4   7
ENDBRANCH   2   3
ENDBRANCH   1   2
BRANCH   1  22
ATOM     22  C   UNL     1       6.733   0.253   2.130  1.00  0.00     0.002 C 
BRANCH  22  23
ATOM     23  C   UNL     1       7.609   0.625   0.927  1.00  0.00     0.002 C 
BRANCH  23  24
ATOM     24  C   UNL     1       7.033   1.680  -0.025  1.00  0.00     0.021 C 
BRANCH  24  25
ATOM     25  C   UNL     1       6.646   3.005   0.629  1.00  0.00     0.116 C 
BRANCH  25  26
ATOM     26  N   UNL     1       7.736   3.550   1.430  1.00  0.00    -0.352 N 
ATOM     27  C   UNL     1       8.540   4.638   1.199  1.00  0.00     0.251 C 
ATOM     28  H   UNL     1       7.924   3.063   2.265  1.00  0.00     0.163 HD
ATOM     29  O   UNL     1       9.578   4.781   1.837  1.00  0.00    -0.269 OA
BRANCH  27  30
ATOM     30  C   UNL     1       8.150   5.635   0.183  1.00  0.00     0.039 A 
ATOM     31  C   UNL     1       9.108   6.101  -0.722  1.00  0.00     0.014 A 
ATOM     32  C   UNL     1       6.840   6.116   0.138  1.00  0.00     0.014 A 
ATOM     33  C   UNL     1       8.729   6.995  -1.726  1.00  0.00     0.010 A 
ATOM     34  C   UNL     1       6.451   6.955  -0.900  1.00  0.00     0.010 A 
ATOM     35  C   UNL     1       7.389   7.396  -1.846  1.00  0.00    -0.014 A 
BRANCH  35  36
ATOM     36  C   UNL     1       6.924   8.227  -2.982  1.00  0.00     0.031 A 
ATOM     37  C   UNL     1       6.358   9.597  -2.741  1.00  0.00     0.074 A 
ATOM     38  C   UNL     1       6.898   7.689  -4.217  1.00  0.00     0.049 A 
ATOM     39  N   UNL     1       5.822  10.429  -3.595  1.00  0.00    -0.248 NA
ATOM     40  C   UNL     1       6.373  10.086  -1.353  1.00  0.00     0.031 C 
ATOM     41  C   UNL     1       7.358   6.341  -4.560  1.00  0.00     0.029 A 
ATOM     42  N   UNL     1       6.435   8.194  -5.406  1.00  0.00    -0.354 N 
ATOM     43  C   UNL     1       5.397  11.520  -2.847  1.00  0.00     0.074 A 
ATOM     44  C   UNL     1       5.720  11.234  -1.465  1.00  0.00     0.031 C 
ATOM     45  C   UNL     1       7.161   6.129  -5.870  1.00  0.00     0.029 A 
ATOM     46  C   UNL     1       6.522   7.305  -6.451  1.00  0.00     0.049 A 
ATOM     47  H   UNL     1       6.076   9.106  -5.501  1.00  0.00     0.167 HD
ATOM     48  C   UNL     1       4.808  12.662  -3.275  1.00  0.00     0.034 A 
ATOM     49  C   UNL     1       6.116   7.416  -7.731  1.00  0.00     0.034 A 
ATOM     50  C   UNL     1       4.515  12.945  -4.654  1.00  0.00     0.049 A 
ATOM     51  C   UNL     1       5.460   8.693  -8.179  1.00  0.00     0.074 A 
ATOM     52  C   UNL     1       4.025  14.115  -5.207  1.00  0.00     0.029 A 
ATOM     53  N   UNL     1       4.658  12.040  -5.696  1.00  0.00    -0.354 N 
ATOM     54  N   UNL     1       5.230   9.787  -7.494  1.00  0.00    -0.248 NA
ATOM     55  C   UNL     1       5.025   8.759  -9.581  1.00  0.00     0.031 C 
ATOM     56  C   UNL     1       3.829  13.902  -6.576  1.00  0.00     0.029 A 
ATOM     57  C   UNL     1       4.230  12.611  -6.883  1.00  0.00     0.049 A 
ATOM     58  H   UNL     1       5.013  11.126  -5.605  1.00  0.00     0.167 HD
ATOM     59  C   UNL     1       4.648  10.681  -8.385  1.00  0.00     0.074 A 
ATOM     60  C   UNL     1       4.582  10.007  -9.666  1.00  0.00     0.031 C 
ATOM     61  C   UNL     1       4.199  11.941  -8.159  1.00  0.00     0.034 A 
BRANCH  48  62
ATOM     62  C   UNL     1       4.462  13.699  -2.237  1.00  0.00     0.023 A 
ATOM     63  C   UNL     1       5.491  14.408  -1.583  1.00  0.00     0.012 A 
ATOM     64  C   UNL     1       3.119  13.998  -1.933  1.00  0.00     0.148 A 
ATOM     65  C   UNL     1       5.192  15.360  -0.610  1.00  0.00     0.002 A 
ATOM     66  C   UNL     1       2.828  14.982  -0.996  1.00  0.00     0.091 A 
ATOM     67  F   UNL     1       2.152  13.301  -2.548  1.00  0.00    -0.205 F 
ATOM     68  C   UNL     1       3.861  15.653  -0.323  1.00  0.00     0.022 A 
BRANCH  66  69
ATOM     69  S   UNL     1       1.145  15.486  -0.616  1.00  0.00     0.127 S 
ATOM     70  O   UNL     1       0.947  14.884   0.701  1.00  0.00    -0.237 OA
ATOM     71  O   UNL     1       1.254  16.945  -0.609  1.00  0.00    -0.237 OA
ATOM     72  O   UNL     1       0.316  14.947  -1.685  1.00  0.00    -0.744 OA
ENDBRANCH  66  69
ENDBRANCH  48  62
BRANCH  49  73
ATOM     73  C   UNL     1       6.385   6.310  -8.692  1.00  0.00     0.023 A 
ATOM     74  C   UNL     1       7.359   6.499  -9.692  1.00  0.00     0.012 A 
ATOM     75  C   UNL     1       5.731   5.066  -8.595  1.00  0.00     0.148 A 
ATOM     76  C   UNL     1       7.663   5.477 -10.591  1.00  0.00     0.002 A 
ATOM     77  C   UNL     1       6.075   4.034  -9.462  1.00  0.00     0.091 A 
ATOM     78  F   UNL     1       4.804   4.909  -7.640  1.00  0.00    -0.205 F 
ATOM     79  C   UNL     1       7.029   4.243 -10.470  1.00  0.00     0.022 A 
BRANCH  77  80
ATOM     80  S   UNL     1       5.404   2.374  -9.313  1.00  0.00     0.127 S 
ATOM     81  O   UNL     1       4.660   2.239 -10.562  1.00  0.00    -0.237 OA
ATOM     82  O   UNL     1       6.621   1.566  -9.231  1.00  0.00    -0.237 OA
ATOM     83  O   UNL     1       4.597   2.376  -8.101  1.00  0.00    -0.744 OA
ENDBRANCH  77  80
ENDBRANCH  49  73
BRANCH  61  84
ATOM     84  C   UNL     1       3.598  12.688  -9.322  1.00  0.00     0.023 A 
ATOM     85  C   UNL     1       2.324  12.323  -9.802  1.00  0.00     0.012 A 
ATOM     86  C   UNL     1       4.254  13.803  -9.880  1.00  0.00     0.148 A 
ATOM     87  C   UNL     1       1.723  13.043 -10.834  1.00  0.00     0.002 A 
ATOM     88  C   UNL     1       3.627  14.546 -10.873  1.00  0.00     0.091 A 
ATOM     89  F   UNL     1       5.472  14.124  -9.418  1.00  0.00    -0.205 F 
ATOM     90  C   UNL     1       2.368  14.160 -11.360  1.00  0.00     0.022 A 
BRANCH  88  91
ATOM     91  S   UNL     1       4.333  16.055 -11.546  1.00  0.00     0.127 S 
ATOM     92  O   UNL     1       4.614  15.662 -12.927  1.00  0.00    -0.237 OA
ATOM     93  O   UNL     1       3.230  17.004 -11.395  1.00  0.00    -0.237 OA
ATOM     94  O   UNL     1       5.506  16.351 -10.735  1.00  0.00    -0.744 OA
ENDBRANCH  88  91
ENDBRANCH  61  84
ENDBRANCH  35  36
ENDBRANCH  27  30
ENDBRANCH  25  26
ENDBRANCH  24  25
ENDBRANCH  23  24
ENDBRANCH  22  23
ENDBRANCH   1  22
TORSDOF 21
