REMARK SMILES CC(C)C[C@H](NC(=O)[C@H](C)NC(=O)[C@@H](NC(=O)CNC(=O)OCc1ccccc1)C(C)C)C(=O)NCCCCCCNC(=O)c1ccc(-c2c3nc(c(-c4cccc(S(=O)(=O)[O-])c4F)c4ccc([nH]4)c(-c4cccc(S(=O)(=O)[O-])c4F)c4nc(c(-c5cccc(S(=O)(=O)[O-])c5F)c5ccc2[nH]5)C=C4)C=C3)cc1
REMARK SMILES IDX 33 1 34 2 35 3 5 5 4 6 2 7 1 8 3 9 6 10 7 11 8 13 9 14 10 15
REMARK SMILES IDX 11 16 12 17 13 19 14 20 15 21 16 22 17 24 18 25 19 26 20 27
REMARK SMILES IDX 21 29 22 30 23 31 24 32 25 33 29 34 26 35 28 36 27 37 30 38
REMARK SMILES IDX 31 39 32 40 36 41 37 42 38 43 39 44 40 45 41 46 42 47 43 48
REMARK SMILES IDX 44 50 45 51 46 52 107 53 47 54 106 55 48 56 49 57 50 58
REMARK SMILES IDX 100 59 51 60 105 61 99 62 101 63 52 64 104 65 98 66 97 67
REMARK SMILES IDX 53 69 85 70 65 71 84 72 66 73 69 74 83 75 102 76 67 77 68 78
REMARK SMILES IDX 82 80 103 81 70 82 54 83 55 84 63 85 56 86 58 87 64 88 57 89
REMARK SMILES IDX 59 90 60 91 61 92 62 93 86 94 87 95 95 96 88 97 90 98 96 99
REMARK SMILES IDX 89 100 91 101 92 102 93 103 94 104 71 105 72 106 80 107
REMARK SMILES IDX 73 108 75 109 81 110 74 111 76 112 77 113 78 114 79 115
REMARK H PARENT 35 4 6 12 11 18 15 23 19 28 42 49 101 68 69 79
REMARK Flexibility Score: inf
ROOT
ATOM      1  C   UNL     1      -5.251   2.430  -0.266  1.00  0.00     0.242 C 
ATOM      2  O   UNL     1      -4.351   3.186   0.127  1.00  0.00    -0.273 OA
ATOM      3  N   UNL     1      -6.461   3.044  -0.502  1.00  0.00    -0.354 N 
ATOM      4  H   UNL     1      -6.566   3.899  -0.025  1.00  0.00     0.163 HD
ENDROOT
BRANCH   1   5
ATOM      5  C   UNL     1      -4.948   0.884  -0.389  1.00  0.00     0.171 C 
BRANCH   5   6
ATOM      6  C   UNL     1      -3.823   0.394  -1.314  1.00  0.00     0.038 C 
BRANCH   6   7
ATOM      7  C   UNL     1      -2.478   1.141  -1.493  1.00  0.00    -0.015 C 
ATOM      8  C   UNL     1      -1.709   1.480  -0.222  1.00  0.00     0.007 C 
ATOM      9  C   UNL     1      -1.509   0.305  -2.361  1.00  0.00     0.007 C 
ENDBRANCH   6   7
ENDBRANCH   5   6
BRANCH   5  10
ATOM     10  N   UNL     1      -6.176   0.064  -0.378  1.00  0.00    -0.343 N 
ATOM     11  C   UNL     1      -6.949  -0.695  -1.185  1.00  0.00     0.242 C 
ATOM     12  H   UNL     1      -6.565   0.074   0.526  1.00  0.00     0.164 HD
ATOM     13  O   UNL     1      -8.124  -0.745  -0.780  1.00  0.00    -0.273 OA
BRANCH  11  14
ATOM     14  C   UNL     1      -6.579  -1.376  -2.548  1.00  0.00     0.168 C 
ATOM     15  C   UNL     1      -7.472  -2.634  -2.678  1.00  0.00     0.041 C 
BRANCH  14  16
ATOM     16  N   UNL     1      -5.191  -1.795  -2.733  1.00  0.00    -0.343 N 
ATOM     17  C   UNL     1      -4.388  -1.921  -3.829  1.00  0.00     0.243 C 
ATOM     18  H   UNL     1      -4.742  -2.037  -1.891  1.00  0.00     0.164 HD
ATOM     19  O   UNL     1      -3.241  -2.326  -3.590  1.00  0.00    -0.273 OA
BRANCH  17  20
ATOM     20  C   UNL     1      -4.761  -1.517  -5.295  1.00  0.00     0.174 C 
BRANCH  20  21
ATOM     21  N   UNL     1      -6.152  -1.892  -5.600  1.00  0.00    -0.343 N 
ATOM     22  C   UNL     1      -7.231  -1.282  -6.158  1.00  0.00     0.240 C 
ATOM     23  H   UNL     1      -6.351  -2.819  -5.332  1.00  0.00     0.164 HD
ATOM     24  O   UNL     1      -8.291  -1.919  -6.064  1.00  0.00    -0.273 OA
BRANCH  22  25
ATOM     25  C   UNL     1      -7.261   0.170  -6.701  1.00  0.00     0.219 C 
BRANCH  25  26
ATOM     26  N   UNL     1      -7.600   1.053  -5.604  1.00  0.00    -0.312 N 
ATOM     27  C   UNL     1      -7.010   1.962  -4.777  1.00  0.00     0.407 C 
ATOM     28  H   UNL     1      -8.557   0.972  -5.389  1.00  0.00     0.167 HD
ATOM     29  O   UNL     1      -7.645   2.041  -3.757  1.00  0.00    -0.225 OA
BRANCH  27  30
ATOM     30  O   UNL     1      -5.885   2.718  -5.057  1.00  0.00    -0.445 OA
BRANCH  30  31
ATOM     31  C   UNL     1      -5.155   3.544  -3.976  1.00  0.00     0.270 C 
BRANCH  31  32
ATOM     32  C   UNL     1      -5.345   5.093  -3.700  1.00  0.00    -0.011 A 
ATOM     33  C   UNL     1      -5.224   6.072  -4.695  1.00  0.00     0.007 A 
ATOM     34  C   UNL     1      -5.743   5.588  -2.434  1.00  0.00     0.007 A 
ATOM     35  C   UNL     1      -5.626   7.414  -4.467  1.00  0.00     0.000 A 
ATOM     36  C   UNL     1      -6.201   6.904  -2.212  1.00  0.00     0.000 A 
ATOM     37  C   UNL     1      -6.164   7.820  -3.245  1.00  0.00     0.000 A 
ENDBRANCH  31  32
ENDBRANCH  30  31
ENDBRANCH  27  30
ENDBRANCH  25  26
ENDBRANCH  22  25
ENDBRANCH  20  21
BRANCH  20  38
ATOM     38  C   UNL     1      -4.362  -0.119  -5.794  1.00  0.00     0.015 C 
ATOM     39  C   UNL     1      -3.242   0.651  -5.133  1.00  0.00     0.010 C 
ATOM     40  C   UNL     1      -4.077  -0.134  -7.304  1.00  0.00     0.010 C 
ENDBRANCH  20  38
ENDBRANCH  17  20
ENDBRANCH  14  16
ENDBRANCH  11  14
ENDBRANCH   5  10
ENDBRANCH   1   5
BRANCH   3  41
ATOM     41  C   UNL     1      -7.632   2.679  -1.325  1.00  0.00     0.116 C 
BRANCH  41  42
ATOM     42  C   UNL     1      -8.519   3.899  -1.970  1.00  0.00     0.021 C 
BRANCH  42  43
ATOM     43  C   UNL     1      -9.118   4.157  -3.485  1.00  0.00     0.002 C 
BRANCH  43  44
ATOM     44  C   UNL     1      -8.269   4.848  -4.594  1.00  0.00     0.002 C 
BRANCH  44  45
ATOM     45  C   UNL     1      -8.290   4.424  -6.084  1.00  0.00     0.021 C 
BRANCH  45  46
ATOM     46  C   UNL     1      -8.901   5.389  -7.085  1.00  0.00     0.116 C 
BRANCH  46  47
ATOM     47  N   UNL     1      -8.256   6.692  -7.239  1.00  0.00    -0.352 N 
ATOM     48  C   UNL     1      -8.421   7.604  -8.290  1.00  0.00     0.251 C 
ATOM     49  H   UNL     1      -7.635   6.959  -6.522  1.00  0.00     0.163 HD
ATOM     50  O   UNL     1      -7.836   8.647  -8.329  1.00  0.00    -0.269 OA
BRANCH  48  51
ATOM     51  C   UNL     1      -9.311   7.177  -9.412  1.00  0.00     0.039 A 
ATOM     52  C   UNL     1      -8.814   7.149 -10.717  1.00  0.00     0.014 A 
ATOM     53  C   UNL     1     -10.542   6.603  -9.117  1.00  0.00     0.014 A 
ATOM     54  C   UNL     1      -9.490   6.401 -11.689  1.00  0.00     0.010 A 
ATOM     55  C   UNL     1     -11.105   5.725 -10.025  1.00  0.00     0.010 A 
ATOM     56  C   UNL     1     -10.597   5.616 -11.328  1.00  0.00    -0.014 A 
BRANCH  56  57
ATOM     57  C   UNL     1     -11.267   4.684 -12.274  1.00  0.00     0.031 A 
ATOM     58  C   UNL     1     -12.756   4.803 -12.489  1.00  0.00     0.074 A 
ATOM     59  C   UNL     1     -10.584   3.658 -12.823  1.00  0.00     0.049 A 
ATOM     60  N   UNL     1     -13.563   4.008 -13.141  1.00  0.00    -0.248 NA
ATOM     61  C   UNL     1     -13.440   5.925 -11.820  1.00  0.00     0.031 C 
ATOM     62  C   UNL     1      -9.169   3.351 -12.592  1.00  0.00     0.029 A 
ATOM     63  N   UNL     1     -10.998   2.660 -13.672  1.00  0.00    -0.354 N 
ATOM     64  C   UNL     1     -14.843   4.493 -12.895  1.00  0.00     0.074 A 
ATOM     65  C   UNL     1     -14.712   5.601 -11.980  1.00  0.00     0.031 C 
ATOM     66  C   UNL     1      -8.829   2.262 -13.302  1.00  0.00     0.029 A 
ATOM     67  C   UNL     1     -10.002   1.774 -14.018  1.00  0.00     0.049 A 
ATOM     68  H   UNL     1     -11.922   2.585 -14.002  1.00  0.00     0.167 HD
ATOM     69  C   UNL     1     -16.020   4.096 -13.431  1.00  0.00     0.034 A 
ATOM     70  C   UNL     1     -10.034   0.700 -14.833  1.00  0.00     0.034 A 
ATOM     71  C   UNL     1     -16.124   3.081 -14.438  1.00  0.00     0.049 A 
ATOM     72  C   UNL     1     -11.327   0.364 -15.531  1.00  0.00     0.074 A 
ATOM     73  C   UNL     1     -17.237   2.693 -15.159  1.00  0.00     0.029 A 
ATOM     74  N   UNL     1     -15.062   2.309 -14.884  1.00  0.00    -0.354 N 
ATOM     75  N   UNL     1     -12.496   0.950 -15.424  1.00  0.00    -0.248 NA
ATOM     76  C   UNL     1     -11.299  -0.748 -16.492  1.00  0.00     0.031 C 
ATOM     77  C   UNL     1     -16.846   1.685 -16.047  1.00  0.00     0.029 A 
ATOM     78  C   UNL     1     -15.489   1.452 -15.879  1.00  0.00     0.049 A 
ATOM     79  H   UNL     1     -14.141   2.365 -14.541  1.00  0.00     0.167 HD
ATOM     80  C   UNL     1     -13.333   0.302 -16.325  1.00  0.00     0.074 A 
ATOM     81  C   UNL     1     -12.530  -0.707 -16.987  1.00  0.00     0.031 C 
ATOM     82  C   UNL     1     -14.651   0.505 -16.569  1.00  0.00     0.034 A 
BRANCH  69  83
ATOM     83  C   UNL     1     -17.260   4.837 -13.005  1.00  0.00     0.023 A 
ATOM     84  C   UNL     1     -17.439   6.178 -13.407  1.00  0.00     0.012 A 
ATOM     85  C   UNL     1     -18.249   4.215 -12.219  1.00  0.00     0.148 A 
ATOM     86  C   UNL     1     -18.552   6.905 -12.989  1.00  0.00     0.002 A 
ATOM     87  C   UNL     1     -19.381   4.933 -11.848  1.00  0.00     0.091 A 
ATOM     88  F   UNL     1     -18.053   2.949 -11.825  1.00  0.00    -0.205 F 
ATOM     89  C   UNL     1     -19.526   6.281 -12.217  1.00  0.00     0.022 A 
BRANCH  87  90
ATOM     90  S   UNL     1     -20.732   4.196 -10.921  1.00  0.00     0.127 S 
ATOM     91  O   UNL     1     -20.552   4.802  -9.603  1.00  0.00    -0.237 OA
ATOM     92  O   UNL     1     -21.905   4.673 -11.655  1.00  0.00    -0.237 OA
ATOM     93  O   UNL     1     -20.522   2.757 -10.986  1.00  0.00    -0.744 OA
ENDBRANCH  87  90
ENDBRANCH  69  83
BRANCH  70  94
ATOM     94  C   UNL     1      -8.782  -0.062 -15.118  1.00  0.00     0.023 A 
ATOM     95  C   UNL     1      -8.184   0.055 -16.390  1.00  0.00     0.012 A 
ATOM     96  C   UNL     1      -8.158  -0.863 -14.143  1.00  0.00     0.148 A 
ATOM     97  C   UNL     1      -7.009  -0.635 -16.694  1.00  0.00     0.002 A 
ATOM     98  C   UNL     1      -6.958  -1.505 -14.435  1.00  0.00     0.091 A 
ATOM     99  F   UNL     1      -8.743  -0.976 -12.942  1.00  0.00    -0.205 F 
ATOM    100  C   UNL     1      -6.391  -1.407 -15.715  1.00  0.00     0.022 A 
BRANCH  98 101
ATOM    101  S   UNL     1      -6.024  -2.401 -13.187  1.00  0.00     0.127 S 
ATOM    102  O   UNL     1      -6.319  -3.790 -13.528  1.00  0.00    -0.237 OA
ATOM    103  O   UNL     1      -4.651  -1.977 -13.464  1.00  0.00    -0.237 OA
ATOM    104  O   UNL     1      -6.540  -1.933 -11.906  1.00  0.00    -0.744 OA
ENDBRANCH  98 101
ENDBRANCH  70  94
BRANCH  82 105
ATOM    105  C   UNL     1     -15.311  -0.353 -17.612  1.00  0.00     0.023 A 
ATOM    106  C   UNL     1     -15.629  -1.691 -17.309  1.00  0.00     0.012 A 
ATOM    107  C   UNL     1     -15.716   0.198 -18.843  1.00  0.00     0.148 A 
ATOM    108  C   UNL     1     -16.325  -2.476 -18.226  1.00  0.00     0.002 A 
ATOM    109  C   UNL     1     -16.448  -0.577 -19.733  1.00  0.00     0.091 A 
ATOM    110  F   UNL     1     -15.385   1.468 -19.117  1.00  0.00    -0.205 F 
ATOM    111  C   UNL     1     -16.746  -1.916 -19.430  1.00  0.00     0.022 A 
BRANCH 109 112
ATOM    112  S   UNL     1     -17.117   0.093 -21.260  1.00  0.00     0.127 S 
ATOM    113  O   UNL     1     -16.219  -0.485 -22.257  1.00  0.00    -0.237 OA
ATOM    114  O   UNL     1     -18.475  -0.453 -21.272  1.00  0.00    -0.237 OA
ATOM    115  O   UNL     1     -17.054   1.542 -21.121  1.00  0.00    -0.744 OA
ENDBRANCH 109 112
ENDBRANCH  82 105
ENDBRANCH  56  57
ENDBRANCH  48  51
ENDBRANCH  46  47
ENDBRANCH  45  46
ENDBRANCH  44  45
ENDBRANCH  43  44
ENDBRANCH  42  43
ENDBRANCH  41  42
ENDBRANCH   3  41
TORSDOF 29
