REMARK SMILES CC1(C)OC(=O)C(=CNc2ccccc2C(=O)NCCCCCCNC(=O)c2ccc(-c3c4nc(c(-c5cccc(S(=O)(=O)[O-])c5F)c5ccc([nH]5)c(-c5cccc(S(=O)(=O)[O-])c5F)c5nc(c(-c6cccc(S(=O)(=O)[O-])c6F)c6ccc3[nH]6)C=C5)C=C4)cc2)C(=O)O1
REMARK SMILES IDX 22 1 21 2 20 3 19 4 18 5 16 6 17 7 15 9 10 10 11 11 12 12
REMARK SMILES IDX 14 13 13 14 9 15 8 17 1 18 2 19 3 20 4 21 93 22 5 23 91 24
REMARK SMILES IDX 6 25 7 26 92 27 23 28 24 29 25 30 26 31 27 33 28 34 29 35
REMARK SMILES IDX 90 36 30 37 89 38 31 39 32 40 33 41 83 42 34 43 88 44 82 45
REMARK SMILES IDX 84 46 35 47 87 48 81 49 80 50 36 52 68 53 48 54 67 55 49 56
REMARK SMILES IDX 52 57 66 58 85 59 50 60 51 61 65 63 86 64 53 65 37 66 38 67
REMARK SMILES IDX 46 68 39 69 41 70 47 71 40 72 42 73 43 74 44 75 45 76 69 77
REMARK SMILES IDX 70 78 78 79 71 80 73 81 79 82 72 83 74 84 75 85 76 86 77 87
REMARK SMILES IDX 54 88 55 89 63 90 56 91 58 92 64 93 57 94 59 95 60 96 61 97
REMARK SMILES IDX 62 98
REMARK H PARENT 18 8 9 16 25 32 84 51 52 62
REMARK Flexibility Score: inf
ROOT
ATOM      1  C   UNL     1      -0.103   0.633  -1.142  1.00  0.00     0.002 C 
ENDROOT
BRANCH   1   2
ATOM      2  C   UNL     1       0.139  -0.081  -2.709  1.00  0.00     0.002 C 
BRANCH   2   3
ATOM      3  C   UNL     1      -0.726  -1.204  -3.311  1.00  0.00     0.021 C 
BRANCH   3   4
ATOM      4  C   UNL     1      -2.221  -1.165  -3.071  1.00  0.00     0.116 C 
BRANCH   4   5
ATOM      5  N   UNL     1      -2.786   0.160  -3.161  1.00  0.00    -0.352 N 
ATOM      6  C   UNL     1      -4.021   0.570  -2.726  1.00  0.00     0.253 C 
ATOM      7  O   UNL     1      -4.383   1.724  -2.943  1.00  0.00    -0.269 OA
ATOM      8  H   UNL     1      -2.221   0.847  -3.583  1.00  0.00     0.163 HD
BRANCH   6   9
ATOM      9  C   UNL     1      -4.981  -0.418  -2.179  1.00  0.00     0.063 A 
ATOM     10  C   UNL     1      -4.794  -1.244  -1.047  1.00  0.00     0.051 A 
ATOM     11  C   UNL     1      -5.796  -2.199  -0.783  1.00  0.00     0.027 A 
ATOM     12  C   UNL     1      -6.911  -2.359  -1.614  1.00  0.00     0.002 A 
ATOM     13  C   UNL     1      -6.119  -0.575  -3.003  1.00  0.00     0.016 A 
ATOM     14  C   UNL     1      -7.071  -1.550  -2.730  1.00  0.00     0.001 A 
BRANCH  10  15
ATOM     15  N   UNL     1      -3.678  -1.259  -0.172  1.00  0.00    -0.360 N 
ATOM     16  H   UNL     1      -3.445  -2.135   0.212  1.00  0.00     0.166 HD
BRANCH  15  17
ATOM     17  C   UNL     1      -2.884  -0.209   0.209  1.00  0.00     0.106 C 
ATOM     18  C   UNL     1       2.477   1.668  -1.775  1.00  0.00     0.106 C 
ATOM     19  C   UNL     1       1.858   1.120  -0.454  1.00  0.00     0.252 C 
ATOM     20  C   UNL     1       2.978   1.454   0.608  1.00  0.00     0.106 C 
ATOM     21  O   UNL     1       0.504   2.119   0.226  1.00  0.00    -0.419 OA
ATOM     22  O   UNL     1       1.313  -0.636  -0.816  1.00  0.00    -0.419 OA
ATOM     23  C   UNL     1      -0.987   1.633   0.660  1.00  0.00     0.350 C 
ATOM     24  C   UNL     1      -0.281  -1.317  -0.431  1.00  0.00     0.350 C 
ATOM     25  O   UNL     1      -1.742   2.442   1.189  1.00  0.00    -0.246 OA
ATOM     26  C   UNL     1      -1.543  -0.096   0.277  1.00  0.00     0.161 C 
ATOM     27  O   UNL     1      -0.497  -2.508  -0.591  1.00  0.00    -0.246 OA
ENDBRANCH  15  17
ENDBRANCH  10  15
ENDBRANCH   6   9
ENDBRANCH   4   5
ENDBRANCH   3   4
ENDBRANCH   2   3
ENDBRANCH   1   2
BRANCH   1  28
ATOM     28  C   UNL     1       0.585   0.059   0.826  1.00  0.00     0.021 C 
BRANCH  28  29
ATOM     29  C   UNL     1       1.824  -1.189   1.284  1.00  0.00     0.116 C 
BRANCH  29  30
ATOM     30  N   UNL     1       3.088  -1.229   0.505  1.00  0.00    -0.352 N 
ATOM     31  C   UNL     1       4.391  -1.290   0.920  1.00  0.00     0.251 C 
ATOM     32  H   UNL     1       2.969  -1.209  -0.472  1.00  0.00     0.163 HD
ATOM     33  O   UNL     1       5.331  -0.936   0.224  1.00  0.00    -0.269 OA
BRANCH  31  34
ATOM     34  C   UNL     1       4.592  -1.903   2.221  1.00  0.00     0.039 A 
ATOM     35  C   UNL     1       5.165  -1.224   3.294  1.00  0.00     0.014 A 
ATOM     36  C   UNL     1       4.079  -3.195   2.325  1.00  0.00     0.014 A 
ATOM     37  C   UNL     1       5.203  -1.868   4.526  1.00  0.00     0.010 A 
ATOM     38  C   UNL     1       4.045  -3.792   3.557  1.00  0.00     0.010 A 
ATOM     39  C   UNL     1       4.637  -3.148   4.653  1.00  0.00    -0.014 A 
BRANCH  39  40
ATOM     40  C   UNL     1       4.694  -3.930   5.896  1.00  0.00     0.031 A 
ATOM     41  C   UNL     1       5.452  -5.227   5.867  1.00  0.00     0.074 A 
ATOM     42  C   UNL     1       3.923  -3.571   6.935  1.00  0.00     0.049 A 
ATOM     43  N   UNL     1       5.442  -6.206   6.727  1.00  0.00    -0.248 NA
ATOM     44  C   UNL     1       6.275  -5.485   4.668  1.00  0.00     0.031 C 
ATOM     45  C   UNL     1       3.086  -2.370   7.000  1.00  0.00     0.029 A 
ATOM     46  N   UNL     1       3.680  -4.214   8.117  1.00  0.00    -0.354 N 
ATOM     47  C   UNL     1       6.212  -7.210   6.153  1.00  0.00     0.074 A 
ATOM     48  C   UNL     1       6.620  -6.750   4.847  1.00  0.00     0.031 C 
ATOM     49  C   UNL     1       2.419  -2.365   8.167  1.00  0.00     0.029 A 
ATOM     50  C   UNL     1       2.754  -3.576   8.907  1.00  0.00     0.049 A 
ATOM     51  H   UNL     1       4.125  -5.053   8.377  1.00  0.00     0.167 HD
ATOM     52  C   UNL     1       6.579  -8.394   6.691  1.00  0.00     0.034 A 
ATOM     53  C   UNL     1       2.237  -3.949  10.091  1.00  0.00     0.034 A 
ATOM     54  C   UNL     1       6.204  -8.796   8.016  1.00  0.00     0.049 A 
ATOM     55  C   UNL     1       2.711  -5.245  10.694  1.00  0.00     0.074 A 
ATOM     56  C   UNL     1       6.580  -9.926   8.715  1.00  0.00     0.029 A 
ATOM     57  N   UNL     1       5.369  -8.063   8.848  1.00  0.00    -0.354 N 
ATOM     58  N   UNL     1       3.551  -6.126  10.203  1.00  0.00    -0.248 NA
ATOM     59  C   UNL     1       2.199  -5.579  12.028  1.00  0.00     0.031 C 
ATOM     60  C   UNL     1       5.961  -9.883   9.968  1.00  0.00     0.029 A 
ATOM     61  C   UNL     1       5.224  -8.711  10.059  1.00  0.00     0.049 A 
ATOM     62  H   UNL     1       4.944  -7.208   8.611  1.00  0.00     0.167 HD
ATOM     63  C   UNL     1       3.706  -7.094  11.188  1.00  0.00     0.074 A 
ATOM     64  C   UNL     1       2.884  -6.679  12.308  1.00  0.00     0.031 C 
ATOM     65  C   UNL     1       4.446  -8.230  11.171  1.00  0.00     0.034 A 
BRANCH  52  66
ATOM     66  C   UNL     1       7.479  -9.285   5.877  1.00  0.00     0.023 A 
ATOM     67  C   UNL     1       8.805  -8.880   5.617  1.00  0.00     0.012 A 
ATOM     68  C   UNL     1       7.034 -10.533   5.402  1.00  0.00     0.148 A 
ATOM     69  C   UNL     1       9.661  -9.681   4.863  1.00  0.00     0.002 A 
ATOM     70  C   UNL     1       7.910 -11.351   4.696  1.00  0.00     0.091 A 
ATOM     71  F   UNL     1       5.764 -10.893   5.638  1.00  0.00    -0.205 F 
ATOM     72  C   UNL     1       9.217 -10.920   4.413  1.00  0.00     0.022 A 
BRANCH  70  73
ATOM     73  S   UNL     1       7.468 -13.001   4.141  1.00  0.00     0.127 S 
ATOM     74  O   UNL     1       7.495 -12.841   2.688  1.00  0.00    -0.237 OA
ATOM     75  O   UNL     1       8.560 -13.807   4.687  1.00  0.00    -0.237 OA
ATOM     76  O   UNL     1       6.157 -13.281   4.710  1.00  0.00    -0.744 OA
ENDBRANCH  70  73
ENDBRANCH  52  66
BRANCH  53  77
ATOM     77  C   UNL     1       1.291  -3.057  10.817  1.00  0.00     0.023 A 
ATOM     78  C   UNL     1       1.720  -2.428  12.003  1.00  0.00     0.012 A 
ATOM     79  C   UNL     1      -0.013  -2.815  10.346  1.00  0.00     0.148 A 
ATOM     80  C   UNL     1       0.852  -1.616  12.733  1.00  0.00     0.002 A 
ATOM     81  C   UNL     1      -0.855  -1.961  11.049  1.00  0.00     0.091 A 
ATOM     82  F   UNL     1      -0.403  -3.422   9.216  1.00  0.00    -0.205 F 
ATOM     83  C   UNL     1      -0.432  -1.377  12.254  1.00  0.00     0.022 A 
BRANCH  81  84
ATOM     84  S   UNL     1      -2.480  -1.496  10.441  1.00  0.00     0.127 S 
ATOM     85  O   UNL     1      -3.359  -2.231  11.346  1.00  0.00    -0.237 OA
ATOM     86  O   UNL     1      -2.471  -0.045  10.631  1.00  0.00    -0.237 OA
ATOM     87  O   UNL     1      -2.508  -1.916   9.046  1.00  0.00    -0.744 OA
ENDBRANCH  81  84
ENDBRANCH  53  77
BRANCH  65  88
ATOM     88  C   UNL     1       4.451  -9.069  12.419  1.00  0.00     0.023 A 
ATOM     89  C   UNL     1       3.312  -9.820  12.767  1.00  0.00     0.012 A 
ATOM     90  C   UNL     1       5.620  -9.171  13.198  1.00  0.00     0.148 A 
ATOM     91  C   UNL     1       3.326 -10.636  13.896  1.00  0.00     0.002 A 
ATOM     92  C   UNL     1       5.644 -10.029  14.288  1.00  0.00     0.091 A 
ATOM     93  F   UNL     1       6.685  -8.433  12.853  1.00  0.00    -0.205 F 
ATOM     94  C   UNL     1       4.494 -10.751  14.648  1.00  0.00     0.022 A 
BRANCH  92  95
ATOM     95  S   UNL     1       7.133 -10.323  15.246  1.00  0.00     0.127 S 
ATOM     96  O   UNL     1       6.811  -9.658  16.507  1.00  0.00    -0.237 OA
ATOM     97  O   UNL     1       7.171 -11.784  15.318  1.00  0.00    -0.237 OA
ATOM     98  O   UNL     1       8.225  -9.726  14.488  1.00  0.00    -0.744 OA
ENDBRANCH  92  95
ENDBRANCH  65  88
ENDBRANCH  39  40
ENDBRANCH  31  34
ENDBRANCH  29  30
ENDBRANCH  28  29
ENDBRANCH   1  28
TORSDOF 18
