REMARK SMILES O=C(NCCCCCCNC(=O)c1ccc(-c2c3nc(c(-c4cccc(S(=O)(=O)[O-])c4F)c4ccc([nH]4)c(-c4cccc(S(=O)(=O)[O-])c4F)c4nc(c(-c5cccc(S(=O)(=O)[O-])c5F)c5ccc2[nH]5)C=C4)C=C3)cc1)C1=Cc2cc(Cl)cc(-c3ccc(CO)cc3)c2O[C@@H]1C(F)(F)F
REMARK SMILES IDX 6 1 5 2 4 3 3 4 1 5 2 6 76 8 77 9 94 10 78 11 93 12 79 13
REMARK SMILES IDX 92 14 80 15 83 16 81 17 82 18 95 19 96 20 97 21 98 22 84 23
REMARK SMILES IDX 85 24 91 25 86 26 90 27 87 28 88 29 89 30 7 32 8 33 9 34
REMARK SMILES IDX 10 35 11 36 12 38 13 39 14 40 75 41 15 42 74 43 16 44 17 45
REMARK SMILES IDX 18 46 68 47 19 48 73 49 67 50 69 51 20 52 72 53 66 54 65 55
REMARK SMILES IDX 21 57 53 58 33 59 52 60 34 61 37 62 51 63 70 64 35 65 36 66
REMARK SMILES IDX 50 68 71 69 38 70 22 71 23 72 31 73 24 74 26 75 32 76 25 77
REMARK SMILES IDX 27 78 28 79 29 80 30 81 54 82 55 83 63 84 56 85 58 86 64 87
REMARK SMILES IDX 57 88 59 89 60 90 61 91 62 92 39 93 40 94 48 95 41 96 43 97
REMARK SMILES IDX 49 98 42 99 44 100 45 101 46 102 47 103
REMARK H PARENT 3 7 89 31 10 37 69 56 37 67
REMARK Flexibility Score: inf
ROOT
ATOM      1  C   UNL     1       4.007   0.821  -4.436  1.00  0.00     0.002 C 
ENDROOT
BRANCH   1   2
ATOM      2  C   UNL     1       4.309  -0.367  -3.518  1.00  0.00     0.021 C 
BRANCH   2   3
ATOM      3  C   UNL     1       4.026  -0.194  -2.028  1.00  0.00     0.116 C 
BRANCH   3   4
ATOM      4  N   UNL     1       2.680  -0.506  -1.579  1.00  0.00    -0.352 N 
ATOM      5  O   UNL     1       1.001  -0.878  -0.143  1.00  0.00    -0.270 OA
ATOM      6  C   UNL     1       2.215  -0.749  -0.315  1.00  0.00     0.251 C 
ATOM      7  H   UNL     1       2.002  -0.550  -2.291  1.00  0.00     0.163 HD
BRANCH   6   8
ATOM      8  C   UNL     1       3.098  -0.803   0.898  1.00  0.00     0.067 C 
ATOM      9  C   UNL     1       4.380  -1.210   0.869  1.00  0.00     0.025 C 
ATOM     10  C   UNL     1       2.769   0.304   1.882  1.00  0.00     0.314 C 
ATOM     11  C   UNL     1       5.304  -0.038   0.840  1.00  0.00     0.019 A 
ATOM     12  O   UNL     1       3.541   1.494   1.556  1.00  0.00    -0.475 OA
ATOM     13  C   UNL     1       6.588  -0.244   0.329  1.00  0.00     0.032 A 
ATOM     14  C   UNL     1       4.798   1.271   1.031  1.00  0.00     0.135 A 
ATOM     15  C   UNL     1       7.329   0.850  -0.095  1.00  0.00     0.042 A 
ATOM     16  C   UNL     1       5.524   2.375   0.552  1.00  0.00     0.026 A 
ATOM     17  Cl  UNL     1       8.819   0.593  -0.914  1.00  0.00    -0.084 Cl
ATOM     18  C   UNL     1       6.803   2.139  -0.000  1.00  0.00     0.033 A 
BRANCH  10  19
ATOM     19  C   UNL     1       2.928  -0.132   3.353  1.00  0.00     0.429 C 
ATOM     20  F   UNL     1       2.507   0.829   4.209  1.00  0.00    -0.167 F 
ATOM     21  F   UNL     1       2.186  -1.239   3.616  1.00  0.00    -0.167 F 
ATOM     22  F   UNL     1       4.205  -0.433   3.686  1.00  0.00    -0.167 F 
ENDBRANCH  10  19
BRANCH  16  23
ATOM     23  C   UNL     1       4.943   3.716   0.359  1.00  0.00    -0.015 A 
ATOM     24  C   UNL     1       4.081   3.942  -0.727  1.00  0.00     0.009 A 
ATOM     25  C   UNL     1       5.365   4.826   1.096  1.00  0.00     0.009 A 
ATOM     26  C   UNL     1       3.754   5.232  -1.149  1.00  0.00     0.007 A 
ATOM     27  C   UNL     1       4.997   6.123   0.709  1.00  0.00     0.007 A 
ATOM     28  C   UNL     1       4.216   6.340  -0.435  1.00  0.00    -0.023 A 
BRANCH  28  29
ATOM     29  C   UNL     1       3.920   7.730  -0.928  1.00  0.00     0.191 C 
BRANCH  29  30
ATOM     30  O   UNL     1       4.830   8.109  -1.952  1.00  0.00    -0.392 OA
ATOM     31  H   UNL     1       5.734   8.098  -1.601  1.00  0.00     0.211 HD
ENDBRANCH  29  30
ENDBRANCH  28  29
ENDBRANCH  16  23
ENDBRANCH   6   8
ENDBRANCH   3   4
ENDBRANCH   2   3
ENDBRANCH   1   2
BRANCH   1  32
ATOM     32  C   UNL     1       4.623   2.172  -4.063  1.00  0.00     0.002 C 
BRANCH  32  33
ATOM     33  C   UNL     1       6.130   2.209  -3.810  1.00  0.00     0.021 C 
BRANCH  33  34
ATOM     34  C   UNL     1       6.999   1.901  -5.022  1.00  0.00     0.116 C 
BRANCH  34  35
ATOM     35  N   UNL     1       6.769   2.819  -6.129  1.00  0.00    -0.352 N 
ATOM     36  C   UNL     1       7.651   3.587  -6.852  1.00  0.00     0.251 C 
ATOM     37  H   UNL     1       5.828   2.903  -6.405  1.00  0.00     0.163 HD
ATOM     38  O   UNL     1       7.219   4.412  -7.647  1.00  0.00    -0.269 OA
BRANCH  36  39
ATOM     39  C   UNL     1       9.113   3.435  -6.663  1.00  0.00     0.039 A 
ATOM     40  C   UNL     1       9.923   4.574  -6.704  1.00  0.00     0.014 A 
ATOM     41  C   UNL     1       9.691   2.181  -6.465  1.00  0.00     0.014 A 
ATOM     42  C   UNL     1      11.300   4.456  -6.492  1.00  0.00     0.010 A 
ATOM     43  C   UNL     1      11.040   2.079  -6.144  1.00  0.00     0.010 A 
ATOM     44  C   UNL     1      11.866   3.210  -6.177  1.00  0.00    -0.014 A 
BRANCH  44  45
ATOM     45  C   UNL     1      13.320   3.062  -5.909  1.00  0.00     0.031 A 
ATOM     46  C   UNL     1      14.155   2.144  -6.766  1.00  0.00     0.074 A 
ATOM     47  C   UNL     1      13.875   3.690  -4.853  1.00  0.00     0.049 A 
ATOM     48  N   UNL     1      15.419   1.828  -6.649  1.00  0.00    -0.248 NA
ATOM     49  C   UNL     1      13.473   1.464  -7.881  1.00  0.00     0.031 C 
ATOM     50  C   UNL     1      13.156   4.535  -3.896  1.00  0.00     0.029 A 
ATOM     51  N   UNL     1      15.167   3.694  -4.390  1.00  0.00    -0.354 N 
ATOM     52  C   UNL     1      15.671   0.893  -7.646  1.00  0.00     0.074 A 
ATOM     53  C   UNL     1      14.419   0.650  -8.325  1.00  0.00     0.031 C 
ATOM     54  C   UNL     1      14.016   4.980  -2.967  1.00  0.00     0.029 A 
ATOM     55  C   UNL     1      15.338   4.426  -3.237  1.00  0.00     0.049 A 
ATOM     56  H   UNL     1      15.902   3.218  -4.840  1.00  0.00     0.167 HD
ATOM     57  C   UNL     1      16.845   0.316  -7.995  1.00  0.00     0.034 A 
ATOM     58  C   UNL     1      16.434   4.617  -2.476  1.00  0.00     0.034 A 
ATOM     59  C   UNL     1      18.096   0.594  -7.346  1.00  0.00     0.049 A 
ATOM     60  C   UNL     1      17.736   3.998  -2.909  1.00  0.00     0.074 A 
ATOM     61  C   UNL     1      19.356   0.122  -7.668  1.00  0.00     0.029 A 
ATOM     62  N   UNL     1      18.246   1.416  -6.239  1.00  0.00    -0.354 N 
ATOM     63  N   UNL     1      17.982   3.232  -3.943  1.00  0.00    -0.248 NA
ATOM     64  C   UNL     1      18.920   4.302  -2.092  1.00  0.00     0.031 C 
ATOM     65  C   UNL     1      20.265   0.639  -6.739  1.00  0.00     0.029 A 
ATOM     66  C   UNL     1      19.577   1.462  -5.862  1.00  0.00     0.049 A 
ATOM     67  H   UNL     1      17.514   1.895  -5.788  1.00  0.00     0.167 HD
ATOM     68  C   UNL     1      19.350   2.990  -3.923  1.00  0.00     0.074 A 
ATOM     69  C   UNL     1      19.884   3.713  -2.787  1.00  0.00     0.031 C 
ATOM     70  C   UNL     1      20.097   2.228  -4.760  1.00  0.00     0.034 A 
BRANCH  57  71
ATOM     71  C   UNL     1      16.841  -0.628  -9.171  1.00  0.00     0.023 A 
ATOM     72  C   UNL     1      16.629  -0.119 -10.470  1.00  0.00     0.012 A 
ATOM     73  C   UNL     1      17.098  -2.002  -9.003  1.00  0.00     0.148 A 
ATOM     74  C   UNL     1      16.634  -0.967 -11.576  1.00  0.00     0.002 A 
ATOM     75  C   UNL     1      17.152  -2.833 -10.116  1.00  0.00     0.091 A 
ATOM     76  F   UNL     1      17.279  -2.472  -7.760  1.00  0.00    -0.205 F 
ATOM     77  C   UNL     1      16.906  -2.320 -11.401  1.00  0.00     0.022 A 
BRANCH  75  78
ATOM     78  S   UNL     1      17.574  -4.576 -10.010  1.00  0.00     0.127 S 
ATOM     79  O   UNL     1      16.311  -5.209 -10.385  1.00  0.00    -0.237 OA
ATOM     80  O   UNL     1      18.636  -4.694 -11.010  1.00  0.00    -0.237 OA
ATOM     81  O   UNL     1      18.000  -4.805  -8.637  1.00  0.00    -0.744 OA
ENDBRANCH  75  78
ENDBRANCH  57  71
BRANCH  58  82
ATOM     82  C   UNL     1      16.357   5.469  -1.255  1.00  0.00     0.023 A 
ATOM     83  C   UNL     1      17.014   6.715  -1.228  1.00  0.00     0.012 A 
ATOM     84  C   UNL     1      15.620   5.058  -0.127  1.00  0.00     0.148 A 
ATOM     85  C   UNL     1      16.973   7.517  -0.086  1.00  0.00     0.002 A 
ATOM     86  C   UNL     1      15.534   5.888   0.985  1.00  0.00     0.091 A 
ATOM     87  F   UNL     1      15.009   3.866  -0.167  1.00  0.00    -0.205 F 
ATOM     88  C   UNL     1      16.226   7.109   1.015  1.00  0.00     0.022 A 
BRANCH  86  89
ATOM     89  S   UNL     1      14.485   5.506   2.392  1.00  0.00     0.127 S 
ATOM     90  O   UNL     1      15.471   5.199   3.425  1.00  0.00    -0.237 OA
ATOM     91  O   UNL     1      13.763   6.764   2.582  1.00  0.00    -0.237 OA
ATOM     92  O   UNL     1      13.646   4.393   1.967  1.00  0.00    -0.744 OA
ENDBRANCH  86  89
ENDBRANCH  58  82
BRANCH  70  93
ATOM     93  C   UNL     1      21.582   2.168  -4.512  1.00  0.00     0.023 A 
ATOM     94  C   UNL     1      22.084   1.459  -3.403  1.00  0.00     0.012 A 
ATOM     95  C   UNL     1      22.481   2.754  -5.425  1.00  0.00     0.148 A 
ATOM     96  C   UNL     1      23.458   1.365  -3.187  1.00  0.00     0.002 A 
ATOM     97  C   UNL     1      23.849   2.611  -5.233  1.00  0.00     0.091 A 
ATOM     98  F   UNL     1      21.981   3.438  -6.465  1.00  0.00    -0.205 F 
ATOM     99  C   UNL     1      24.339   1.929  -4.107  1.00  0.00     0.022 A 
BRANCH  97 100
ATOM    100  S   UNL     1      25.057   3.215  -6.416  1.00  0.00     0.127 S 
ATOM    101  O   UNL     1      25.661   4.326  -5.683  1.00  0.00    -0.237 OA
ATOM    102  O   UNL     1      25.928   2.052  -6.589  1.00  0.00    -0.237 OA
ATOM    103  O   UNL     1      24.304   3.590  -7.606  1.00  0.00    -0.744 OA
ENDBRANCH  97 100
ENDBRANCH  70  93
ENDBRANCH  44  45
ENDBRANCH  36  39
ENDBRANCH  34  35
ENDBRANCH  33  34
ENDBRANCH  32  33
ENDBRANCH   1  32
TORSDOF 20
