REMARK SMILES COc1ccc(-c2cnc(N)c(C(=O)NCCCCCCNC(=O)c3ccc(-c4c5nc(c(-c6cccc(S(=O)(=O)[O-])c6F)c6ccc([nH]6)c(-c6cccc(S(=O)(=O)[O-])c6F)c6nc(c(-c7cccc(S(=O)(=O)[O-])c7F)c7ccc4[nH]7)C=C6)C=C5)cc3)c2)c(C)c1
REMARK SMILES IDX 19 1 18 2 17 3 16 4 15 5 13 6 14 7 12 9 7 10 8 11 88 12 9 13
REMARK SMILES IDX 10 14 6 15 3 16 4 17 91 18 5 19 89 20 90 21 2 22 1 23 11 24
REMARK SMILES IDX 20 27 21 28 22 29 23 30 24 32 25 33 26 34 87 35 27 36 86 37
REMARK SMILES IDX 28 38 29 39 30 40 80 41 31 42 85 43 79 44 81 45 32 46 84 47
REMARK SMILES IDX 78 48 77 49 33 51 65 52 45 53 64 54 46 55 49 56 63 57 82 58
REMARK SMILES IDX 47 59 48 60 62 62 83 63 50 64 34 65 35 66 43 67 36 68 38 69
REMARK SMILES IDX 44 70 37 71 39 72 40 73 41 74 42 75 66 76 67 77 75 78 68 79
REMARK SMILES IDX 70 80 76 81 69 82 71 83 72 84 73 85 74 86 51 87 52 88 60 89
REMARK SMILES IDX 53 90 55 91 61 92 54 93 56 94 57 95 58 96 59 97
REMARK H PARENT 15 8 11 25 11 26 22 31 81 50 49 61
REMARK Flexibility Score: inf
ROOT
ATOM      1  C   UNL     1       3.290  12.742  -5.364  1.00  0.00     0.002 C 
ENDROOT
BRANCH   1   2
ATOM      2  C   UNL     1       2.162  12.218  -6.263  1.00  0.00     0.002 C 
BRANCH   2   3
ATOM      3  C   UNL     1       2.229  10.791  -6.818  1.00  0.00     0.021 C 
BRANCH   3   4
ATOM      4  C   UNL     1       2.671   9.662  -5.894  1.00  0.00     0.116 C 
BRANCH   4   5
ATOM      5  N   UNL     1       1.929   9.505  -4.659  1.00  0.00    -0.352 N 
ATOM      6  C   UNL     1       1.867   8.413  -3.816  1.00  0.00     0.255 C 
ATOM      7  O   UNL     1       1.253   8.536  -2.754  1.00  0.00    -0.269 OA
ATOM      8  H   UNL     1       1.396  10.285  -4.382  1.00  0.00     0.163 HD
BRANCH   6   9
ATOM      9  C   UNL     1       2.428   7.073  -4.157  1.00  0.00     0.082 A 
ATOM     10  C   UNL     1       2.126   4.650  -3.995  1.00  0.00     0.001 A 
ATOM     11  C   UNL     1       3.248   4.549  -4.811  1.00  0.00     0.122 A 
ATOM     12  C   UNL     1       1.694   5.952  -3.715  1.00  0.00     0.028 A 
ATOM     13  N   UNL     1       4.020   5.591  -5.184  1.00  0.00    -0.238 NA
ATOM     14  C   UNL     1       3.652   6.822  -4.778  1.00  0.00     0.136 A 
BRANCH  10  15
ATOM     15  C   UNL     1       1.570   3.446  -3.350  1.00  0.00    -0.014 A 
ATOM     16  C   UNL     1       0.742   1.119  -1.958  1.00  0.00     0.119 A 
ATOM     17  C   UNL     1       2.078   1.489  -1.944  1.00  0.00     0.047 A 
ATOM     18  C   UNL     1      -0.171   1.875  -2.695  1.00  0.00     0.050 A 
ATOM     19  C   UNL     1       2.477   2.641  -2.620  1.00  0.00     0.013 A 
ATOM     20  C   UNL     1       0.222   3.040  -3.394  1.00  0.00    -0.040 A 
ATOM     21  C   UNL     1      -0.853   3.787  -4.136  1.00  0.00     0.045 C 
BRANCH  16  22
ATOM     22  O   UNL     1       0.252   0.011  -1.323  1.00  0.00    -0.497 OA
ATOM     23  C   UNL     1       0.800  -0.194  -0.022  1.00  0.00     0.278 C 
ENDBRANCH  16  22
ENDBRANCH  10  15
BRANCH  14  24
ATOM     24  N   UNL     1       4.642   7.756  -4.991  1.00  0.00    -0.383 N 
ATOM     25  H   UNL     1       5.479   7.492  -5.438  1.00  0.00     0.158 HD
ATOM     26  H   UNL     1       4.513   8.686  -4.696  1.00  0.00     0.158 HD
ENDBRANCH  14  24
ENDBRANCH   6   9
ENDBRANCH   4   5
ENDBRANCH   3   4
ENDBRANCH   2   3
ENDBRANCH   1   2
BRANCH   1  27
ATOM     27  C   UNL     1       4.737  12.511  -5.791  1.00  0.00     0.021 C 
BRANCH  27  28
ATOM     28  C   UNL     1       5.127  13.051  -7.160  1.00  0.00     0.116 C 
BRANCH  28  29
ATOM     29  N   UNL     1       5.918  14.276  -7.106  1.00  0.00    -0.352 N 
ATOM     30  C   UNL     1       6.582  14.925  -8.135  1.00  0.00     0.251 C 
ATOM     31  H   UNL     1       5.990  14.698  -6.219  1.00  0.00     0.163 HD
ATOM     32  O   UNL     1       7.298  15.891  -7.891  1.00  0.00    -0.269 OA
BRANCH  30  33
ATOM     33  C   UNL     1       6.322  14.494  -9.527  1.00  0.00     0.039 A 
ATOM     34  C   UNL     1       5.807  15.438 -10.422  1.00  0.00     0.014 A 
ATOM     35  C   UNL     1       6.322  13.140  -9.849  1.00  0.00     0.014 A 
ATOM     36  C   UNL     1       5.046  15.005 -11.504  1.00  0.00     0.010 A 
ATOM     37  C   UNL     1       5.494  12.706 -10.860  1.00  0.00     0.010 A 
ATOM     38  C   UNL     1       4.800  13.641 -11.635  1.00  0.00    -0.014 A 
BRANCH  38  39
ATOM     39  C   UNL     1       3.819  13.074 -12.541  1.00  0.00     0.031 A 
ATOM     40  C   UNL     1       4.205  12.744 -13.919  1.00  0.00     0.074 A 
ATOM     41  C   UNL     1       2.607  12.723 -12.060  1.00  0.00     0.049 A 
ATOM     42  N   UNL     1       3.362  12.550 -14.871  1.00  0.00    -0.248 NA
ATOM     43  C   UNL     1       5.595  12.629 -14.331  1.00  0.00     0.031 C 
ATOM     44  C   UNL     1       1.632  11.830 -12.672  1.00  0.00     0.029 A 
ATOM     45  N   UNL     1       1.922  13.291 -10.983  1.00  0.00    -0.354 N 
ATOM     46  C   UNL     1       4.059  12.022 -15.934  1.00  0.00     0.074 A 
ATOM     47  C   UNL     1       5.452  12.172 -15.579  1.00  0.00     0.031 C 
ATOM     48  C   UNL     1       0.421  12.101 -12.161  1.00  0.00     0.029 A 
ATOM     49  C   UNL     1       0.561  13.293 -11.343  1.00  0.00     0.049 A 
ATOM     50  H   UNL     1       2.312  13.623 -10.142  1.00  0.00     0.167 HD
ATOM     51  C   UNL     1       3.365  11.381 -16.917  1.00  0.00     0.034 A 
ATOM     52  C   UNL     1      -0.183  14.433 -11.458  1.00  0.00     0.034 A 
ATOM     53  C   UNL     1       1.915  11.453 -16.667  1.00  0.00     0.049 A 
ATOM     54  C   UNL     1      -0.762  14.633 -12.854  1.00  0.00     0.074 A 
ATOM     55  C   UNL     1       0.986  10.579 -16.123  1.00  0.00     0.029 A 
ATOM     56  N   UNL     1       1.284  12.685 -16.728  1.00  0.00    -0.354 N 
ATOM     57  N   UNL     1      -0.640  13.793 -13.846  1.00  0.00    -0.248 NA
ATOM     58  C   UNL     1      -1.433  15.867 -13.262  1.00  0.00     0.031 C 
ATOM     59  C   UNL     1      -0.209  11.307 -15.851  1.00  0.00     0.029 A 
ATOM     60  C   UNL     1      -0.018  12.616 -16.254  1.00  0.00     0.049 A 
ATOM     61  H   UNL     1       1.708  13.507 -17.065  1.00  0.00     0.167 HD
ATOM     62  C   UNL     1      -1.027  14.399 -15.018  1.00  0.00     0.074 A 
ATOM     63  C   UNL     1      -1.545  15.688 -14.588  1.00  0.00     0.031 C 
ATOM     64  C   UNL     1      -0.821  13.834 -16.253  1.00  0.00     0.034 A 
BRANCH  51  65
ATOM     65  C   UNL     1       3.981  10.441 -17.941  1.00  0.00     0.023 A 
ATOM     66  C   UNL     1       3.131   9.467 -18.514  1.00  0.00     0.012 A 
ATOM     67  C   UNL     1       5.335  10.390 -18.347  1.00  0.00     0.148 A 
ATOM     68  C   UNL     1       3.605   8.441 -19.338  1.00  0.00     0.002 A 
ATOM     69  C   UNL     1       5.825   9.324 -19.110  1.00  0.00     0.091 A 
ATOM     70  F   UNL     1       6.148  11.416 -18.079  1.00  0.00    -0.205 F 
ATOM     71  C   UNL     1       4.961   8.344 -19.603  1.00  0.00     0.022 A 
BRANCH  69  72
ATOM     72  S   UNL     1       7.583   9.085 -19.430  1.00  0.00     0.127 S 
ATOM     73  O   UNL     1       7.789   7.701 -18.994  1.00  0.00    -0.237 OA
ATOM     74  O   UNL     1       7.673   9.283 -20.874  1.00  0.00    -0.237 OA
ATOM     75  O   UNL     1       8.281  10.071 -18.614  1.00  0.00    -0.744 OA
ENDBRANCH  69  72
ENDBRANCH  51  65
BRANCH  52  76
ATOM     76  C   UNL     1       0.289  15.527 -10.554  1.00  0.00     0.023 A 
ATOM     77  C   UNL     1       0.272  15.263  -9.162  1.00  0.00     0.012 A 
ATOM     78  C   UNL     1       1.100  16.570 -11.031  1.00  0.00     0.148 A 
ATOM     79  C   UNL     1       1.169  15.899  -8.301  1.00  0.00     0.002 A 
ATOM     80  C   UNL     1       1.978  17.213 -10.162  1.00  0.00     0.091 A 
ATOM     81  F   UNL     1       1.073  16.867 -12.336  1.00  0.00    -0.205 F 
ATOM     82  C   UNL     1       2.052  16.844  -8.811  1.00  0.00     0.022 A 
BRANCH  80  83
ATOM     83  S   UNL     1       3.131  18.445 -10.779  1.00  0.00     0.127 S 
ATOM     84  O   UNL     1       2.339  19.666 -10.666  1.00  0.00    -0.237 OA
ATOM     85  O   UNL     1       4.242  18.344  -9.835  1.00  0.00    -0.237 OA
ATOM     86  O   UNL     1       3.451  17.998 -12.127  1.00  0.00    -0.744 OA
ENDBRANCH  80  83
ENDBRANCH  52  76
BRANCH  64  87
ATOM     87  C   UNL     1      -1.286  14.424 -17.584  1.00  0.00     0.023 A 
ATOM     88  C   UNL     1      -2.345  15.349 -17.657  1.00  0.00     0.012 A 
ATOM     89  C   UNL     1      -0.746  14.004 -18.833  1.00  0.00     0.148 A 
ATOM     90  C   UNL     1      -2.739  15.941 -18.864  1.00  0.00     0.002 A 
ATOM     91  C   UNL     1      -1.154  14.572 -20.037  1.00  0.00     0.091 A 
ATOM     92  F   UNL     1       0.138  13.003 -18.879  1.00  0.00    -0.205 F 
ATOM     93  C   UNL     1      -2.128  15.570 -20.052  1.00  0.00     0.022 A 
BRANCH  91  94
ATOM     94  S   UNL     1      -0.495  14.047 -21.627  1.00  0.00     0.127 S 
ATOM     95  O   UNL     1      -1.663  13.404 -22.229  1.00  0.00    -0.237 OA
ATOM     96  O   UNL     1      -0.122  15.325 -22.234  1.00  0.00    -0.237 OA
ATOM     97  O   UNL     1       0.622  13.162 -21.337  1.00  0.00    -0.744 OA
ENDBRANCH  91  94
ENDBRANCH  64  87
ENDBRANCH  38  39
ENDBRANCH  30  33
ENDBRANCH  28  29
ENDBRANCH  27  28
ENDBRANCH   1  27
TORSDOF 19
