REMARK SMILES O=C(NCCCCCCNC(=O)c1ccc(-c2c3nc(c(-c4cccc(S(=O)(=O)[O-])c4F)c4ccc([nH]4)c(-c4cccc(S(=O)(=O)[O-])c4F)c4nc(c(-c5cccc(S(=O)(=O)[O-])c5F)c5ccc2[nH]5)C=C4)C=C3)cc1)C1=Cc2cc(Cl)cc(C#Cc3ccccc3)c2O[C@@H]1C(F)(F)F
REMARK SMILES IDX 7 1 6 2 5 3 4 4 3 5 1 6 2 7 76 9 77 10 94 11 78 12 93 13
REMARK SMILES IDX 79 14 92 15 80 16 83 17 81 18 82 19 95 20 96 21 97 22 98 23
REMARK SMILES IDX 84 24 85 25 86 26 87 27 91 28 88 29 90 30 89 31 8 32 9 33
REMARK SMILES IDX 10 34 11 35 12 37 13 38 14 39 75 40 15 41 74 42 16 43 17 44
REMARK SMILES IDX 18 45 68 46 19 47 73 48 67 49 69 50 20 51 72 52 66 53 65 54
REMARK SMILES IDX 21 56 53 57 33 58 52 59 34 60 37 61 51 62 70 63 35 64 36 65
REMARK SMILES IDX 50 67 71 68 38 69 22 70 23 71 31 72 24 73 26 74 32 75 25 76
REMARK SMILES IDX 27 77 28 78 29 79 30 80 54 81 55 82 63 83 56 84 58 85 64 86
REMARK SMILES IDX 57 87 59 88 60 89 61 90 62 91 39 92 40 93 48 94 41 95 43 96
REMARK SMILES IDX 49 97 42 98 44 99 45 100 46 101 47 102
REMARK H PARENT 3 8 10 36 69 55 37 66
REMARK Flexibility Score: inf
ROOT
ATOM      1  C   UNL     1       4.368  -3.980   2.371  1.00  0.00     0.002 C 
ENDROOT
BRANCH   1   2
ATOM      2  C   UNL     1       3.751  -2.935   3.309  1.00  0.00     0.002 C 
BRANCH   2   3
ATOM      3  C   UNL     1       4.115  -1.473   3.051  1.00  0.00     0.021 C 
BRANCH   3   4
ATOM      4  C   UNL     1       3.856  -0.952   1.643  1.00  0.00     0.116 C 
BRANCH   4   5
ATOM      5  N   UNL     1       2.562  -0.325   1.431  1.00  0.00    -0.352 N 
ATOM      6  O   UNL     1       0.974   0.834   0.343  1.00  0.00    -0.270 OA
ATOM      7  C   UNL     1       2.163   0.527   0.436  1.00  0.00     0.251 C 
ATOM      8  H   UNL     1       1.873  -0.544   2.099  1.00  0.00     0.163 HD
BRANCH   7   9
ATOM      9  C   UNL     1       3.102   1.023  -0.618  1.00  0.00     0.067 C 
ATOM     10  C   UNL     1       4.349   1.431  -0.324  1.00  0.00     0.025 C 
ATOM     11  C   UNL     1       2.879   0.329  -1.941  1.00  0.00     0.314 C 
ATOM     12  C   UNL     1       5.395   0.488  -0.792  1.00  0.00     0.020 A 
ATOM     13  O   UNL     1       3.778  -0.799  -2.088  1.00  0.00    -0.474 OA
ATOM     14  C   UNL     1       6.660   0.581  -0.200  1.00  0.00     0.032 A 
ATOM     15  C   UNL     1       5.018  -0.672  -1.500  1.00  0.00     0.143 A 
ATOM     16  C   UNL     1       7.513  -0.518  -0.235  1.00  0.00     0.043 A 
ATOM     17  C   UNL     1       5.856  -1.795  -1.461  1.00  0.00     0.069 A 
ATOM     18  Cl  UNL     1       8.979  -0.478   0.663  1.00  0.00    -0.084 Cl
ATOM     19  C   UNL     1       7.114  -1.704  -0.849  1.00  0.00     0.041 A 
BRANCH  11  20
ATOM     20  C   UNL     1       2.950   1.328  -3.113  1.00  0.00     0.429 C 
ATOM     21  F   UNL     1       2.593   0.750  -4.284  1.00  0.00    -0.167 F 
ATOM     22  F   UNL     1       2.099   2.369  -2.920  1.00  0.00    -0.167 F 
ATOM     23  F   UNL     1       4.183   1.859  -3.283  1.00  0.00    -0.167 F 
ENDBRANCH  11  20
BRANCH  17  24
ATOM     24  C   UNL     1       5.366  -3.113  -1.758  1.00  0.00    -0.058 C 
ATOM     25  C   UNL     1       5.006  -4.259  -1.778  1.00  0.00    -0.062 C 
BRANCH  25  26
ATOM     26  C   UNL     1       4.659  -5.645  -1.652  1.00  0.00     0.025 A 
ATOM     27  C   UNL     1       3.386  -6.101  -2.001  1.00  0.00     0.017 A 
ATOM     28  C   UNL     1       5.603  -6.547  -1.150  1.00  0.00     0.017 A 
ATOM     29  C   UNL     1       3.070  -7.457  -1.873  1.00  0.00     0.001 A 
ATOM     30  C   UNL     1       5.285  -7.901  -1.020  1.00  0.00     0.001 A 
ATOM     31  C   UNL     1       4.020  -8.357  -1.388  1.00  0.00     0.000 A 
ENDBRANCH  25  26
ENDBRANCH  17  24
ENDBRANCH   7   9
ENDBRANCH   4   5
ENDBRANCH   3   4
ENDBRANCH   2   3
ENDBRANCH   1   2
BRANCH   1  32
ATOM     32  C   UNL     1       5.879  -3.897   2.138  1.00  0.00     0.021 C 
BRANCH  32  33
ATOM     33  C   UNL     1       6.763  -3.932   3.381  1.00  0.00     0.116 C 
BRANCH  33  34
ATOM     34  N   UNL     1       6.551  -5.120   4.189  1.00  0.00    -0.352 N 
ATOM     35  C   UNL     1       7.458  -6.013   4.702  1.00  0.00     0.251 C 
ATOM     36  H   UNL     1       5.610  -5.315   4.403  1.00  0.00     0.163 HD
ATOM     37  O   UNL     1       7.051  -7.039   5.243  1.00  0.00    -0.269 OA
BRANCH  35  38
ATOM     38  C   UNL     1       8.916  -5.768   4.596  1.00  0.00     0.039 A 
ATOM     39  C   UNL     1       9.755  -6.848   4.304  1.00  0.00     0.014 A 
ATOM     40  C   UNL     1       9.466  -4.503   4.820  1.00  0.00     0.014 A 
ATOM     41  C   UNL     1      11.134  -6.652   4.193  1.00  0.00     0.010 A 
ATOM     42  C   UNL     1      10.833  -4.294   4.635  1.00  0.00     0.010 A 
ATOM     43  C   UNL     1      11.684  -5.367   4.333  1.00  0.00    -0.014 A 
BRANCH  43  44
ATOM     44  C   UNL     1      13.143  -5.136   4.167  1.00  0.00     0.031 A 
ATOM     45  C   UNL     1      13.972  -4.632   5.318  1.00  0.00     0.074 A 
ATOM     46  C   UNL     1      13.711  -5.311   2.958  1.00  0.00     0.049 A 
ATOM     47  N   UNL     1      15.246  -4.338   5.351  1.00  0.00    -0.248 NA
ATOM     48  C   UNL     1      13.273  -4.404   6.594  1.00  0.00     0.031 C 
ATOM     49  C   UNL     1      13.002  -5.722   1.744  1.00  0.00     0.029 A 
ATOM     50  N   UNL     1      15.008  -5.142   2.543  1.00  0.00    -0.354 N 
ATOM     51  C   UNL     1      15.495  -3.861   6.633  1.00  0.00     0.074 A 
ATOM     52  C   UNL     1      14.232  -3.870   7.337  1.00  0.00     0.031 C 
ATOM     53  C   UNL     1      13.871  -5.773   0.723  1.00  0.00     0.029 A 
ATOM     54  C   UNL     1      15.191  -5.371   1.199  1.00  0.00     0.049 A 
ATOM     55  H   UNL     1      15.739  -4.882   3.150  1.00  0.00     0.167 HD
ATOM     56  C   UNL     1      16.672  -3.479   7.185  1.00  0.00     0.034 A 
ATOM     57  C   UNL     1      16.294  -5.260   0.432  1.00  0.00     0.034 A 
ATOM     58  C   UNL     1      17.932  -3.501   6.491  1.00  0.00     0.049 A 
ATOM     59  C   UNL     1      17.595  -4.864   1.074  1.00  0.00     0.074 A 
ATOM     60  C   UNL     1      19.192  -3.214   6.985  1.00  0.00     0.029 A 
ATOM     61  N   UNL     1      18.092  -3.817   5.150  1.00  0.00    -0.354 N 
ATOM     62  N   UNL     1      17.840  -4.569   2.328  1.00  0.00    -0.248 NA
ATOM     63  C   UNL     1      18.780  -4.823   0.205  1.00  0.00     0.031 C 
ATOM     64  C   UNL     1      20.110  -3.326   5.935  1.00  0.00     0.029 A 
ATOM     65  C   UNL     1      19.427  -3.719   4.795  1.00  0.00     0.049 A 
ATOM     66  H   UNL     1      17.363  -4.073   4.540  1.00  0.00     0.167 HD
ATOM     67  C   UNL     1      19.209  -4.340   2.406  1.00  0.00     0.074 A 
ATOM     68  C   UNL     1      19.743  -4.552   1.076  1.00  0.00     0.031 C 
ATOM     69  C   UNL     1      19.954  -3.975   3.479  1.00  0.00     0.034 A 
BRANCH  56  70
ATOM     70  C   UNL     1      16.656  -3.044   8.629  1.00  0.00     0.023 A 
ATOM     71  C   UNL     1      16.418  -3.997   9.642  1.00  0.00     0.012 A 
ATOM     72  C   UNL     1      16.918  -1.708   8.990  1.00  0.00     0.148 A 
ATOM     73  C   UNL     1      16.395  -3.620  10.984  1.00  0.00     0.002 A 
ATOM     74  C   UNL     1      16.941  -1.349  10.334  1.00  0.00     0.091 A 
ATOM     75  F   UNL     1      17.123  -0.810   8.016  1.00  0.00    -0.205 F 
ATOM     76  C   UNL     1      16.666  -2.300  11.330  1.00  0.00     0.022 A 
BRANCH  74  77
ATOM     77  S   UNL     1      17.359   0.308  10.887  1.00  0.00     0.127 S 
ATOM     78  O   UNL     1      16.062   0.802  11.346  1.00  0.00    -0.237 OA
ATOM     79  O   UNL     1      18.323   0.042  11.956  1.00  0.00    -0.237 OA
ATOM     80  O   UNL     1      17.914   0.991   9.726  1.00  0.00    -0.744 OA
ENDBRANCH  74  77
ENDBRANCH  56  70
BRANCH  57  81
ATOM     81  C   UNL     1      16.219  -5.584  -1.020  1.00  0.00     0.023 A 
ATOM     82  C   UNL     1      16.841  -6.751  -1.505  1.00  0.00     0.012 A 
ATOM     83  C   UNL     1      15.497  -4.768  -1.913  1.00  0.00     0.148 A 
ATOM     84  C   UNL     1      16.771  -7.084  -2.858  1.00  0.00     0.002 A 
ATOM     85  C   UNL     1      15.383  -5.136  -3.248  1.00  0.00     0.091 A 
ATOM     86  F   UNL     1      14.919  -3.659  -1.432  1.00  0.00    -0.205 F 
ATOM     87  C   UNL     1      16.033  -6.284  -3.727  1.00  0.00     0.022 A 
BRANCH  85  88
ATOM     88  S   UNL     1      14.342  -4.244  -4.409  1.00  0.00     0.127 S 
ATOM     89  O   UNL     1      15.331  -3.662  -5.311  1.00  0.00    -0.237 OA
ATOM     90  O   UNL     1      13.541  -5.325  -4.985  1.00  0.00    -0.237 OA
ATOM     91  O   UNL     1      13.581  -3.295  -3.608  1.00  0.00    -0.744 OA
ENDBRANCH  85  88
ENDBRANCH  57  81
BRANCH  69  92
ATOM     92  C   UNL     1      21.439  -3.813   3.277  1.00  0.00     0.023 A 
ATOM     93  C   UNL     1      21.935  -2.713   2.549  1.00  0.00     0.012 A 
ATOM     94  C   UNL     1      22.345  -4.713   3.872  1.00  0.00     0.148 A 
ATOM     95  C   UNL     1      23.308  -2.531   2.387  1.00  0.00     0.002 A 
ATOM     96  C   UNL     1      23.712  -4.496   3.751  1.00  0.00     0.091 A 
ATOM     97  F   UNL     1      21.854  -5.763   4.546  1.00  0.00    -0.205 F 
ATOM     98  C   UNL     1      24.195  -3.414   2.998  1.00  0.00     0.022 A 
BRANCH  96  99
ATOM     99  S   UNL     1      24.929  -5.523   4.584  1.00  0.00     0.127 S 
ATOM    100  O   UNL     1      25.519  -6.253   3.463  1.00  0.00    -0.237 OA
ATOM    101  O   UNL     1      25.809  -4.526   5.195  1.00  0.00    -0.237 OA
ATOM    102  O   UNL     1      24.184  -6.337   5.536  1.00  0.00    -0.744 OA
ENDBRANCH  96  99
ENDBRANCH  69  92
ENDBRANCH  43  44
ENDBRANCH  35  38
ENDBRANCH  33  34
ENDBRANCH  32  33
ENDBRANCH   1  32
TORSDOF 19
