REMARK SMILES O=C(NCCCCCCNC(=O)c1cnn2c(C(F)(F)F)ccnc12)c1ccc(-c2c3nc(c(-c4cccc(S(=O)(=O)[O-])c4F)c4ccc([nH]4)c(-c4cccc(S(=O)(=O)[O-])c4F)c4nc(c(-c5cccc(S(=O)(=O)[O-])c5F)c5ccc2[nH]5)C=C4)C=C3)cc1
REMARK SMILES IDX 5 1 4 2 3 3 1 4 2 5 26 7 27 8 88 9 28 10 87 11 29 12 30 13
REMARK SMILES IDX 31 14 81 15 32 16 86 17 80 18 82 19 33 20 85 21 79 22 78 23
REMARK SMILES IDX 34 25 66 26 46 27 65 28 47 29 50 30 64 31 83 32 48 33 49 34
REMARK SMILES IDX 63 36 84 37 51 38 35 39 36 40 44 41 37 42 39 43 45 44 38 45
REMARK SMILES IDX 40 46 41 47 42 48 43 49 67 50 68 51 76 52 69 53 71 54 77 55
REMARK SMILES IDX 70 56 72 57 73 58 74 59 75 60 52 61 53 62 61 63 54 64 56 65
REMARK SMILES IDX 62 66 55 67 57 68 58 69 59 70 60 71 6 72 7 73 8 74 9 75
REMARK SMILES IDX 10 76 11 77 12 79 13 80 14 81 25 82 15 83 16 84 24 85 17 86
REMARK SMILES IDX 23 87 22 88 18 89 19 90 20 91 21 92
REMARK H PARENT 3 6 82 24 50 35 10 78
REMARK Flexibility Score: inf
ROOT
ATOM      1  C   UNL     1       4.664  -1.306  -2.320  1.00  0.00     0.021 C 
ENDROOT
BRANCH   1   2
ATOM      2  C   UNL     1       4.427  -0.217  -1.281  1.00  0.00     0.116 C 
BRANCH   2   3
ATOM      3  N   UNL     1       3.018   0.051  -1.059  1.00  0.00    -0.352 N 
ATOM      4  O   UNL     1       1.094   0.191   0.103  1.00  0.00    -0.269 OA
ATOM      5  C   UNL     1       2.318   0.099   0.123  1.00  0.00     0.251 C 
ATOM      6  H   UNL     1       2.487   0.224  -1.871  1.00  0.00     0.163 HD
BRANCH   5   7
ATOM      7  C   UNL     1       3.039   0.010   1.415  1.00  0.00     0.039 A 
ATOM      8  C   UNL     1       4.204   0.749   1.640  1.00  0.00     0.014 A 
ATOM      9  C   UNL     1       2.530  -0.816   2.421  1.00  0.00     0.014 A 
ATOM     10  C   UNL     1       4.925   0.564   2.817  1.00  0.00     0.010 A 
ATOM     11  C   UNL     1       3.217  -0.943   3.632  1.00  0.00     0.010 A 
ATOM     12  C   UNL     1       4.435  -0.276   3.830  1.00  0.00    -0.014 A 
BRANCH  12  13
ATOM     13  C   UNL     1       5.173  -0.382   5.115  1.00  0.00     0.031 A 
ATOM     14  C   UNL     1       5.801  -1.676   5.555  1.00  0.00     0.074 A 
ATOM     15  C   UNL     1       5.271   0.714   5.894  1.00  0.00     0.049 A 
ATOM     16  N   UNL     1       6.505  -1.922   6.630  1.00  0.00    -0.248 NA
ATOM     17  C   UNL     1       5.612  -2.846   4.684  1.00  0.00     0.031 C 
ATOM     18  C   UNL     1       4.659   2.011   5.597  1.00  0.00     0.029 A 
ATOM     19  N   UNL     1       5.911   0.915   7.090  1.00  0.00    -0.354 N 
ATOM     20  C   UNL     1       6.816  -3.276   6.585  1.00  0.00     0.074 A 
ATOM     21  C   UNL     1       6.215  -3.803   5.378  1.00  0.00     0.031 C 
ATOM     22  C   UNL     1       4.971   2.879   6.570  1.00  0.00     0.029 A 
ATOM     23  C   UNL     1       5.769   2.192   7.580  1.00  0.00     0.049 A 
ATOM     24  H   UNL     1       6.424   0.213   7.552  1.00  0.00     0.167 HD
ATOM     25  C   UNL     1       7.552  -4.006   7.457  1.00  0.00     0.034 A 
ATOM     26  C   UNL     1       6.221   2.750   8.719  1.00  0.00     0.034 A 
ATOM     27  C   UNL     1       8.177  -3.470   8.638  1.00  0.00     0.049 A 
ATOM     28  C   UNL     1       7.058   1.922   9.652  1.00  0.00     0.074 A 
ATOM     29  C   UNL     1       8.992  -4.118   9.550  1.00  0.00     0.029 A 
ATOM     30  N   UNL     1       8.054  -2.159   9.075  1.00  0.00    -0.354 N 
ATOM     31  N   UNL     1       7.455   0.680   9.519  1.00  0.00    -0.248 NA
ATOM     32  C   UNL     1       7.533   2.579  10.877  1.00  0.00     0.031 C 
ATOM     33  C   UNL     1       9.353  -3.201  10.544  1.00  0.00     0.029 A 
ATOM     34  C   UNL     1       8.772  -1.980  10.245  1.00  0.00     0.049 A 
ATOM     35  H   UNL     1       7.532  -1.460   8.620  1.00  0.00     0.167 HD
ATOM     36  C   UNL     1       8.243   0.412  10.631  1.00  0.00     0.074 A 
ATOM     37  C   UNL     1       8.291   1.631  11.412  1.00  0.00     0.031 C 
ATOM     38  C   UNL     1       8.852  -0.746  10.985  1.00  0.00     0.034 A 
BRANCH  25  39
ATOM     39  C   UNL     1       7.774  -5.463   7.142  1.00  0.00     0.023 A 
ATOM     40  C   UNL     1       8.693  -5.817   6.133  1.00  0.00     0.012 A 
ATOM     41  C   UNL     1       7.142  -6.478   7.888  1.00  0.00     0.148 A 
ATOM     42  C   UNL     1       8.961  -7.157   5.854  1.00  0.00     0.002 A 
ATOM     43  C   UNL     1       7.441  -7.811   7.627  1.00  0.00     0.091 A 
ATOM     44  F   UNL     1       6.255  -6.123   8.828  1.00  0.00    -0.205 F 
ATOM     45  C   UNL     1       8.344  -8.152   6.607  1.00  0.00     0.022 A 
BRANCH  43  46
ATOM     46  S   UNL     1       6.750  -9.162   8.590  1.00  0.00     0.127 S 
ATOM     47  O   UNL     1       5.750  -9.699   7.668  1.00  0.00    -0.237 OA
ATOM     48  O   UNL     1       7.914 -10.025   8.796  1.00  0.00    -0.237 OA
ATOM     49  O   UNL     1       6.225  -8.555   9.805  1.00  0.00    -0.744 OA
ENDBRANCH  43  46
ENDBRANCH  25  39
BRANCH  26  50
ATOM     50  C   UNL     1       5.938   4.185   8.998  1.00  0.00     0.023 A 
ATOM     51  C   UNL     1       6.987   5.122   8.934  1.00  0.00     0.012 A 
ATOM     52  C   UNL     1       4.630   4.634   9.266  1.00  0.00     0.148 A 
ATOM     53  C   UNL     1       6.741   6.478   9.150  1.00  0.00     0.002 A 
ATOM     54  C   UNL     1       4.383   5.993   9.422  1.00  0.00     0.091 A 
ATOM     55  F   UNL     1       3.648   3.725   9.345  1.00  0.00    -0.205 F 
ATOM     56  C   UNL     1       5.439   6.915   9.379  1.00  0.00     0.022 A 
BRANCH  54  57
ATOM     57  S   UNL     1       2.715   6.641   9.570  1.00  0.00     0.127 S 
ATOM     58  O   UNL     1       2.613   6.882  11.006  1.00  0.00    -0.237 OA
ATOM     59  O   UNL     1       2.778   7.849   8.745  1.00  0.00    -0.237 OA
ATOM     60  O   UNL     1       1.850   5.599   9.031  1.00  0.00    -0.744 OA
ENDBRANCH  54  57
ENDBRANCH  26  50
BRANCH  38  61
ATOM     61  C   UNL     1       9.636  -0.749  12.269  1.00  0.00     0.023 A 
ATOM     62  C   UNL     1       8.951  -0.765  13.500  1.00  0.00     0.012 A 
ATOM     63  C   UNL     1      11.044  -0.797  12.259  1.00  0.00     0.148 A 
ATOM     64  C   UNL     1       9.655  -0.800  14.702  1.00  0.00     0.002 A 
ATOM     65  C   UNL     1      11.738  -0.874  13.461  1.00  0.00     0.091 A 
ATOM     66  F   UNL     1      11.678  -0.756  11.078  1.00  0.00    -0.205 F 
ATOM     67  C   UNL     1      11.046  -0.866  14.683  1.00  0.00     0.022 A 
BRANCH  65  68
ATOM     68  S   UNL     1      13.525  -1.048  13.522  1.00  0.00     0.127 S 
ATOM     69  O   UNL     1      13.946   0.309  13.865  1.00  0.00    -0.237 OA
ATOM     70  O   UNL     1      13.709  -2.033  14.589  1.00  0.00    -0.237 OA
ATOM     71  O   UNL     1      13.922  -1.515  12.200  1.00  0.00    -0.744 OA
ENDBRANCH  65  68
ENDBRANCH  38  61
ENDBRANCH  12  13
ENDBRANCH   5   7
ENDBRANCH   2   3
ENDBRANCH   1   2
BRANCH   1  72
ATOM     72  C   UNL     1       4.197  -0.973  -3.738  1.00  0.00     0.002 C 
BRANCH  72  73
ATOM     73  C   UNL     1       4.749   0.325  -4.334  1.00  0.00     0.002 C 
BRANCH  73  74
ATOM     74  C   UNL     1       6.271   0.486  -4.291  1.00  0.00     0.021 C 
BRANCH  74  75
ATOM     75  C   UNL     1       7.072  -0.644  -4.937  1.00  0.00     0.116 C 
BRANCH  75  76
ATOM     76  N   UNL     1       6.815  -0.749  -6.362  1.00  0.00    -0.352 N 
ATOM     77  C   UNL     1       7.707  -0.762  -7.401  1.00  0.00     0.256 C 
ATOM     78  H   UNL     1       5.867  -0.820  -6.617  1.00  0.00     0.163 HD
ATOM     79  O   UNL     1       7.275  -0.680  -8.554  1.00  0.00    -0.269 OA
BRANCH  77  80
ATOM     80  C   UNL     1       9.125  -0.799  -7.135  1.00  0.00     0.104 A 
ATOM     81  C   UNL     1      10.112  -0.012  -7.753  1.00  0.00     0.151 A 
ATOM     82  C   UNL     1       9.835  -1.642  -6.298  1.00  0.00     0.168 A 
ATOM     83  N   UNL     1      11.339  -0.251  -7.293  1.00  0.00    -0.174 NA
ATOM     84  N   UNL     1      11.179  -1.242  -6.381  1.00  0.00    -0.209 N 
ATOM     85  N   UNL     1       9.439  -2.676  -5.489  1.00  0.00    -0.236 NA
ATOM     86  C   UNL     1      12.148  -1.846  -5.585  1.00  0.00     0.150 A 
ATOM     87  C   UNL     1      10.366  -3.232  -4.772  1.00  0.00     0.116 A 
ATOM     88  C   UNL     1      11.797  -2.845  -4.753  1.00  0.00     0.053 A 
BRANCH  86  89
ATOM     89  C   UNL     1      13.526  -1.318  -5.704  1.00  0.00     0.433 C 
ATOM     90  F   UNL     1      14.045  -1.471  -6.948  1.00  0.00    -0.165 F 
ATOM     91  F   UNL     1      13.619  -0.007  -5.372  1.00  0.00    -0.165 F 
ATOM     92  F   UNL     1      14.379  -1.974  -4.866  1.00  0.00    -0.165 F 
ENDBRANCH  86  89
ENDBRANCH  77  80
ENDBRANCH  75  76
ENDBRANCH  74  75
ENDBRANCH  73  74
ENDBRANCH  72  73
ENDBRANCH   1  72
TORSDOF 17
