REMARK SMILES CCCCCCCCNC(=O)Oc1cccc(-c2ccc([C@@H](C)C(=O)NCCCCCCNC(=O)c3ccc(-c4c5nc(c(-c6cccc(S(=O)(=O)[O-])c6F)c6ccc([nH]6)c(-c6cccc(S(=O)(=O)[O-])c6F)c6nc(c(-c7cccc(S(=O)(=O)[O-])c7F)c7ccc4[nH]7)C=C6)C=C5)cc3)cc2F)c1
REMARK SMILES IDX 22 1 23 2 21 3 18 4 19 5 100 6 20 7 99 8 101 9 17 10 13 11
REMARK SMILES IDX 14 12 102 13 15 14 16 15 12 16 10 17 9 18 11 20 8 21 7 22
REMARK SMILES IDX 6 23 5 24 4 25 3 26 2 27 1 28 24 29 25 30 26 31 27 33 28 34
REMARK SMILES IDX 29 35 30 36 31 37 32 38 33 39 34 40 35 42 36 43 37 44 98 45
REMARK SMILES IDX 38 46 97 47 39 48 40 49 41 50 91 51 42 52 96 53 90 54 92 55
REMARK SMILES IDX 43 56 95 57 89 58 88 59 44 61 76 62 56 63 75 64 57 65 60 66
REMARK SMILES IDX 74 67 93 68 58 69 59 70 73 72 94 73 61 74 45 75 46 76 54 77
REMARK SMILES IDX 47 78 49 79 55 80 48 81 50 82 51 83 52 84 53 85 77 86 78 87
REMARK SMILES IDX 86 88 79 89 81 90 87 91 80 92 82 93 83 94 84 95 85 96 62 97
REMARK SMILES IDX 63 98 71 99 64 100 66 101 72 102 65 103 67 104 68 105 69 106
REMARK SMILES IDX 70 107
REMARK H PARENT 9 19 26 32 33 41 92 60 60 71
REMARK Flexibility Score: inf
ROOT
ATOM      1  C   UNL     1      -9.513  -6.137 -10.636  1.00  0.00     0.105 C 
ATOM      2  C   UNL     1     -10.164  -7.101 -11.627  1.00  0.00     0.023 C 
ENDROOT
BRANCH   1   3
ATOM      3  C   UNL     1      -8.353  -6.700  -9.831  1.00  0.00    -0.033 A 
ATOM      4  C   UNL     1      -6.211  -7.600  -8.163  1.00  0.00     0.018 A 
ATOM      5  C   UNL     1      -7.359  -8.378  -8.371  1.00  0.00     0.012 A 
ATOM      6  C   UNL     1      -6.142  -6.384  -8.857  1.00  0.00     0.131 A 
ATOM      7  C   UNL     1      -8.389  -7.954  -9.216  1.00  0.00     0.005 A 
ATOM      8  C   UNL     1      -7.195  -5.929  -9.657  1.00  0.00     0.044 A 
ATOM      9  F   UNL     1      -5.052  -5.605  -8.767  1.00  0.00    -0.206 F 
BRANCH   4  10
ATOM     10  C   UNL     1      -5.169  -8.049  -7.218  1.00  0.00    -0.012 A 
ATOM     11  C   UNL     1      -3.609  -7.587  -5.415  1.00  0.00     0.133 A 
ATOM     12  C   UNL     1      -3.268  -8.930  -5.311  1.00  0.00     0.047 A 
ATOM     13  C   UNL     1      -4.533  -7.140  -6.359  1.00  0.00     0.056 A 
ATOM     14  C   UNL     1      -3.879  -9.846  -6.159  1.00  0.00     0.004 A 
ATOM     15  C   UNL     1      -4.813  -9.408  -7.104  1.00  0.00     0.009 A 
BRANCH  11  16
ATOM     16  O   UNL     1      -2.902  -6.679  -4.619  1.00  0.00    -0.410 OA
BRANCH  16  17
ATOM     17  C   UNL     1      -3.643  -5.812  -3.833  1.00  0.00     0.412 C 
ATOM     18  N   UNL     1      -2.870  -4.859  -3.232  1.00  0.00    -0.321 N 
ATOM     19  H   UNL     1      -3.325  -4.240  -2.616  1.00  0.00     0.167 HD
ATOM     20  O   UNL     1      -4.854  -5.841  -3.655  1.00  0.00    -0.224 OA
BRANCH  18  21
ATOM     21  C   UNL     1      -1.446  -4.671  -3.414  1.00  0.00     0.119 C 
BRANCH  21  22
ATOM     22  C   UNL     1      -1.127  -3.275  -3.947  1.00  0.00     0.021 C 
BRANCH  22  23
ATOM     23  C   UNL     1      -1.540  -2.129  -3.015  1.00  0.00     0.002 C 
BRANCH  23  24
ATOM     24  C   UNL     1      -0.963  -2.209  -1.598  1.00  0.00     0.000 C 
BRANCH  24  25
ATOM     25  C   UNL     1       0.568  -2.186  -1.529  1.00  0.00    -0.000 C 
BRANCH  25  26
ATOM     26  C   UNL     1       1.214  -0.892  -2.035  1.00  0.00    -0.000 C 
BRANCH  26  27
ATOM     27  C   UNL     1       0.781   0.380  -1.302  1.00  0.00    -0.003 C 
ATOM     28  C   UNL     1       1.111   0.361   0.182  1.00  0.00     0.004 C 
ENDBRANCH  26  27
ENDBRANCH  25  26
ENDBRANCH  24  25
ENDBRANCH  23  24
ENDBRANCH  22  23
ENDBRANCH  21  22
ENDBRANCH  18  21
ENDBRANCH  16  17
ENDBRANCH  11  16
ENDBRANCH   4  10
ENDBRANCH   1   3
BRANCH   1  29
ATOM     29  C   UNL     1     -10.518  -5.333  -9.796  1.00  0.00     0.227 C 
ATOM     30  O   UNL     1     -10.542  -4.099  -9.879  1.00  0.00    -0.274 OA
ATOM     31  N   UNL     1     -11.425  -5.901  -8.955  1.00  0.00    -0.356 N 
ATOM     32  H   UNL     1     -12.061  -5.263  -8.558  1.00  0.00     0.163 HD
BRANCH  31  33
ATOM     33  C   UNL     1     -11.622  -7.274  -8.541  1.00  0.00     0.116 C 
BRANCH  33  34
ATOM     34  C   UNL     1     -11.062  -7.524  -7.139  1.00  0.00     0.021 C 
BRANCH  34  35
ATOM     35  C   UNL     1     -12.068  -7.245  -6.018  1.00  0.00     0.002 C 
BRANCH  35  36
ATOM     36  C   UNL     1     -13.323  -8.127  -6.044  1.00  0.00     0.002 C 
BRANCH  36  37
ATOM     37  C   UNL     1     -13.060  -9.636  -6.035  1.00  0.00     0.021 C 
BRANCH  37  38
ATOM     38  C   UNL     1     -12.306 -10.138  -4.807  1.00  0.00     0.116 C 
BRANCH  38  39
ATOM     39  N   UNL     1     -13.051  -9.883  -3.582  1.00  0.00    -0.352 N 
ATOM     40  C   UNL     1     -13.537 -10.772  -2.657  1.00  0.00     0.251 C 
ATOM     41  H   UNL     1     -13.232  -8.935  -3.389  1.00  0.00     0.163 HD
ATOM     42  O   UNL     1     -14.361 -10.403  -1.825  1.00  0.00    -0.269 OA
BRANCH  40  43
ATOM     43  C   UNL     1     -13.067 -12.173  -2.667  1.00  0.00     0.039 A 
ATOM     44  C   UNL     1     -13.994 -13.204  -2.494  1.00  0.00     0.014 A 
ATOM     45  C   UNL     1     -11.710 -12.466  -2.829  1.00  0.00     0.014 A 
ATOM     46  C   UNL     1     -13.565 -14.532  -2.534  1.00  0.00     0.010 A 
ATOM     47  C   UNL     1     -11.297 -13.790  -2.946  1.00  0.00     0.010 A 
ATOM     48  C   UNL     1     -12.217 -14.836  -2.789  1.00  0.00    -0.014 A 
BRANCH  48  49
ATOM     49  C   UNL     1     -11.753 -16.242  -2.905  1.00  0.00     0.031 A 
ATOM     50  C   UNL     1     -10.739 -16.789  -1.937  1.00  0.00     0.074 A 
ATOM     51  C   UNL     1     -12.180 -16.999  -3.935  1.00  0.00     0.049 A 
ATOM     52  N   UNL     1     -10.176 -17.969  -1.913  1.00  0.00    -0.248 NA
ATOM     53  C   UNL     1     -10.276 -15.884  -0.871  1.00  0.00     0.031 C 
ATOM     54  C   UNL     1     -13.101 -16.556  -4.984  1.00  0.00     0.029 A 
ATOM     55  N   UNL     1     -11.875 -18.290  -4.286  1.00  0.00    -0.354 N 
ATOM     56  C   UNL     1      -9.269 -17.937  -0.860  1.00  0.00     0.074 A 
ATOM     57  C   UNL     1      -9.332 -16.610  -0.290  1.00  0.00     0.031 C 
ATOM     58  C   UNL     1     -13.290 -17.558  -5.856  1.00  0.00     0.029 A 
ATOM     59  C   UNL     1     -12.479 -18.702  -5.451  1.00  0.00     0.049 A 
ATOM     60  H   UNL     1     -11.280 -18.866  -3.755  1.00  0.00     0.167 HD
ATOM     61  C   UNL     1      -8.476 -18.930  -0.392  1.00  0.00     0.034 A 
ATOM     62  C   UNL     1     -12.383 -19.865  -6.124  1.00  0.00     0.034 A 
ATOM     63  C   UNL     1      -8.445 -20.260  -0.940  1.00  0.00     0.049 A 
ATOM     64  C   UNL     1     -11.522 -20.964  -5.563  1.00  0.00     0.074 A 
ATOM     65  C   UNL     1      -7.744 -21.362  -0.483  1.00  0.00     0.029 A 
ATOM     66  N   UNL     1      -9.135 -20.666  -2.072  1.00  0.00    -0.354 N 
ATOM     67  N   UNL     1     -10.792 -20.965  -4.474  1.00  0.00    -0.248 NA
ATOM     68  C   UNL     1     -11.499 -22.234  -6.302  1.00  0.00     0.031 C 
ATOM     69  C   UNL     1      -7.985 -22.426  -1.359  1.00  0.00     0.029 A 
ATOM     70  C   UNL     1      -8.866 -21.997  -2.338  1.00  0.00     0.049 A 
ATOM     71  H   UNL     1      -9.728 -20.091  -2.608  1.00  0.00     0.167 HD
ATOM     72  C   UNL     1     -10.256 -22.244  -4.375  1.00  0.00     0.074 A 
ATOM     73  C   UNL     1     -10.760 -22.996  -5.507  1.00  0.00     0.031 C 
ATOM     74  C   UNL     1      -9.414 -22.748  -3.439  1.00  0.00     0.034 A 
BRANCH  61  75
ATOM     75  C   UNL     1      -7.606 -18.630   0.802  1.00  0.00     0.023 A 
ATOM     76  C   UNL     1      -8.198 -18.437   2.067  1.00  0.00     0.012 A 
ATOM     77  C   UNL     1      -6.203 -18.594   0.685  1.00  0.00     0.148 A 
ATOM     78  C   UNL     1      -7.412 -18.175   3.189  1.00  0.00     0.002 A 
ATOM     79  C   UNL     1      -5.423 -18.381   1.816  1.00  0.00     0.091 A 
ATOM     80  F   UNL     1      -5.657 -18.760  -0.529  1.00  0.00    -0.205 F 
ATOM     81  C   UNL     1      -6.025 -18.158   3.065  1.00  0.00     0.022 A 
BRANCH  79  82
ATOM     82  S   UNL     1      -3.627 -18.423   1.777  1.00  0.00     0.127 S 
ATOM     83  O   UNL     1      -3.295 -17.016   1.998  1.00  0.00    -0.237 OA
ATOM     84  O   UNL     1      -3.317 -19.307   2.901  1.00  0.00    -0.237 OA
ATOM     85  O   UNL     1      -3.265 -18.952   0.470  1.00  0.00    -0.744 OA
ENDBRANCH  79  82
ENDBRANCH  61  75
BRANCH  62  86
ATOM     86  C   UNL     1     -13.171 -20.070  -7.372  1.00  0.00     0.023 A 
ATOM     87  C   UNL     1     -14.251 -20.974  -7.370  1.00  0.00     0.012 A 
ATOM     88  C   UNL     1     -12.876 -19.354  -8.549  1.00  0.00     0.148 A 
ATOM     89  C   UNL     1     -15.002 -21.187  -8.526  1.00  0.00     0.002 A 
ATOM     90  C   UNL     1     -13.664 -19.528  -9.680  1.00  0.00     0.091 A 
ATOM     91  F   UNL     1     -11.839 -18.504  -8.532  1.00  0.00    -0.205 F 
ATOM     92  C   UNL     1     -14.716 -20.457  -9.677  1.00  0.00     0.022 A 
BRANCH  90  93
ATOM     93  S   UNL     1     -13.453 -18.537 -11.163  1.00  0.00     0.127 S 
ATOM     94  O   UNL     1     -12.946 -19.523 -12.113  1.00  0.00    -0.237 OA
ATOM     95  O   UNL     1     -14.820 -18.080 -11.417  1.00  0.00    -0.237 OA
ATOM     96  O   UNL     1     -12.524 -17.475 -10.799  1.00  0.00    -0.744 OA
ENDBRANCH  90  93
ENDBRANCH  62  86
BRANCH  74  97
ATOM     97  C   UNL     1      -9.014 -24.195  -3.563  1.00  0.00     0.023 A 
ATOM     98  C   UNL     1      -8.129 -24.597  -4.583  1.00  0.00     0.012 A 
ATOM     99  C   UNL     1      -9.458 -25.142  -2.619  1.00  0.00     0.148 A 
ATOM    100  C   UNL     1      -7.719 -25.927  -4.681  1.00  0.00     0.002 A 
ATOM    101  C   UNL     1      -9.004 -26.453  -2.691  1.00  0.00     0.091 A 
ATOM    102  F   UNL     1     -10.314 -24.742  -1.667  1.00  0.00    -0.205 F 
ATOM    103  C   UNL     1      -8.146 -26.850  -3.729  1.00  0.00     0.022 A 
BRANCH 101 104
ATOM    104  S   UNL     1      -9.419 -27.686  -1.453  1.00  0.00     0.127 S 
ATOM    105  O   UNL     1     -10.323 -28.562  -2.197  1.00  0.00    -0.237 OA
ATOM    106  O   UNL     1      -8.114 -28.271  -1.149  1.00  0.00    -0.237 OA
ATOM    107  O   UNL     1     -10.027 -26.958  -0.347  1.00  0.00    -0.744 OA
ENDBRANCH 101 104
ENDBRANCH  74  97
ENDBRANCH  48  49
ENDBRANCH  40  43
ENDBRANCH  38  39
ENDBRANCH  37  38
ENDBRANCH  36  37
ENDBRANCH  35  36
ENDBRANCH  34  35
ENDBRANCH  33  34
ENDBRANCH  31  33
ENDBRANCH   1  29
TORSDOF 27
