REMARK SMILES CS(=O)(=O)N1C[C@@H]2CN(C(=O)C3CCOCC3)C[C@]2(C(=O)NCCCCCCNC(=O)c2ccc(-c3c4nc(c(-c5cccc(S(=O)(=O)[O-])c5F)c5ccc([nH]5)c(-c5cccc(S(=O)(=O)[O-])c5F)c5nc(c(-c6cccc(S(=O)(=O)[O-])c6F)c6ccc3[nH]6)C=C5)C=C4)cc2)C1
REMARK SMILES IDX 26 1 25 2 24 3 23 4 22 5 20 6 21 7 19 9 5 10 6 11 95 12 7 13
REMARK SMILES IDX 8 14 18 15 9 16 2 17 1 18 3 19 4 20 10 21 11 22 12 23 13 24
REMARK SMILES IDX 17 25 14 26 16 27 15 28 27 29 28 30 29 31 30 32 31 34 32 35
REMARK SMILES IDX 33 36 94 37 34 38 93 39 35 40 36 41 37 42 87 43 38 44 92 45
REMARK SMILES IDX 86 46 88 47 39 48 91 49 85 50 84 51 40 53 72 54 52 55 71 56
REMARK SMILES IDX 53 57 56 58 70 59 89 60 54 61 55 62 69 64 90 65 57 66 41 67
REMARK SMILES IDX 42 68 50 69 43 70 45 71 51 72 44 73 46 74 47 75 48 76 49 77
REMARK SMILES IDX 73 78 74 79 82 80 75 81 77 82 83 83 76 84 78 85 79 86 80 87
REMARK SMILES IDX 81 88 58 89 59 90 67 91 60 92 62 93 68 94 61 95 63 96 64 97
REMARK SMILES IDX 65 98 66 99
REMARK H PARENT 22 8 29 33 88 52 56 63
REMARK Flexibility Score: inf
ROOT
ATOM      1  C   UNL     1       0.024   6.647   8.240  1.00  0.00     0.002 C 
ENDROOT
BRANCH   1   2
ATOM      2  C   UNL     1       0.631   7.418   7.070  1.00  0.00     0.002 C 
BRANCH   2   3
ATOM      3  C   UNL     1       1.415   6.602   6.042  1.00  0.00     0.021 C 
BRANCH   3   4
ATOM      4  C   UNL     1       0.735   5.386   5.396  1.00  0.00     0.116 C 
BRANCH   4   5
ATOM      5  N   UNL     1       0.574   5.639   3.972  1.00  0.00    -0.356 N 
ATOM      6  C   UNL     1       1.482   5.359   2.977  1.00  0.00     0.229 C 
ATOM      7  O   UNL     1       1.563   6.155   2.039  1.00  0.00    -0.274 OA
ATOM      8  H   UNL     1      -0.274   6.054   3.692  1.00  0.00     0.163 HD
BRANCH   6   9
ATOM      9  C   UNL     1       2.286   4.007   3.077  1.00  0.00     0.086 C 
ATOM     10  N   UNL     1       1.387   2.111   1.646  1.00  0.00    -0.201 NA
ATOM     11  C   UNL     1       2.745   1.751   2.013  1.00  0.00     0.108 C 
ATOM     12  C   UNL     1       1.303   3.595   1.849  1.00  0.00     0.121 C 
ATOM     13  C   UNL     1       3.369   3.087   2.356  1.00  0.00     0.042 C 
ATOM     14  C   UNL     1       4.522   2.865   3.306  1.00  0.00     0.125 C 
ATOM     15  C   UNL     1       3.522   4.969   3.503  1.00  0.00     0.138 C 
ATOM     16  N   UNL     1       4.635   4.131   3.947  1.00  0.00    -0.341 N 
BRANCH  10  17
ATOM     17  S   UNL     1       0.784   1.588   0.149  1.00  0.00     0.211 S 
ATOM     18  C   UNL     1       0.981  -0.180   0.235  1.00  0.00     0.176 C 
ATOM     19  O   UNL     1       1.664   2.091  -0.881  1.00  0.00    -0.213 OA
ATOM     20  O   UNL     1      -0.635   1.886   0.130  1.00  0.00    -0.213 OA
ENDBRANCH  10  17
BRANCH  16  21
ATOM     21  C   UNL     1       5.704   4.353   4.786  1.00  0.00     0.225 C 
ATOM     22  O   UNL     1       6.549   3.463   4.948  1.00  0.00    -0.275 OA
BRANCH  21  23
ATOM     23  C   UNL     1       5.831   5.618   5.630  1.00  0.00     0.083 C 
ATOM     24  C   UNL     1       4.901   5.501   6.835  1.00  0.00     0.042 C 
ATOM     25  C   UNL     1       5.749   6.940   4.866  1.00  0.00     0.042 C 
ATOM     26  C   UNL     1       4.683   6.824   7.542  1.00  0.00     0.161 C 
ATOM     27  C   UNL     1       5.557   8.122   5.802  1.00  0.00     0.161 C 
ATOM     28  O   UNL     1       4.426   7.885   6.631  1.00  0.00    -0.381 OA
ENDBRANCH  21  23
ENDBRANCH  16  21
ENDBRANCH   6   9
ENDBRANCH   4   5
ENDBRANCH   3   4
ENDBRANCH   2   3
ENDBRANCH   1   2
BRANCH   1  29
ATOM     29  C   UNL     1       0.982   5.886   9.163  1.00  0.00     0.021 C 
BRANCH  29  30
ATOM     30  C   UNL     1       1.851   6.673  10.149  1.00  0.00     0.116 C 
BRANCH  30  31
ATOM     31  N   UNL     1       1.261   7.842  10.758  1.00  0.00    -0.352 N 
ATOM     32  C   UNL     1       1.600   8.426  11.957  1.00  0.00     0.251 C 
ATOM     33  H   UNL     1       0.530   8.271  10.257  1.00  0.00     0.163 HD
ATOM     34  O   UNL     1       1.058   9.473  12.301  1.00  0.00    -0.269 OA
BRANCH  32  35
ATOM     35  C   UNL     1       2.570   7.767  12.864  1.00  0.00     0.039 A 
ATOM     36  C   UNL     1       2.161   7.523  14.176  1.00  0.00     0.014 A 
ATOM     37  C   UNL     1       3.853   7.387  12.452  1.00  0.00     0.014 A 
ATOM     38  C   UNL     1       3.012   6.856  15.059  1.00  0.00     0.010 A 
ATOM     39  C   UNL     1       4.683   6.668  13.323  1.00  0.00     0.010 A 
ATOM     40  C   UNL     1       4.271   6.393  14.636  1.00  0.00    -0.014 A 
BRANCH  40  41
ATOM     41  C   UNL     1       5.106   5.590  15.572  1.00  0.00     0.031 A 
ATOM     42  C   UNL     1       6.423   6.103  16.090  1.00  0.00     0.074 A 
ATOM     43  C   UNL     1       4.665   4.378  15.970  1.00  0.00     0.049 A 
ATOM     44  N   UNL     1       7.204   5.584  17.005  1.00  0.00    -0.248 NA
ATOM     45  C   UNL     1       6.938   7.347  15.501  1.00  0.00     0.031 C 
ATOM     46  C   UNL     1       3.448   3.725  15.483  1.00  0.00     0.029 A 
ATOM     47  N   UNL     1       5.183   3.483  16.873  1.00  0.00    -0.354 N 
ATOM     48  C   UNL     1       8.306   6.426  17.093  1.00  0.00     0.074 A 
ATOM     49  C   UNL     1       8.110   7.471  16.110  1.00  0.00     0.031 C 
ATOM     50  C   UNL     1       3.296   2.550  16.114  1.00  0.00     0.029 A 
ATOM     51  C   UNL     1       4.415   2.351  17.030  1.00  0.00     0.049 A 
ATOM     52  H   UNL     1       6.023   3.636  17.362  1.00  0.00     0.167 HD
ATOM     53  C   UNL     1       9.369   6.355  17.931  1.00  0.00     0.034 A 
ATOM     54  C   UNL     1       4.585   1.277  17.826  1.00  0.00     0.034 A 
ATOM     55  C   UNL     1       9.558   5.323  18.918  1.00  0.00     0.049 A 
ATOM     56  C   UNL     1       5.757   1.238  18.768  1.00  0.00     0.074 A 
ATOM     57  C   UNL     1      10.564   5.208  19.862  1.00  0.00     0.029 A 
ATOM     58  N   UNL     1       8.739   4.216  19.077  1.00  0.00    -0.354 N 
ATOM     59  N   UNL     1       6.697   2.132  18.955  1.00  0.00    -0.248 NA
ATOM     60  C   UNL     1       5.868   0.060  19.640  1.00  0.00     0.031 C 
ATOM     61  C   UNL     1      10.375   4.013  20.565  1.00  0.00     0.029 A 
ATOM     62  C   UNL     1       9.225   3.404  20.091  1.00  0.00     0.049 A 
ATOM     63  H   UNL     1       7.929   4.032  18.548  1.00  0.00     0.167 HD
ATOM     64  C   UNL     1       7.492   1.641  19.985  1.00  0.00     0.074 A 
ATOM     65  C   UNL     1       6.901   0.386  20.403  1.00  0.00     0.031 C 
ATOM     66  C   UNL     1       8.616   2.173  20.525  1.00  0.00     0.034 A 
BRANCH  53  67
ATOM     67  C   UNL     1      10.403   7.452  17.848  1.00  0.00     0.023 A 
ATOM     68  C   UNL     1      10.078   8.752  18.288  1.00  0.00     0.012 A 
ATOM     69  C   UNL     1      11.711   7.184  17.398  1.00  0.00     0.148 A 
ATOM     70  C   UNL     1      11.025   9.775  18.247  1.00  0.00     0.002 A 
ATOM     71  C   UNL     1      12.663   8.198  17.405  1.00  0.00     0.091 A 
ATOM     72  F   UNL     1      11.999   5.948  16.968  1.00  0.00    -0.205 F 
ATOM     73  C   UNL     1      12.319   9.496  17.816  1.00  0.00     0.022 A 
BRANCH  71  74
ATOM     74  S   UNL     1      14.378   7.923  16.947  1.00  0.00     0.127 S 
ATOM     75  O   UNL     1      14.472   8.672  15.694  1.00  0.00    -0.237 OA
ATOM     76  O   UNL     1      15.096   8.524  18.071  1.00  0.00    -0.237 OA
ATOM     77  O   UNL     1      14.536   6.481  16.823  1.00  0.00    -0.744 OA
ENDBRANCH  71  74
ENDBRANCH  53  67
BRANCH  54  78
ATOM     78  C   UNL     1       3.586   0.170  17.808  1.00  0.00     0.023 A 
ATOM     79  C   UNL     1       2.767  -0.053  18.932  1.00  0.00     0.012 A 
ATOM     80  C   UNL     1       3.437  -0.654  16.676  1.00  0.00     0.148 A 
ATOM     81  C   UNL     1       1.845  -1.101  18.943  1.00  0.00     0.002 A 
ATOM     82  C   UNL     1       2.474  -1.655  16.670  1.00  0.00     0.091 A 
ATOM     83  F   UNL     1       4.234  -0.432  15.621  1.00  0.00    -0.205 F 
ATOM     84  C   UNL     1       1.691  -1.895  17.809  1.00  0.00     0.022 A 
BRANCH  82  85
ATOM     85  S   UNL     1       2.115  -2.634  15.208  1.00  0.00     0.127 S 
ATOM     86  O   UNL     1       2.597  -3.954  15.605  1.00  0.00    -0.237 OA
ATOM     87  O   UNL     1       0.660  -2.511  15.114  1.00  0.00    -0.237 OA
ATOM     88  O   UNL     1       2.842  -1.997  14.118  1.00  0.00    -0.744 OA
ENDBRANCH  82  85
ENDBRANCH  54  78
BRANCH  66  89
ATOM     89  C   UNL     1       9.269   1.413  21.654  1.00  0.00     0.023 A 
ATOM     90  C   UNL     1       9.895   0.174  21.403  1.00  0.00     0.012 A 
ATOM     91  C   UNL     1       9.288   1.940  22.961  1.00  0.00     0.148 A 
ATOM     92  C   UNL     1      10.478  -0.552  22.442  1.00  0.00     0.002 A 
ATOM     93  C   UNL     1       9.920   1.238  23.980  1.00  0.00     0.091 A 
ATOM     94  F   UNL     1       8.675   3.111  23.188  1.00  0.00    -0.205 F 
ATOM     95  C   UNL     1      10.499  -0.016  23.727  1.00  0.00     0.022 A 
BRANCH  93  96
ATOM     96  S   UNL     1      10.082   1.895  25.644  1.00  0.00     0.127 S 
ATOM     97  O   UNL     1       9.122   1.076  26.383  1.00  0.00    -0.237 OA
ATOM     98  O   UNL     1      11.485   1.617  25.953  1.00  0.00    -0.237 OA
ATOM     99  O   UNL     1       9.755   3.311  25.549  1.00  0.00    -0.744 OA
ENDBRANCH  93  96
ENDBRANCH  66  89
ENDBRANCH  40  41
ENDBRANCH  32  35
ENDBRANCH  30  31
ENDBRANCH  29  30
ENDBRANCH   1  29
TORSDOF 19
