REMARK SMILES CN(C[C@H]1C[C@H](O)C1)C(=O)NCCOCC(=O)NCCCCCCNC(=O)c1ccc(-c2c3nc(c(-c4cccc(S(=O)(=O)[O-])c4F)c4ccc([nH]4)c(-c4cccc(S(=O)(=O)[O-])c4F)c4nc(c(-c5cccc(S(=O)(=O)[O-])c5F)c5ccc2[nH]5)C=C4)C=C3)cc1
REMARK SMILES IDX 19 1 18 2 16 3 17 4 15 6 14 7 13 8 12 9 11 10 9 11 10 12
REMARK SMILES IDX 2 14 1 15 3 16 4 17 8 18 5 19 6 20 7 21 20 23 21 24 22 25
REMARK SMILES IDX 23 26 24 27 25 28 26 29 27 31 28 32 29 33 90 34 30 35 89 36
REMARK SMILES IDX 31 37 32 38 33 39 83 40 34 41 88 42 82 43 84 44 35 45 87 46
REMARK SMILES IDX 81 47 80 48 36 50 68 51 48 52 67 53 49 54 52 55 66 56 85 57
REMARK SMILES IDX 50 58 51 59 65 61 86 62 53 63 37 64 38 65 46 66 39 67 41 68
REMARK SMILES IDX 47 69 40 70 42 71 43 72 44 73 45 74 69 75 70 76 78 77 71 78
REMARK SMILES IDX 73 79 79 80 72 81 74 82 75 83 76 84 77 85 54 86 55 87 63 88
REMARK SMILES IDX 56 89 58 90 64 91 57 92 59 93 60 94 61 95 62 96
REMARK H PARENT 18 5 11 13 7 22 25 30 84 49 52 60
REMARK Flexibility Score: inf
ROOT
ATOM      1  C   UNL     1      -3.515  -5.014   4.533  1.00  0.00     0.116 C 
ENDROOT
BRANCH   1   2
ATOM      2  N   UNL     1      -2.629  -4.888   3.392  1.00  0.00    -0.354 N 
ATOM      3  C   UNL     1      -1.315  -4.526   3.379  1.00  0.00     0.245 C 
ATOM      4  O   UNL     1      -0.712  -4.518   2.306  1.00  0.00    -0.272 OA
ATOM      5  H   UNL     1      -3.028  -5.091   2.515  1.00  0.00     0.163 HD
BRANCH   3   6
ATOM      6  C   UNL     1      -0.625  -4.146   4.698  1.00  0.00     0.260 C 
BRANCH   6   7
ATOM      7  O   UNL     1      -1.111  -3.038   5.437  1.00  0.00    -0.370 OA
BRANCH   7   8
ATOM      8  C   UNL     1      -1.304  -1.839   4.687  1.00  0.00     0.182 C 
BRANCH   8   9
ATOM      9  C   UNL     1      -0.014  -1.054   4.408  1.00  0.00     0.146 C 
BRANCH   9  10
ATOM     10  N   UNL     1       0.736  -1.552   3.267  1.00  0.00    -0.336 N 
ATOM     11  C   UNL     1       0.997  -1.204   2.001  1.00  0.00     0.317 C 
ATOM     12  O   UNL     1       1.823  -1.931   1.435  1.00  0.00    -0.249 OA
ATOM     13  H   UNL     1       1.187  -2.397   3.492  1.00  0.00     0.165 HD
BRANCH  11  14
ATOM     14  N   UNL     1       0.431  -0.144   1.349  1.00  0.00    -0.328 N 
ATOM     15  C   UNL     1       0.884   0.029  -0.030  1.00  0.00     0.148 C 
BRANCH  14  16
ATOM     16  C   UNL     1      -0.588   0.803   1.797  1.00  0.00     0.124 C 
BRANCH  16  17
ATOM     17  C   UNL     1      -1.942   0.121   1.898  1.00  0.00     0.014 C 
ATOM     18  C   UNL     1      -2.335  -1.088   0.997  1.00  0.00     0.037 C 
ATOM     19  C   UNL     1      -3.157   0.857   1.270  1.00  0.00     0.037 C 
ATOM     20  C   UNL     1      -3.776  -0.534   0.992  1.00  0.00     0.115 C 
BRANCH  20  21
ATOM     21  O   UNL     1      -4.675  -1.053   1.993  1.00  0.00    -0.393 OA
ATOM     22  H   UNL     1      -4.255  -0.995   2.866  1.00  0.00     0.210 HD
ENDBRANCH  20  21
ENDBRANCH  16  17
ENDBRANCH  14  16
ENDBRANCH  11  14
ENDBRANCH   9  10
ENDBRANCH   8   9
ENDBRANCH   7   8
ENDBRANCH   6   7
ENDBRANCH   3   6
ENDBRANCH   1   2
BRANCH   1  23
ATOM     23  C   UNL     1      -4.829  -4.266   4.308  1.00  0.00     0.021 C 
BRANCH  23  24
ATOM     24  C   UNL     1      -5.679  -4.790   3.143  1.00  0.00     0.002 C 
BRANCH  24  25
ATOM     25  C   UNL     1      -6.008  -6.287   3.188  1.00  0.00     0.002 C 
BRANCH  25  26
ATOM     26  C   UNL     1      -6.665  -6.774   4.481  1.00  0.00     0.021 C 
BRANCH  26  27
ATOM     27  C   UNL     1      -7.974  -6.078   4.838  1.00  0.00     0.116 C 
BRANCH  27  28
ATOM     28  N   UNL     1      -9.013  -6.317   3.849  1.00  0.00    -0.352 N 
ATOM     29  C   UNL     1     -10.294  -6.780   4.029  1.00  0.00     0.251 C 
ATOM     30  H   UNL     1      -8.762  -6.119   2.917  1.00  0.00     0.163 HD
ATOM     31  O   UNL     1     -10.973  -7.095   3.057  1.00  0.00    -0.269 OA
BRANCH  29  32
ATOM     32  C   UNL     1     -10.845  -6.914   5.395  1.00  0.00     0.039 A 
ATOM     33  C   UNL     1     -11.560  -8.068   5.725  1.00  0.00     0.014 A 
ATOM     34  C   UNL     1     -10.667  -5.904   6.346  1.00  0.00     0.014 A 
ATOM     35  C   UNL     1     -12.048  -8.234   7.024  1.00  0.00     0.010 A 
ATOM     36  C   UNL     1     -11.087  -6.105   7.658  1.00  0.00     0.010 A 
ATOM     37  C   UNL     1     -11.790  -7.267   8.010  1.00  0.00    -0.014 A 
BRANCH  37  38
ATOM     38  C   UNL     1     -12.240  -7.461   9.414  1.00  0.00     0.031 A 
ATOM     39  C   UNL     1     -13.222  -6.505  10.037  1.00  0.00     0.074 A 
ATOM     40  C   UNL     1     -11.704  -8.451  10.154  1.00  0.00     0.049 A 
ATOM     41  N   UNL     1     -13.695  -6.488  11.257  1.00  0.00    -0.248 NA
ATOM     42  C   UNL     1     -13.720  -5.410   9.188  1.00  0.00     0.031 C 
ATOM     43  C   UNL     1     -10.684  -9.395   9.691  1.00  0.00     0.029 A 
ATOM     44  N   UNL     1     -11.922  -8.814  11.460  1.00  0.00    -0.354 N 
ATOM     45  C   UNL     1     -14.513  -5.367  11.333  1.00  0.00     0.074 A 
ATOM     46  C   UNL     1     -14.446  -4.709  10.047  1.00  0.00     0.031 C 
ATOM     47  C   UNL     1     -10.370 -10.231  10.694  1.00  0.00     0.029 A 
ATOM     48  C   UNL     1     -11.139  -9.865  11.879  1.00  0.00     0.049 A 
ATOM     49  H   UNL     1     -12.577  -8.364  12.041  1.00  0.00     0.167 HD
ATOM     50  C   UNL     1     -15.274  -4.939  12.368  1.00  0.00     0.034 A 
ATOM     51  C   UNL     1     -11.044 -10.461  13.084  1.00  0.00     0.034 A 
ATOM     52  C   UNL     1     -15.369  -5.618  13.633  1.00  0.00     0.049 A 
ATOM     53  C   UNL     1     -11.928  -9.989  14.206  1.00  0.00     0.074 A 
ATOM     54  C   UNL     1     -16.179  -5.314  14.713  1.00  0.00     0.029 A 
ATOM     55  N   UNL     1     -14.622  -6.729  13.994  1.00  0.00    -0.354 N 
ATOM     56  N   UNL     1     -12.814  -9.023  14.208  1.00  0.00    -0.248 NA
ATOM     57  C   UNL     1     -11.825 -10.712  15.482  1.00  0.00     0.031 C 
ATOM     58  C   UNL     1     -15.899  -6.223  15.739  1.00  0.00     0.029 A 
ATOM     59  C   UNL     1     -14.943  -7.116  15.284  1.00  0.00     0.049 A 
ATOM     60  H   UNL     1     -13.962  -7.176  13.417  1.00  0.00     0.167 HD
ATOM     61  C   UNL     1     -13.402  -9.047  15.468  1.00  0.00     0.074 A 
ATOM     62  C   UNL     1     -12.784 -10.137  16.195  1.00  0.00     0.031 C 
ATOM     63  C   UNL     1     -14.357  -8.233  15.980  1.00  0.00     0.034 A 
BRANCH  50  64
ATOM     64  C   UNL     1     -16.106  -3.699  12.162  1.00  0.00     0.023 A 
ATOM     65  C   UNL     1     -17.222  -3.742  11.301  1.00  0.00     0.012 A 
ATOM     66  C   UNL     1     -15.822  -2.510  12.863  1.00  0.00     0.148 A 
ATOM     67  C   UNL     1     -18.018  -2.613  11.111  1.00  0.00     0.002 A 
ATOM     68  C   UNL     1     -16.648  -1.404  12.706  1.00  0.00     0.091 A 
ATOM     69  F   UNL     1     -14.746  -2.481  13.663  1.00  0.00    -0.205 F 
ATOM     70  C   UNL     1     -17.738  -1.450  11.822  1.00  0.00     0.022 A 
BRANCH  68  71
ATOM     71  S   UNL     1     -16.422   0.116  13.637  1.00  0.00     0.127 S 
ATOM     72  O   UNL     1     -15.976   1.037  12.592  1.00  0.00    -0.237 OA
ATOM     73  O   UNL     1     -17.773   0.372  14.139  1.00  0.00    -0.237 OA
ATOM     74  O   UNL     1     -15.438  -0.185  14.666  1.00  0.00    -0.744 OA
ENDBRANCH  68  71
ENDBRANCH  50  64
BRANCH  51  75
ATOM     75  C   UNL     1     -10.116 -11.612  13.274  1.00  0.00     0.023 A 
ATOM     76  C   UNL     1     -10.644 -12.904  13.468  1.00  0.00     0.012 A 
ATOM     77  C   UNL     1      -8.719 -11.439  13.242  1.00  0.00     0.148 A 
ATOM     78  C   UNL     1      -9.798 -13.996  13.662  1.00  0.00     0.002 A 
ATOM     79  C   UNL     1      -7.882 -12.540  13.378  1.00  0.00     0.091 A 
ATOM     80  F   UNL     1      -8.236 -10.201  13.065  1.00  0.00    -0.205 F 
ATOM     81  C   UNL     1      -8.419 -13.817  13.607  1.00  0.00     0.022 A 
BRANCH  79  82
ATOM     82  S   UNL     1      -6.099 -12.425  13.189  1.00  0.00     0.127 S 
ATOM     83  O   UNL     1      -5.638 -12.662  14.555  1.00  0.00    -0.237 OA
ATOM     84  O   UNL     1      -5.825 -13.511  12.248  1.00  0.00    -0.237 OA
ATOM     85  O   UNL     1      -5.845 -11.092  12.658  1.00  0.00    -0.744 OA
ENDBRANCH  79  82
ENDBRANCH  51  75
BRANCH  63  86
ATOM     86  C   UNL     1     -14.833  -8.509  17.384  1.00  0.00     0.023 A 
ATOM     87  C   UNL     1     -13.992  -8.233  18.480  1.00  0.00     0.012 A 
ATOM     88  C   UNL     1     -16.141  -8.977  17.617  1.00  0.00     0.148 A 
ATOM     89  C   UNL     1     -14.433  -8.454  19.785  1.00  0.00     0.002 A 
ATOM     90  C   UNL     1     -16.592  -9.145  18.921  1.00  0.00     0.091 A 
ATOM     91  F   UNL     1     -16.920  -9.251  16.560  1.00  0.00    -0.205 F 
ATOM     92  C   UNL     1     -15.735  -8.897  20.005  1.00  0.00     0.022 A 
BRANCH  90  93
ATOM     93  S   UNL     1     -18.283  -9.616  19.302  1.00  0.00     0.127 S 
ATOM     94  O   UNL     1     -18.110 -10.989  19.774  1.00  0.00    -0.237 OA
ATOM     95  O   UNL     1     -18.645  -8.653  20.343  1.00  0.00    -0.237 OA
ATOM     96  O   UNL     1     -19.030  -9.472  18.060  1.00  0.00    -0.744 OA
ENDBRANCH  90  93
ENDBRANCH  63  86
ENDBRANCH  37  38
ENDBRANCH  29  32
ENDBRANCH  27  28
ENDBRANCH  26  27
ENDBRANCH  25  26
ENDBRANCH  24  25
ENDBRANCH  23  24
ENDBRANCH   1  23
TORSDOF 24
