REMARK SMILES O=C(C[C@H]1C[N@@H+](Cc2ccncc2)CCO1)NCCCCCCNC(=O)c1ccc(-c2c3nc(c(-c4cccc(S(=O)(=O)[O-])c4F)c4ccc([nH]4)c(-c4cccc(S(=O)(=O)[O-])c4F)c4nc(c(-c5cccc(S(=O)(=O)[O-])c5F)c5ccc2[nH]5)C=C4)C=C3)cc1
REMARK SMILES IDX 20 1 19 2 18 3 17 4 1 5 2 6 3 8 4 9 5 10 16 11 6 12 15 13
REMARK SMILES IDX 14 14 7 16 8 17 9 18 13 19 10 20 12 21 11 22 21 23 22 24
REMARK SMILES IDX 23 25 24 26 25 27 26 29 27 30 28 31 89 32 29 33 88 34 30 35
REMARK SMILES IDX 31 36 32 37 82 38 33 39 87 40 81 41 83 42 34 43 86 44 80 45
REMARK SMILES IDX 79 46 35 48 67 49 47 50 66 51 48 52 51 53 65 54 84 55 49 56
REMARK SMILES IDX 50 57 64 59 85 60 52 61 36 62 37 63 45 64 38 65 40 66 46 67
REMARK SMILES IDX 39 68 41 69 42 70 43 71 44 72 68 73 69 74 77 75 70 76 72 77
REMARK SMILES IDX 78 78 71 79 73 80 74 81 75 82 76 83 53 84 54 85 62 86 55 87
REMARK SMILES IDX 57 88 63 89 56 90 58 91 59 92 60 93 61 94
REMARK H PARENT 17 7 6 15 24 28 83 47 51 58
REMARK Flexibility Score: inf
ROOT
ATOM      1  C   UNL     1       4.417   1.015  -3.536  1.00  0.00     0.002 C 
ENDROOT
BRANCH   1   2
ATOM      2  C   UNL     1       5.479   1.932  -2.915  1.00  0.00     0.021 C 
BRANCH   2   3
ATOM      3  C   UNL     1       5.040   2.643  -1.635  1.00  0.00     0.116 C 
BRANCH   3   4
ATOM      4  N   UNL     1       4.685   1.689  -0.611  1.00  0.00    -0.356 N 
ATOM      5  O   UNL     1       4.597   3.190   1.128  1.00  0.00    -0.275 OA
ATOM      6  C   UNL     1       4.619   2.046   0.721  1.00  0.00     0.222 C 
ATOM      7  H   UNL     1       4.484   0.760  -0.870  1.00  0.00     0.163 HD
BRANCH   6   8
ATOM      8  C   UNL     1       4.727   0.844   1.624  1.00  0.00     0.138 C 
BRANCH   8   9
ATOM      9  C   UNL     1       3.415   0.143   1.948  1.00  0.00     0.182 C 
ATOM     10  C   UNL     1       3.550  -1.403   1.867  1.00  0.00     0.295 C 
ATOM     11  O   UNL     1       2.896   0.521   3.236  1.00  0.00    -0.366 OA
ATOM     12  N   UNL     1       4.257  -2.042   2.978  1.00  0.00    -0.327 N 
ATOM     13  C   UNL     1       3.675   0.014   4.327  1.00  0.00     0.222 C 
ATOM     14  C   UNL     1       3.845  -1.513   4.275  1.00  0.00     0.291 C 
ATOM     15  H   UNL     1       3.910  -3.001   2.967  1.00  0.00     0.348 HD
BRANCH  12  16
ATOM     16  C   UNL     1       5.638  -2.479   2.798  1.00  0.00     0.299 C 
BRANCH  16  17
ATOM     17  C   UNL     1       6.731  -1.436   2.765  1.00  0.00     0.009 A 
ATOM     18  C   UNL     1       7.120  -0.745   3.916  1.00  0.00     0.029 A 
ATOM     19  C   UNL     1       7.403  -1.138   1.571  1.00  0.00     0.029 A 
ATOM     20  C   UNL     1       8.083   0.248   3.813  1.00  0.00     0.111 A 
ATOM     21  C   UNL     1       8.351  -0.124   1.565  1.00  0.00     0.111 A 
ATOM     22  N   UNL     1       8.702   0.576   2.661  1.00  0.00    -0.265 NA
ENDBRANCH  16  17
ENDBRANCH  12  16
ENDBRANCH   8   9
ENDBRANCH   6   8
ENDBRANCH   3   4
ENDBRANCH   2   3
ENDBRANCH   1   2
BRANCH   1  23
ATOM     23  C   UNL     1       3.043   1.659  -3.736  1.00  0.00     0.002 C 
BRANCH  23  24
ATOM     24  C   UNL     1       3.052   2.942  -4.568  1.00  0.00     0.021 C 
BRANCH  24  25
ATOM     25  C   UNL     1       3.626   2.783  -5.970  1.00  0.00     0.116 C 
BRANCH  25  26
ATOM     26  N   UNL     1       2.831   1.885  -6.793  1.00  0.00    -0.352 N 
ATOM     27  C   UNL     1       2.390   2.076  -8.080  1.00  0.00     0.251 C 
ATOM     28  H   UNL     1       2.576   1.032  -6.374  1.00  0.00     0.163 HD
ATOM     29  O   UNL     1       1.589   1.296  -8.586  1.00  0.00    -0.269 OA
BRANCH  27  30
ATOM     30  C   UNL     1       2.877   3.247  -8.839  1.00  0.00     0.039 A 
ATOM     31  C   UNL     1       1.954   4.078  -9.477  1.00  0.00     0.014 A 
ATOM     32  C   UNL     1       4.244   3.537  -8.886  1.00  0.00     0.014 A 
ATOM     33  C   UNL     1       2.398   5.237 -10.119  1.00  0.00     0.010 A 
ATOM     34  C   UNL     1       4.675   4.723  -9.468  1.00  0.00     0.010 A 
ATOM     35  C   UNL     1       3.759   5.583 -10.095  1.00  0.00    -0.014 A 
BRANCH  35  36
ATOM     36  C   UNL     1       4.260   6.833 -10.720  1.00  0.00     0.031 A 
ATOM     37  C   UNL     1       5.226   6.756 -11.872  1.00  0.00     0.074 A 
ATOM     38  C   UNL     1       3.942   8.027 -10.180  1.00  0.00     0.049 A 
ATOM     39  N   UNL     1       5.872   7.720 -12.472  1.00  0.00    -0.248 NA
ATOM     40  C   UNL     1       5.532   5.413 -12.398  1.00  0.00     0.031 C 
ATOM     41  C   UNL     1       3.076   8.229  -9.016  1.00  0.00     0.029 A 
ATOM     42  N   UNL     1       4.344   9.296 -10.517  1.00  0.00    -0.354 N 
ATOM     43  C   UNL     1       6.698   7.102 -13.403  1.00  0.00     0.074 A 
ATOM     44  C   UNL     1       6.484   5.677 -13.282  1.00  0.00     0.031 C 
ATOM     45  C   UNL     1       3.021   9.541  -8.731  1.00  0.00     0.029 A 
ATOM     46  C   UNL     1       3.866  10.271  -9.670  1.00  0.00     0.049 A 
ATOM     47  H   UNL     1       4.920   9.491 -11.291  1.00  0.00     0.167 HD
ATOM     48  C   UNL     1       7.540   7.671 -14.296  1.00  0.00     0.034 A 
ATOM     49  C   UNL     1       4.095  11.599  -9.647  1.00  0.00     0.034 A 
ATOM     50  C   UNL     1       7.691   9.090 -14.468  1.00  0.00     0.049 A 
ATOM     51  C   UNL     1       4.986  12.207 -10.699  1.00  0.00     0.074 A 
ATOM     52  C   UNL     1       8.429   9.764 -15.425  1.00  0.00     0.029 A 
ATOM     53  N   UNL     1       7.094  10.051 -13.669  1.00  0.00    -0.354 N 
ATOM     54  N   UNL     1       5.620  11.618 -11.684  1.00  0.00    -0.248 NA
ATOM     55  C   UNL     1       5.165  13.666 -10.660  1.00  0.00     0.031 C 
ATOM     56  C   UNL     1       8.289  11.136 -15.196  1.00  0.00     0.029 A 
ATOM     57  C   UNL     1       7.451  11.314 -14.107  1.00  0.00     0.049 A 
ATOM     58  H   UNL     1       6.504   9.863 -12.904  1.00  0.00     0.167 HD
ATOM     59  C   UNL     1       6.232  12.636 -12.405  1.00  0.00     0.074 A 
ATOM     60  C   UNL     1       5.882  13.881 -11.755  1.00  0.00     0.031 C 
ATOM     61  C   UNL     1       7.027  12.547 -13.499  1.00  0.00     0.034 A 
BRANCH  48  62
ATOM     62  C   UNL     1       8.324   6.768 -15.209  1.00  0.00     0.023 A 
ATOM     63  C   UNL     1       7.670   6.127 -16.280  1.00  0.00     0.012 A 
ATOM     64  C   UNL     1       9.719   6.633 -15.068  1.00  0.00     0.148 A 
ATOM     65  C   UNL     1       8.388   5.348 -17.185  1.00  0.00     0.002 A 
ATOM     66  C   UNL     1      10.434   5.888 -15.998  1.00  0.00     0.091 A 
ATOM     67  F   UNL     1      10.318   7.236 -14.031  1.00  0.00    -0.205 F 
ATOM     68  C   UNL     1       9.770   5.239 -17.052  1.00  0.00     0.022 A 
BRANCH  66  69
ATOM     69  S   UNL     1      12.225   5.747 -15.961  1.00  0.00     0.127 S 
ATOM     70  O   UNL     1      12.403   4.337 -15.615  1.00  0.00    -0.237 OA
ATOM     71  O   UNL     1      12.588   6.088 -17.336  1.00  0.00    -0.237 OA
ATOM     72  O   UNL     1      12.684   6.696 -14.956  1.00  0.00    -0.744 OA
ENDBRANCH  66  69
ENDBRANCH  48  62
BRANCH  49  73
ATOM     73  C   UNL     1       3.421  12.463  -8.636  1.00  0.00     0.023 A 
ATOM     74  C   UNL     1       2.419  13.360  -9.058  1.00  0.00     0.012 A 
ATOM     75  C   UNL     1       3.760  12.408  -7.271  1.00  0.00     0.148 A 
ATOM     76  C   UNL     1       1.798  14.215  -8.147  1.00  0.00     0.002 A 
ATOM     77  C   UNL     1       3.099  13.225  -6.360  1.00  0.00     0.091 A 
ATOM     78  F   UNL     1       4.728  11.563  -6.888  1.00  0.00    -0.205 F 
ATOM     79  C   UNL     1       2.131  14.142  -6.798  1.00  0.00     0.022 A 
BRANCH  77  80
ATOM     80  S   UNL     1       3.383  13.097  -4.591  1.00  0.00     0.127 S 
ATOM     81  O   UNL     1       4.289  14.216  -4.351  1.00  0.00    -0.237 OA
ATOM     82  O   UNL     1       2.035  13.267  -4.047  1.00  0.00    -0.237 OA
ATOM     83  O   UNL     1       3.940  11.765  -4.392  1.00  0.00    -0.744 OA
ENDBRANCH  77  80
ENDBRANCH  49  73
BRANCH  61  84
ATOM     84  C   UNL     1       7.534  13.825 -14.109  1.00  0.00     0.023 A 
ATOM     85  C   UNL     1       8.568  14.541 -13.475  1.00  0.00     0.012 A 
ATOM     86  C   UNL     1       7.056  14.259 -15.362  1.00  0.00     0.148 A 
ATOM     87  C   UNL     1       9.103  15.683 -14.069  1.00  0.00     0.002 A 
ATOM     88  C   UNL     1       7.627  15.370 -15.969  1.00  0.00     0.091 A 
ATOM     89  F   UNL     1       6.058  13.572 -15.939  1.00  0.00    -0.205 F 
ATOM     90  C   UNL     1       8.644  16.089 -15.320  1.00  0.00     0.022 A 
BRANCH  88  91
ATOM     91  S   UNL     1       7.166  15.904 -17.622  1.00  0.00     0.127 S 
ATOM     92  O   UNL     1       6.381  17.105 -17.339  1.00  0.00    -0.237 OA
ATOM     93  O   UNL     1       8.467  16.158 -18.241  1.00  0.00    -0.237 OA
ATOM     94  O   UNL     1       6.426  14.796 -18.209  1.00  0.00    -0.744 OA
ENDBRANCH  88  91
ENDBRANCH  61  84
ENDBRANCH  35  36
ENDBRANCH  27  30
ENDBRANCH  25  26
ENDBRANCH  24  25
ENDBRANCH  23  24
ENDBRANCH   1  23
TORSDOF 19
