REMARK SMILES C[C@H]1[C@H](C(=O)NCCCCCCNC(=O)c2ccc(-c3c4nc(c(-c5cccc(S(=O)(=O)[O-])c5F)c5ccc([nH]5)c(-c5cccc(S(=O)(=O)[O-])c5F)c5nc(c(-c6cccc(S(=O)(=O)[O-])c6F)c6ccc3[nH]6)C=C5)C=C4)cc2)CCN1C(=O)c1ccc2ccccc2c1
REMARK SMILES IDX 10 1 9 2 8 3 7 4 6 5 4 6 5 7 3 9 1 10 2 11 81 12 79 13 80 14
REMARK SMILES IDX 82 15 83 16 84 17 85 18 93 19 86 20 92 21 87 22 91 23 88 24
REMARK SMILES IDX 90 25 89 26 11 27 12 28 13 29 14 30 15 32 16 33 17 34 78 35
REMARK SMILES IDX 18 36 77 37 19 38 20 39 21 40 71 41 22 42 76 43 70 44 72 45
REMARK SMILES IDX 23 46 75 47 69 48 68 49 24 51 56 52 36 53 55 54 37 55 40 56
REMARK SMILES IDX 54 57 73 58 38 59 39 60 53 62 74 63 41 64 25 65 26 66 34 67
REMARK SMILES IDX 27 68 29 69 35 70 28 71 30 72 31 73 32 74 33 75 57 76 58 77
REMARK SMILES IDX 66 78 59 79 61 80 67 81 60 82 62 83 63 84 64 85 65 86 42 87
REMARK SMILES IDX 43 88 51 89 44 90 46 91 52 92 45 93 47 94 48 95 49 96 50 97
REMARK H PARENT 6 8 13 31 72 50 40 61
REMARK Flexibility Score: inf
ROOT
ATOM      1  C   UNL     1      -1.606   1.091   5.953  1.00  0.00     0.002 C 
ENDROOT
BRANCH   1   2
ATOM      2  C   UNL     1      -0.192   1.105   5.363  1.00  0.00     0.002 C 
BRANCH   2   3
ATOM      3  C   UNL     1      -0.024   0.274   4.088  1.00  0.00     0.021 C 
BRANCH   3   4
ATOM      4  C   UNL     1      -0.947   0.700   2.952  1.00  0.00     0.116 C 
BRANCH   4   5
ATOM      5  N   UNL     1      -0.507   1.955   2.369  1.00  0.00    -0.356 N 
ATOM      6  C   UNL     1      -0.038   2.238   1.126  1.00  0.00     0.225 C 
ATOM      7  O   UNL     1       0.343   3.391   0.907  1.00  0.00    -0.275 OA
ATOM      8  H   UNL     1      -0.557   2.729   2.975  1.00  0.00     0.163 HD
BRANCH   6   9
ATOM      9  C   UNL     1       0.010   1.197   0.019  1.00  0.00     0.102 C 
ATOM     10  C   UNL     1       2.114  -0.001  -0.660  1.00  0.00     0.032 C 
ATOM     11  C   UNL     1       0.948   0.015   0.328  1.00  0.00     0.094 C 
ATOM     12  N   UNL     1       0.097  -1.173   0.219  1.00  0.00    -0.335 N 
ATOM     13  C   UNL     1      -1.366   0.614  -0.313  1.00  0.00     0.037 C 
ATOM     14  C   UNL     1      -1.150  -0.879  -0.458  1.00  0.00     0.121 C 
BRANCH  12  15
ATOM     15  C   UNL     1       0.314  -2.445   0.721  1.00  0.00     0.254 C 
ATOM     16  O   UNL     1      -0.549  -3.317   0.750  1.00  0.00    -0.269 OA
BRANCH  15  17
ATOM     17  C   UNL     1       1.669  -2.818   1.154  1.00  0.00     0.040 A 
ATOM     18  C   UNL     1       2.494  -3.416   0.200  1.00  0.00     0.014 A 
ATOM     19  C   UNL     1       2.084  -2.693   2.481  1.00  0.00     0.022 A 
ATOM     20  C   UNL     1       3.779  -3.819   0.553  1.00  0.00     0.009 A 
ATOM     21  C   UNL     1       3.364  -3.143   2.858  1.00  0.00    -0.018 A 
ATOM     22  C   UNL     1       4.228  -3.684   1.873  1.00  0.00    -0.018 A 
ATOM     23  C   UNL     1       3.803  -3.103   4.193  1.00  0.00     0.009 A 
ATOM     24  C   UNL     1       5.512  -4.117   2.237  1.00  0.00     0.009 A 
ATOM     25  C   UNL     1       5.068  -3.582   4.545  1.00  0.00     0.001 A 
ATOM     26  C   UNL     1       5.926  -4.074   3.567  1.00  0.00     0.001 A 
ENDBRANCH  15  17
ENDBRANCH  12  15
ENDBRANCH   6   9
ENDBRANCH   4   5
ENDBRANCH   3   4
ENDBRANCH   2   3
ENDBRANCH   1   2
BRANCH   1  27
ATOM     27  C   UNL     1      -2.190  -0.303   6.199  1.00  0.00     0.021 C 
BRANCH  27  28
ATOM     28  C   UNL     1      -1.344  -1.192   7.105  1.00  0.00     0.116 C 
BRANCH  28  29
ATOM     29  N   UNL     1      -1.171  -0.606   8.425  1.00  0.00    -0.352 N 
ATOM     30  C   UNL     1      -1.495  -1.123   9.654  1.00  0.00     0.251 C 
ATOM     31  H   UNL     1      -0.761   0.289   8.439  1.00  0.00     0.163 HD
ATOM     32  O   UNL     1      -1.484  -0.402  10.645  1.00  0.00    -0.269 OA
BRANCH  30  33
ATOM     33  C   UNL     1      -1.868  -2.549   9.773  1.00  0.00     0.039 A 
ATOM     34  C   UNL     1      -2.970  -2.897  10.556  1.00  0.00     0.014 A 
ATOM     35  C   UNL     1      -1.129  -3.538   9.117  1.00  0.00     0.014 A 
ATOM     36  C   UNL     1      -3.363  -4.235  10.638  1.00  0.00     0.010 A 
ATOM     37  C   UNL     1      -1.569  -4.857   9.136  1.00  0.00     0.010 A 
ATOM     38  C   UNL     1      -2.684  -5.222   9.904  1.00  0.00    -0.014 A 
BRANCH  38  39
ATOM     39  C   UNL     1      -3.136  -6.637   9.920  1.00  0.00     0.031 A 
ATOM     40  C   UNL     1      -2.236  -7.718  10.454  1.00  0.00     0.074 A 
ATOM     41  C   UNL     1      -4.330  -6.958   9.382  1.00  0.00     0.049 A 
ATOM     42  N   UNL     1      -2.442  -9.008  10.513  1.00  0.00    -0.248 NA
ATOM     43  C   UNL     1      -0.920  -7.299  10.967  1.00  0.00     0.031 C 
ATOM     44  C   UNL     1      -5.261  -6.011   8.764  1.00  0.00     0.029 A 
ATOM     45  N   UNL     1      -4.954  -8.172   9.246  1.00  0.00    -0.354 N 
ATOM     46  C   UNL     1      -1.278  -9.557  11.035  1.00  0.00     0.074 A 
ATOM     47  C   UNL     1      -0.353  -8.464  11.243  1.00  0.00     0.031 C 
ATOM     48  C   UNL     1      -6.339  -6.678   8.324  1.00  0.00     0.029 A 
ATOM     49  C   UNL     1      -6.163  -8.101   8.593  1.00  0.00     0.049 A 
ATOM     50  H   UNL     1      -4.573  -9.015   9.584  1.00  0.00     0.167 HD
ATOM     51  C   UNL     1      -1.010 -10.850  11.340  1.00  0.00     0.034 A 
ATOM     52  C   UNL     1      -7.027  -9.073   8.241  1.00  0.00     0.034 A 
ATOM     53  C   UNL     1      -1.943 -11.929  11.158  1.00  0.00     0.049 A 
ATOM     54  C   UNL     1      -6.714 -10.498   8.609  1.00  0.00     0.074 A 
ATOM     55  C   UNL     1      -1.800 -13.258  11.515  1.00  0.00     0.029 A 
ATOM     56  N   UNL     1      -3.186 -11.809  10.555  1.00  0.00    -0.354 N 
ATOM     57  N   UNL     1      -5.675 -10.976   9.249  1.00  0.00    -0.248 NA
ATOM     58  C   UNL     1      -7.709 -11.513   8.236  1.00  0.00     0.031 C 
ATOM     59  C   UNL     1      -2.941 -13.948  11.094  1.00  0.00     0.029 A 
ATOM     60  C   UNL     1      -3.813 -13.042  10.513  1.00  0.00     0.049 A 
ATOM     61  H   UNL     1      -3.566 -10.970  10.208  1.00  0.00     0.167 HD
ATOM     62  C   UNL     1      -5.906 -12.340   9.387  1.00  0.00     0.074 A 
ATOM     63  C   UNL     1      -7.196 -12.607   8.784  1.00  0.00     0.031 C 
ATOM     64  C   UNL     1      -5.117 -13.288   9.950  1.00  0.00     0.034 A 
BRANCH  51  65
ATOM     65  C   UNL     1       0.337 -11.163  11.941  1.00  0.00     0.023 A 
ATOM     66  C   UNL     1       0.635 -10.732  13.250  1.00  0.00     0.012 A 
ATOM     67  C   UNL     1       1.286 -11.927  11.234  1.00  0.00     0.148 A 
ATOM     68  C   UNL     1       1.869 -11.021  13.831  1.00  0.00     0.002 A 
ATOM     69  C   UNL     1       2.495 -12.253  11.838  1.00  0.00     0.091 A 
ATOM     70  F   UNL     1       0.994 -12.313   9.984  1.00  0.00    -0.205 F 
ATOM     71  C   UNL     1       2.794 -11.790  13.130  1.00  0.00     0.022 A 
BRANCH  69  72
ATOM     72  S   UNL     1       3.720 -13.306  11.052  1.00  0.00     0.127 S 
ATOM     73  O   UNL     1       4.796 -12.353  10.780  1.00  0.00    -0.237 OA
ATOM     74  O   UNL     1       4.016 -14.273  12.109  1.00  0.00    -0.237 OA
ATOM     75  O   UNL     1       3.073 -13.869   9.876  1.00  0.00    -0.744 OA
ENDBRANCH  69  72
ENDBRANCH  51  65
BRANCH  52  76
ATOM     76  C   UNL     1      -8.299  -8.724   7.546  1.00  0.00     0.023 A 
ATOM     77  C   UNL     1      -9.523  -8.874   8.225  1.00  0.00     0.012 A 
ATOM     78  C   UNL     1      -8.301  -8.225   6.229  1.00  0.00     0.148 A 
ATOM     79  C   UNL     1     -10.729  -8.569   7.593  1.00  0.00     0.002 A 
ATOM     80  C   UNL     1      -9.501  -7.869   5.626  1.00  0.00     0.091 A 
ATOM     81  F   UNL     1      -7.125  -8.096   5.597  1.00  0.00    -0.205 F 
ATOM     82  C   UNL     1     -10.718  -8.058   6.299  1.00  0.00     0.022 A 
BRANCH  80  83
ATOM     83  S   UNL     1      -9.575  -7.082   4.013  1.00  0.00     0.127 S 
ATOM     84  O   UNL     1     -10.206  -8.120   3.202  1.00  0.00    -0.237 OA
ATOM     85  O   UNL     1     -10.417  -5.916   4.287  1.00  0.00    -0.237 OA
ATOM     86  O   UNL     1      -8.198  -6.760   3.667  1.00  0.00    -0.744 OA
ENDBRANCH  80  83
ENDBRANCH  52  76
BRANCH  64  87
ATOM     87  C   UNL     1      -5.636 -14.703   9.981  1.00  0.00     0.023 A 
ATOM     88  C   UNL     1      -5.717 -15.451   8.790  1.00  0.00     0.012 A 
ATOM     89  C   UNL     1      -5.979 -15.312  11.205  1.00  0.00     0.148 A 
ATOM     90  C   UNL     1      -6.165 -16.771   8.811  1.00  0.00     0.002 A 
ATOM     91  C   UNL     1      -6.372 -16.645  11.225  1.00  0.00     0.091 A 
ATOM     92  F   UNL     1      -5.911 -14.579  12.326  1.00  0.00    -0.205 F 
ATOM     93  C   UNL     1      -6.480 -17.371  10.028  1.00  0.00     0.022 A 
BRANCH  91  94
ATOM     94  S   UNL     1      -6.702 -17.531  12.752  1.00  0.00     0.127 S 
ATOM     95  O   UNL     1      -8.150 -17.720  12.680  1.00  0.00    -0.237 OA
ATOM     96  O   UNL     1      -5.918 -18.753  12.576  1.00  0.00    -0.237 OA
ATOM     97  O   UNL     1      -6.240 -16.665  13.829  1.00  0.00    -0.744 OA
ENDBRANCH  91  94
ENDBRANCH  64  87
ENDBRANCH  38  39
ENDBRANCH  30  33
ENDBRANCH  28  29
ENDBRANCH  27  28
ENDBRANCH   1  27
TORSDOF 18
