REMARK SMILES O=C(CSc1nnc(-c2cccc(C(F)(F)F)c2F)o1)NCCCCCCNC(=O)c1ccc(-c2c3nc(c(-c4cccc(S(=O)(=O)[O-])c4F)c4ccc([nH]4)c(-c4cccc(S(=O)(=O)[O-])c4F)c4nc(c(-c5cccc(S(=O)(=O)[O-])c5F)c5ccc2[nH]5)C=C4)C=C3)cc1
REMARK SMILES IDX 24 1 23 2 22 3 21 4 1 5 2 6 3 8 4 9 5 10 6 11 20 12 7 13
REMARK SMILES IDX 8 14 9 15 10 16 18 17 11 18 13 19 19 20 12 21 14 22 15 23
REMARK SMILES IDX 16 24 17 25 25 26 26 27 27 28 28 29 29 30 30 32 31 33 32 34
REMARK SMILES IDX 93 35 33 36 92 37 34 38 35 39 36 40 86 41 37 42 91 43 85 44
REMARK SMILES IDX 87 45 38 46 90 47 84 48 83 49 39 51 71 52 51 53 70 54 52 55
REMARK SMILES IDX 55 56 69 57 88 58 53 59 54 60 68 62 89 63 56 64 40 65 41 66
REMARK SMILES IDX 49 67 42 68 44 69 50 70 43 71 45 72 46 73 47 74 48 75 72 76
REMARK SMILES IDX 73 77 81 78 74 79 76 80 82 81 75 82 77 83 78 84 79 85 80 86
REMARK SMILES IDX 57 87 58 88 66 89 59 90 61 91 67 92 60 93 62 94 63 95 64 96
REMARK SMILES IDX 65 97
REMARK H PARENT 21 7 28 31 87 50 55 61
REMARK Flexibility Score: inf
ROOT
ATOM      1  C   UNL     1       4.237  -1.413  -3.315  1.00  0.00     0.002 C 
ENDROOT
BRANCH   1   2
ATOM      2  C   UNL     1       2.731  -1.179  -3.131  1.00  0.00     0.021 C 
BRANCH   2   3
ATOM      3  C   UNL     1       2.181  -1.550  -1.754  1.00  0.00     0.116 C 
BRANCH   3   4
ATOM      4  N   UNL     1       2.775  -0.747  -0.702  1.00  0.00    -0.355 N 
ATOM      5  O   UNL     1       0.808   0.133   0.095  1.00  0.00    -0.274 OA
ATOM      6  C   UNL     1       2.029   0.027   0.161  1.00  0.00     0.230 C 
ATOM      7  H   UNL     1       3.754  -0.756  -0.599  1.00  0.00     0.163 HD
BRANCH   6   8
ATOM      8  C   UNL     1       2.833   0.851   1.150  1.00  0.00     0.179 C 
BRANCH   8   9
ATOM      9  S   UNL     1       4.127  -0.104   1.970  1.00  0.00    -0.055 SA
BRANCH   9  10
ATOM     10  C   UNL     1       3.193  -1.259   2.870  1.00  0.00     0.277 A 
ATOM     11  N   UNL     1       3.630  -2.478   3.110  1.00  0.00    -0.101 NA
ATOM     12  O   UNL     1       2.008  -0.990   3.512  1.00  0.00    -0.411 OA
ATOM     13  N   UNL     1       2.726  -3.063   3.964  1.00  0.00    -0.107 NA
ATOM     14  C   UNL     1       1.781  -2.170   4.176  1.00  0.00     0.251 A 
BRANCH  14  15
ATOM     15  C   UNL     1       0.684  -2.229   5.126  1.00  0.00     0.075 A 
ATOM     16  C   UNL     1       0.911  -2.829   6.376  1.00  0.00     0.017 A 
ATOM     17  C   UNL     1      -0.598  -1.754   4.832  1.00  0.00     0.148 A 
ATOM     18  C   UNL     1      -0.115  -2.942   7.313  1.00  0.00     0.002 A 
ATOM     19  C   UNL     1      -1.646  -1.884   5.749  1.00  0.00     0.092 A 
ATOM     20  F   UNL     1      -0.832  -1.188   3.640  1.00  0.00    -0.205 F 
ATOM     21  C   UNL     1      -1.389  -2.477   6.999  1.00  0.00     0.016 A 
BRANCH  19  22
ATOM     22  C   UNL     1      -3.041  -1.429   5.427  1.00  0.00     0.419 C 
ATOM     23  F   UNL     1      -3.942  -2.448   5.516  1.00  0.00    -0.166 F 
ATOM     24  F   UNL     1      -3.479  -0.485   6.311  1.00  0.00    -0.166 F 
ATOM     25  F   UNL     1      -3.211  -0.886   4.195  1.00  0.00    -0.166 F 
ENDBRANCH  19  22
ENDBRANCH  14  15
ENDBRANCH   9  10
ENDBRANCH   8   9
ENDBRANCH   6   8
ENDBRANCH   3   4
ENDBRANCH   2   3
ENDBRANCH   1   2
BRANCH   1  26
ATOM     26  C   UNL     1       4.722  -2.846  -3.076  1.00  0.00     0.002 C 
BRANCH  26  27
ATOM     27  C   UNL     1       4.042  -3.924  -3.923  1.00  0.00     0.021 C 
BRANCH  27  28
ATOM     28  C   UNL     1       4.173  -3.744  -5.433  1.00  0.00     0.116 C 
BRANCH  28  29
ATOM     29  N   UNL     1       5.550  -3.852  -5.895  1.00  0.00    -0.352 N 
ATOM     30  C   UNL     1       6.058  -4.596  -6.933  1.00  0.00     0.251 C 
ATOM     31  H   UNL     1       6.208  -3.317  -5.395  1.00  0.00     0.163 HD
ATOM     32  O   UNL     1       7.273  -4.682  -7.093  1.00  0.00    -0.269 OA
BRANCH  30  33
ATOM     33  C   UNL     1       5.138  -5.315  -7.842  1.00  0.00     0.039 A 
ATOM     34  C   UNL     1       5.391  -6.655  -8.148  1.00  0.00     0.014 A 
ATOM     35  C   UNL     1       4.021  -4.670  -8.378  1.00  0.00     0.014 A 
ATOM     36  C   UNL     1       4.484  -7.369  -8.937  1.00  0.00     0.010 A 
ATOM     37  C   UNL     1       3.085  -5.401  -9.106  1.00  0.00     0.010 A 
ATOM     38  C   UNL     1       3.306  -6.757  -9.392  1.00  0.00    -0.014 A 
BRANCH  38  39
ATOM     39  C   UNL     1       2.276  -7.510 -10.154  1.00  0.00     0.031 A 
ATOM     40  C   UNL     1       1.936  -7.112 -11.563  1.00  0.00     0.074 A 
ATOM     41  C   UNL     1       1.571  -8.482  -9.542  1.00  0.00     0.049 A 
ATOM     42  N   UNL     1       0.994  -7.572 -12.346  1.00  0.00    -0.248 NA
ATOM     43  C   UNL     1       2.742  -6.035 -12.161  1.00  0.00     0.031 C 
ATOM     44  C   UNL     1       1.760  -8.918  -8.158  1.00  0.00     0.029 A 
ATOM     45  N   UNL     1       0.533  -9.257  -9.997  1.00  0.00    -0.354 N 
ATOM     46  C   UNL     1       1.068  -6.818 -13.510  1.00  0.00     0.074 A 
ATOM     47  C   UNL     1       2.124  -5.847 -13.318  1.00  0.00     0.031 C 
ATOM     48  C   UNL     1       0.873  -9.885  -7.878  1.00  0.00     0.029 A 
ATOM     49  C   UNL     1       0.030 -10.115  -9.048  1.00  0.00     0.049 A 
ATOM     50  H   UNL     1       0.183  -9.204 -10.916  1.00  0.00     0.167 HD
ATOM     51  C   UNL     1       0.346  -6.942 -14.650  1.00  0.00     0.034 A 
ATOM     52  C   UNL     1      -0.999 -10.984  -9.107  1.00  0.00     0.034 A 
ATOM     53  C   UNL     1      -0.672  -7.937 -14.855  1.00  0.00     0.049 A 
ATOM     54  C   UNL     1      -1.771 -11.126 -10.389  1.00  0.00     0.074 A 
ATOM     55  C   UNL     1      -1.403  -8.194 -16.001  1.00  0.00     0.029 A 
ATOM     56  N   UNL     1      -1.106  -8.837 -13.894  1.00  0.00    -0.354 N 
ATOM     57  N   UNL     1      -1.600 -10.495 -11.526  1.00  0.00    -0.248 NA
ATOM     58  C   UNL     1      -2.856 -12.117 -10.409  1.00  0.00     0.031 C 
ATOM     59  C   UNL     1      -2.291  -9.239 -15.727  1.00  0.00     0.029 A 
ATOM     60  C   UNL     1      -2.100  -9.648 -14.417  1.00  0.00     0.049 A 
ATOM     61  H   UNL     1      -0.759  -8.892 -12.974  1.00  0.00     0.167 HD
ATOM     62  C   UNL     1      -2.539 -11.027 -12.404  1.00  0.00     0.074 A 
ATOM     63  C   UNL     1      -3.261 -12.048 -11.672  1.00  0.00     0.031 C 
ATOM     64  C   UNL     1      -2.787 -10.689 -13.694  1.00  0.00     0.034 A 
BRANCH  51  65
ATOM     65  C   UNL     1       0.680  -6.012 -15.789  1.00  0.00     0.023 A 
ATOM     66  C   UNL     1       1.897  -6.178 -16.481  1.00  0.00     0.012 A 
ATOM     67  C   UNL     1      -0.219  -5.012 -16.205  1.00  0.00     0.148 A 
ATOM     68  C   UNL     1       2.234  -5.339 -17.542  1.00  0.00     0.002 A 
ATOM     69  C   UNL     1       0.103  -4.208 -17.294  1.00  0.00     0.091 A 
ATOM     70  F   UNL     1      -1.361  -4.851 -15.522  1.00  0.00    -0.205 F 
ATOM     71  C   UNL     1       1.333  -4.362 -17.955  1.00  0.00     0.022 A 
BRANCH  69  72
ATOM     72  S   UNL     1      -1.028  -2.978 -17.953  1.00  0.00     0.127 S 
ATOM     73  O   UNL     1      -0.423  -1.735 -17.477  1.00  0.00    -0.237 OA
ATOM     74  O   UNL     1      -0.917  -3.195 -19.396  1.00  0.00    -0.237 OA
ATOM     75  O   UNL     1      -2.334  -3.297 -17.393  1.00  0.00    -0.744 OA
ENDBRANCH  69  72
ENDBRANCH  51  65
BRANCH  52  76
ATOM     76  C   UNL     1      -1.286 -11.848  -7.927  1.00  0.00     0.023 A 
ATOM     77  C   UNL     1      -0.935 -13.211  -7.978  1.00  0.00     0.012 A 
ATOM     78  C   UNL     1      -1.810 -11.316  -6.733  1.00  0.00     0.148 A 
ATOM     79  C   UNL     1      -1.106 -14.031  -6.863  1.00  0.00     0.002 A 
ATOM     80  C   UNL     1      -1.929 -12.126  -5.609  1.00  0.00     0.091 A 
ATOM     81  F   UNL     1      -2.139 -10.016  -6.709  1.00  0.00    -0.205 F 
ATOM     82  C   UNL     1      -1.590 -13.487  -5.676  1.00  0.00     0.022 A 
BRANCH  80  83
ATOM     83  S   UNL     1      -2.410 -11.492  -3.999  1.00  0.00     0.127 S 
ATOM     84  O   UNL     1      -3.637 -12.240  -3.737  1.00  0.00    -0.237 OA
ATOM     85  O   UNL     1      -1.265 -11.877  -3.175  1.00  0.00    -0.237 OA
ATOM     86  O   UNL     1      -2.579 -10.056  -4.171  1.00  0.00    -0.744 OA
ENDBRANCH  80  83
ENDBRANCH  52  76
BRANCH  64  87
ATOM     87  C   UNL     1      -3.884 -11.426 -14.419  1.00  0.00     0.023 A 
ATOM     88  C   UNL     1      -5.229 -11.148 -14.110  1.00  0.00     0.012 A 
ATOM     89  C   UNL     1      -3.585 -12.309 -15.476  1.00  0.00     0.148 A 
ATOM     90  C   UNL     1      -6.261 -11.751 -14.828  1.00  0.00     0.002 A 
ATOM     91  C   UNL     1      -4.619 -12.870 -16.219  1.00  0.00     0.091 A 
ATOM     92  F   UNL     1      -2.299 -12.576 -15.743  1.00  0.00    -0.205 F 
ATOM     93  C   UNL     1      -5.957 -12.600 -15.890  1.00  0.00     0.022 A 
BRANCH  91  94
ATOM     94  S   UNL     1      -4.321 -13.893 -17.666  1.00  0.00     0.127 S 
ATOM     95  O   UNL     1      -4.674 -15.222 -17.169  1.00  0.00    -0.237 OA
ATOM     96  O   UNL     1      -5.260 -13.336 -18.640  1.00  0.00    -0.237 OA
ATOM     97  O   UNL     1      -2.917 -13.706 -18.006  1.00  0.00    -0.744 OA
ENDBRANCH  91  94
ENDBRANCH  64  87
ENDBRANCH  38  39
ENDBRANCH  30  33
ENDBRANCH  28  29
ENDBRANCH  27  28
ENDBRANCH  26  27
ENDBRANCH   1  26
TORSDOF 20
