REMARK SMILES O=C(COCCNC(=O)[C@@H]1CCCCO1)NCCCCCCNC(=O)c1ccc(-c2c3nc(c(-c4cccc(S(=O)(=O)[O-])c4F)c4ccc([nH]4)c(-c4cccc(S(=O)(=O)[O-])c4F)c4nc(c(-c5cccc(S(=O)(=O)[O-])c5F)c5ccc2[nH]5)C=C4)C=C3)cc1
REMARK SMILES IDX 18 1 17 2 16 3 1 4 2 5 3 7 4 8 5 9 6 10 7 11 8 12 9 14 10 15
REMARK SMILES IDX 11 16 15 17 12 18 14 19 13 20 19 21 20 22 21 23 22 24 23 25
REMARK SMILES IDX 24 26 25 28 26 29 27 30 88 31 28 32 87 33 29 34 30 35 31 36
REMARK SMILES IDX 81 37 32 38 86 39 80 40 82 41 33 42 85 43 79 44 78 45 34 47
REMARK SMILES IDX 66 48 46 49 65 50 47 51 50 52 64 53 83 54 48 55 49 56 63 58
REMARK SMILES IDX 84 59 51 60 35 61 36 62 44 63 37 64 39 65 45 66 38 67 40 68
REMARK SMILES IDX 41 69 42 70 43 71 67 72 68 73 76 74 69 75 71 76 77 77 70 78
REMARK SMILES IDX 72 79 73 80 74 81 75 82 52 83 53 84 61 85 54 86 56 87 62 88
REMARK SMILES IDX 55 89 57 90 58 91 59 92 60 93
REMARK H PARENT 16 6 7 13 23 27 82 46 50 57
REMARK Flexibility Score: inf
ROOT
ATOM      1  C   UNL     1       2.595  -3.279   1.258  1.00  0.00     0.021 C 
ENDROOT
BRANCH   1   2
ATOM      2  C   UNL     1       2.049  -1.886   1.570  1.00  0.00     0.116 C 
BRANCH   2   3
ATOM      3  N   UNL     1       2.753  -0.874   0.820  1.00  0.00    -0.354 N 
ATOM      4  O   UNL     1       1.438  -0.971  -1.072  1.00  0.00    -0.272 OA
ATOM      5  C   UNL     1       2.406  -0.526  -0.465  1.00  0.00     0.245 C 
ATOM      6  H   UNL     1       3.512  -0.413   1.245  1.00  0.00     0.163 HD
BRANCH   5   7
ATOM      7  C   UNL     1       3.408   0.428  -1.113  1.00  0.00     0.260 C 
BRANCH   7   8
ATOM      8  O   UNL     1       3.916   1.466  -0.288  1.00  0.00    -0.370 OA
BRANCH   8   9
ATOM      9  C   UNL     1       2.924   2.361   0.233  1.00  0.00     0.182 C 
BRANCH   9  10
ATOM     10  C   UNL     1       2.138   3.109  -0.852  1.00  0.00     0.144 C 
BRANCH  10  11
ATOM     11  N   UNL     1       0.899   2.441  -1.239  1.00  0.00    -0.352 N 
ATOM     12  C   UNL     1      -0.372   2.576  -0.756  1.00  0.00     0.249 C 
ATOM     13  H   UNL     1       0.995   1.785  -1.967  1.00  0.00     0.163 HD
ATOM     14  O   UNL     1      -1.263   1.919  -1.304  1.00  0.00    -0.272 OA
BRANCH  12  15
ATOM     15  C   UNL     1      -0.718   3.582   0.367  1.00  0.00     0.207 C 
ATOM     16  C   UNL     1      -1.361   4.822  -0.260  1.00  0.00     0.042 C 
ATOM     17  O   UNL     1       0.397   3.821   1.212  1.00  0.00    -0.368 OA
ATOM     18  C   UNL     1      -0.314   5.861  -0.595  1.00  0.00     0.006 C 
ATOM     19  C   UNL     1       0.650   5.137   1.669  1.00  0.00     0.161 C 
ATOM     20  C   UNL     1       0.405   6.272   0.675  1.00  0.00     0.029 C 
ENDBRANCH  12  15
ENDBRANCH  10  11
ENDBRANCH   9  10
ENDBRANCH   8   9
ENDBRANCH   7   8
ENDBRANCH   5   7
ENDBRANCH   2   3
ENDBRANCH   1   2
BRANCH   1  21
ATOM     21  C   UNL     1       4.106  -3.429   1.486  1.00  0.00     0.002 C 
BRANCH  21  22
ATOM     22  C   UNL     1       4.589  -3.096   2.900  1.00  0.00     0.002 C 
BRANCH  22  23
ATOM     23  C   UNL     1       3.922  -3.900   4.018  1.00  0.00     0.021 C 
BRANCH  23  24
ATOM     24  C   UNL     1       4.052  -5.412   3.880  1.00  0.00     0.116 C 
BRANCH  24  25
ATOM     25  N   UNL     1       5.435  -5.857   3.947  1.00  0.00    -0.352 N 
ATOM     26  C   UNL     1       5.979  -6.879   4.687  1.00  0.00     0.251 C 
ATOM     27  H   UNL     1       6.069  -5.357   3.383  1.00  0.00     0.163 HD
ATOM     28  O   UNL     1       7.197  -7.005   4.754  1.00  0.00    -0.269 OA
BRANCH  26  29
ATOM     29  C   UNL     1       5.092  -7.813   5.416  1.00  0.00     0.039 A 
ATOM     30  C   UNL     1       5.421  -8.176   6.724  1.00  0.00     0.014 A 
ATOM     31  C   UNL     1       3.946  -8.338   4.810  1.00  0.00     0.014 A 
ATOM     32  C   UNL     1       4.580  -9.034   7.438  1.00  0.00     0.010 A 
ATOM     33  C   UNL     1       3.070  -9.127   5.549  1.00  0.00     0.010 A 
ATOM     34  C   UNL     1       3.386  -9.501   6.864  1.00  0.00    -0.014 A 
BRANCH  34  35
ATOM     35  C   UNL     1       2.473 -10.406   7.610  1.00  0.00     0.031 A 
ATOM     36  C   UNL     1       2.206 -11.796   7.093  1.00  0.00     0.074 A 
ATOM     37  C   UNL     1       1.837  -9.962   8.713  1.00  0.00     0.049 A 
ATOM     38  N   UNL     1       1.395 -12.710   7.562  1.00  0.00    -0.248 NA
ATOM     39  C   UNL     1       2.924 -12.206   5.874  1.00  0.00     0.031 C 
ATOM     40  C   UNL     1       1.953  -8.613   9.274  1.00  0.00     0.029 A 
ATOM     41  N   UNL     1       0.944 -10.590   9.545  1.00  0.00    -0.354 N 
ATOM     42  C   UNL     1       1.488 -13.787   6.687  1.00  0.00     0.074 A 
ATOM     43  C   UNL     1       2.395 -13.396   5.631  1.00  0.00     0.031 C 
ATOM     44  C   UNL     1       1.159  -8.515  10.353  1.00  0.00     0.029 A 
ATOM     45  C   UNL     1       0.458  -9.780  10.547  1.00  0.00     0.049 A 
ATOM     46  H   UNL     1       0.676 -11.530   9.436  1.00  0.00     0.167 HD
ATOM     47  C   UNL     1       0.903 -15.005   6.773  1.00  0.00     0.034 A 
ATOM     48  C   UNL     1      -0.456 -10.028  11.505  1.00  0.00     0.034 A 
ATOM     49  C   UNL     1       0.031 -15.406   7.843  1.00  0.00     0.049 A 
ATOM     50  C   UNL     1      -1.063 -11.404  11.597  1.00  0.00     0.074 A 
ATOM     51  C   UNL     1      -0.577 -16.632   8.045  1.00  0.00     0.029 A 
ATOM     52  N   UNL     1      -0.352 -14.591   8.896  1.00  0.00    -0.354 N 
ATOM     53  N   UNL     1      -0.862 -12.448  10.831  1.00  0.00    -0.248 NA
ATOM     54  C   UNL     1      -1.987 -11.650  12.714  1.00  0.00     0.031 C 
ATOM     55  C   UNL     1      -1.337 -16.556   9.216  1.00  0.00     0.029 A 
ATOM     56  C   UNL     1      -1.176 -15.292   9.759  1.00  0.00     0.049 A 
ATOM     57  H   UNL     1      -0.078 -13.653   9.014  1.00  0.00     0.167 HD
ATOM     58  C   UNL     1      -1.592 -13.485  11.401  1.00  0.00     0.074 A 
ATOM     59  C   UNL     1      -2.224 -12.948  12.587  1.00  0.00     0.031 C 
ATOM     60  C   UNL     1      -1.737 -14.764  10.975  1.00  0.00     0.034 A 
BRANCH  47  61
ATOM     61  C   UNL     1       1.246 -16.023   5.715  1.00  0.00     0.023 A 
ATOM     62  C   UNL     1       2.536 -16.595   5.702  1.00  0.00     0.012 A 
ATOM     63  C   UNL     1       0.284 -16.469   4.789  1.00  0.00     0.148 A 
ATOM     64  C   UNL     1       2.873 -17.569   4.764  1.00  0.00     0.002 A 
ATOM     65  C   UNL     1       0.613 -17.475   3.887  1.00  0.00     0.091 A 
ATOM     66  F   UNL     1      -0.931 -15.904   4.807  1.00  0.00    -0.205 F 
ATOM     67  C   UNL     1       1.909 -18.017   3.866  1.00  0.00     0.022 A 
BRANCH  65  68
ATOM     68  S   UNL     1      -0.574 -18.183   2.740  1.00  0.00     0.127 S 
ATOM     69  O   UNL     1      -0.031 -17.756   1.451  1.00  0.00    -0.237 OA
ATOM     70  O   UNL     1      -0.446 -19.615   3.012  1.00  0.00    -0.237 OA
ATOM     71  O   UNL     1      -1.866 -17.609   3.089  1.00  0.00    -0.744 OA
ENDBRANCH  65  68
ENDBRANCH  47  61
BRANCH  48  72
ATOM     72  C   UNL     1      -0.820  -8.971  12.493  1.00  0.00     0.023 A 
ATOM     73  C   UNL     1      -0.457  -9.126  13.846  1.00  0.00     0.012 A 
ATOM     74  C   UNL     1      -1.536  -7.823  12.104  1.00  0.00     0.148 A 
ATOM     75  C   UNL     1      -0.846  -8.185  14.801  1.00  0.00     0.002 A 
ATOM     76  C   UNL     1      -1.868  -6.859  13.050  1.00  0.00     0.091 A 
ATOM     77  F   UNL     1      -1.883  -7.695  10.816  1.00  0.00    -0.205 F 
ATOM     78  C   UNL     1      -1.544  -7.049  14.402  1.00  0.00     0.022 A 
BRANCH  76  79
ATOM     79  S   UNL     1      -2.649  -5.306  12.600  1.00  0.00     0.127 S 
ATOM     80  O   UNL     1      -4.019  -5.516  13.058  1.00  0.00    -0.237 OA
ATOM     81  O   UNL     1      -1.879  -4.339  13.383  1.00  0.00    -0.237 OA
ATOM     82  O   UNL     1      -2.469  -5.185  11.159  1.00  0.00    -0.744 OA
ENDBRANCH  76  79
ENDBRANCH  48  72
BRANCH  60  83
ATOM     83  C   UNL     1      -2.549 -15.700  11.832  1.00  0.00     0.023 A 
ATOM     84  C   UNL     1      -3.949 -15.559  11.905  1.00  0.00     0.012 A 
ATOM     85  C   UNL     1      -1.923 -16.762  12.514  1.00  0.00     0.148 A 
ATOM     86  C   UNL     1      -4.708 -16.437  12.678  1.00  0.00     0.002 A 
ATOM     87  C   UNL     1      -2.692 -17.664  13.238  1.00  0.00     0.091 A 
ATOM     88  F   UNL     1      -0.588 -16.868  12.446  1.00  0.00    -0.205 F 
ATOM     89  C   UNL     1      -4.082 -17.495  13.334  1.00  0.00     0.022 A 
BRANCH  87  90
ATOM     90  S   UNL     1      -1.981 -19.111  14.031  1.00  0.00     0.127 S 
ATOM     91  O   UNL     1      -2.029 -18.731  15.442  1.00  0.00    -0.237 OA
ATOM     92  O   UNL     1      -2.922 -20.166  13.651  1.00  0.00    -0.237 OA
ATOM     93  O   UNL     1      -0.647 -19.262  13.467  1.00  0.00    -0.744 OA
ENDBRANCH  87  90
ENDBRANCH  60  83
ENDBRANCH  34  35
ENDBRANCH  26  29
ENDBRANCH  24  25
ENDBRANCH  23  24
ENDBRANCH  22  23
ENDBRANCH  21  22
ENDBRANCH   1  21
TORSDOF 21
