REMARK SMILES Cc1nc(NC(=O)[C@@H]2CCC[C@@H](C(=O)NCCCCCCNC(=O)c3ccc(-c4c5nc(c(-c6cccc(S(=O)(=O)[O-])c6F)c6ccc([nH]6)c(-c6cccc(S(=O)(=O)[O-])c6F)c6nc(c(-c7cccc(S(=O)(=O)[O-])c7F)c7ccc4[nH]7)C=C6)C=C5)cc3)C2)ccc1Br
REMARK SMILES IDX 19 1 18 2 17 3 16 4 15 5 13 6 14 7 12 9 8 10 9 11 88 12
REMARK SMILES IDX 10 13 11 14 6 15 5 16 7 18 4 19 1 20 2 21 3 22 91 23 90 24
REMARK SMILES IDX 92 25 89 26 20 27 21 28 22 29 23 30 24 32 25 33 26 34 87 35
REMARK SMILES IDX 27 36 86 37 28 38 29 39 30 40 80 41 31 42 85 43 79 44 81 45
REMARK SMILES IDX 32 46 84 47 78 48 77 49 33 51 65 52 45 53 64 54 46 55 49 56
REMARK SMILES IDX 63 57 82 58 47 59 48 60 62 62 83 63 50 64 34 65 35 66 43 67
REMARK SMILES IDX 36 68 38 69 44 70 37 71 39 72 40 73 41 74 42 75 66 76 67 77
REMARK SMILES IDX 75 78 68 79 70 80 76 81 69 82 71 83 72 84 73 85 74 86 51 87
REMARK SMILES IDX 52 88 60 89 53 90 55 91 61 92 54 93 56 94 57 95 58 96 59 97
REMARK H PARENT 15 8 5 17 22 31 81 50 49 61
REMARK Flexibility Score: inf
ROOT
ATOM      1  C   UNL     1       2.752   8.726   3.176  1.00  0.00     0.002 C 
ENDROOT
BRANCH   1   2
ATOM      2  C   UNL     1       2.400   7.240   3.321  1.00  0.00     0.002 C 
BRANCH   2   3
ATOM      3  C   UNL     1       1.514   6.874   4.520  1.00  0.00     0.021 C 
BRANCH   3   4
ATOM      4  C   UNL     1       0.163   7.586   4.566  1.00  0.00     0.116 C 
BRANCH   4   5
ATOM      5  N   UNL     1      -0.739   7.055   3.569  1.00  0.00    -0.356 N 
ATOM      6  C   UNL     1      -1.852   6.301   3.591  1.00  0.00     0.223 C 
ATOM      7  O   UNL     1      -2.280   6.009   2.462  1.00  0.00    -0.275 OA
ATOM      8  H   UNL     1      -0.474   7.304   2.654  1.00  0.00     0.163 HD
BRANCH   6   9
ATOM      9  C   UNL     1      -2.631   5.806   4.822  1.00  0.00     0.079 C 
ATOM     10  C   UNL     1      -1.808   3.405   4.960  1.00  0.00     0.079 C 
ATOM     11  C   UNL     1      -1.475   3.567   6.446  1.00  0.00     0.013 C 
ATOM     12  C   UNL     1      -2.986   4.319   4.598  1.00  0.00     0.027 C 
ATOM     13  C   UNL     1      -1.085   5.019   6.728  1.00  0.00     0.002 C 
ATOM     14  C   UNL     1      -2.166   6.000   6.268  1.00  0.00     0.013 C 
BRANCH  10  15
ATOM     15  C   UNL     1      -2.159   1.970   4.607  1.00  0.00     0.228 C 
ATOM     16  N   UNL     1      -1.634   1.340   3.523  1.00  0.00    -0.310 N 
ATOM     17  H   UNL     1      -1.935   0.404   3.460  1.00  0.00     0.171 HD
ATOM     18  O   UNL     1      -2.937   1.327   5.321  1.00  0.00    -0.274 OA
BRANCH  16  19
ATOM     19  C   UNL     1      -0.779   1.682   2.478  1.00  0.00     0.132 A 
ATOM     20  C   UNL     1       1.076  -0.475   0.144  1.00  0.00     0.068 C 
ATOM     21  C   UNL     1       0.615   0.777   0.830  1.00  0.00     0.054 A 
ATOM     22  N   UNL     1      -0.300   0.601   1.824  1.00  0.00    -0.235 NA
ATOM     23  C   UNL     1       1.081   2.037   0.468  1.00  0.00     0.039 A 
ATOM     24  C   UNL     1       0.537   3.144   1.104  1.00  0.00     0.021 A 
ATOM     25  Br  UNL     1       2.399   2.314  -0.862  1.00  0.00    -0.049 Br
ATOM     26  C   UNL     1      -0.425   2.964   2.099  1.00  0.00     0.048 A 
ENDBRANCH  16  19
ENDBRANCH  10  15
ENDBRANCH   6   9
ENDBRANCH   4   5
ENDBRANCH   3   4
ENDBRANCH   2   3
ENDBRANCH   1   2
BRANCH   1  27
ATOM     27  C   UNL     1       3.250   9.417   4.447  1.00  0.00     0.021 C 
BRANCH  27  28
ATOM     28  C   UNL     1       4.456   8.757   5.108  1.00  0.00     0.116 C 
BRANCH  28  29
ATOM     29  N   UNL     1       5.660   8.876   4.302  1.00  0.00    -0.352 N 
ATOM     30  C   UNL     1       6.843   9.502   4.620  1.00  0.00     0.251 C 
ATOM     31  H   UNL     1       5.624   8.453   3.414  1.00  0.00     0.163 HD
ATOM     32  O   UNL     1       7.715   9.657   3.778  1.00  0.00    -0.269 OA
BRANCH  30  33
ATOM     33  C   UNL     1       7.028  10.012   5.994  1.00  0.00     0.039 A 
ATOM     34  C   UNL     1       7.297  11.369   6.181  1.00  0.00     0.014 A 
ATOM     35  C   UNL     1       6.881   9.155   7.090  1.00  0.00     0.014 A 
ATOM     36  C   UNL     1       7.355  11.883   7.477  1.00  0.00     0.010 A 
ATOM     37  C   UNL     1       6.891   9.680   8.381  1.00  0.00     0.010 A 
ATOM     38  C   UNL     1       7.124  11.048   8.585  1.00  0.00    -0.014 A 
BRANCH  38  39
ATOM     39  C   UNL     1       7.106  11.609   9.957  1.00  0.00     0.031 A 
ATOM     40  C   UNL     1       8.206  11.279  10.926  1.00  0.00     0.074 A 
ATOM     41  C   UNL     1       6.076  12.390  10.341  1.00  0.00     0.049 A 
ATOM     42  N   UNL     1       8.389  11.730  12.138  1.00  0.00    -0.248 NA
ATOM     43  C   UNL     1       9.226  10.311  10.486  1.00  0.00     0.031 C 
ATOM     44  C   UNL     1       4.913  12.723   9.514  1.00  0.00     0.029 A 
ATOM     45  N   UNL     1       5.838  13.043  11.524  1.00  0.00    -0.354 N 
ATOM     46  C   UNL     1       9.530  11.096  12.611  1.00  0.00     0.074 A 
ATOM     47  C   UNL     1       9.984  10.203  11.569  1.00  0.00     0.031 C 
ATOM     48  C   UNL     1       4.101  13.539  10.206  1.00  0.00     0.029 A 
ATOM     49  C   UNL     1       4.678  13.782  11.526  1.00  0.00     0.049 A 
ATOM     50  H   UNL     1       6.442  12.989  12.300  1.00  0.00     0.167 HD
ATOM     51  C   UNL     1      10.163  11.274  13.792  1.00  0.00     0.034 A 
ATOM     52  C   UNL     1       4.151  14.584  12.473  1.00  0.00     0.034 A 
ATOM     53  C   UNL     1       9.747  12.209  14.799  1.00  0.00     0.049 A 
ATOM     54  C   UNL     1       4.894  14.780  13.766  1.00  0.00     0.074 A 
ATOM     55  C   UNL     1      10.390  12.535  15.979  1.00  0.00     0.029 A 
ATOM     56  N   UNL     1       8.587  12.962  14.747  1.00  0.00    -0.354 N 
ATOM     57  N   UNL     1       6.059  14.301  14.123  1.00  0.00    -0.248 NA
ATOM     58  C   UNL     1       4.266  15.648  14.775  1.00  0.00     0.031 C 
ATOM     59  C   UNL     1       9.614  13.486  16.646  1.00  0.00     0.029 A 
ATOM     60  C   UNL     1       8.489  13.746  15.880  1.00  0.00     0.049 A 
ATOM     61  H   UNL     1       7.931  12.942  14.013  1.00  0.00     0.167 HD
ATOM     62  C   UNL     1       6.320  14.832  15.381  1.00  0.00     0.074 A 
ATOM     63  C   UNL     1       5.194  15.675  15.725  1.00  0.00     0.031 C 
ATOM     64  C   UNL     1       7.391  14.626  16.182  1.00  0.00     0.034 A 
BRANCH  51  65
ATOM     65  C   UNL     1      11.434  10.515  14.039  1.00  0.00     0.023 A 
ATOM     66  C   UNL     1      12.633  11.005  13.484  1.00  0.00     0.012 A 
ATOM     67  C   UNL     1      11.467   9.415  14.915  1.00  0.00     0.148 A 
ATOM     68  C   UNL     1      13.852  10.408  13.798  1.00  0.00     0.002 A 
ATOM     69  C   UNL     1      12.689   8.840  15.242  1.00  0.00     0.091 A 
ATOM     70  F   UNL     1      10.310   8.969  15.423  1.00  0.00    -0.205 F 
ATOM     71  C   UNL     1      13.881   9.334  14.683  1.00  0.00     0.022 A 
BRANCH  69  72
ATOM     72  S   UNL     1      12.849   7.483  16.407  1.00  0.00     0.127 S 
ATOM     73  O   UNL     1      13.464   6.449  15.574  1.00  0.00    -0.237 OA
ATOM     74  O   UNL     1      13.734   8.055  17.421  1.00  0.00    -0.237 OA
ATOM     75  O   UNL     1      11.500   7.179  16.863  1.00  0.00    -0.744 OA
ENDBRANCH  69  72
ENDBRANCH  51  65
BRANCH  52  76
ATOM     76  C   UNL     1       2.907  15.349  12.188  1.00  0.00     0.023 A 
ATOM     77  C   UNL     1       3.005  16.728  11.922  1.00  0.00     0.012 A 
ATOM     78  C   UNL     1       1.647  14.725  12.141  1.00  0.00     0.148 A 
ATOM     79  C   UNL     1       1.865  17.478  11.630  1.00  0.00     0.002 A 
ATOM     80  C   UNL     1       0.519  15.471  11.815  1.00  0.00     0.091 A 
ATOM     81  F   UNL     1       1.577  13.413  12.409  1.00  0.00    -0.205 F 
ATOM     82  C   UNL     1       0.625  16.849  11.569  1.00  0.00     0.022 A 
BRANCH  80  83
ATOM     83  S   UNL     1      -1.105  14.729  11.614  1.00  0.00     0.127 S 
ATOM     84  O   UNL     1      -1.810  15.231  12.790  1.00  0.00    -0.237 OA
ATOM     85  O   UNL     1      -1.544  15.300  10.340  1.00  0.00    -0.237 OA
ATOM     86  O   UNL     1      -0.876  13.290  11.578  1.00  0.00    -0.744 OA
ENDBRANCH  80  83
ENDBRANCH  52  76
BRANCH  64  87
ATOM     87  C   UNL     1       7.434  15.317  17.515  1.00  0.00     0.023 A 
ATOM     88  C   UNL     1       6.739  14.750  18.599  1.00  0.00     0.012 A 
ATOM     89  C   UNL     1       8.297  16.409  17.730  1.00  0.00     0.148 A 
ATOM     90  C   UNL     1       6.906  15.259  19.886  1.00  0.00     0.002 A 
ATOM     91  C   UNL     1       8.483  16.890  19.020  1.00  0.00     0.091 A 
ATOM     92  F   UNL     1       8.947  16.925  16.677  1.00  0.00    -0.205 F 
ATOM     93  C   UNL     1       7.786  16.318  20.098  1.00  0.00     0.022 A 
BRANCH  91  94
ATOM     94  S   UNL     1       9.655  18.194  19.412  1.00  0.00     0.127 S 
ATOM     95  O   UNL     1       8.777  19.231  19.952  1.00  0.00    -0.237 OA
ATOM     96  O   UNL     1      10.516  17.545  20.401  1.00  0.00    -0.237 OA
ATOM     97  O   UNL     1      10.313  18.538  18.158  1.00  0.00    -0.744 OA
ENDBRANCH  91  94
ENDBRANCH  64  87
ENDBRANCH  38  39
ENDBRANCH  30  33
ENDBRANCH  28  29
ENDBRANCH  27  28
ENDBRANCH   1  27
TORSDOF 18
