REMARK SMILES C[C@H]1Oc2ccccc2C=C1/C=C/C(=O)N[C@H](C(=O)NCCCCCCNC(=O)c1ccc(-c2c3nc(c(-c4cccc(S(=O)(=O)[O-])c4F)c4ccc([nH]4)c(-c4cccc(S(=O)(=O)[O-])c4F)c4nc(c(-c5cccc(S(=O)(=O)[O-])c5F)c5ccc2[nH]5)C=C4)C=C3)cc1)c1ccccc1
REMARK SMILES IDX 23 1 22 2 21 3 20 4 18 5 19 6 17 8 16 9 14 10 15 11 13 13
REMARK SMILES IDX 12 14 11 15 1 16 2 17 3 18 4 19 10 20 5 21 9 22 6 23 8 24
REMARK SMILES IDX 7 25 93 26 94 27 98 28 95 29 97 30 96 31 24 32 25 33 26 34
REMARK SMILES IDX 27 35 28 36 29 38 30 39 31 40 92 41 32 42 91 43 33 44 34 45
REMARK SMILES IDX 35 46 85 47 36 48 90 49 84 50 86 51 37 52 89 53 83 54 82 55
REMARK SMILES IDX 38 57 70 58 50 59 69 60 51 61 54 62 68 63 87 64 52 65 53 66
REMARK SMILES IDX 67 68 88 69 55 70 39 71 40 72 48 73 41 74 43 75 49 76 42 77
REMARK SMILES IDX 44 78 45 79 46 80 47 81 71 82 72 83 80 84 73 85 75 86 81 87
REMARK SMILES IDX 74 88 76 89 77 90 78 91 79 92 56 93 57 94 65 95 58 96 60 97
REMARK SMILES IDX 66 98 59 99 61 100 62 101 63 102 64 103
REMARK H PARENT 20 7 16 12 27 37 86 56 54 67
REMARK Flexibility Score: inf
ROOT
ATOM      1  C   UNL     1       7.620  -2.091   1.901  1.00  0.00     0.002 C 
ENDROOT
BRANCH   1   2
ATOM      2  C   UNL     1       6.677  -0.991   1.391  1.00  0.00     0.021 C 
BRANCH   2   3
ATOM      3  C   UNL     1       7.030  -0.366   0.036  1.00  0.00     0.116 C 
BRANCH   3   4
ATOM      4  N   UNL     1       7.206  -1.329  -1.038  1.00  0.00    -0.354 N 
ATOM      5  C   UNL     1       6.608  -1.504  -2.247  1.00  0.00     0.247 C 
ATOM      6  O   UNL     1       7.255  -2.198  -3.047  1.00  0.00    -0.272 OA
ATOM      7  H   UNL     1       7.906  -1.996  -0.851  1.00  0.00     0.163 HD
BRANCH   5   8
ATOM      8  C   UNL     1       5.174  -1.015  -2.627  1.00  0.00     0.202 C 
BRANCH   8   9
ATOM      9  N   UNL     1       4.331  -0.293  -1.681  1.00  0.00    -0.337 N 
ATOM     10  C   UNL     1       3.531  -0.758  -0.682  1.00  0.00     0.244 C 
ATOM     11  O   UNL     1       2.803   0.031  -0.085  1.00  0.00    -0.270 OA
ATOM     12  H   UNL     1       4.342   0.686  -1.781  1.00  0.00     0.164 HD
BRANCH  10  13
ATOM     13  C   UNL     1       3.693  -2.134  -0.153  1.00  0.00     0.071 C 
ATOM     14  C   UNL     1       3.829  -3.279  -0.836  1.00  0.00     0.013 C 
BRANCH  14  15
ATOM     15  C   UNL     1       4.331  -4.535  -0.288  1.00  0.00    -0.007 C 
ATOM     16  C   UNL     1       5.332  -5.753  -2.268  1.00  0.00     0.058 C 
ATOM     17  C   UNL     1       4.244  -5.763  -1.186  1.00  0.00     0.200 C 
ATOM     18  O   UNL     1       4.303  -7.023  -0.484  1.00  0.00    -0.485 OA
ATOM     19  C   UNL     1       5.126  -7.059   0.610  1.00  0.00     0.127 A 
ATOM     20  C   UNL     1       4.986  -4.619   0.881  1.00  0.00     0.019 C 
ATOM     21  C   UNL     1       5.526  -8.315   1.060  1.00  0.00     0.047 A 
ATOM     22  C   UNL     1       5.529  -5.907   1.288  1.00  0.00     0.017 A 
ATOM     23  C   UNL     1       6.375  -8.421   2.163  1.00  0.00     0.004 A 
ATOM     24  C   UNL     1       6.394  -6.016   2.382  1.00  0.00     0.012 A 
ATOM     25  C   UNL     1       6.823  -7.271   2.813  1.00  0.00     0.001 A 
ENDBRANCH  14  15
ENDBRANCH  10  13
ENDBRANCH   8   9
BRANCH   8  26
ATOM     26  C   UNL     1       5.049  -0.478  -4.064  1.00  0.00    -0.016 A 
ATOM     27  C   UNL     1       5.099  -1.407  -5.127  1.00  0.00     0.006 A 
ATOM     28  C   UNL     1       4.796   0.864  -4.383  1.00  0.00     0.006 A 
ATOM     29  C   UNL     1       4.857  -1.024  -6.446  1.00  0.00     0.000 A 
ATOM     30  C   UNL     1       4.543   1.245  -5.708  1.00  0.00     0.000 A 
ATOM     31  C   UNL     1       4.564   0.303  -6.735  1.00  0.00     0.000 A 
ENDBRANCH   8  26
ENDBRANCH   5   8
ENDBRANCH   3   4
ENDBRANCH   2   3
ENDBRANCH   1   2
BRANCH   1  32
ATOM     32  C   UNL     1       8.737  -1.613   2.829  1.00  0.00     0.002 C 
BRANCH  32  33
ATOM     33  C   UNL     1       8.277  -1.087   4.191  1.00  0.00     0.021 C 
BRANCH  33  34
ATOM     34  C   UNL     1       7.396  -2.028   5.009  1.00  0.00     0.116 C 
BRANCH  34  35
ATOM     35  N   UNL     1       8.053  -3.277   5.383  1.00  0.00    -0.352 N 
ATOM     36  C   UNL     1       8.086  -3.870   6.629  1.00  0.00     0.251 C 
ATOM     37  H   UNL     1       8.528  -3.751   4.663  1.00  0.00     0.163 HD
ATOM     38  O   UNL     1       8.702  -4.910   6.828  1.00  0.00    -0.269 OA
BRANCH  36  39
ATOM     39  C   UNL     1       7.381  -3.177   7.724  1.00  0.00     0.039 A 
ATOM     40  C   UNL     1       6.007  -2.959   7.605  1.00  0.00     0.014 A 
ATOM     41  C   UNL     1       8.129  -2.549   8.722  1.00  0.00     0.014 A 
ATOM     42  C   UNL     1       5.419  -1.960   8.370  1.00  0.00     0.010 A 
ATOM     43  C   UNL     1       7.512  -1.603   9.542  1.00  0.00     0.010 A 
ATOM     44  C   UNL     1       6.170  -1.250   9.325  1.00  0.00    -0.014 A 
BRANCH  44  45
ATOM     45  C   UNL     1       5.542  -0.120  10.059  1.00  0.00     0.031 A 
ATOM     46  C   UNL     1       6.052   1.291   9.902  1.00  0.00     0.074 A 
ATOM     47  C   UNL     1       4.472  -0.365  10.838  1.00  0.00     0.049 A 
ATOM     48  N   UNL     1       5.630   2.385  10.484  1.00  0.00    -0.248 NA
ATOM     49  C   UNL     1       7.181   1.509   8.980  1.00  0.00     0.031 C 
ATOM     50  C   UNL     1       3.890  -1.688  11.070  1.00  0.00     0.029 A 
ATOM     51  N   UNL     1       3.675   0.482  11.565  1.00  0.00    -0.354 N 
ATOM     52  C   UNL     1       6.467   3.405  10.045  1.00  0.00     0.074 A 
ATOM     53  C   UNL     1       7.420   2.805   9.137  1.00  0.00     0.031 C 
ATOM     54  C   UNL     1       2.802  -1.560  11.842  1.00  0.00     0.029 A 
ATOM     55  C   UNL     1       2.647  -0.158  12.214  1.00  0.00     0.049 A 
ATOM     56  H   UNL     1       3.825   1.454  11.616  1.00  0.00     0.167 HD
ATOM     57  C   UNL     1       6.433   4.721  10.358  1.00  0.00     0.034 A 
ATOM     58  C   UNL     1       1.692   0.322  13.033  1.00  0.00     0.034 A 
ATOM     59  C   UNL     1       5.441   5.326  11.205  1.00  0.00     0.049 A 
ATOM     60  C   UNL     1       1.666   1.787  13.348  1.00  0.00     0.074 A 
ATOM     61  C   UNL     1       5.301   6.662  11.543  1.00  0.00     0.029 A 
ATOM     62  N   UNL     1       4.415   4.643  11.837  1.00  0.00    -0.354 N 
ATOM     63  N   UNL     1       2.440   2.737  12.885  1.00  0.00    -0.248 NA
ATOM     64  C   UNL     1       0.638   2.248  14.291  1.00  0.00     0.031 C 
ATOM     65  C   UNL     1       4.189   6.785  12.382  1.00  0.00     0.029 A 
ATOM     66  C   UNL     1       3.636   5.528  12.562  1.00  0.00     0.049 A 
ATOM     67  H   UNL     1       4.262   3.672  11.778  1.00  0.00     0.167 HD
ATOM     68  C   UNL     1       1.994   3.911  13.477  1.00  0.00     0.074 A 
ATOM     69  C   UNL     1       0.864   3.556  14.313  1.00  0.00     0.031 C 
ATOM     70  C   UNL     1       2.492   5.164  13.356  1.00  0.00     0.034 A 
BRANCH  57  71
ATOM     71  C   UNL     1       7.467   5.630   9.748  1.00  0.00     0.023 A 
ATOM     72  C   UNL     1       7.286   6.093   8.430  1.00  0.00     0.012 A 
ATOM     73  C   UNL     1       8.544   6.119  10.514  1.00  0.00     0.148 A 
ATOM     74  C   UNL     1       8.165   7.026   7.880  1.00  0.00     0.002 A 
ATOM     75  C   UNL     1       9.401   7.069   9.968  1.00  0.00     0.091 A 
ATOM     76  F   UNL     1       8.700   5.657  11.763  1.00  0.00    -0.205 F 
ATOM     77  C   UNL     1       9.215   7.520   8.651  1.00  0.00     0.022 A 
BRANCH  75  78
ATOM     78  S   UNL     1      10.751   7.813  10.892  1.00  0.00     0.127 S 
ATOM     79  O   UNL     1      11.916   7.310  10.165  1.00  0.00    -0.237 OA
ATOM     80  O   UNL     1      10.493   9.242  10.716  1.00  0.00    -0.237 OA
ATOM     81  O   UNL     1      10.620   7.330  12.259  1.00  0.00    -0.744 OA
ENDBRANCH  75  78
ENDBRANCH  57  71
BRANCH  58  82
ATOM     82  C   UNL     1       0.670  -0.615  13.570  1.00  0.00     0.023 A 
ATOM     83  C   UNL     1      -0.628  -0.599  13.029  1.00  0.00     0.012 A 
ATOM     84  C   UNL     1       1.012  -1.592  14.525  1.00  0.00     0.148 A 
ATOM     85  C   UNL     1      -1.571  -1.547  13.427  1.00  0.00     0.002 A 
ATOM     86  C   UNL     1       0.084  -2.562  14.880  1.00  0.00     0.091 A 
ATOM     87  F   UNL     1       2.254  -1.577  15.029  1.00  0.00    -0.205 F 
ATOM     88  C   UNL     1      -1.211  -2.536  14.339  1.00  0.00     0.022 A 
BRANCH  86  89
ATOM     89  S   UNL     1       0.499  -3.951  15.941  1.00  0.00     0.127 S 
ATOM     90  O   UNL     1      -0.315  -3.677  17.123  1.00  0.00    -0.237 OA
ATOM     91  O   UNL     1       0.053  -5.088  15.135  1.00  0.00    -0.237 OA
ATOM     92  O   UNL     1       1.940  -3.881  16.139  1.00  0.00    -0.744 OA
ENDBRANCH  86  89
ENDBRANCH  58  82
BRANCH  70  93
ATOM     93  C   UNL     1       1.831   6.259  14.143  1.00  0.00     0.023 A 
ATOM     94  C   UNL     1       2.153   6.412  15.505  1.00  0.00     0.012 A 
ATOM     95  C   UNL     1       0.993   7.197  13.513  1.00  0.00     0.148 A 
ATOM     96  C   UNL     1       1.642   7.484  16.234  1.00  0.00     0.002 A 
ATOM     97  C   UNL     1       0.512   8.281  14.237  1.00  0.00     0.091 A 
ATOM     98  F   UNL     1       0.697   7.020  12.217  1.00  0.00    -0.205 F 
ATOM     99  C   UNL     1       0.832   8.424  15.598  1.00  0.00     0.022 A 
BRANCH  97 100
ATOM    100  S   UNL     1      -0.478   9.581  13.493  1.00  0.00     0.127 S 
ATOM    101  O   UNL     1      -1.766   9.392  14.159  1.00  0.00    -0.237 OA
ATOM    102  O   UNL     1       0.245  10.788  13.893  1.00  0.00    -0.237 OA
ATOM    103  O   UNL     1      -0.478   9.320  12.060  1.00  0.00    -0.744 OA
ENDBRANCH  97 100
ENDBRANCH  70  93
ENDBRANCH  44  45
ENDBRANCH  36  39
ENDBRANCH  34  35
ENDBRANCH  33  34
ENDBRANCH  32  33
ENDBRANCH   1  32
TORSDOF 20
