REMARK SMILES [NH3+][C@@H]1C=C[C@H](C(=O)N(CC(=O)NCCCCCCNC(=O)c2ccc(-c3c4nc(c(-c5cccc(S(=O)(=O)[O-])c5F)c5ccc([nH]5)c(-c5cccc(S(=O)(=O)[O-])c5F)c5nc(c(-c6cccc(S(=O)(=O)[O-])c6F)c6ccc3[nH]6)C=C5)C=C4)cc2)c2ccccc2)C1
REMARK SMILES IDX 15 1 14 2 13 3 12 4 10 5 11 6 9 8 8 9 6 10 7 11 5 12 2 13
REMARK SMILES IDX 3 14 91 15 4 16 1 17 85 21 86 22 90 23 87 24 89 25 88 26
REMARK SMILES IDX 16 27 17 28 18 29 19 30 20 31 21 33 22 34 23 35 84 36 24 37
REMARK SMILES IDX 83 38 25 39 26 40 27 41 77 42 28 43 82 44 76 45 78 46 29 47
REMARK SMILES IDX 81 48 75 49 74 50 30 52 62 53 42 54 61 55 43 56 46 57 60 58
REMARK SMILES IDX 79 59 44 60 45 61 59 63 80 64 47 65 31 66 32 67 40 68 33 69
REMARK SMILES IDX 35 70 41 71 34 72 36 73 37 74 38 75 39 76 63 77 64 78 72 79
REMARK SMILES IDX 65 80 67 81 73 82 66 83 68 84 69 85 70 86 71 87 48 88 49 89
REMARK SMILES IDX 57 90 50 91 52 92 58 93 51 94 53 95 54 96 55 97 56 98
REMARK H PARENT 12 7 1 18 1 19 1 20 19 32 78 51 46 62
REMARK Flexibility Score: inf
ROOT
ATOM      1  C   UNL     1      -2.922  -3.933   3.893  1.00  0.00     0.002 C 
ENDROOT
BRANCH   1   2
ATOM      2  C   UNL     1      -2.255  -3.946   2.514  1.00  0.00     0.021 C 
BRANCH   2   3
ATOM      3  C   UNL     1      -0.829  -4.483   2.535  1.00  0.00     0.116 C 
BRANCH   3   4
ATOM      4  N   UNL     1      -0.767  -5.913   2.692  1.00  0.00    -0.355 N 
ATOM      5  C   UNL     1      -0.408  -6.849   1.771  1.00  0.00     0.240 C 
ATOM      6  O   UNL     1      -0.226  -8.001   2.180  1.00  0.00    -0.273 OA
ATOM      7  H   UNL     1      -1.016  -6.258   3.579  1.00  0.00     0.163 HD
BRANCH   5   8
ATOM      8  C   UNL     1      -0.103  -6.485   0.303  1.00  0.00     0.225 C 
BRANCH   8   9
ATOM      9  N   UNL     1      -1.028  -5.617  -0.468  1.00  0.00    -0.303 N 
BRANCH   9  10
ATOM     10  C   UNL     1      -0.739  -4.313  -0.924  1.00  0.00     0.234 C 
ATOM     11  O   UNL     1      -1.591  -3.616  -1.492  1.00  0.00    -0.274 OA
BRANCH  10  12
ATOM     12  C   UNL     1       0.648  -3.673  -0.647  1.00  0.00     0.108 C 
ATOM     13  C   UNL     1       0.586  -1.222  -0.975  1.00  0.00     0.205 C 
ATOM     14  C   UNL     1       1.322  -1.918  -2.069  1.00  0.00     0.033 C 
ATOM     15  C   UNL     1       0.488  -2.321   0.088  1.00  0.00     0.087 C 
ATOM     16  C   UNL     1       1.346  -3.248  -1.907  1.00  0.00    -0.012 C 
BRANCH  13  17
ATOM     17  N   UNL     1      -0.715  -0.797  -1.463  1.00  0.00    -0.352 N 
ATOM     18  H   UNL     1      -0.593  -0.067  -2.165  1.00  0.00     0.345 HD
ATOM     19  H   UNL     1      -1.267  -0.433  -0.686  1.00  0.00     0.345 HD
ATOM     20  H   UNL     1      -1.199  -1.593  -1.879  1.00  0.00     0.345 HD
ENDBRANCH  13  17
ENDBRANCH  10  12
ENDBRANCH   9  10
BRANCH   9  21
ATOM     21  C   UNL     1      -2.275  -6.247  -0.867  1.00  0.00     0.044 A 
ATOM     22  C   UNL     1      -2.966  -7.127  -0.018  1.00  0.00     0.026 A 
ATOM     23  C   UNL     1      -2.816  -6.034  -2.145  1.00  0.00     0.026 A 
ATOM     24  C   UNL     1      -4.153  -7.752  -0.420  1.00  0.00     0.002 A 
ATOM     25  C   UNL     1      -3.994  -6.670  -2.555  1.00  0.00     0.002 A 
ATOM     26  C   UNL     1      -4.665  -7.528  -1.691  1.00  0.00     0.000 A 
ENDBRANCH   9  21
ENDBRANCH   8   9
ENDBRANCH   5   8
ENDBRANCH   3   4
ENDBRANCH   2   3
ENDBRANCH   1   2
BRANCH   1  27
ATOM     27  C   UNL     1      -2.138  -3.191   4.981  1.00  0.00     0.002 C 
BRANCH  27  28
ATOM     28  C   UNL     1      -1.769  -1.743   4.642  1.00  0.00     0.021 C 
BRANCH  28  29
ATOM     29  C   UNL     1      -2.965  -0.828   4.402  1.00  0.00     0.116 C 
BRANCH  29  30
ATOM     30  N   UNL     1      -3.816  -0.734   5.580  1.00  0.00    -0.352 N 
ATOM     31  C   UNL     1      -4.205   0.376   6.283  1.00  0.00     0.251 C 
ATOM     32  H   UNL     1      -4.160  -1.591   5.920  1.00  0.00     0.163 HD
ATOM     33  O   UNL     1      -4.739   0.247   7.385  1.00  0.00    -0.269 OA
BRANCH  31  34
ATOM     34  C   UNL     1      -3.976   1.722   5.722  1.00  0.00     0.039 A 
ATOM     35  C   UNL     1      -3.488   2.732   6.555  1.00  0.00     0.014 A 
ATOM     36  C   UNL     1      -4.249   1.989   4.378  1.00  0.00     0.014 A 
ATOM     37  C   UNL     1      -3.223   3.997   6.025  1.00  0.00     0.010 A 
ATOM     38  C   UNL     1      -3.911   3.225   3.835  1.00  0.00     0.010 A 
ATOM     39  C   UNL     1      -3.404   4.245   4.654  1.00  0.00    -0.014 A 
BRANCH  39  40
ATOM     40  C   UNL     1      -3.062   5.560   4.055  1.00  0.00     0.031 A 
ATOM     41  C   UNL     1      -4.131   6.397   3.405  1.00  0.00     0.074 A 
ATOM     42  C   UNL     1      -1.776   5.961   4.019  1.00  0.00     0.049 A 
ATOM     43  N   UNL     1      -4.016   7.536   2.774  1.00  0.00    -0.248 NA
ATOM     44  C   UNL     1      -5.507   5.872   3.445  1.00  0.00     0.031 C 
ATOM     45  C   UNL     1      -0.639   5.205   4.551  1.00  0.00     0.029 A 
ATOM     46  N   UNL     1      -1.203   7.089   3.486  1.00  0.00    -0.354 N 
ATOM     47  C   UNL     1      -5.289   7.846   2.311  1.00  0.00     0.074 A 
ATOM     48  C   UNL     1      -6.157   6.758   2.705  1.00  0.00     0.031 C 
ATOM     49  C   UNL     1       0.492   5.892   4.322  1.00  0.00     0.029 A 
ATOM     50  C   UNL     1       0.168   7.115   3.595  1.00  0.00     0.049 A 
ATOM     51  H   UNL     1      -1.724   7.811   3.066  1.00  0.00     0.167 HD
ATOM     52  C   UNL     1      -5.705   8.947   1.641  1.00  0.00     0.034 A 
ATOM     53  C   UNL     1       1.066   8.016   3.149  1.00  0.00     0.034 A 
ATOM     54  C   UNL     1      -4.845  10.042   1.282  1.00  0.00     0.049 A 
ATOM     55  C   UNL     1       0.574   9.242   2.428  1.00  0.00     0.074 A 
ATOM     56  C   UNL     1      -5.186  11.240   0.681  1.00  0.00     0.029 A 
ATOM     57  N   UNL     1      -3.473  10.068   1.477  1.00  0.00    -0.354 N 
ATOM     58  N   UNL     1      -0.656   9.591   2.137  1.00  0.00    -0.248 NA
ATOM     59  C   UNL     1       1.589  10.217   2.004  1.00  0.00     0.031 C 
ATOM     60  C   UNL     1      -4.014  11.976   0.480  1.00  0.00     0.029 A 
ATOM     61  C   UNL     1      -2.949  11.255   0.995  1.00  0.00     0.049 A 
ATOM     62  H   UNL     1      -2.949   9.348   1.897  1.00  0.00     0.167 HD
ATOM     63  C   UNL     1      -0.567  10.841   1.535  1.00  0.00     0.074 A 
ATOM     64  C   UNL     1       0.838  11.196   1.519  1.00  0.00     0.031 C 
ATOM     65  C   UNL     1      -1.556  11.619   1.032  1.00  0.00     0.034 A 
BRANCH  52  66
ATOM     66  C   UNL     1      -7.167   9.043   1.286  1.00  0.00     0.023 A 
ATOM     67  C   UNL     1      -8.123   9.241   2.304  1.00  0.00     0.012 A 
ATOM     68  C   UNL     1      -7.590   8.999  -0.057  1.00  0.00     0.148 A 
ATOM     69  C   UNL     1      -9.478   9.354   1.996  1.00  0.00     0.002 A 
ATOM     70  C   UNL     1      -8.936   9.162  -0.361  1.00  0.00     0.091 A 
ATOM     71  F   UNL     1      -6.670   8.792  -1.011  1.00  0.00    -0.205 F 
ATOM     72  C   UNL     1      -9.882   9.326   0.664  1.00  0.00     0.022 A 
BRANCH  70  73
ATOM     73  S   UNL     1      -9.550   9.226  -2.048  1.00  0.00     0.127 S 
ATOM     74  O   UNL     1     -10.302   7.975  -2.136  1.00  0.00    -0.237 OA
ATOM     75  O   UNL     1     -10.377  10.433  -2.027  1.00  0.00    -0.237 OA
ATOM     76  O   UNL     1      -8.374   9.309  -2.902  1.00  0.00    -0.744 OA
ENDBRANCH  70  73
ENDBRANCH  52  66
BRANCH  53  77
ATOM     77  C   UNL     1       2.518   7.820   3.420  1.00  0.00     0.023 A 
ATOM     78  C   UNL     1       3.178   8.682   4.318  1.00  0.00     0.012 A 
ATOM     79  C   UNL     1       3.244   6.778   2.812  1.00  0.00     0.148 A 
ATOM     80  C   UNL     1       4.541   8.534   4.577  1.00  0.00     0.002 A 
ATOM     81  C   UNL     1       4.588   6.599   3.118  1.00  0.00     0.091 A 
ATOM     82  F   UNL     1       2.601   5.973   1.955  1.00  0.00    -0.205 F 
ATOM     83  C   UNL     1       5.243   7.488   3.985  1.00  0.00     0.022 A 
BRANCH  81  84
ATOM     84  S   UNL     1       5.539   5.203   2.509  1.00  0.00     0.127 S 
ATOM     85  O   UNL     1       6.469   5.853   1.588  1.00  0.00    -0.237 OA
ATOM     86  O   UNL     1       6.145   4.692   3.739  1.00  0.00    -0.237 OA
ATOM     87  O   UNL     1       4.571   4.302   1.898  1.00  0.00    -0.744 OA
ENDBRANCH  81  84
ENDBRANCH  53  77
BRANCH  65  88
ATOM     88  C   UNL     1      -1.173  12.961   0.464  1.00  0.00     0.023 A 
ATOM     89  C   UNL     1      -0.483  13.040  -0.761  1.00  0.00     0.012 A 
ATOM     90  C   UNL     1      -1.571  14.149   1.111  1.00  0.00     0.148 A 
ATOM     91  C   UNL     1      -0.165  14.279  -1.317  1.00  0.00     0.002 A 
ATOM     92  C   UNL     1      -1.299  15.378   0.525  1.00  0.00     0.091 A 
ATOM     93  F   UNL     1      -2.212  14.052   2.285  1.00  0.00    -0.205 F 
ATOM     94  C   UNL     1      -0.584  15.446  -0.681  1.00  0.00     0.022 A 
BRANCH  92  95
ATOM     95  S   UNL     1      -1.886  16.928   1.218  1.00  0.00     0.127 S 
ATOM     96  O   UNL     1      -0.640  17.538   1.680  1.00  0.00    -0.237 OA
ATOM     97  O   UNL     1      -2.489  17.578   0.054  1.00  0.00    -0.237 OA
ATOM     98  O   UNL     1      -2.830  16.569   2.268  1.00  0.00    -0.744 OA
ENDBRANCH  92  95
ENDBRANCH  65  88
ENDBRANCH  39  40
ENDBRANCH  31  34
ENDBRANCH  29  30
ENDBRANCH  28  29
ENDBRANCH  27  28
ENDBRANCH   1  27
TORSDOF 21
