REMARK SMILES Cc1ccc(C)c(/C=C2\SC(=S)N(CC(=O)NCCCCCCNC(=O)c3ccc(-c4c5nc(c(-c6cccc(S(=O)(=O)[O-])c6F)c6ccc([nH]6)c(-c6cccc(S(=O)(=O)[O-])c6F)c6nc(c(-c7cccc(S(=O)(=O)[O-])c7F)c7ccc4[nH]7)C=C6)C=C5)cc3)C2=O)c1
REMARK SMILES IDX 21 1 20 2 19 3 18 4 17 5 15 6 16 7 14 9 13 10 8 11 9 12
REMARK SMILES IDX 10 13 90 14 11 15 91 16 12 17 7 18 1 19 2 20 3 21 92 22 4 23
REMARK SMILES IDX 5 24 6 25 22 26 23 27 24 28 25 29 26 31 27 32 28 33 89 34
REMARK SMILES IDX 29 35 88 36 30 37 31 38 32 39 82 40 33 41 87 42 81 43 83 44
REMARK SMILES IDX 34 45 86 46 80 47 79 48 35 50 67 51 47 52 66 53 48 54 51 55
REMARK SMILES IDX 65 56 84 57 49 58 50 59 64 61 85 62 52 63 36 64 37 65 45 66
REMARK SMILES IDX 38 67 40 68 46 69 39 70 41 71 42 72 43 73 44 74 68 75 69 76
REMARK SMILES IDX 77 77 70 78 72 79 78 80 71 81 73 82 74 83 75 84 76 85 53 86
REMARK SMILES IDX 54 87 62 88 55 89 57 90 63 91 56 92 58 93 59 94 60 95 61 96
REMARK H PARENT 17 8 24 30 83 49 51 60
REMARK Flexibility Score: inf
ROOT
ATOM      1  C   UNL     1      -5.910   3.894  -6.164  1.00  0.00     0.002 C 
ENDROOT
BRANCH   1   2
ATOM      2  C   UNL     1      -5.459   3.478  -4.756  1.00  0.00     0.002 C 
BRANCH   2   3
ATOM      3  C   UNL     1      -3.995   3.740  -4.395  1.00  0.00     0.021 C 
BRANCH   3   4
ATOM      4  C   UNL     1      -3.565   5.194  -4.555  1.00  0.00     0.116 C 
BRANCH   4   5
ATOM      5  N   UNL     1      -4.191   6.069  -3.586  1.00  0.00    -0.355 N 
ATOM      6  C   UNL     1      -3.674   7.010  -2.749  1.00  0.00     0.240 C 
ATOM      7  O   UNL     1      -4.478   7.830  -2.286  1.00  0.00    -0.273 OA
ATOM      8  H   UNL     1      -5.168   5.965  -3.521  1.00  0.00     0.163 HD
BRANCH   6   9
ATOM      9  C   UNL     1      -2.165   7.219  -2.538  1.00  0.00     0.227 C 
BRANCH   9  10
ATOM     10  N   UNL     1      -1.334   6.023  -2.533  1.00  0.00    -0.283 N 
ATOM     11  C   UNL     1      -0.977   2.787  -1.035  1.00  0.00     0.029 C 
ATOM     12  C   UNL     1      -0.742   3.897  -1.733  1.00  0.00     0.081 C 
ATOM     13  S   UNL     1       0.401   4.171  -2.980  1.00  0.00    -0.054 SA
ATOM     14  C   UNL     1      -1.618   5.084  -1.553  1.00  0.00     0.266 C 
ATOM     15  C   UNL     1      -0.258   5.762  -3.349  1.00  0.00     0.148 C 
ATOM     16  O   UNL     1      -2.499   5.203  -0.731  1.00  0.00    -0.268 OA
ATOM     17  S   UNL     1       0.370   6.728  -4.560  1.00  0.00    -0.052 S 
BRANCH  11  18
ATOM     18  C   UNL     1      -0.304   1.485  -1.109  1.00  0.00    -0.021 A 
ATOM     19  C   UNL     1       3.037  -0.052  -0.120  1.00  0.00     0.044 C 
ATOM     20  C   UNL     1       1.612   0.089  -0.558  1.00  0.00    -0.051 A 
ATOM     21  C   UNL     1       0.835  -1.051  -0.782  1.00  0.00     0.004 A 
ATOM     22  C   UNL     1       1.031   1.354  -0.712  1.00  0.00     0.011 A 
ATOM     23  C   UNL     1      -0.480  -0.926  -1.224  1.00  0.00     0.004 A 
ATOM     24  C   UNL     1      -1.048   0.339  -1.427  1.00  0.00    -0.044 A 
ATOM     25  C   UNL     1      -2.462   0.446  -1.907  1.00  0.00     0.045 C 
ENDBRANCH  11  18
ENDBRANCH   9  10
ENDBRANCH   6   9
ENDBRANCH   4   5
ENDBRANCH   3   4
ENDBRANCH   2   3
ENDBRANCH   1   2
BRANCH   1  26
ATOM     26  C   UNL     1      -5.046   3.489  -7.371  1.00  0.00     0.021 C 
BRANCH  26  27
ATOM     27  C   UNL     1      -4.998   2.007  -7.746  1.00  0.00     0.116 C 
BRANCH  27  28
ATOM     28  N   UNL     1      -6.322   1.447  -8.054  1.00  0.00    -0.352 N 
ATOM     29  C   UNL     1      -6.864   0.185  -7.878  1.00  0.00     0.251 C 
ATOM     30  H   UNL     1      -6.941   2.093  -8.465  1.00  0.00     0.163 HD
ATOM     31  O   UNL     1      -7.831  -0.149  -8.560  1.00  0.00    -0.269 OA
BRANCH  29  32
ATOM     32  C   UNL     1      -6.322  -0.749  -6.865  1.00  0.00     0.039 A 
ATOM     33  C   UNL     1      -6.573  -2.125  -6.873  1.00  0.00     0.014 A 
ATOM     34  C   UNL     1      -5.562  -0.218  -5.839  1.00  0.00     0.014 A 
ATOM     35  C   UNL     1      -6.061  -2.913  -5.834  1.00  0.00     0.010 A 
ATOM     36  C   UNL     1      -4.841  -1.008  -4.997  1.00  0.00     0.010 A 
ATOM     37  C   UNL     1      -5.209  -2.329  -4.884  1.00  0.00    -0.014 A 
BRANCH  37  38
ATOM     38  C   UNL     1      -4.519  -3.062  -3.832  1.00  0.00     0.031 A 
ATOM     39  C   UNL     1      -3.573  -4.045  -4.392  1.00  0.00     0.074 A 
ATOM     40  C   UNL     1      -4.551  -2.698  -2.526  1.00  0.00     0.049 A 
ATOM     41  N   UNL     1      -3.773  -5.317  -4.488  1.00  0.00    -0.248 NA
ATOM     42  C   UNL     1      -2.410  -3.562  -5.153  1.00  0.00     0.031 C 
ATOM     43  C   UNL     1      -5.280  -1.579  -1.910  1.00  0.00     0.029 A 
ATOM     44  N   UNL     1      -3.831  -3.186  -1.473  1.00  0.00    -0.354 N 
ATOM     45  C   UNL     1      -2.605  -5.815  -5.047  1.00  0.00     0.074 A 
ATOM     46  C   UNL     1      -1.975  -4.701  -5.699  1.00  0.00     0.031 C 
ATOM     47  C   UNL     1      -4.835  -1.378  -0.644  1.00  0.00     0.029 A 
ATOM     48  C   UNL     1      -3.859  -2.399  -0.307  1.00  0.00     0.049 A 
ATOM     49  H   UNL     1      -3.328  -4.030  -1.526  1.00  0.00     0.167 HD
ATOM     50  C   UNL     1      -2.089  -6.995  -4.608  1.00  0.00     0.034 A 
ATOM     51  C   UNL     1      -3.098  -2.587   0.811  1.00  0.00     0.034 A 
ATOM     52  C   UNL     1      -3.051  -7.695  -3.783  1.00  0.00     0.049 A 
ATOM     53  C   UNL     1      -2.789  -4.044   0.784  1.00  0.00     0.074 A 
ATOM     54  C   UNL     1      -4.325  -8.193  -3.958  1.00  0.00     0.029 A 
ATOM     55  N   UNL     1      -2.862  -7.560  -2.427  1.00  0.00    -0.354 N 
ATOM     56  N   UNL     1      -3.697  -4.965   0.948  1.00  0.00    -0.248 NA
ATOM     57  C   UNL     1      -1.528  -4.517   0.227  1.00  0.00     0.031 C 
ATOM     58  C   UNL     1      -4.987  -7.985  -2.711  1.00  0.00     0.029 A 
ATOM     59  C   UNL     1      -4.076  -7.431  -1.810  1.00  0.00     0.049 A 
ATOM     60  H   UNL     1      -1.989  -7.558  -1.972  1.00  0.00     0.167 HD
ATOM     61  C   UNL     1      -3.318  -5.978   0.082  1.00  0.00     0.074 A 
ATOM     62  C   UNL     1      -1.906  -5.731  -0.188  1.00  0.00     0.031 C 
ATOM     63  C   UNL     1      -4.263  -6.725  -0.559  1.00  0.00     0.034 A 
BRANCH  50  64
ATOM     64  C   UNL     1      -0.611  -7.317  -4.510  1.00  0.00     0.023 A 
ATOM     65  C   UNL     1      -0.278  -8.630  -4.106  1.00  0.00     0.012 A 
ATOM     66  C   UNL     1       0.439  -6.370  -4.509  1.00  0.00     0.148 A 
ATOM     67  C   UNL     1       1.006  -8.961  -3.661  1.00  0.00     0.002 A 
ATOM     68  C   UNL     1       1.731  -6.720  -4.135  1.00  0.00     0.091 A 
ATOM     69  F   UNL     1       0.191  -5.079  -4.730  1.00  0.00    -0.205 F 
ATOM     70  C   UNL     1       2.014  -8.007  -3.680  1.00  0.00     0.022 A 
BRANCH  68  71
ATOM     71  S   UNL     1       3.069  -5.517  -4.166  1.00  0.00     0.127 S 
ATOM     72  O   UNL     1       3.236  -5.231  -2.744  1.00  0.00    -0.237 OA
ATOM     73  O   UNL     1       4.151  -6.287  -4.779  1.00  0.00    -0.237 OA
ATOM     74  O   UNL     1       2.586  -4.411  -4.984  1.00  0.00    -0.744 OA
ENDBRANCH  68  71
ENDBRANCH  50  64
BRANCH  51  75
ATOM     75  C   UNL     1      -2.542  -1.721   1.911  1.00  0.00     0.023 A 
ATOM     76  C   UNL     1      -1.741  -2.352   2.898  1.00  0.00     0.012 A 
ATOM     77  C   UNL     1      -2.534  -0.308   1.915  1.00  0.00     0.148 A 
ATOM     78  C   UNL     1      -0.883  -1.637   3.744  1.00  0.00     0.002 A 
ATOM     79  C   UNL     1      -1.663   0.408   2.755  1.00  0.00     0.091 A 
ATOM     80  F   UNL     1      -3.362   0.344   1.095  1.00  0.00    -0.205 F 
ATOM     81  C   UNL     1      -0.819  -0.257   3.649  1.00  0.00     0.022 A 
BRANCH  79  82
ATOM     82  S   UNL     1      -1.550   2.209   2.764  1.00  0.00     0.127 S 
ATOM     83  O   UNL     1      -1.580   2.519   4.194  1.00  0.00    -0.237 OA
ATOM     84  O   UNL     1      -0.258   2.451   2.126  1.00  0.00    -0.237 OA
ATOM     85  O   UNL     1      -2.716   2.669   2.022  1.00  0.00    -0.744 OA
ENDBRANCH  79  82
ENDBRANCH  51  75
BRANCH  63  86
ATOM     86  C   UNL     1      -5.674  -6.640  -0.030  1.00  0.00     0.023 A 
ATOM     87  C   UNL     1      -6.442  -5.457  -0.080  1.00  0.00     0.012 A 
ATOM     88  C   UNL     1      -6.275  -7.819   0.432  1.00  0.00     0.148 A 
ATOM     89  C   UNL     1      -7.770  -5.446   0.355  1.00  0.00     0.002 A 
ATOM     90  C   UNL     1      -7.609  -7.816   0.819  1.00  0.00     0.091 A 
ATOM     91  F   UNL     1      -5.531  -8.935   0.472  1.00  0.00    -0.205 F 
ATOM     92  C   UNL     1      -8.358  -6.629   0.793  1.00  0.00     0.022 A 
BRANCH  90  93
ATOM     93  S   UNL     1      -8.446  -9.333   1.279  1.00  0.00     0.127 S 
ATOM     94  O   UNL     1      -8.505  -9.220   2.735  1.00  0.00    -0.237 OA
ATOM     95  O   UNL     1      -9.736  -9.200   0.601  1.00  0.00    -0.237 OA
ATOM     96  O   UNL     1      -7.616 -10.417   0.765  1.00  0.00    -0.744 OA
ENDBRANCH  90  93
ENDBRANCH  63  86
ENDBRANCH  37  38
ENDBRANCH  29  32
ENDBRANCH  27  28
ENDBRANCH  26  27
ENDBRANCH   1  26
TORSDOF 18
