REMARK SMILES CCN(CC(C)C)C(=O)N[C@](C)(CC)C(=O)NCCCCCCNC(=O)c1ccc(-c2c3nc(c(-c4cccc(S(=O)(=O)[O-])c4F)c4ccc([nH]4)c(-c4cccc(S(=O)(=O)[O-])c4F)c4nc(c(-c5cccc(S(=O)(=O)[O-])c5F)c5ccc2[nH]5)C=C4)C=C3)cc1
REMARK SMILES IDX 20 1 19 2 18 3 17 4 15 5 16 6 11 8 12 9 10 10 8 11 9 12 3 14
REMARK SMILES IDX 2 15 1 16 4 17 5 18 6 19 7 20 13 21 14 22 21 23 22 24 23 25
REMARK SMILES IDX 24 26 25 27 26 29 27 30 28 31 89 32 29 33 88 34 30 35 31 36
REMARK SMILES IDX 32 37 82 38 33 39 87 40 81 41 83 42 34 43 86 44 80 45 79 46
REMARK SMILES IDX 35 48 67 49 47 50 66 51 48 52 51 53 65 54 84 55 49 56 50 57
REMARK SMILES IDX 64 59 85 60 52 61 36 62 37 63 45 64 38 65 40 66 46 67 39 68
REMARK SMILES IDX 41 69 42 70 43 71 44 72 68 73 69 74 77 75 70 76 72 77 78 78
REMARK SMILES IDX 71 79 73 80 74 81 75 82 76 83 53 84 54 85 62 86 55 87 57 88
REMARK SMILES IDX 63 89 56 90 58 91 59 92 60 93 61 94
REMARK H PARENT 17 7 10 13 24 28 83 47 51 58
REMARK Flexibility Score: inf
ROOT
ATOM      1  C   UNL     1      -2.706   4.342  -5.609  1.00  0.00     0.002 C 
ENDROOT
BRANCH   1   2
ATOM      2  C   UNL     1      -1.269   4.680  -6.027  1.00  0.00     0.021 C 
BRANCH   2   3
ATOM      3  C   UNL     1      -0.567   5.724  -5.149  1.00  0.00     0.116 C 
BRANCH   3   4
ATOM      4  N   UNL     1      -0.546   5.272  -3.792  1.00  0.00    -0.354 N 
ATOM      5  C   UNL     1       0.276   4.318  -3.320  1.00  0.00     0.245 C 
ATOM      6  O   UNL     1      -0.261   3.468  -2.592  1.00  0.00    -0.272 OA
ATOM      7  H   UNL     1      -1.176   5.688  -3.160  1.00  0.00     0.163 HD
BRANCH   5   8
ATOM      8  C   UNL     1       1.773   4.193  -3.726  1.00  0.00     0.117 C 
ATOM      9  C   UNL     1       2.302   4.240  -2.268  1.00  0.00     0.045 C 
BRANCH   8  10
ATOM     10  N   UNL     1       2.726   5.180  -4.204  1.00  0.00    -0.324 N 
ATOM     11  C   UNL     1       4.076   4.959  -4.235  1.00  0.00     0.318 C 
ATOM     12  O   UNL     1       4.773   5.971  -4.363  1.00  0.00    -0.249 OA
ATOM     13  H   UNL     1       2.385   6.048  -4.520  1.00  0.00     0.166 HD
BRANCH  11  14
ATOM     14  N   UNL     1       4.641   3.669  -4.224  1.00  0.00    -0.325 N 
BRANCH  14  15
ATOM     15  C   UNL     1       5.813   3.667  -5.148  1.00  0.00     0.118 C 
ATOM     16  C   UNL     1       5.587   4.303  -6.532  1.00  0.00     0.027 C 
ENDBRANCH  14  15
BRANCH  14  17
ATOM     17  C   UNL     1       4.317   2.219  -3.771  1.00  0.00     0.124 C 
BRANCH  17  18
ATOM     18  C   UNL     1       3.653   1.373  -2.555  1.00  0.00     0.002 C 
ATOM     19  C   UNL     1       3.256   1.814  -1.146  1.00  0.00     0.009 C 
ATOM     20  C   UNL     1       2.538   0.407  -3.005  1.00  0.00     0.009 C 
ENDBRANCH  17  18
ENDBRANCH  14  17
ENDBRANCH  11  14
ENDBRANCH   8  10
BRANCH   8  21
ATOM     21  C   UNL     1       1.750   3.275  -5.007  1.00  0.00     0.035 C 
ATOM     22  C   UNL     1       0.971   1.997  -5.229  1.00  0.00     0.007 C 
ENDBRANCH   8  21
ENDBRANCH   5   8
ENDBRANCH   3   4
ENDBRANCH   2   3
ENDBRANCH   1   2
BRANCH   1  23
ATOM     23  C   UNL     1      -3.613   5.561  -5.470  1.00  0.00     0.002 C 
BRANCH  23  24
ATOM     24  C   UNL     1      -3.513   6.535  -6.642  1.00  0.00     0.021 C 
BRANCH  24  25
ATOM     25  C   UNL     1      -3.768   5.885  -7.991  1.00  0.00     0.116 C 
BRANCH  25  26
ATOM     26  N   UNL     1      -5.163   5.509  -8.129  1.00  0.00    -0.352 N 
ATOM     27  C   UNL     1      -6.058   5.994  -9.046  1.00  0.00     0.251 C 
ATOM     28  H   UNL     1      -5.502   4.835  -7.496  1.00  0.00     0.163 HD
ATOM     29  O   UNL     1      -7.267   5.818  -8.908  1.00  0.00    -0.269 OA
BRANCH  27  30
ATOM     30  C   UNL     1      -5.526   6.746 -10.198  1.00  0.00     0.039 A 
ATOM     31  C   UNL     1      -6.018   8.022 -10.473  1.00  0.00     0.014 A 
ATOM     32  C   UNL     1      -4.473   6.205 -10.943  1.00  0.00     0.014 A 
ATOM     33  C   UNL     1      -5.421   8.780 -11.482  1.00  0.00     0.010 A 
ATOM     34  C   UNL     1      -3.830   6.994 -11.887  1.00  0.00     0.010 A 
ATOM     35  C   UNL     1      -4.308   8.282 -12.179  1.00  0.00    -0.014 A 
BRANCH  35  36
ATOM     36  C   UNL     1      -3.630   9.064 -13.242  1.00  0.00     0.031 A 
ATOM     37  C   UNL     1      -3.589   8.513 -14.643  1.00  0.00     0.074 A 
ATOM     38  C   UNL     1      -2.957  10.190 -12.932  1.00  0.00     0.049 A 
ATOM     39  N   UNL     1      -2.926   8.948 -15.681  1.00  0.00    -0.248 NA
ATOM     40  C   UNL     1      -4.371   7.290 -14.903  1.00  0.00     0.031 C 
ATOM     41  C   UNL     1      -2.872  10.790 -11.598  1.00  0.00     0.029 A 
ATOM     42  N   UNL     1      -2.178  11.009 -13.713  1.00  0.00    -0.354 N 
ATOM     43  C   UNL     1      -3.158   8.024 -16.692  1.00  0.00     0.074 A 
ATOM     44  C   UNL     1      -4.014   6.997 -16.145  1.00  0.00     0.031 C 
ATOM     45  C   UNL     1      -2.073  11.869 -11.650  1.00  0.00     0.029 A 
ATOM     46  C   UNL     1      -1.556  12.015 -13.007  1.00  0.00     0.049 A 
ATOM     47  H   UNL     1      -2.075  10.889 -14.684  1.00  0.00     0.167 HD
ATOM     48  C   UNL     1      -2.710   8.041 -17.968  1.00  0.00     0.034 A 
ATOM     49  C   UNL     1      -0.647  12.929 -13.403  1.00  0.00     0.034 A 
ATOM     50  C   UNL     1      -1.914   9.098 -18.524  1.00  0.00     0.049 A 
ATOM     51  C   UNL     1      -0.203  12.942 -14.843  1.00  0.00     0.074 A 
ATOM     52  C   UNL     1      -1.509   9.264 -19.837  1.00  0.00     0.029 A 
ATOM     53  N   UNL     1      -1.392  10.158 -17.803  1.00  0.00    -0.354 N 
ATOM     54  N   UNL     1      -0.566  12.154 -15.826  1.00  0.00    -0.248 NA
ATOM     55  C   UNL     1       0.754  13.988 -15.239  1.00  0.00     0.031 C 
ATOM     56  C   UNL     1      -0.707  10.405 -19.901  1.00  0.00     0.029 A 
ATOM     57  C   UNL     1      -0.652  10.973 -18.639  1.00  0.00     0.049 A 
ATOM     58  H   UNL     1      -1.527  10.308 -16.840  1.00  0.00     0.167 HD
ATOM     59  C   UNL     1       0.074  12.640 -16.961  1.00  0.00     0.074 A 
ATOM     60  C   UNL     1       0.840  13.796 -16.548  1.00  0.00     0.031 C 
ATOM     61  C   UNL     1       0.040  12.165 -18.229  1.00  0.00     0.034 A 
BRANCH  48  62
ATOM     62  C   UNL     1      -3.090   6.903 -18.875  1.00  0.00     0.023 A 
ATOM     63  C   UNL     1      -4.408   6.799 -19.360  1.00  0.00     0.012 A 
ATOM     64  C   UNL     1      -2.107   6.004 -19.336  1.00  0.00     0.148 A 
ATOM     65  C   UNL     1      -4.747   5.806 -20.278  1.00  0.00     0.002 A 
ATOM     66  C   UNL     1      -2.441   5.049 -20.286  1.00  0.00     0.091 A 
ATOM     67  F   UNL     1      -0.865   6.111 -18.844  1.00  0.00    -0.205 F 
ATOM     68  C   UNL     1      -3.762   4.943 -20.752  1.00  0.00     0.022 A 
BRANCH  66  69
ATOM     69  S   UNL     1      -1.229   3.950 -21.025  1.00  0.00     0.127 S 
ATOM     70  O   UNL     1      -1.682   2.645 -20.543  1.00  0.00    -0.237 OA
ATOM     71  O   UNL     1      -1.439   4.180 -22.454  1.00  0.00    -0.237 OA
ATOM     72  O   UNL     1       0.068   4.378 -20.520  1.00  0.00    -0.744 OA
ENDBRANCH  66  69
ENDBRANCH  48  62
BRANCH  49  73
ATOM     73  C   UNL     1      -0.105  13.929 -12.439  1.00  0.00     0.023 A 
ATOM     74  C   UNL     1      -0.410  15.295 -12.607  1.00  0.00     0.012 A 
ATOM     75  C   UNL     1       0.732  13.542 -11.375  1.00  0.00     0.148 A 
ATOM     76  C   UNL     1       0.152  16.259 -11.769  1.00  0.00     0.002 A 
ATOM     77  C   UNL     1       1.239  14.502 -10.506  1.00  0.00     0.091 A 
ATOM     78  F   UNL     1       1.022  12.240 -11.235  1.00  0.00    -0.205 F 
ATOM     79  C   UNL     1       0.970  15.863 -10.715  1.00  0.00     0.022 A 
BRANCH  77  80
ATOM     80  S   UNL     1       2.190  14.064  -9.048  1.00  0.00     0.127 S 
ATOM     81  O   UNL     1       3.542  14.443  -9.448  1.00  0.00    -0.237 OA
ATOM     82  O   UNL     1       1.587  14.919  -8.024  1.00  0.00    -0.237 OA
ATOM     83  O   UNL     1       1.959  12.640  -8.847  1.00  0.00    -0.744 OA
ENDBRANCH  77  80
ENDBRANCH  49  73
BRANCH  61  84
ATOM     84  C   UNL     1       0.780  12.927 -19.294  1.00  0.00     0.023 A 
ATOM     85  C   UNL     1       2.186  12.876 -19.356  1.00  0.00     0.012 A 
ATOM     86  C   UNL     1       0.064  13.598 -20.306  1.00  0.00     0.148 A 
ATOM     87  C   UNL     1       2.869  13.501 -20.399  1.00  0.00     0.002 A 
ATOM     88  C   UNL     1       0.747  14.170 -21.370  1.00  0.00     0.091 A 
ATOM     89  F   UNL     1      -1.274  13.644 -20.217  1.00  0.00    -0.205 F 
ATOM     90  C   UNL     1       2.150  14.133 -21.412  1.00  0.00     0.022 A 
BRANCH  88  91
ATOM     91  S   UNL     1      -0.097  14.908 -22.773  1.00  0.00     0.127 S 
ATOM     92  O   UNL     1       0.244  16.321 -22.615  1.00  0.00    -0.237 OA
ATOM     93  O   UNL     1       0.550  14.247 -23.905  1.00  0.00    -0.237 OA
ATOM     94  O   UNL     1      -1.509  14.589 -22.610  1.00  0.00    -0.744 OA
ENDBRANCH  88  91
ENDBRANCH  61  84
ENDBRANCH  35  36
ENDBRANCH  27  30
ENDBRANCH  25  26
ENDBRANCH  24  25
ENDBRANCH  23  24
ENDBRANCH   1  23
TORSDOF 22
