REMARK SMILES O=C(NCCCCCCNC(=O)[C@@H]1c2[nH]cnc2CCN1C(=O)CCCc1c[nH]c2ccccc12)c1ccc(-c2c3nc(c(-c4cccc(S(=O)(=O)[O-])c4F)c4ccc([nH]4)c(-c4cccc(S(=O)(=O)[O-])c4F)c4nc(c(-c5cccc(S(=O)(=O)[O-])c5F)c5ccc2[nH]5)C=C4)C=C3)cc1
REMARK SMILES IDX 7 1 6 2 5 3 4 4 3 5 1 6 2 7 36 9 37 10 98 11 38 12 97 13
REMARK SMILES IDX 39 14 40 15 41 16 91 17 42 18 96 19 90 20 92 21 43 22 95 23
REMARK SMILES IDX 89 24 88 25 44 27 76 28 56 29 75 30 57 31 60 32 74 33 93 34
REMARK SMILES IDX 58 35 59 36 73 38 94 39 61 40 45 41 46 42 54 43 47 44 49 45
REMARK SMILES IDX 55 46 48 47 50 48 51 49 52 50 53 51 77 52 78 53 86 54 79 55
REMARK SMILES IDX 81 56 87 57 80 58 82 59 83 60 84 61 85 62 62 63 63 64 71 65
REMARK SMILES IDX 64 66 66 67 72 68 65 69 67 70 68 71 69 72 70 73 8 74 9 75
REMARK SMILES IDX 10 76 11 77 12 79 13 80 14 81 21 82 15 83 18 84 20 85 16 86
REMARK SMILES IDX 17 88 19 89 22 90 23 91 24 92 25 93 26 94 27 95 28 96 35 97
REMARK SMILES IDX 29 98 30 99 34 100 31 102 33 103 32 104
REMARK H PARENT 3 8 92 26 60 37 10 78 15 87 29 101
REMARK Flexibility Score: inf
ROOT
ATOM      1  C   UNL     1       5.515  -1.166   3.416  1.00  0.00     0.002 C 
ENDROOT
BRANCH   1   2
ATOM      2  C   UNL     1       5.119  -1.782   2.068  1.00  0.00     0.002 C 
BRANCH   2   3
ATOM      3  C   UNL     1       3.921  -2.737   2.122  1.00  0.00     0.021 C 
BRANCH   3   4
ATOM      4  C   UNL     1       2.668  -2.123   2.744  1.00  0.00     0.116 C 
BRANCH   4   5
ATOM      5  N   UNL     1       2.168  -0.963   2.038  1.00  0.00    -0.352 N 
ATOM      6  O   UNL     1       1.146   0.377   0.607  1.00  0.00    -0.269 OA
ATOM      7  C   UNL     1       1.452  -0.785   0.886  1.00  0.00     0.251 C 
ATOM      8  H   UNL     1       2.394  -0.115   2.485  1.00  0.00     0.163 HD
BRANCH   7   9
ATOM      9  C   UNL     1       1.099  -1.876  -0.059  1.00  0.00     0.039 A 
ATOM     10  C   UNL     1       1.017  -3.231   0.268  1.00  0.00     0.014 A 
ATOM     11  C   UNL     1       0.820  -1.480  -1.379  1.00  0.00     0.014 A 
ATOM     12  C   UNL     1       0.759  -4.178  -0.716  1.00  0.00     0.010 A 
ATOM     13  C   UNL     1       0.536  -2.419  -2.363  1.00  0.00     0.010 A 
ATOM     14  C   UNL     1       0.535  -3.771  -2.033  1.00  0.00    -0.014 A 
BRANCH  14  15
ATOM     15  C   UNL     1       0.114  -4.780  -2.999  1.00  0.00     0.031 A 
ATOM     16  C   UNL     1      -1.238  -5.351  -2.738  1.00  0.00     0.074 A 
ATOM     17  C   UNL     1       0.803  -5.067  -4.121  1.00  0.00     0.049 A 
ATOM     18  N   UNL     1      -1.547  -6.577  -2.461  1.00  0.00    -0.248 NA
ATOM     19  C   UNL     1      -2.371  -4.417  -2.649  1.00  0.00     0.031 C 
ATOM     20  C   UNL     1       1.972  -4.362  -4.652  1.00  0.00     0.029 A 
ATOM     21  N   UNL     1       0.506  -5.962  -5.107  1.00  0.00    -0.354 N 
ATOM     22  C   UNL     1      -2.941  -6.607  -2.380  1.00  0.00     0.074 A 
ATOM     23  C   UNL     1      -3.372  -5.236  -2.326  1.00  0.00     0.031 C 
ATOM     24  C   UNL     1       2.122  -4.678  -5.958  1.00  0.00     0.029 A 
ATOM     25  C   UNL     1       1.146  -5.694  -6.314  1.00  0.00     0.049 A 
ATOM     26  H   UNL     1      -0.102  -6.726  -4.978  1.00  0.00     0.167 HD
ATOM     27  C   UNL     1      -3.648  -7.750  -2.595  1.00  0.00     0.034 A 
ATOM     28  C   UNL     1       0.830  -6.203  -7.531  1.00  0.00     0.034 A 
ATOM     29  C   UNL     1      -2.804  -8.913  -2.549  1.00  0.00     0.049 A 
ATOM     30  C   UNL     1       0.026  -7.425  -7.312  1.00  0.00     0.074 A 
ATOM     31  C   UNL     1      -1.988  -9.504  -1.606  1.00  0.00     0.029 A 
ATOM     32  N   UNL     1      -2.461  -9.473  -3.754  1.00  0.00    -0.354 N 
ATOM     33  N   UNL     1       0.504  -8.520  -6.793  1.00  0.00    -0.248 NA
ATOM     34  C   UNL     1      -1.422  -7.302  -7.298  1.00  0.00     0.031 C 
ATOM     35  C   UNL     1      -0.890 -10.025  -2.350  1.00  0.00     0.029 A 
ATOM     36  C   UNL     1      -1.128  -9.768  -3.702  1.00  0.00     0.049 A 
ATOM     37  H   UNL     1      -3.064  -9.632  -4.516  1.00  0.00     0.167 HD
ATOM     38  C   UNL     1      -0.521  -8.989  -5.984  1.00  0.00     0.074 A 
ATOM     39  C   UNL     1      -1.714  -8.270  -6.427  1.00  0.00     0.031 C 
ATOM     40  C   UNL     1      -0.249  -9.690  -4.846  1.00  0.00     0.034 A 
BRANCH  27  41
ATOM     41  C   UNL     1      -5.028  -7.827  -3.216  1.00  0.00     0.023 A 
ATOM     42  C   UNL     1      -5.656  -9.095  -3.236  1.00  0.00     0.012 A 
ATOM     43  C   UNL     1      -5.596  -6.821  -4.030  1.00  0.00     0.148 A 
ATOM     44  C   UNL     1      -6.741  -9.368  -4.075  1.00  0.00     0.002 A 
ATOM     45  C   UNL     1      -6.723  -7.075  -4.804  1.00  0.00     0.091 A 
ATOM     46  F   UNL     1      -4.979  -5.645  -4.170  1.00  0.00    -0.205 F 
ATOM     47  C   UNL     1      -7.278  -8.356  -4.859  1.00  0.00     0.022 A 
BRANCH  45  48
ATOM     48  S   UNL     1      -7.493  -5.796  -5.805  1.00  0.00     0.127 S 
ATOM     49  O   UNL     1      -7.122  -6.215  -7.152  1.00  0.00    -0.237 OA
ATOM     50  O   UNL     1      -8.905  -5.964  -5.467  1.00  0.00    -0.237 OA
ATOM     51  O   UNL     1      -6.914  -4.538  -5.342  1.00  0.00    -0.744 OA
ENDBRANCH  45  48
ENDBRANCH  27  41
BRANCH  28  52
ATOM     52  C   UNL     1       0.938  -5.583  -8.874  1.00  0.00     0.023 A 
ATOM     53  C   UNL     1       0.927  -6.399 -10.024  1.00  0.00     0.012 A 
ATOM     54  C   UNL     1       0.760  -4.192  -9.043  1.00  0.00     0.148 A 
ATOM     55  C   UNL     1       0.716  -5.852 -11.296  1.00  0.00     0.002 A 
ATOM     56  C   UNL     1       0.559  -3.652 -10.310  1.00  0.00     0.091 A 
ATOM     57  F   UNL     1       0.693  -3.413  -7.956  1.00  0.00    -0.205 F 
ATOM     58  C   UNL     1       0.524  -4.481 -11.438  1.00  0.00     0.022 A 
BRANCH  56  59
ATOM     59  S   UNL     1       0.274  -1.895 -10.565  1.00  0.00     0.127 S 
ATOM     60  O   UNL     1       1.209  -1.592 -11.650  1.00  0.00    -0.237 OA
ATOM     61  O   UNL     1      -1.135  -1.870 -10.946  1.00  0.00    -0.237 OA
ATOM     62  O   UNL     1       0.599  -1.252  -9.299  1.00  0.00    -0.744 OA
ENDBRANCH  56  59
ENDBRANCH  28  52
BRANCH  40  63
ATOM     63  C   UNL     1       1.155 -10.195  -4.638  1.00  0.00     0.023 A 
ATOM     64  C   UNL     1       2.261  -9.329  -4.511  1.00  0.00     0.012 A 
ATOM     65  C   UNL     1       1.329 -11.566  -4.386  1.00  0.00     0.148 A 
ATOM     66  C   UNL     1       3.519  -9.826  -4.163  1.00  0.00     0.002 A 
ATOM     67  C   UNL     1       2.569 -12.048  -3.990  1.00  0.00     0.091 A 
ATOM     68  F   UNL     1       0.265 -12.374  -4.508  1.00  0.00    -0.205 F 
ATOM     69  C   UNL     1       3.670 -11.183  -3.888  1.00  0.00     0.022 A 
BRANCH  67  70
ATOM     70  S   UNL     1       2.790 -13.756  -3.489  1.00  0.00     0.127 S 
ATOM     71  O   UNL     1       3.490 -14.324  -4.639  1.00  0.00    -0.237 OA
ATOM     72  O   UNL     1       3.604 -13.625  -2.279  1.00  0.00    -0.237 OA
ATOM     73  O   UNL     1       1.450 -14.278  -3.247  1.00  0.00    -0.744 OA
ENDBRANCH  67  70
ENDBRANCH  40  63
ENDBRANCH  14  15
ENDBRANCH   7   9
ENDBRANCH   4   5
ENDBRANCH   3   4
ENDBRANCH   2   3
ENDBRANCH   1   2
BRANCH   1  74
ATOM     74  C   UNL     1       5.854  -2.190   4.507  1.00  0.00     0.021 C 
BRANCH  74  75
ATOM     75  C   UNL     1       7.084  -3.036   4.172  1.00  0.00     0.116 C 
BRANCH  75  76
ATOM     76  N   UNL     1       8.276  -2.208   4.203  1.00  0.00    -0.354 N 
ATOM     77  C   UNL     1       9.209  -2.105   5.206  1.00  0.00     0.249 C 
ATOM     78  H   UNL     1       8.436  -1.651   3.407  1.00  0.00     0.163 HD
ATOM     79  O   UNL     1       9.948  -1.117   5.228  1.00  0.00    -0.272 OA
BRANCH  77  80
ATOM     80  C   UNL     1       9.184  -3.173   6.320  1.00  0.00     0.223 C 
ATOM     81  C   UNL     1       9.845  -2.775   7.596  1.00  0.00     0.071 A 
ATOM     82  N   UNL     1       9.549  -4.585   6.027  1.00  0.00    -0.325 N 
ATOM     83  N   UNL     1       9.973  -1.529   8.134  1.00  0.00    -0.346 N 
ATOM     84  C   UNL     1      10.304  -3.638   8.561  1.00  0.00     0.066 A 
ATOM     85  C   UNL     1       9.381  -5.473   7.191  1.00  0.00     0.127 C 
ATOM     86  C   UNL     1      10.452  -1.698   9.407  1.00  0.00     0.197 A 
ATOM     87  H   UNL     1       9.762  -0.674   7.694  1.00  0.00     0.167 HD
ATOM     88  N   UNL     1      10.672  -2.967   9.691  1.00  0.00    -0.242 NA
ATOM     89  C   UNL     1      10.331  -5.106   8.363  1.00  0.00     0.080 C 
BRANCH  82  90
ATOM     90  C   UNL     1      10.275  -4.899   4.884  1.00  0.00     0.223 C 
ATOM     91  O   UNL     1      10.774  -4.022   4.175  1.00  0.00    -0.275 OA
BRANCH  90  92
ATOM     92  C   UNL     1      10.347  -6.342   4.373  1.00  0.00     0.100 C 
BRANCH  92  93
ATOM     93  C   UNL     1      11.506  -7.223   4.804  1.00  0.00     0.015 C 
BRANCH  93  94
ATOM     94  C   UNL     1      11.431  -7.937   6.143  1.00  0.00     0.038 C 
BRANCH  94  95
ATOM     95  C   UNL     1      10.402  -9.011   6.444  1.00  0.00    -0.023 A 
ATOM     96  C   UNL     1      10.811 -10.242   6.940  1.00  0.00     0.087 A 
ATOM     97  C   UNL     1       8.944  -9.042   6.498  1.00  0.00     0.003 A 
ATOM     98  N   UNL     1       9.735 -10.896   7.456  1.00  0.00    -0.361 N 
ATOM     99  C   UNL     1       8.596 -10.158   7.269  1.00  0.00     0.046 A 
ATOM    100  C   UNL     1       7.852  -8.246   6.064  1.00  0.00     0.010 A 
ATOM    101  H   UNL     1       9.770 -11.774   7.900  1.00  0.00     0.166 HD
ATOM    102  C   UNL     1       7.292 -10.422   7.716  1.00  0.00     0.026 A 
ATOM    103  C   UNL     1       6.527  -8.564   6.396  1.00  0.00     0.001 A 
ATOM    104  C   UNL     1       6.256  -9.618   7.248  1.00  0.00     0.002 A 
ENDBRANCH  94  95
ENDBRANCH  93  94
ENDBRANCH  92  93
ENDBRANCH  90  92
ENDBRANCH  82  90
ENDBRANCH  77  80
ENDBRANCH  75  76
ENDBRANCH  74  75
ENDBRANCH   1  74
TORSDOF 21
