REMARK SMILES O=C(NCCCCCCNC(=O)c1cc2nn[nH]n2n1)c1ccc(-c2c3nc(c(-c4cccc(S(=O)(=O)[O-])c4F)c4ccc([nH]4)c(-c4cccc(S(=O)(=O)[O-])c4F)c4nc(c(-c5cccc(S(=O)(=O)[O-])c5F)c5ccc2[nH]5)C=C4)C=C3)cc1
REMARK SMILES IDX 5 1 4 2 3 3 1 4 2 5 21 7 22 8 83 9 23 10 82 11 24 12 25 13
REMARK SMILES IDX 26 14 76 15 27 16 81 17 75 18 77 19 28 20 80 21 74 22 73 23
REMARK SMILES IDX 29 25 61 26 41 27 60 28 42 29 45 30 59 31 78 32 43 33 44 34
REMARK SMILES IDX 58 36 79 37 46 38 30 39 31 40 39 41 32 42 34 43 40 44 33 45
REMARK SMILES IDX 35 46 36 47 37 48 38 49 62 50 63 51 71 52 64 53 66 54 72 55
REMARK SMILES IDX 65 56 67 57 68 58 69 59 70 60 47 61 48 62 56 63 49 64 51 65
REMARK SMILES IDX 57 66 50 67 52 68 53 69 54 70 55 71 6 72 7 73 8 74 9 75
REMARK SMILES IDX 10 76 11 77 12 79 13 80 14 81 20 82 15 83 19 84 16 85 18 86
REMARK SMILES IDX 17 87
REMARK H PARENT 3 6 77 24 45 35 10 78 18 88
REMARK Flexibility Score: inf
ROOT
ATOM      1  C   UNL     1       4.790  -1.325   1.942  1.00  0.00     0.021 C 
ENDROOT
BRANCH   1   2
ATOM      2  C   UNL     1       4.662  -1.116   0.433  1.00  0.00     0.116 C 
BRANCH   2   3
ATOM      3  N   UNL     1       3.306  -1.159  -0.070  1.00  0.00    -0.352 N 
ATOM      4  O   UNL     1       1.237  -0.648  -0.653  1.00  0.00    -0.269 OA
ATOM      5  C   UNL     1       2.243  -0.298  -0.030  1.00  0.00     0.251 C 
ATOM      6  H   UNL     1       3.103  -1.995  -0.549  1.00  0.00     0.163 HD
BRANCH   5   7
ATOM      7  C   UNL     1       2.212   0.973   0.742  1.00  0.00     0.039 A 
ATOM      8  C   UNL     1       3.337   1.677   1.175  1.00  0.00     0.014 A 
ATOM      9  C   UNL     1       0.939   1.503   1.021  1.00  0.00     0.014 A 
ATOM     10  C   UNL     1       3.199   2.842   1.923  1.00  0.00     0.010 A 
ATOM     11  C   UNL     1       0.794   2.684   1.745  1.00  0.00     0.010 A 
ATOM     12  C   UNL     1       1.929   3.345   2.210  1.00  0.00    -0.014 A 
BRANCH  12  13
ATOM     13  C   UNL     1       1.850   4.663   2.837  1.00  0.00     0.031 A 
ATOM     14  C   UNL     1       2.334   5.797   1.995  1.00  0.00     0.074 A 
ATOM     15  C   UNL     1       1.232   4.908   4.008  1.00  0.00     0.049 A 
ATOM     16  N   UNL     1       3.269   6.654   2.258  1.00  0.00    -0.248 NA
ATOM     17  C   UNL     1       1.747   5.942   0.654  1.00  0.00     0.031 C 
ATOM     18  C   UNL     1       0.417   3.973   4.784  1.00  0.00     0.029 A 
ATOM     19  N   UNL     1       1.076   6.095   4.670  1.00  0.00    -0.354 N 
ATOM     20  C   UNL     1       3.231   7.579   1.214  1.00  0.00     0.074 A 
ATOM     21  C   UNL     1       2.397   7.008   0.190  1.00  0.00     0.031 C 
ATOM     22  C   UNL     1      -0.341   4.674   5.655  1.00  0.00     0.029 A 
ATOM     23  C   UNL     1       0.024   6.079   5.579  1.00  0.00     0.049 A 
ATOM     24  H   UNL     1       1.650   6.880   4.519  1.00  0.00     0.167 HD
ATOM     25  C   UNL     1       3.693   8.851   1.358  1.00  0.00     0.034 A 
ATOM     26  C   UNL     1      -0.566   7.149   6.162  1.00  0.00     0.034 A 
ATOM     27  C   UNL     1       4.571   8.986   2.491  1.00  0.00     0.049 A 
ATOM     28  C   UNL     1       0.355   8.301   6.060  1.00  0.00     0.074 A 
ATOM     29  C   UNL     1       5.748   8.403   2.910  1.00  0.00     0.029 A 
ATOM     30  N   UNL     1       4.089   9.682   3.570  1.00  0.00    -0.354 N 
ATOM     31  N   UNL     1       1.468   8.415   6.728  1.00  0.00    -0.248 NA
ATOM     32  C   UNL     1       0.183   9.241   4.964  1.00  0.00     0.031 C 
ATOM     33  C   UNL     1       5.686   8.417   4.335  1.00  0.00     0.029 A 
ATOM     34  C   UNL     1       4.480   9.020   4.698  1.00  0.00     0.049 A 
ATOM     35  H   UNL     1       3.557  10.510   3.537  1.00  0.00     0.167 HD
ATOM     36  C   UNL     1       2.307   9.126   5.883  1.00  0.00     0.074 A 
ATOM     37  C   UNL     1       1.420   9.738   4.901  1.00  0.00     0.031 C 
ATOM     38  C   UNL     1       3.655   8.902   5.881  1.00  0.00     0.034 A 
BRANCH  25  39
ATOM     39  C   UNL     1       3.071  10.074   0.708  1.00  0.00     0.023 A 
ATOM     40  C   UNL     1       3.753  11.305   0.858  1.00  0.00     0.012 A 
ATOM     41  C   UNL     1       1.740  10.139   0.238  1.00  0.00     0.148 A 
ATOM     42  C   UNL     1       3.120  12.533   0.632  1.00  0.00     0.002 A 
ATOM     43  C   UNL     1       1.145  11.358  -0.071  1.00  0.00     0.091 A 
ATOM     44  F   UNL     1       0.979   9.040   0.213  1.00  0.00    -0.205 F 
ATOM     45  C   UNL     1       1.815  12.559   0.161  1.00  0.00     0.022 A 
BRANCH  43  46
ATOM     46  S   UNL     1      -0.516  11.432  -0.753  1.00  0.00     0.127 S 
ATOM     47  O   UNL     1      -1.305  11.750   0.434  1.00  0.00    -0.237 OA
ATOM     48  O   UNL     1      -0.396  12.520  -1.726  1.00  0.00    -0.237 OA
ATOM     49  O   UNL     1      -0.739  10.124  -1.352  1.00  0.00    -0.744 OA
ENDBRANCH  43  46
ENDBRANCH  25  39
BRANCH  26  50
ATOM     50  C   UNL     1      -1.951   7.311   6.662  1.00  0.00     0.023 A 
ATOM     51  C   UNL     1      -2.232   8.309   7.616  1.00  0.00     0.012 A 
ATOM     52  C   UNL     1      -3.039   6.666   6.033  1.00  0.00     0.148 A 
ATOM     53  C   UNL     1      -3.551   8.671   7.914  1.00  0.00     0.002 A 
ATOM     54  C   UNL     1      -4.348   7.015   6.348  1.00  0.00     0.091 A 
ATOM     55  F   UNL     1      -2.792   5.777   5.061  1.00  0.00    -0.205 F 
ATOM     56  C   UNL     1      -4.609   8.027   7.279  1.00  0.00     0.022 A 
BRANCH  54  57
ATOM     57  S   UNL     1      -5.758   6.216   5.569  1.00  0.00     0.127 S 
ATOM     58  O   UNL     1      -6.657   6.004   6.705  1.00  0.00    -0.237 OA
ATOM     59  O   UNL     1      -6.200   7.235   4.622  1.00  0.00    -0.237 OA
ATOM     60  O   UNL     1      -5.239   4.985   4.987  1.00  0.00    -0.744 OA
ENDBRANCH  54  57
ENDBRANCH  26  50
BRANCH  38  61
ATOM     61  C   UNL     1       4.268   8.181   7.053  1.00  0.00     0.023 A 
ATOM     62  C   UNL     1       3.880   6.875   7.415  1.00  0.00     0.012 A 
ATOM     63  C   UNL     1       5.372   8.764   7.700  1.00  0.00     0.148 A 
ATOM     64  C   UNL     1       4.552   6.182   8.424  1.00  0.00     0.002 A 
ATOM     65  C   UNL     1       6.072   8.051   8.666  1.00  0.00     0.091 A 
ATOM     66  F   UNL     1       5.737  10.006   7.344  1.00  0.00    -0.205 F 
ATOM     67  C   UNL     1       5.656   6.764   9.040  1.00  0.00     0.022 A 
BRANCH  65  68
ATOM     68  S   UNL     1       7.587   8.692   9.385  1.00  0.00     0.127 S 
ATOM     69  O   UNL     1       7.120   9.226  10.662  1.00  0.00    -0.237 OA
ATOM     70  O   UNL     1       8.421   7.493   9.492  1.00  0.00    -0.237 OA
ATOM     71  O   UNL     1       8.088   9.675   8.432  1.00  0.00    -0.744 OA
ENDBRANCH  65  68
ENDBRANCH  38  61
ENDBRANCH  12  13
ENDBRANCH   5   7
ENDBRANCH   2   3
ENDBRANCH   1   2
BRANCH   1  72
ATOM     72  C   UNL     1       4.270  -2.672   2.455  1.00  0.00     0.002 C 
BRANCH  72  73
ATOM     73  C   UNL     1       4.840  -3.914   1.763  1.00  0.00     0.002 C 
BRANCH  73  74
ATOM     74  C   UNL     1       6.370  -4.005   1.718  1.00  0.00     0.021 C 
BRANCH  74  75
ATOM     75  C   UNL     1       7.056  -4.034   3.082  1.00  0.00     0.116 C 
BRANCH  75  76
ATOM     76  N   UNL     1       6.771  -5.263   3.803  1.00  0.00    -0.351 N 
ATOM     77  C   UNL     1       7.633  -6.257   4.196  1.00  0.00     0.271 C 
ATOM     78  H   UNL     1       5.826  -5.403   4.043  1.00  0.00     0.163 HD
ATOM     79  O   UNL     1       7.163  -7.319   4.620  1.00  0.00    -0.267 OA
BRANCH  77  80
ATOM     80  C   UNL     1       9.078  -6.015   4.116  1.00  0.00     0.154 A 
ATOM     81  C   UNL     1       9.802  -4.885   4.653  1.00  0.00     0.089 A 
ATOM     82  N   UNL     1       9.918  -6.896   3.512  1.00  0.00    -0.143 NA
ATOM     83  C   UNL     1      11.098  -5.129   4.300  1.00  0.00     0.199 A 
ATOM     84  N   UNL     1      11.082  -6.299   3.661  1.00  0.00    -0.135 N 
ATOM     85  N   UNL     1      12.367  -4.663   4.346  1.00  0.00    -0.109 NA
ATOM     86  N   UNL     1      12.321  -6.538   3.283  1.00  0.00    -0.177 N 
ATOM     87  N   UNL     1      13.125  -5.528   3.779  1.00  0.00    -0.050 NA
ATOM     88  H   UNL     1      12.623  -7.303   2.741  1.00  0.00     0.216 HD
ENDBRANCH  77  80
ENDBRANCH  75  76
ENDBRANCH  74  75
ENDBRANCH  73  74
ENDBRANCH  72  73
ENDBRANCH   1  72
TORSDOF 16
