REMARK SMILES COC(=O)c1c(NC(=O)[C@@H]2[C@H]3CC[C@H](CC3)[C@H]2C(=O)NCCCCCCNC(=O)c2ccc(-c3c4nc(c(-c5cccc(S(=O)(=O)[O-])c5F)c5ccc([nH]5)c(-c5cccc(S(=O)(=O)[O-])c5F)c5nc(c(-c6cccc(S(=O)(=O)[O-])c6F)c6ccc3[nH]6)C=C5)C=C4)cc2)sc(C)c1-c1ccc(C)cc1
REMARK SMILES IDX 23 1 22 2 21 3 20 4 18 5 19 6 17 8 10 9 11 10 16 11 12 12
REMARK SMILES IDX 14 13 15 14 13 15 8 16 7 17 9 19 6 20 5 21 96 22 93 23 94 24
REMARK SMILES IDX 95 25 3 26 4 27 2 28 1 29 97 30 98 31 103 32 99 33 102 34
REMARK SMILES IDX 100 35 101 36 24 37 25 38 26 39 27 40 28 41 29 43 30 44
REMARK SMILES IDX 31 45 92 46 32 47 91 48 33 49 34 50 35 51 85 52 36 53 90 54
REMARK SMILES IDX 84 55 86 56 37 57 89 58 83 59 82 60 38 62 70 63 50 64 69 65
REMARK SMILES IDX 51 66 54 67 68 68 87 69 52 70 53 71 67 73 88 74 55 75 39 76
REMARK SMILES IDX 40 77 48 78 41 79 43 80 49 81 42 82 44 83 45 84 46 85 47 86
REMARK SMILES IDX 71 87 72 88 80 89 73 90 75 91 81 92 74 93 76 94 77 95 78 96
REMARK SMILES IDX 79 97 56 98 57 99 65 100 58 101 60 102 66 103 59 104 61 105
REMARK SMILES IDX 62 106 63 107 64 108
REMARK H PARENT 20 7 7 18 27 42 86 61 54 72
REMARK Flexibility Score: inf
ROOT
ATOM      1  C   UNL     1       7.584  -4.455   0.957  1.00  0.00     0.002 C 
ENDROOT
BRANCH   1   2
ATOM      2  C   UNL     1       6.155  -4.950   1.191  1.00  0.00     0.021 C 
BRANCH   2   3
ATOM      3  C   UNL     1       5.917  -5.550   2.569  1.00  0.00     0.116 C 
BRANCH   3   4
ATOM      4  N   UNL     1       5.455  -4.589   3.541  1.00  0.00    -0.356 N 
ATOM      5  C   UNL     1       4.618  -4.703   4.601  1.00  0.00     0.224 C 
ATOM      6  O   UNL     1       4.549  -3.703   5.330  1.00  0.00    -0.275 OA
ATOM      7  H   UNL     1       5.815  -3.682   3.409  1.00  0.00     0.163 HD
BRANCH   5   8
ATOM      8  C   UNL     1       3.875  -5.980   5.018  1.00  0.00     0.094 C 
ATOM      9  C   UNL     1       3.104  -6.836   3.948  1.00  0.00     0.094 C 
ATOM     10  C   UNL     1       3.511  -8.299   4.222  1.00  0.00     0.002 C 
ATOM     11  C   UNL     1       5.024  -8.526   4.079  1.00  0.00     0.005 C 
ATOM     12  C   UNL     1       3.083  -8.700   5.642  1.00  0.00     0.005 C 
ATOM     13  C   UNL     1       4.778  -6.875   5.932  1.00  0.00     0.002 C 
ATOM     14  C   UNL     1       5.773  -7.723   5.130  1.00  0.00     0.005 C 
ATOM     15  C   UNL     1       3.858  -7.871   6.668  1.00  0.00     0.005 C 
BRANCH   9  16
ATOM     16  C   UNL     1       1.588  -6.453   3.931  1.00  0.00     0.229 C 
ATOM     17  N   UNL     1       0.526  -7.237   3.554  1.00  0.00    -0.317 N 
ATOM     18  H   UNL     1      -0.272  -6.761   3.227  1.00  0.00     0.170 HD
ATOM     19  O   UNL     1       1.282  -5.278   4.196  1.00  0.00    -0.274 OA
BRANCH  17  20
ATOM     20  C   UNL     1       0.446  -8.609   3.579  1.00  0.00     0.111 A 
ATOM     21  C   UNL     1      -0.385  -9.439   4.320  1.00  0.00     0.102 A 
ATOM     22  C   UNL     1       0.129 -10.792   4.247  1.00  0.00     0.012 A 
ATOM     23  S   UNL     1       1.152  -9.510   2.313  1.00  0.00    -0.122 S 
ATOM     24  C   UNL     1       1.207 -10.871   3.374  1.00  0.00     0.012 A 
ATOM     25  C   UNL     1       2.265 -11.917   3.233  1.00  0.00     0.057 C 
BRANCH  21  26
ATOM     26  C   UNL     1      -1.502  -8.924   5.109  1.00  0.00     0.341 C 
ATOM     27  O   UNL     1      -1.978  -7.815   4.931  1.00  0.00    -0.246 OA
BRANCH  26  28
ATOM     28  O   UNL     1      -1.959  -9.813   6.037  1.00  0.00    -0.465 OA
ATOM     29  C   UNL     1      -3.132  -9.408   6.740  1.00  0.00     0.282 C 
ENDBRANCH  26  28
ENDBRANCH  21  26
BRANCH  22  30
ATOM     30  C   UNL     1      -0.374 -12.000   4.880  1.00  0.00    -0.016 A 
ATOM     31  C   UNL     1      -1.422 -12.673   4.244  1.00  0.00     0.009 A 
ATOM     32  C   UNL     1       0.210 -12.548   6.025  1.00  0.00     0.009 A 
ATOM     33  C   UNL     1      -1.865 -13.901   4.727  1.00  0.00     0.004 A 
ATOM     34  C   UNL     1      -0.238 -13.783   6.510  1.00  0.00     0.004 A 
ATOM     35  C   UNL     1      -1.269 -14.473   5.855  1.00  0.00    -0.051 A 
ATOM     36  C   UNL     1      -1.720 -15.829   6.311  1.00  0.00     0.044 C 
ENDBRANCH  22  30
ENDBRANCH  17  20
ENDBRANCH   9  16
ENDBRANCH   5   8
ENDBRANCH   3   4
ENDBRANCH   2   3
ENDBRANCH   1   2
BRANCH   1  37
ATOM     37  C   UNL     1       8.703  -5.469   1.233  1.00  0.00     0.002 C 
BRANCH  37  38
ATOM     38  C   UNL     1       8.532  -6.853   0.600  1.00  0.00     0.021 C 
BRANCH  38  39
ATOM     39  C   UNL     1       8.325  -6.860  -0.910  1.00  0.00     0.116 C 
BRANCH  39  40
ATOM     40  N   UNL     1       9.385  -6.163  -1.620  1.00  0.00    -0.352 N 
ATOM     41  C   UNL     1      10.119  -6.573  -2.703  1.00  0.00     0.251 C 
ATOM     42  H   UNL     1       9.607  -5.269  -1.273  1.00  0.00     0.163 HD
ATOM     43  O   UNL     1      11.085  -5.916  -3.078  1.00  0.00    -0.269 OA
BRANCH  41  44
ATOM     44  C   UNL     1       9.750  -7.820  -3.405  1.00  0.00     0.039 A 
ATOM     45  C   UNL     1      10.750  -8.744  -3.718  1.00  0.00     0.014 A 
ATOM     46  C   UNL     1       8.421  -8.071  -3.754  1.00  0.00     0.014 A 
ATOM     47  C   UNL     1      10.409  -9.950  -4.336  1.00  0.00     0.010 A 
ATOM     48  C   UNL     1       8.075  -9.298  -4.309  1.00  0.00     0.010 A 
ATOM     49  C   UNL     1       9.066 -10.246  -4.612  1.00  0.00    -0.014 A 
BRANCH  49  50
ATOM     50  C   UNL     1       8.654 -11.527  -5.240  1.00  0.00     0.031 A 
ATOM     51  C   UNL     1       7.992 -11.504  -6.591  1.00  0.00     0.074 A 
ATOM     52  C   UNL     1       8.768 -12.681  -4.554  1.00  0.00     0.049 A 
ATOM     53  N   UNL     1       7.393 -12.471  -7.234  1.00  0.00    -0.248 NA
ATOM     54  C   UNL     1       7.976 -10.212  -7.300  1.00  0.00     0.031 C 
ATOM     55  C   UNL     1       9.348 -12.820  -3.216  1.00  0.00     0.029 A 
ATOM     56  N   UNL     1       8.360 -13.953  -4.872  1.00  0.00    -0.354 N 
ATOM     57  C   UNL     1       6.893 -11.899  -8.398  1.00  0.00     0.074 A 
ATOM     58  C   UNL     1       7.235 -10.494  -8.362  1.00  0.00     0.031 C 
ATOM     59  C   UNL     1       9.241 -14.100  -2.821  1.00  0.00     0.029 A 
ATOM     60  C   UNL     1       8.555 -14.864  -3.858  1.00  0.00     0.049 A 
ATOM     61  H   UNL     1       7.965 -14.191  -5.742  1.00  0.00     0.167 HD
ATOM     62  C   UNL     1       6.234 -12.496  -9.418  1.00  0.00     0.034 A 
ATOM     63  C   UNL     1       8.198 -16.161  -3.768  1.00  0.00     0.034 A 
ATOM     64  C   UNL     1       5.942 -13.902  -9.470  1.00  0.00     0.049 A 
ATOM     65  C   UNL     1       7.493 -16.805  -4.934  1.00  0.00     0.074 A 
ATOM     66  C   UNL     1       5.320 -14.614 -10.480  1.00  0.00     0.029 A 
ATOM     67  N   UNL     1       6.266 -14.811  -8.477  1.00  0.00    -0.354 N 
ATOM     68  N   UNL     1       7.127 -16.270  -6.073  1.00  0.00    -0.248 NA
ATOM     69  C   UNL     1       7.184 -18.238  -4.819  1.00  0.00     0.031 C 
ATOM     70  C   UNL     1       5.264 -15.956 -10.094  1.00  0.00     0.029 A 
ATOM     71  C   UNL     1       5.871 -16.081  -8.855  1.00  0.00     0.049 A 
ATOM     72  H   UNL     1       6.711 -14.587  -7.628  1.00  0.00     0.167 HD
ATOM     73  C   UNL     1       6.597 -17.309  -6.829  1.00  0.00     0.074 A 
ATOM     74  C   UNL     1       6.696 -18.507  -6.022  1.00  0.00     0.031 C 
ATOM     75  C   UNL     1       6.064 -17.274  -8.075  1.00  0.00     0.034 A 
BRANCH  62  76
ATOM     76  C   UNL     1       5.840 -11.646 -10.597  1.00  0.00     0.023 A 
ATOM     77  C   UNL     1       6.837 -11.202 -11.489  1.00  0.00     0.012 A 
ATOM     78  C   UNL     1       4.489 -11.359 -10.871  1.00  0.00     0.148 A 
ATOM     79  C   UNL     1       6.499 -10.462 -12.621  1.00  0.00     0.002 A 
ATOM     80  C   UNL     1       4.155 -10.659 -12.024  1.00  0.00     0.091 A 
ATOM     81  F   UNL     1       3.558 -11.777 -10.001  1.00  0.00    -0.205 F 
ATOM     82  C   UNL     1       5.159 -10.201 -12.895  1.00  0.00     0.022 A 
BRANCH  80  83
ATOM     83  S   UNL     1       2.456 -10.338 -12.512  1.00  0.00     0.127 S 
ATOM     84  O   UNL     1       2.381  -8.883 -12.381  1.00  0.00    -0.237 OA
ATOM     85  O   UNL     1       2.436 -10.828 -13.890  1.00  0.00    -0.237 OA
ATOM     86  O   UNL     1       1.621 -11.089 -11.585  1.00  0.00    -0.744 OA
ENDBRANCH  80  83
ENDBRANCH  62  76
BRANCH  63  87
ATOM     87  C   UNL     1       8.544 -16.958  -2.556  1.00  0.00     0.023 A 
ATOM     88  C   UNL     1       9.504 -17.985  -2.658  1.00  0.00     0.012 A 
ATOM     89  C   UNL     1       7.932 -16.715  -1.312  1.00  0.00     0.148 A 
ATOM     90  C   UNL     1       9.811 -18.785  -1.557  1.00  0.00     0.002 A 
ATOM     91  C   UNL     1       8.283 -17.480  -0.205  1.00  0.00     0.091 A 
ATOM     92  F   UNL     1       7.011 -15.743  -1.233  1.00  0.00    -0.205 F 
ATOM     93  C   UNL     1       9.207 -18.528  -0.329  1.00  0.00     0.022 A 
BRANCH  91  94
ATOM     94  S   UNL     1       7.646 -17.127   1.438  1.00  0.00     0.127 S 
ATOM     95  O   UNL     1       6.619 -18.154   1.590  1.00  0.00    -0.237 OA
ATOM     96  O   UNL     1       8.831 -17.311   2.276  1.00  0.00    -0.237 OA
ATOM     97  O   UNL     1       7.169 -15.751   1.379  1.00  0.00    -0.744 OA
ENDBRANCH  91  94
ENDBRANCH  63  87
BRANCH  75  98
ATOM     98  C   UNL     1       5.620 -18.573  -8.691  1.00  0.00     0.023 A 
ATOM     99  C   UNL     1       4.425 -19.183  -8.265  1.00  0.00     0.012 A 
ATOM    100  C   UNL     1       6.335 -19.123  -9.773  1.00  0.00     0.148 A 
ATOM    101  C   UNL     1       3.958 -20.335  -8.896  1.00  0.00     0.002 A 
ATOM    102  C   UNL     1       5.839 -20.243 -10.428  1.00  0.00     0.091 A 
ATOM    103  F   UNL     1       7.480 -18.533 -10.148  1.00  0.00    -0.205 F 
ATOM    104  C   UNL     1       4.656 -20.856  -9.984  1.00  0.00     0.022 A 
BRANCH 102 105
ATOM    105  S   UNL     1       6.616 -20.923 -11.897  1.00  0.00     0.127 S 
ATOM    106  O   UNL     1       7.157 -22.183 -11.391  1.00  0.00    -0.237 OA
ATOM    107  O   UNL     1       5.479 -21.069 -12.807  1.00  0.00    -0.237 OA
ATOM    108  O   UNL     1       7.608 -19.944 -12.319  1.00  0.00    -0.744 OA
ENDBRANCH 102 105
ENDBRANCH  75  98
ENDBRANCH  49  50
ENDBRANCH  41  44
ENDBRANCH  39  40
ENDBRANCH  38  39
ENDBRANCH  37  38
ENDBRANCH   1  37
TORSDOF 21
