REMARK SMILES O=C(COc1ccc(Br)cc1/C=C1\C(=O)Nc2ccc(Br)cc21)NCCCCCCNC(=O)c1ccc(-c2c3nc(c(-c4cccc(S(=O)(=O)[O-])c4F)c4ccc([nH]4)c(-c4cccc(S(=O)(=O)[O-])c4F)c4nc(c(-c5cccc(S(=O)(=O)[O-])c5F)c5ccc2[nH]5)C=C4)C=C3)cc1
REMARK SMILES IDX 27 1 26 2 25 3 24 4 1 5 2 6 3 8 4 9 5 10 6 11 11 12 7 13
REMARK SMILES IDX 10 14 8 15 9 16 12 17 13 18 14 19 23 20 15 21 16 22 17 23
REMARK SMILES IDX 22 24 18 26 20 27 19 28 21 29 28 30 29 31 30 32 31 33 32 34
REMARK SMILES IDX 33 36 34 37 35 38 96 39 36 40 95 41 37 42 38 43 39 44 89 45
REMARK SMILES IDX 40 46 94 47 88 48 90 49 41 50 93 51 87 52 86 53 42 55 74 56
REMARK SMILES IDX 54 57 73 58 55 59 58 60 72 61 91 62 56 63 57 64 71 66 92 67
REMARK SMILES IDX 59 68 43 69 44 70 52 71 45 72 47 73 53 74 46 75 48 76 49 77
REMARK SMILES IDX 50 78 51 79 75 80 76 81 84 82 77 83 79 84 85 85 78 86 80 87
REMARK SMILES IDX 81 88 82 89 83 90 60 91 61 92 69 93 62 94 64 95 70 96 63 97
REMARK SMILES IDX 65 98 66 99 67 100 68 101
REMARK H PARENT 24 7 16 25 31 35 90 54 58 65
REMARK Flexibility Score: inf
ROOT
ATOM      1  C   UNL     1       4.416  -1.908   3.081  1.00  0.00     0.002 C 
ENDROOT
BRANCH   1   2
ATOM      2  C   UNL     1       2.952  -1.875   2.632  1.00  0.00     0.021 C 
BRANCH   2   3
ATOM      3  C   UNL     1       2.497  -0.556   2.014  1.00  0.00     0.116 C 
BRANCH   3   4
ATOM      4  N   UNL     1       3.293  -0.132   0.870  1.00  0.00    -0.353 N 
ATOM      5  O   UNL     1       1.684  -0.537  -0.716  1.00  0.00    -0.271 OA
ATOM      6  C   UNL     1       2.764  -0.041  -0.402  1.00  0.00     0.257 C 
ATOM      7  H   UNL     1       4.240   0.098   1.009  1.00  0.00     0.163 HD
BRANCH   6   8
ATOM      8  C   UNL     1       3.605   0.776  -1.415  1.00  0.00     0.329 C 
BRANCH   8   9
ATOM      9  O   UNL     1       4.340   1.942  -1.026  1.00  0.00    -0.483 OA
BRANCH   9  10
ATOM     10  C   UNL     1       3.591   3.068  -0.746  1.00  0.00     0.127 A 
ATOM     11  C   UNL     1       2.473   2.964   0.111  1.00  0.00     0.048 A 
ATOM     12  C   UNL     1       3.997   4.344  -1.226  1.00  0.00     0.018 A 
ATOM     13  C   UNL     1       1.706   4.064   0.469  1.00  0.00     0.019 A 
ATOM     14  C   UNL     1       3.219   5.433  -0.787  1.00  0.00     0.027 A 
ATOM     15  C   UNL     1       2.082   5.302   0.011  1.00  0.00     0.018 A 
ATOM     16  Br  UNL     1       1.061   6.828   0.458  1.00  0.00    -0.051 Br
BRANCH  12  17
ATOM     17  C   UNL     1       5.134   4.551  -2.203  1.00  0.00     0.026 C 
ATOM     18  C   UNL     1       5.412   5.622  -2.994  1.00  0.00     0.050 C 
ATOM     19  C   UNL     1       4.619   6.901  -3.108  1.00  0.00     0.256 C 
ATOM     20  C   UNL     1       6.130   5.557  -4.288  1.00  0.00     0.012 A 
ATOM     21  O   UNL     1       4.412   7.756  -2.272  1.00  0.00    -0.269 OA
ATOM     22  N   UNL     1       4.381   7.037  -4.462  1.00  0.00    -0.321 N 
ATOM     23  C   UNL     1       5.317   6.293  -5.172  1.00  0.00     0.049 A 
ATOM     24  C   UNL     1       7.378   5.147  -4.716  1.00  0.00     0.026 A 
ATOM     25  H   UNL     1       3.662   7.576  -4.862  1.00  0.00     0.170 HD
ATOM     26  C   UNL     1       5.582   6.456  -6.513  1.00  0.00     0.028 A 
ATOM     27  C   UNL     1       7.720   5.407  -6.057  1.00  0.00     0.018 A 
ATOM     28  C   UNL     1       6.813   5.995  -6.962  1.00  0.00     0.018 A 
ATOM     29  Br  UNL     1       9.488   5.078  -6.659  1.00  0.00    -0.051 Br
ENDBRANCH  12  17
ENDBRANCH   9  10
ENDBRANCH   8   9
ENDBRANCH   6   8
ENDBRANCH   3   4
ENDBRANCH   2   3
ENDBRANCH   1   2
BRANCH   1  30
ATOM     30  C   UNL     1       4.824  -0.848   4.109  1.00  0.00     0.002 C 
BRANCH  30  31
ATOM     31  C   UNL     1       4.087  -0.903   5.448  1.00  0.00     0.021 C 
BRANCH  31  32
ATOM     32  C   UNL     1       4.203  -2.222   6.206  1.00  0.00     0.116 C 
BRANCH  32  33
ATOM     33  N   UNL     1       5.570  -2.547   6.593  1.00  0.00    -0.352 N 
ATOM     34  C   UNL     1       6.060  -2.938   7.819  1.00  0.00     0.251 C 
ATOM     35  H   UNL     1       6.239  -2.477   5.874  1.00  0.00     0.163 HD
ATOM     36  O   UNL     1       7.270  -3.056   7.987  1.00  0.00    -0.269 OA
BRANCH  34  37
ATOM     37  C   UNL     1       5.121  -3.171   8.940  1.00  0.00     0.039 A 
ATOM     38  C   UNL     1       3.951  -3.905   8.742  1.00  0.00     0.014 A 
ATOM     39  C   UNL     1       5.388  -2.602  10.189  1.00  0.00     0.014 A 
ATOM     40  C   UNL     1       2.964  -3.903   9.721  1.00  0.00     0.010 A 
ATOM     41  C   UNL     1       4.430  -2.680  11.205  1.00  0.00     0.010 A 
ATOM     42  C   UNL     1       3.184  -3.277  10.960  1.00  0.00    -0.014 A 
BRANCH  42  43
ATOM     43  C   UNL     1       2.090  -3.248  11.968  1.00  0.00     0.031 A 
ATOM     44  C   UNL     1       1.488  -1.942  12.421  1.00  0.00     0.074 A 
ATOM     45  C   UNL     1       1.600  -4.410  12.443  1.00  0.00     0.049 A 
ATOM     46  N   UNL     1       0.517  -1.740  13.277  1.00  0.00    -0.248 NA
ATOM     47  C   UNL     1       2.039  -0.704  11.846  1.00  0.00     0.031 C 
ATOM     48  C   UNL     1       2.104  -5.740  12.095  1.00  0.00     0.029 A 
ATOM     49  N   UNL     1       0.565  -4.663  13.307  1.00  0.00    -0.354 N 
ATOM     50  C   UNL     1       0.367  -0.361  13.369  1.00  0.00     0.074 A 
ATOM     51  C   UNL     1       1.351   0.230  12.490  1.00  0.00     0.031 C 
ATOM     52  C   UNL     1       1.359  -6.668  12.712  1.00  0.00     0.029 A 
ATOM     53  C   UNL     1       0.359  -6.002  13.541  1.00  0.00     0.049 A 
ATOM     54  H   UNL     1       0.022  -3.953  13.721  1.00  0.00     0.167 HD
ATOM     55  C   UNL     1      -0.526   0.348  14.099  1.00  0.00     0.034 A 
ATOM     56  C   UNL     1      -0.522  -6.630  14.342  1.00  0.00     0.034 A 
ATOM     57  C   UNL     1      -1.538  -0.237  14.935  1.00  0.00     0.049 A 
ATOM     58  C   UNL     1      -1.500  -5.822  15.141  1.00  0.00     0.074 A 
ATOM     59  C   UNL     1      -2.510   0.408  15.682  1.00  0.00     0.029 A 
ATOM     60  N   UNL     1      -1.717  -1.596  15.133  1.00  0.00    -0.354 N 
ATOM     61  N   UNL     1      -1.666  -4.522  15.160  1.00  0.00    -0.248 NA
ATOM     62  C   UNL     1      -2.422  -6.561  16.016  1.00  0.00     0.031 C 
ATOM     63  C   UNL     1      -3.272  -0.562  16.337  1.00  0.00     0.029 A 
ATOM     64  C   UNL     1      -2.783  -1.811  15.988  1.00  0.00     0.049 A 
ATOM     65  H   UNL     1      -1.168  -2.304  14.725  1.00  0.00     0.167 HD
ATOM     66  C   UNL     1      -2.717  -4.287  16.037  1.00  0.00     0.074 A 
ATOM     67  C   UNL     1      -3.163  -5.579  16.515  1.00  0.00     0.031 C 
ATOM     68  C   UNL     1      -3.248  -3.102  16.422  1.00  0.00     0.034 A 
BRANCH  55  69
ATOM     69  C   UNL     1      -0.499   1.849  13.991  1.00  0.00     0.023 A 
ATOM     70  C   UNL     1      -1.085   2.466  12.869  1.00  0.00     0.012 A 
ATOM     71  C   UNL     1      -0.001   2.645  15.041  1.00  0.00     0.148 A 
ATOM     72  C   UNL     1      -1.168   3.856  12.787  1.00  0.00     0.002 A 
ATOM     73  C   UNL     1      -0.113   4.028  14.966  1.00  0.00     0.091 A 
ATOM     74  F   UNL     1       0.559   2.033  16.094  1.00  0.00    -0.205 F 
ATOM     75  C   UNL     1      -0.693   4.635  13.839  1.00  0.00     0.022 A 
BRANCH  73  76
ATOM     76  S   UNL     1       0.416   5.124  16.288  1.00  0.00     0.127 S 
ATOM     77  O   UNL     1       1.510   5.852  15.646  1.00  0.00    -0.237 OA
ATOM     78  O   UNL     1      -0.788   5.919  16.528  1.00  0.00    -0.237 OA
ATOM     79  O   UNL     1       0.812   4.262  17.393  1.00  0.00    -0.744 OA
ENDBRANCH  73  76
ENDBRANCH  55  69
BRANCH  56  80
ATOM     80  C   UNL     1      -0.520  -8.117  14.390  1.00  0.00     0.023 A 
ATOM     81  C   UNL     1      -1.540  -8.832  13.735  1.00  0.00     0.012 A 
ATOM     82  C   UNL     1       0.536  -8.819  15.002  1.00  0.00     0.148 A 
ATOM     83  C   UNL     1      -1.510 -10.226  13.692  1.00  0.00     0.002 A 
ATOM     84  C   UNL     1       0.584 -10.204  14.917  1.00  0.00     0.091 A 
ATOM     85  F   UNL     1       1.491  -8.111  15.620  1.00  0.00    -0.205 F 
ATOM     86  C   UNL     1      -0.443 -10.911  14.271  1.00  0.00     0.022 A 
BRANCH  84  87
ATOM     87  S   UNL     1       1.972 -11.165  15.530  1.00  0.00     0.127 S 
ATOM     88  O   UNL     1       1.343 -11.957  16.584  1.00  0.00    -0.237 OA
ATOM     89  O   UNL     1       2.360 -11.920  14.338  1.00  0.00    -0.237 OA
ATOM     90  O   UNL     1       2.959 -10.194  15.980  1.00  0.00    -0.744 OA
ENDBRANCH  84  87
ENDBRANCH  56  80
BRANCH  68  91
ATOM     91  C   UNL     1      -4.385  -3.123  17.405  1.00  0.00     0.023 A 
ATOM     92  C   UNL     1      -4.110  -3.304  18.773  1.00  0.00     0.012 A 
ATOM     93  C   UNL     1      -5.699  -2.835  16.989  1.00  0.00     0.148 A 
ATOM     94  C   UNL     1      -5.130  -3.202  19.717  1.00  0.00     0.002 A 
ATOM     95  C   UNL     1      -6.705  -2.702  17.938  1.00  0.00     0.091 A 
ATOM     96  F   UNL     1      -5.933  -2.674  15.678  1.00  0.00    -0.205 F 
ATOM     97  C   UNL     1      -6.423  -2.889  19.302  1.00  0.00     0.022 A 
BRANCH  95  98
ATOM     98  S   UNL     1      -8.385  -2.230  17.512  1.00  0.00     0.127 S 
ATOM     99  O   UNL     1      -9.133  -3.433  17.875  1.00  0.00    -0.237 OA
ATOM    100  O   UNL     1      -8.614  -1.081  18.387  1.00  0.00    -0.237 OA
ATOM    101  O   UNL     1      -8.370  -1.920  16.088  1.00  0.00    -0.744 OA
ENDBRANCH  95  98
ENDBRANCH  68  91
ENDBRANCH  42  43
ENDBRANCH  34  37
ENDBRANCH  32  33
ENDBRANCH  31  32
ENDBRANCH  30  31
ENDBRANCH   1  30
TORSDOF 19
