REMARK SMILES O=C(Cc1cccn(C(F)F)c1=O)NCCCCCCNC(=O)c1ccc(-c2c3nc(c(-c4cccc(S(=O)(=O)[O-])c4F)c4ccc([nH]4)c(-c4cccc(S(=O)(=O)[O-])c4F)c4nc(c(-c5cccc(S(=O)(=O)[O-])c5F)c5ccc2[nH]5)C=C4)C=C3)cc1
REMARK SMILES IDX 18 1 17 2 16 3 15 4 14 5 1 6 2 7 3 9 4 10 5 11 12 12 6 13
REMARK SMILES IDX 8 14 13 15 7 16 9 17 10 18 11 19 19 20 20 21 21 22 22 23
REMARK SMILES IDX 23 25 24 26 25 27 86 28 26 29 85 30 27 31 28 32 29 33 79 34
REMARK SMILES IDX 30 35 84 36 78 37 80 38 31 39 83 40 77 41 76 42 32 44 64 45
REMARK SMILES IDX 44 46 63 47 45 48 48 49 62 50 81 51 46 52 47 53 61 55 82 56
REMARK SMILES IDX 49 57 33 58 34 59 42 60 35 61 37 62 43 63 36 64 38 65 39 66
REMARK SMILES IDX 40 67 41 68 65 69 66 70 74 71 67 72 69 73 75 74 68 75 70 76
REMARK SMILES IDX 71 77 72 78 73 79 50 80 51 81 59 82 52 83 54 84 60 85 53 86
REMARK SMILES IDX 55 87 56 88 57 89 58 90
REMARK H PARENT 14 8 21 24 80 43 48 54
REMARK Flexibility Score: inf
ROOT
ATOM      1  C   UNL     1       4.660   3.416  -2.300  1.00  0.00     0.002 C 
ENDROOT
BRANCH   1   2
ATOM      2  C   UNL     1       4.108   3.589  -0.883  1.00  0.00     0.002 C 
BRANCH   2   3
ATOM      3  C   UNL     1       2.598   3.352  -0.724  1.00  0.00     0.021 C 
BRANCH   3   4
ATOM      4  C   UNL     1       2.107   1.966  -1.144  1.00  0.00     0.116 C 
BRANCH   4   5
ATOM      5  N   UNL     1       2.788   0.923  -0.407  1.00  0.00    -0.356 N 
ATOM      6  O   UNL     1       1.056  -0.589  -0.372  1.00  0.00    -0.275 OA
ATOM      7  C   UNL     1       2.205  -0.283  -0.078  1.00  0.00     0.224 C 
ATOM      8  H   UNL     1       3.718   1.082  -0.126  1.00  0.00     0.163 HD
BRANCH   7   9
ATOM      9  C   UNL     1       3.148  -1.207   0.681  1.00  0.00     0.141 C 
BRANCH   9  10
ATOM     10  C   UNL     1       3.964  -2.012  -0.288  1.00  0.00     0.027 A 
ATOM     11  C   UNL     1       5.048  -1.535  -0.928  1.00  0.00     0.011 A 
ATOM     12  C   UNL     1       3.567  -3.444  -0.507  1.00  0.00     0.258 A 
ATOM     13  C   UNL     1       5.786  -2.344  -1.861  1.00  0.00     0.019 A 
ATOM     14  N   UNL     1       4.334  -4.155  -1.416  1.00  0.00    -0.258 N 
ATOM     15  O   UNL     1       2.636  -3.936   0.123  1.00  0.00    -0.269 OA
ATOM     16  C   UNL     1       5.416  -3.609  -2.079  1.00  0.00     0.095 A 
BRANCH  14  17
ATOM     17  C   UNL     1       3.994  -5.536  -1.637  1.00  0.00     0.451 C 
ATOM     18  F   UNL     1       3.838  -5.765  -2.969  1.00  0.00    -0.185 F 
ATOM     19  F   UNL     1       5.033  -6.323  -1.242  1.00  0.00    -0.185 F 
ENDBRANCH  14  17
ENDBRANCH   9  10
ENDBRANCH   7   9
ENDBRANCH   4   5
ENDBRANCH   3   4
ENDBRANCH   2   3
ENDBRANCH   1   2
BRANCH   1  20
ATOM     20  C   UNL     1       4.031   4.322  -3.359  1.00  0.00     0.021 C 
BRANCH  20  21
ATOM     21  C   UNL     1       4.075   5.814  -3.046  1.00  0.00     0.116 C 
BRANCH  21  22
ATOM     22  N   UNL     1       5.428   6.346  -2.970  1.00  0.00    -0.352 N 
ATOM     23  C   UNL     1       5.918   7.516  -3.505  1.00  0.00     0.251 C 
ATOM     24  H   UNL     1       6.076   5.797  -2.472  1.00  0.00     0.163 HD
ATOM     25  O   UNL     1       7.118   7.769  -3.444  1.00  0.00    -0.269 OA
BRANCH  23  26
ATOM     26  C   UNL     1       4.987   8.437  -4.192  1.00  0.00     0.039 A 
ATOM     27  C   UNL     1       3.788   8.813  -3.580  1.00  0.00     0.014 A 
ATOM     28  C   UNL     1       5.286   8.870  -5.486  1.00  0.00     0.014 A 
ATOM     29  C   UNL     1       2.819   9.479  -4.323  1.00  0.00     0.010 A 
ATOM     30  C   UNL     1       4.337   9.602  -6.205  1.00  0.00     0.010 A 
ATOM     31  C   UNL     1       3.076   9.866  -5.649  1.00  0.00    -0.014 A 
BRANCH  31  32
ATOM     32  C   UNL     1       2.007  10.532  -6.438  1.00  0.00     0.031 A 
ATOM     33  C   UNL     1       1.399   9.857  -7.639  1.00  0.00     0.074 A 
ATOM     34  C   UNL     1       1.553  11.737  -6.044  1.00  0.00     0.049 A 
ATOM     35  N   UNL     1       0.450  10.289  -8.429  1.00  0.00    -0.248 NA
ATOM     36  C   UNL     1       1.918   8.527  -8.002  1.00  0.00     0.031 C 
ATOM     37  C   UNL     1       2.069  12.499  -4.906  1.00  0.00     0.029 A 
ATOM     38  N   UNL     1       0.549  12.525  -6.546  1.00  0.00    -0.354 N 
ATOM     39  C   UNL     1       0.285   9.310  -9.402  1.00  0.00     0.074 A 
ATOM     40  C   UNL     1       1.232   8.258  -9.106  1.00  0.00     0.031 C 
ATOM     41  C   UNL     1       1.355  13.627  -4.773  1.00  0.00     0.029 A 
ATOM     42  C   UNL     1       0.360  13.690  -5.840  1.00  0.00     0.049 A 
ATOM     43  H   UNL     1       0.014  12.281  -7.336  1.00  0.00     0.167 HD
ATOM     44  C   UNL     1      -0.590   9.281 -10.434  1.00  0.00     0.034 A 
ATOM     45  C   UNL     1      -0.511  14.699  -6.028  1.00  0.00     0.034 A 
ATOM     46  C   UNL     1      -1.571  10.297 -10.698  1.00  0.00     0.049 A 
ATOM     47  C   UNL     1      -1.489  14.628  -7.164  1.00  0.00     0.074 A 
ATOM     48  C   UNL     1      -2.517  10.335 -11.709  1.00  0.00     0.029 A 
ATOM     49  N   UNL     1      -1.745  11.446  -9.944  1.00  0.00    -0.354 N 
ATOM     50  N   UNL     1      -1.665  13.665  -8.035  1.00  0.00    -0.248 NA
ATOM     51  C   UNL     1      -2.397  15.771  -7.335  1.00  0.00     0.031 C 
ATOM     52  C   UNL     1      -3.269  11.504 -11.560  1.00  0.00     0.029 A 
ATOM     53  C   UNL     1      -2.789  12.194 -10.459  1.00  0.00     0.049 A 
ATOM     54  H   UNL     1      -1.205  11.693  -9.159  1.00  0.00     0.167 HD
ATOM     55  C   UNL     1      -2.708  14.079  -8.852  1.00  0.00     0.074 A 
ATOM     56  C   UNL     1      -3.142  15.370  -8.359  1.00  0.00     0.031 C 
ATOM     57  C   UNL     1      -3.242  13.453  -9.928  1.00  0.00     0.034 A 
BRANCH  44  58
ATOM     58  C   UNL     1      -0.578   8.077 -11.336  1.00  0.00     0.023 A 
ATOM     59  C   UNL     1      -1.256   6.912 -10.928  1.00  0.00     0.012 A 
ATOM     60  C   UNL     1       0.008   8.130 -12.615  1.00  0.00     0.148 A 
ATOM     61  C   UNL     1      -1.346   5.811 -11.778  1.00  0.00     0.002 A 
ATOM     62  C   UNL     1      -0.108   7.038 -13.467  1.00  0.00     0.091 A 
ATOM     63  F   UNL     1       0.660   9.245 -12.973  1.00  0.00    -0.205 F 
ATOM     64  C   UNL     1      -0.781   5.878 -13.050  1.00  0.00     0.022 A 
BRANCH  62  65
ATOM     65  S   UNL     1       0.538   7.038 -15.144  1.00  0.00     0.127 S 
ATOM     66  O   UNL     1       1.619   6.058 -15.042  1.00  0.00    -0.237 OA
ATOM     67  O   UNL     1      -0.619   6.593 -15.920  1.00  0.00    -0.237 OA
ATOM     68  O   UNL     1       0.963   8.405 -15.412  1.00  0.00    -0.744 OA
ENDBRANCH  62  65
ENDBRANCH  44  58
BRANCH  45  69
ATOM     69  C   UNL     1      -0.521  15.832  -5.064  1.00  0.00     0.023 A 
ATOM     70  C   UNL     1      -1.552  15.910  -4.110  1.00  0.00     0.012 A 
ATOM     71  C   UNL     1       0.529  16.768  -5.029  1.00  0.00     0.148 A 
ATOM     72  C   UNL     1      -1.537  16.906  -3.133  1.00  0.00     0.002 A 
ATOM     73  C   UNL     1       0.563  17.728  -4.026  1.00  0.00     0.091 A 
ATOM     74  F   UNL     1       1.492  16.674  -5.957  1.00  0.00    -0.205 F 
ATOM     75  C   UNL     1      -0.474  17.805  -3.082  1.00  0.00     0.022 A 
BRANCH  73  76
ATOM     76  S   UNL     1       1.951  18.846  -3.804  1.00  0.00     0.127 S 
ATOM     77  O   UNL     1       1.348  20.137  -4.124  1.00  0.00    -0.237 OA
ATOM     78  O   UNL     1       2.272  18.648  -2.390  1.00  0.00    -0.237 OA
ATOM     79  O   UNL     1       2.980  18.386  -4.726  1.00  0.00    -0.744 OA
ENDBRANCH  73  76
ENDBRANCH  45  69
BRANCH  57  80
ATOM     80  C   UNL     1      -4.358  14.143 -10.659  1.00  0.00     0.023 A 
ATOM     81  C   UNL     1      -4.046  15.157 -11.585  1.00  0.00     0.012 A 
ATOM     82  C   UNL     1      -5.691  13.713 -10.517  1.00  0.00     0.148 A 
ATOM     83  C   UNL     1      -5.050  15.742 -12.355  1.00  0.00     0.002 A 
ATOM     84  C   UNL     1      -6.682  14.281 -11.309  1.00  0.00     0.091 A 
ATOM     85  F   UNL     1      -5.961  12.756  -9.618  1.00  0.00    -0.205 F 
ATOM     86  C   UNL     1      -6.364  15.297 -12.226  1.00  0.00     0.022 A 
BRANCH  84  87
ATOM     87  S   UNL     1      -8.390  13.727 -11.264  1.00  0.00     0.127 S 
ATOM     88  O   UNL     1      -9.053  14.858 -10.617  1.00  0.00    -0.237 OA
ATOM     89  O   UNL     1      -8.703  13.566 -12.684  1.00  0.00    -0.237 OA
ATOM     90  O   UNL     1      -8.390  12.486 -10.500  1.00  0.00    -0.744 OA
ENDBRANCH  84  87
ENDBRANCH  57  80
ENDBRANCH  31  32
ENDBRANCH  23  26
ENDBRANCH  21  22
ENDBRANCH  20  21
ENDBRANCH   1  20
TORSDOF 18
