REMARK SMILES CC(=O)O[C@@H]1CC[C@@]23C(=O)O[C@]4(CC[C@]2(O)C1)[C@H]3CC[C@]1(C)[C@H](C(=O)NCCCCCCNC(=O)c2ccc(-c3c5nc(c(-c6cccc(S(=O)(=O)[O-])c6F)c6ccc([nH]6)c(-c6cccc(S(=O)(=O)[O-])c6F)c6nc(c(-c7cccc(S(=O)(=O)[O-])c7F)c7ccc3[nH]7)C=C6)C=C5)cc2)CC[C@@H]14
REMARK SMILES IDX 30 1 29 2 28 3 27 4 26 5 24 6 25 7 23 9 5 10 6 11 17 12 7 13
REMARK SMILES IDX 15 14 8 15 14 16 9 17 18 18 13 19 10 20 11 21 12 22 19 23
REMARK SMILES IDX 101 24 20 25 21 26 100 27 22 28 99 29 4 30 2 31 1 32 3 33
REMARK SMILES IDX 16 34 31 36 32 37 33 38 34 39 35 41 36 42 37 43 98 44 38 45
REMARK SMILES IDX 97 46 39 47 40 48 41 49 91 50 42 51 96 52 90 53 92 54 43 55
REMARK SMILES IDX 95 56 89 57 88 58 44 60 76 61 56 62 75 63 57 64 60 65 74 66
REMARK SMILES IDX 93 67 58 68 59 69 73 71 94 72 61 73 45 74 46 75 54 76 47 77
REMARK SMILES IDX 49 78 55 79 48 80 50 81 51 82 52 83 53 84 77 85 78 86 86 87
REMARK SMILES IDX 79 88 81 89 87 90 80 91 82 92 83 93 84 94 85 95 62 96 63 97
REMARK SMILES IDX 71 98 64 99 66 100 72 101 65 102 67 103 68 104 69 105 70 106
REMARK H PARENT 26 8 16 35 33 40 92 59 60 70
REMARK Flexibility Score: inf
ROOT
ATOM      1  C   UNL     1      -1.808  11.652   2.991  1.00  0.00     0.002 C 
ENDROOT
BRANCH   1   2
ATOM      2  C   UNL     1      -0.385  11.995   2.551  1.00  0.00     0.002 C 
BRANCH   2   3
ATOM      3  C   UNL     1       0.475  10.771   2.243  1.00  0.00     0.021 C 
BRANCH   3   4
ATOM      4  C   UNL     1      -0.004   9.962   1.026  1.00  0.00     0.116 C 
BRANCH   4   5
ATOM      5  N   UNL     1       0.542  10.556  -0.177  1.00  0.00    -0.356 N 
ATOM      6  C   UNL     1       1.656  10.300  -0.899  1.00  0.00     0.223 C 
ATOM      7  O   UNL     1       1.984  11.192  -1.696  1.00  0.00    -0.275 OA
ATOM      8  H   UNL     1      -0.005  11.290  -0.540  1.00  0.00     0.163 HD
BRANCH   6   9
ATOM      9  C   UNL     1       2.462   8.995  -0.890  1.00  0.00     0.085 C 
ATOM     10  C   UNL     1       0.535   2.404   2.977  1.00  0.00     0.179 C 
ATOM     11  C   UNL     1      -0.116   3.572   2.269  1.00  0.00     0.047 C 
ATOM     12  C   UNL     1       1.530   2.990   4.013  1.00  0.00     0.081 C 
ATOM     13  C   UNL     1       0.988   4.388   1.627  1.00  0.00     0.026 C 
ATOM     14  C   UNL     1       2.425   4.200   3.582  1.00  0.00     0.085 C 
ATOM     15  C   UNL     1       1.812   5.325   2.824  1.00  0.00     0.103 C 
ATOM     16  C   UNL     1       3.563   3.755   2.550  1.00  0.00     0.041 C 
ATOM     17  C   UNL     1       1.011   6.447   2.425  1.00  0.00     0.316 C 
ATOM     18  C   UNL     1       3.192   6.389   2.582  1.00  0.00     0.054 C 
ATOM     19  C   UNL     1       3.732   4.691   1.197  1.00  0.00     0.052 C 
ATOM     20  O   UNL     1       0.003   6.982   2.849  1.00  0.00    -0.251 OA
ATOM     21  O   UNL     1       1.628   6.629   1.174  1.00  0.00    -0.458 OA
ATOM     22  C   UNL     1       3.058   6.169   1.156  1.00  0.00     0.120 C 
ATOM     23  C   UNL     1       3.314   7.904   2.879  1.00  0.00     0.009 C 
ATOM     24  C   UNL     1       3.617   6.998   0.021  1.00  0.00     0.040 C 
ATOM     25  C   UNL     1       3.125   8.901   1.702  1.00  0.00     0.008 C 
ATOM     26  C   UNL     1       3.481   8.536   0.235  1.00  0.00    -0.014 C 
ATOM     27  C   UNL     1       2.747   6.674  -1.236  1.00  0.00     0.009 C 
ATOM     28  C   UNL     1       4.834   9.199  -0.114  1.00  0.00     0.012 C 
ATOM     29  C   UNL     1       1.675   7.763  -1.311  1.00  0.00     0.014 C 
BRANCH  10  30
ATOM     30  O   UNL     1       1.236   1.508   2.066  1.00  0.00    -0.462 OA
BRANCH  30  31
ATOM     31  C   UNL     1       0.517   0.892   1.079  1.00  0.00     0.302 C 
ATOM     32  C   UNL     1       1.339  -0.137   0.361  1.00  0.00     0.139 C 
ATOM     33  O   UNL     1      -0.657   1.092   0.803  1.00  0.00    -0.253 OA
ENDBRANCH  30  31
ENDBRANCH  10  30
BRANCH  14  34
ATOM     34  O   UNL     1       3.018   4.746   4.763  1.00  0.00    -0.389 OA
ATOM     35  H   UNL     1       3.580   5.500   4.524  1.00  0.00     0.211 HD
ENDBRANCH  14  34
ENDBRANCH   6   9
ENDBRANCH   4   5
ENDBRANCH   3   4
ENDBRANCH   2   3
ENDBRANCH   1   2
BRANCH   1  36
ATOM     36  C   UNL     1      -1.892  10.685   4.175  1.00  0.00     0.021 C 
BRANCH  36  37
ATOM     37  C   UNL     1      -1.133  11.147   5.415  1.00  0.00     0.116 C 
BRANCH  37  38
ATOM     38  N   UNL     1      -1.605  12.447   5.871  1.00  0.00    -0.352 N 
ATOM     39  C   UNL     1      -2.188  12.783   7.065  1.00  0.00     0.251 C 
ATOM     40  H   UNL     1      -1.489  13.188   5.233  1.00  0.00     0.163 HD
ATOM     41  O   UNL     1      -2.780  13.851   7.184  1.00  0.00    -0.269 OA
BRANCH  39  42
ATOM     42  C   UNL     1      -2.092  11.850   8.205  1.00  0.00     0.039 A 
ATOM     43  C   UNL     1      -3.221  11.623   8.993  1.00  0.00     0.014 A 
ATOM     44  C   UNL     1      -0.883  11.213   8.498  1.00  0.00     0.014 A 
ATOM     45  C   UNL     1      -3.143  10.726  10.058  1.00  0.00     0.010 A 
ATOM     46  C   UNL     1      -0.833  10.253   9.502  1.00  0.00     0.010 A 
ATOM     47  C   UNL     1      -1.955  10.016  10.307  1.00  0.00    -0.014 A 
BRANCH  47  48
ATOM     48  C   UNL     1      -1.882   9.024  11.409  1.00  0.00     0.031 A 
ATOM     49  C   UNL     1      -0.920   9.218  12.549  1.00  0.00     0.074 A 
ATOM     50  C   UNL     1      -2.644   7.914  11.349  1.00  0.00     0.049 A 
ATOM     51  N   UNL     1      -0.733   8.467  13.603  1.00  0.00    -0.248 NA
ATOM     52  C   UNL     1      -0.033  10.392  12.488  1.00  0.00     0.031 C 
ATOM     53  C   UNL     1      -3.543   7.566  10.247  1.00  0.00     0.029 A 
ATOM     54  N   UNL     1      -2.771   6.866  12.226  1.00  0.00    -0.354 N 
ATOM     55  C   UNL     1       0.312   9.053  14.307  1.00  0.00     0.074 A 
ATOM     56  C   UNL     1       0.745  10.201  13.543  1.00  0.00     0.031 C 
ATOM     57  C   UNL     1      -4.141   6.396  10.520  1.00  0.00     0.029 A 
ATOM     58  C   UNL     1      -3.644   5.894  11.798  1.00  0.00     0.049 A 
ATOM     59  H   UNL     1      -2.284   6.815  13.079  1.00  0.00     0.167 HD
ATOM     60  C   UNL     1       0.846   8.684  15.496  1.00  0.00     0.034 A 
ATOM     61  C   UNL     1      -4.001   4.726  12.366  1.00  0.00     0.034 A 
ATOM     62  C   UNL     1       0.390   7.559  16.265  1.00  0.00     0.049 A 
ATOM     63  C   UNL     1      -3.432   4.365  13.709  1.00  0.00     0.074 A 
ATOM     64  C   UNL     1       0.792   7.161  17.527  1.00  0.00     0.029 A 
ATOM     65  N   UNL     1      -0.553   6.638  15.836  1.00  0.00    -0.354 N 
ATOM     66  N   UNL     1      -2.568   5.024  14.443  1.00  0.00    -0.248 NA
ATOM     67  C   UNL     1      -3.914   3.119  14.322  1.00  0.00     0.031 C 
ATOM     68  C   UNL     1       0.127   5.971  17.841  1.00  0.00     0.029 A 
ATOM     69  C   UNL     1      -0.731   5.659  16.799  1.00  0.00     0.049 A 
ATOM     70  H   UNL     1      -1.028   6.674  14.974  1.00  0.00     0.167 HD
ATOM     71  C   UNL     1      -2.432   4.295  15.619  1.00  0.00     0.074 A 
ATOM     72  C   UNL     1      -3.315   3.153  15.505  1.00  0.00     0.031 C 
ATOM     73  C   UNL     1      -1.641   4.547  16.692  1.00  0.00     0.034 A 
BRANCH  60  74
ATOM     74  C   UNL     1       1.970   9.523  16.051  1.00  0.00     0.023 A 
ATOM     75  C   UNL     1       1.716  10.837  16.496  1.00  0.00     0.012 A 
ATOM     76  C   UNL     1       3.268   8.992  16.178  1.00  0.00     0.148 A 
ATOM     77  C   UNL     1       2.744  11.623  17.016  1.00  0.00     0.002 A 
ATOM     78  C   UNL     1       4.276   9.762  16.745  1.00  0.00     0.091 A 
ATOM     79  F   UNL     1       3.497   7.748  15.732  1.00  0.00    -0.205 F 
ATOM     80  C   UNL     1       4.019  11.083  17.151  1.00  0.00     0.022 A 
BRANCH  78  81
ATOM     81  S   UNL     1       5.929   9.128  17.041  1.00  0.00     0.127 S 
ATOM     82  O   UNL     1       6.714   9.882  16.064  1.00  0.00    -0.237 OA
ATOM     83  O   UNL     1       6.160   9.511  18.434  1.00  0.00    -0.237 OA
ATOM     84  O   UNL     1       5.858   7.692  16.809  1.00  0.00    -0.744 OA
ENDBRANCH  78  81
ENDBRANCH  60  74
BRANCH  61  85
ATOM     85  C   UNL     1      -4.986   3.843  11.682  1.00  0.00     0.023 A 
ATOM     86  C   UNL     1      -6.281   3.693  12.216  1.00  0.00     0.012 A 
ATOM     87  C   UNL     1      -4.656   3.183  10.483  1.00  0.00     0.148 A 
ATOM     88  C   UNL     1      -7.219   2.876  11.584  1.00  0.00     0.002 A 
ATOM     89  C   UNL     1      -5.612   2.418   9.828  1.00  0.00     0.091 A 
ATOM     90  F   UNL     1      -3.416   3.337   9.996  1.00  0.00    -0.205 F 
ATOM     91  C   UNL     1      -6.889   2.248  10.386  1.00  0.00     0.022 A 
BRANCH  89  92
ATOM     92  S   UNL     1      -5.317   1.676   8.220  1.00  0.00     0.127 S 
ATOM     93  O   UNL     1      -5.347   0.251   8.538  1.00  0.00    -0.237 OA
ATOM     94  O   UNL     1      -6.464   2.162   7.452  1.00  0.00    -0.237 OA
ATOM     95  O   UNL     1      -4.030   2.192   7.774  1.00  0.00    -0.744 OA
ENDBRANCH  89  92
ENDBRANCH  61  85
BRANCH  73  96
ATOM     96  C   UNL     1      -1.722   3.598  17.859  1.00  0.00     0.023 A 
ATOM     97  C   UNL     1      -1.196   2.295  17.753  1.00  0.00     0.012 A 
ATOM     98  C   UNL     1      -2.257   4.030  19.089  1.00  0.00     0.148 A 
ATOM     99  C   UNL     1      -1.236   1.425  18.843  1.00  0.00     0.002 A 
ATOM    100  C   UNL     1      -2.241   3.178  20.186  1.00  0.00     0.091 A 
ATOM    101  F   UNL     1      -2.768   5.268  19.165  1.00  0.00    -0.205 F 
ATOM    102  C   UNL     1      -1.746   1.871  20.061  1.00  0.00     0.022 A 
BRANCH 100 103
ATOM    103  S   UNL     1      -2.781   3.699  21.818  1.00  0.00     0.127 S 
ATOM    104  O   UNL     1      -4.013   2.930  21.982  1.00  0.00    -0.237 OA
ATOM    105  O   UNL     1      -1.670   3.260  22.664  1.00  0.00    -0.237 OA
ATOM    106  O   UNL     1      -2.952   5.143  21.745  1.00  0.00    -0.744 OA
ENDBRANCH 100 103
ENDBRANCH  73  96
ENDBRANCH  47  48
ENDBRANCH  39  42
ENDBRANCH  37  38
ENDBRANCH  36  37
ENDBRANCH   1  36
TORSDOF 19
