REMARK SMILES COC(=O)[C@H]1CN(C(=O)[C@@H]2CC=CC[C@@H]2C(=O)NCCCCCCNC(=O)c2ccc(-c3c4nc(c(-c5cccc(S(=O)(=O)[O-])c5F)c5ccc([nH]5)c(-c5cccc(S(=O)(=O)[O-])c5F)c5nc(c(-c6cccc(S(=O)(=O)[O-])c6F)c6ccc3[nH]6)C=C5)C=C4)cc2)C[C@H]1C
REMARK SMILES IDX 21 1 20 2 19 3 18 4 16 5 17 6 15 8 10 9 11 10 12 11 14 12
REMARK SMILES IDX 13 13 8 14 9 15 7 16 5 17 6 18 92 19 91 20 93 21 3 22 4 23
REMARK SMILES IDX 2 24 1 25 22 26 23 27 24 28 25 29 26 30 27 32 28 33 29 34
REMARK SMILES IDX 90 35 30 36 89 37 31 38 32 39 33 40 83 41 34 42 88 43 82 44
REMARK SMILES IDX 84 45 35 46 87 47 81 48 80 49 36 51 68 52 48 53 67 54 49 55
REMARK SMILES IDX 52 56 66 57 85 58 50 59 51 60 65 62 86 63 53 64 37 65 38 66
REMARK SMILES IDX 46 67 39 68 41 69 47 70 40 71 42 72 43 73 44 74 45 75 69 76
REMARK SMILES IDX 70 77 78 78 71 79 73 80 79 81 72 82 74 83 75 84 76 85 77 86
REMARK SMILES IDX 54 87 55 88 63 89 56 90 58 91 64 92 57 93 59 94 60 95 61 96
REMARK SMILES IDX 62 97
REMARK H PARENT 18 7 25 31 84 50 52 61
REMARK Flexibility Score: inf
ROOT
ATOM      1  C   UNL     1       0.221  -2.245  10.565  1.00  0.00     0.002 C 
ENDROOT
BRANCH   1   2
ATOM      2  C   UNL     1       0.011  -2.235   9.049  1.00  0.00     0.021 C 
BRANCH   2   3
ATOM      3  C   UNL     1       0.815  -3.300   8.299  1.00  0.00     0.116 C 
BRANCH   3   4
ATOM      4  N   UNL     1       0.165  -4.596   8.408  1.00  0.00    -0.356 N 
ATOM      5  C   UNL     1      -0.588  -5.288   7.516  1.00  0.00     0.224 C 
ATOM      6  O   UNL     1      -1.529  -5.923   8.010  1.00  0.00    -0.275 OA
ATOM      7  H   UNL     1       0.293  -5.048   9.273  1.00  0.00     0.163 HD
BRANCH   5   8
ATOM      8  C   UNL     1      -0.284  -5.459   6.024  1.00  0.00     0.095 C 
ATOM      9  C   UNL     1       0.676  -6.623   5.712  1.00  0.00     0.095 C 
ATOM     10  C   UNL     1       2.096  -6.373   6.221  1.00  0.00     0.041 C 
ATOM     11  C   UNL     1       2.569  -5.009   5.784  1.00  0.00    -0.030 C 
ATOM     12  C   UNL     1       0.230  -4.218   5.272  1.00  0.00     0.041 C 
ATOM     13  C   UNL     1       1.738  -4.063   5.313  1.00  0.00    -0.030 C 
BRANCH   9  14
ATOM     14  C   UNL     1       0.176  -8.068   5.780  1.00  0.00     0.226 C 
ATOM     15  O   UNL     1      -0.170  -8.610   4.720  1.00  0.00    -0.275 OA
BRANCH  14  16
ATOM     16  N   UNL     1       0.206  -8.809   6.931  1.00  0.00    -0.341 N 
ATOM     17  C   UNL     1       0.759 -10.722   8.136  1.00  0.00     0.123 C 
ATOM     18  C   UNL     1       0.065 -10.251   6.869  1.00  0.00     0.135 C 
ATOM     19  C   UNL     1       0.445  -9.615   9.166  1.00  0.00     0.021 C 
ATOM     20  C   UNL     1       0.112  -8.378   8.309  1.00  0.00     0.123 C 
ATOM     21  C   UNL     1      -0.690  -9.933  10.142  1.00  0.00     0.010 C 
BRANCH  17  22
ATOM     22  C   UNL     1       0.346 -12.124   8.509  1.00  0.00     0.310 C 
ATOM     23  O   UNL     1      -0.437 -12.821   7.883  1.00  0.00    -0.252 OA
BRANCH  22  24
ATOM     24  O   UNL     1       1.000 -12.514   9.641  1.00  0.00    -0.469 OA
ATOM     25  C   UNL     1       0.614 -13.804  10.116  1.00  0.00     0.282 C 
ENDBRANCH  22  24
ENDBRANCH  17  22
ENDBRANCH  14  16
ENDBRANCH   9  14
ENDBRANCH   5   8
ENDBRANCH   3   4
ENDBRANCH   2   3
ENDBRANCH   1   2
BRANCH   1  26
ATOM     26  C   UNL     1       1.670  -2.031  11.017  1.00  0.00     0.002 C 
BRANCH  26  27
ATOM     27  C   UNL     1       2.366  -0.808  10.414  1.00  0.00     0.021 C 
BRANCH  27  28
ATOM     28  C   UNL     1       1.650   0.516  10.663  1.00  0.00     0.116 C 
BRANCH  28  29
ATOM     29  N   UNL     1       1.538   0.810  12.083  1.00  0.00    -0.352 N 
ATOM     30  C   UNL     1       1.966   1.916  12.773  1.00  0.00     0.251 C 
ATOM     31  H   UNL     1       1.093   0.119  12.625  1.00  0.00     0.163 HD
ATOM     32  O   UNL     1       1.994   1.902  14.000  1.00  0.00    -0.269 OA
BRANCH  30  33
ATOM     33  C   UNL     1       2.403   3.116  12.031  1.00  0.00     0.039 A 
ATOM     34  C   UNL     1       3.572   3.771  12.426  1.00  0.00     0.014 A 
ATOM     35  C   UNL     1       1.657   3.595  10.950  1.00  0.00     0.014 A 
ATOM     36  C   UNL     1       4.020   4.878  11.704  1.00  0.00     0.010 A 
ATOM     37  C   UNL     1       2.147   4.649  10.185  1.00  0.00     0.010 A 
ATOM     38  C   UNL     1       3.327   5.309  10.559  1.00  0.00    -0.014 A 
BRANCH  38  39
ATOM     39  C   UNL     1       3.823   6.445   9.742  1.00  0.00     0.031 A 
ATOM     40  C   UNL     1       2.989   7.688   9.587  1.00  0.00     0.074 A 
ATOM     41  C   UNL     1       4.988   6.325   9.074  1.00  0.00     0.049 A 
ATOM     42  N   UNL     1       3.222   8.752   8.864  1.00  0.00    -0.248 NA
ATOM     43  C   UNL     1       1.713   7.731  10.321  1.00  0.00     0.031 C 
ATOM     44  C   UNL     1       5.849   5.141   9.081  1.00  0.00     0.029 A 
ATOM     45  N   UNL     1       5.634   7.199   8.235  1.00  0.00    -0.354 N 
ATOM     46  C   UNL     1       2.116   9.576   9.032  1.00  0.00     0.074 A 
ATOM     47  C   UNL     1       1.191   8.870   9.892  1.00  0.00     0.031 C 
ATOM     48  C   UNL     1       6.906   5.360   8.284  1.00  0.00     0.029 A 
ATOM     49  C   UNL     1       6.782   6.683   7.681  1.00  0.00     0.049 A 
ATOM     50  H   UNL     1       5.306   8.108   8.048  1.00  0.00     0.167 HD
ATOM     51  C   UNL     1       1.901  10.821   8.543  1.00  0.00     0.034 A 
ATOM     52  C   UNL     1       7.630   7.208   6.775  1.00  0.00     0.034 A 
ATOM     53  C   UNL     1       2.835  11.530   7.711  1.00  0.00     0.049 A 
ATOM     54  C   UNL     1       7.380   8.600   6.261  1.00  0.00     0.074 A 
ATOM     55  C   UNL     1       2.742  12.820   7.220  1.00  0.00     0.029 A 
ATOM     56  N   UNL     1       4.029  11.007   7.238  1.00  0.00    -0.354 N 
ATOM     57  N   UNL     1       6.398   9.420   6.547  1.00  0.00    -0.248 NA
ATOM     58  C   UNL     1       8.372   9.154   5.329  1.00  0.00     0.031 C 
ATOM     59  C   UNL     1       3.866  13.066   6.424  1.00  0.00     0.029 A 
ATOM     60  C   UNL     1       4.678  11.944   6.453  1.00  0.00     0.049 A 
ATOM     61  H   UNL     1       4.365  10.102   7.431  1.00  0.00     0.167 HD
ATOM     62  C   UNL     1       6.673  10.598   5.862  1.00  0.00     0.074 A 
ATOM     63  C   UNL     1       7.925  10.392   5.164  1.00  0.00     0.031 C 
ATOM     64  C   UNL     1       5.949  11.743   5.805  1.00  0.00     0.034 A 
BRANCH  51  65
ATOM     65  C   UNL     1       0.623  11.517   8.938  1.00  0.00     0.023 A 
ATOM     66  C   UNL     1       0.448  11.946  10.270  1.00  0.00     0.012 A 
ATOM     67  C   UNL     1      -0.376  11.799   7.986  1.00  0.00     0.148 A 
ATOM     68  C   UNL     1      -0.717  12.608  10.657  1.00  0.00     0.002 A 
ATOM     69  C   UNL     1      -1.512  12.502   8.368  1.00  0.00     0.091 A 
ATOM     70  F   UNL     1      -0.201  11.368   6.728  1.00  0.00    -0.205 F 
ATOM     71  C   UNL     1      -1.690  12.896   9.705  1.00  0.00     0.022 A 
BRANCH  69  72
ATOM     72  S   UNL     1      -2.788  12.994   7.204  1.00  0.00     0.127 S 
ATOM     73  O   UNL     1      -3.912  12.161   7.630  1.00  0.00    -0.237 OA
ATOM     74  O   UNL     1      -2.940  14.419   7.500  1.00  0.00    -0.237 OA
ATOM     75  O   UNL     1      -2.261  12.699   5.879  1.00  0.00    -0.744 OA
ENDBRANCH  69  72
ENDBRANCH  51  65
BRANCH  52  76
ATOM     76  C   UNL     1       8.817   6.427   6.324  1.00  0.00     0.023 A 
ATOM     77  C   UNL     1      10.110   6.845   6.692  1.00  0.00     0.012 A 
ATOM     78  C   UNL     1       8.667   5.263   5.545  1.00  0.00     0.148 A 
ATOM     79  C   UNL     1      11.235   6.141   6.259  1.00  0.00     0.002 A 
ATOM     80  C   UNL     1       9.787   4.533   5.168  1.00  0.00     0.091 A 
ATOM     81  F   UNL     1       7.428   4.887   5.197  1.00  0.00    -0.205 F 
ATOM     82  C   UNL     1      11.074   4.981   5.506  1.00  0.00     0.022 A 
BRANCH  80  83
ATOM     83  S   UNL     1       9.665   2.957   4.316  1.00  0.00     0.127 S 
ATOM     84  O   UNL     1      10.172   3.294   2.989  1.00  0.00    -0.237 OA
ATOM     85  O   UNL     1      10.550   2.111   5.119  1.00  0.00    -0.237 OA
ATOM     86  O   UNL     1       8.259   2.582   4.380  1.00  0.00    -0.744 OA
ENDBRANCH  80  83
ENDBRANCH  52  76
BRANCH  64  87
ATOM     87  C   UNL     1       6.510  12.887   5.001  1.00  0.00     0.023 A 
ATOM     88  C   UNL     1       6.528  12.819   3.594  1.00  0.00     0.012 A 
ATOM     89  C   UNL     1       6.950  14.061   5.643  1.00  0.00     0.148 A 
ATOM     90  C   UNL     1       7.009  13.889   2.840  1.00  0.00     0.002 A 
ATOM     91  C   UNL     1       7.377  15.143   4.884  1.00  0.00     0.091 A 
ATOM     92  F   UNL     1       6.939  14.099   6.983  1.00  0.00    -0.205 F 
ATOM     93  C   UNL     1       7.421  15.054   3.483  1.00  0.00     0.022 A 
BRANCH  91  94
ATOM     94  S   UNL     1       7.831  16.718   5.619  1.00  0.00     0.127 S 
ATOM     95  O   UNL     1       9.275  16.748   5.387  1.00  0.00    -0.237 OA
ATOM     96  O   UNL     1       7.064  17.667   4.812  1.00  0.00    -0.237 OA
ATOM     97  O   UNL     1       7.427  16.643   7.016  1.00  0.00    -0.744 OA
ENDBRANCH  91  94
ENDBRANCH  64  87
ENDBRANCH  38  39
ENDBRANCH  30  33
ENDBRANCH  28  29
ENDBRANCH  27  28
ENDBRANCH  26  27
ENDBRANCH   1  26
TORSDOF 20
