REMARK SMILES COc1ccc([C@@H]2C3=C(C[C@@H](c4ccccc4)CC3=O)Nc3ccccc3N2C(=O)CCC(=O)NCCCCCCNC(=O)c2ccc(-c3c4nc(c(-c5cccc(S(=O)(=O)[O-])c5F)c5ccc([nH]5)c(-c5cccc(S(=O)(=O)[O-])c5F)c5nc(c(-c6cccc(S(=O)(=O)[O-])c6F)c6ccc3[nH]6)C=C5)C=C4)cc2)cc1
REMARK SMILES IDX 36 1 35 2 33 3 34 4 32 6 31 7 29 8 30 9 28 10 7 11 6 13 3 14
REMARK SMILES IDX 4 15 109 16 5 17 108 18 2 19 1 20 27 21 22 22 26 23 23 24
REMARK SMILES IDX 25 25 24 26 21 27 9 29 8 30 10 31 19 32 11 34 18 35 20 36
REMARK SMILES IDX 12 37 13 38 17 39 14 40 16 41 15 42 37 43 38 44 39 45 40 46
REMARK SMILES IDX 41 47 42 48 43 49 44 51 45 52 46 53 107 54 47 55 106 56
REMARK SMILES IDX 48 57 49 58 50 59 100 60 51 61 105 62 99 63 101 64 52 65
REMARK SMILES IDX 104 66 98 67 97 68 53 70 85 71 65 72 84 73 66 74 69 75 83 76
REMARK SMILES IDX 102 77 67 78 68 79 82 81 103 82 70 83 54 84 55 85 63 86
REMARK SMILES IDX 56 87 58 88 64 89 57 90 59 91 60 92 61 93 62 94 86 95 87 96
REMARK SMILES IDX 95 97 88 98 90 99 96 100 89 101 91 102 92 103 93 104 94 105
REMARK SMILES IDX 71 106 72 107 80 108 73 109 75 110 81 111 74 112 76 113
REMARK SMILES IDX 77 114 78 115 79 116
REMARK H PARENT 35 5 21 28 42 50 101 69 69 80
REMARK Flexibility Score: 90.00
ROOT
ATOM      1  C   UNL     1      -0.049   3.414  -2.201  1.00  0.00     0.116 C 
ENDROOT
BRANCH   1   2
ATOM      2  N   UNL     1       0.197   4.813  -1.890  1.00  0.00    -0.356 N 
ATOM      3  C   UNL     1      -0.201   5.941  -2.534  1.00  0.00     0.220 C 
ATOM      4  O   UNL     1      -0.023   7.028  -1.982  1.00  0.00    -0.275 OA
ATOM      5  H   UNL     1       0.740   4.967  -1.083  1.00  0.00     0.163 HD
BRANCH   3   6
ATOM      6  C   UNL     1      -0.820   5.856  -3.907  1.00  0.00     0.110 C 
BRANCH   6   7
ATOM      7  C   UNL     1       0.079   6.534  -4.934  1.00  0.00     0.110 C 
BRANCH   7   8
ATOM      8  C   UNL     1       1.299   5.679  -5.299  1.00  0.00     0.228 C 
ATOM      9  O   UNL     1       1.116   4.671  -5.990  1.00  0.00    -0.274 OA
BRANCH   8  10
ATOM     10  N   UNL     1       2.575   6.076  -4.865  1.00  0.00    -0.298 N 
BRANCH  10  11
ATOM     11  C   UNL     1       3.765   5.442  -5.520  1.00  0.00     0.156 CG0
ATOM     12  G   UNL     1       4.287   6.221  -6.737  1.00  0.00     0.000 G0
BRANCH  11  13
ATOM     13  C   UNL     1       4.914   4.886  -4.675  1.00  0.00    -0.020 A 
ATOM     14  C   UNL     1       7.547   4.433  -3.859  1.00  0.00     0.118 A 
ATOM     15  C   UNL     1       6.718   5.248  -3.096  1.00  0.00     0.047 A 
ATOM     16  C   UNL     1       7.019   3.678  -4.898  1.00  0.00     0.047 A 
ATOM     17  C   UNL     1       5.399   5.473  -3.501  1.00  0.00     0.010 A 
ATOM     18  C   UNL     1       5.708   3.900  -5.300  1.00  0.00     0.010 A 
BRANCH  14  19
ATOM     19  O   UNL     1       8.891   4.468  -3.598  1.00  0.00    -0.497 OA
ATOM     20  C   UNL     1       9.630   4.729  -4.800  1.00  0.00     0.278 C 
ENDBRANCH  14  19
ENDBRANCH  11  13
ENDBRANCH  10  11
BRANCH  10  21
ATOM     21  C   UNL     1       2.768   7.420  -4.467  1.00  0.00     0.068 A 
ATOM     22  C   UNL     1       2.924   8.390  -5.476  1.00  0.00     0.062 A 
ATOM     23  C   UNL     1       2.848   7.749  -3.116  1.00  0.00     0.028 A 
ATOM     24  C   UNL     1       3.338   9.667  -5.097  1.00  0.00     0.028 A 
ATOM     25  C   UNL     1       3.247   9.029  -2.753  1.00  0.00     0.002 A 
ATOM     26  C   UNL     1       3.532   9.972  -3.742  1.00  0.00     0.002 A 
BRANCH  22  27
ATOM     27  N   UNL     1       2.740   8.027  -6.832  1.00  0.00    -0.357 N 
ATOM     28  H   UNL     1       2.022   8.459  -7.350  1.00  0.00     0.166 HD
BRANCH  27  29
ATOM     29  C   UNL     1       3.541   7.083  -7.449  1.00  0.00     0.025 C 
ATOM     30  C   UNL     1       4.287   6.221  -6.737  1.00  0.00     0.042 CG0
ATOM     31  C   UNL     1       3.892   7.211  -8.913  1.00  0.00     0.063 C 
ATOM     32  C   UNL     1       5.657   6.863  -6.743  1.00  0.00     0.163 C 
ATOM     33  G   UNL     1       3.765   5.442  -5.520  1.00  0.00     0.000 G0
ATOM     34  C   UNL     1       5.330   7.722  -9.130  1.00  0.00     0.033 C 
ATOM     35  C   UNL     1       6.304   7.170  -8.078  1.00  0.00     0.089 C 
ATOM     36  O   UNL     1       6.243   7.183  -5.710  1.00  0.00    -0.294 OA
BRANCH  34  37
ATOM     37  C   UNL     1       5.422   9.230  -9.350  1.00  0.00    -0.044 A 
ATOM     38  C   UNL     1       4.449  10.128  -8.890  1.00  0.00     0.004 A 
ATOM     39  C   UNL     1       6.460   9.746 -10.143  1.00  0.00     0.004 A 
ATOM     40  C   UNL     1       4.461  11.473  -9.260  1.00  0.00     0.000 A 
ATOM     41  C   UNL     1       6.476  11.094 -10.514  1.00  0.00     0.000 A 
ATOM     42  C   UNL     1       5.467  11.953 -10.087  1.00  0.00     0.000 A 
ENDBRANCH  34  37
ENDBRANCH  27  29
ENDBRANCH  22  27
ENDBRANCH  10  21
ENDBRANCH   8  10
ENDBRANCH   7   8
ENDBRANCH   6   7
ENDBRANCH   3   6
ENDBRANCH   1   2
BRANCH   1  43
ATOM     43  C   UNL     1       0.918   2.791  -3.206  1.00  0.00     0.021 C 
BRANCH  43  44
ATOM     44  C   UNL     1       2.406   3.073  -2.964  1.00  0.00     0.002 C 
BRANCH  44  45
ATOM     45  C   UNL     1       3.218   1.952  -2.310  1.00  0.00     0.002 C 
BRANCH  45  46
ATOM     46  C   UNL     1       3.257   0.623  -3.071  1.00  0.00     0.021 C 
BRANCH  46  47
ATOM     47  C   UNL     1       3.806   0.685  -4.494  1.00  0.00     0.116 C 
BRANCH  47  48
ATOM     48  N   UNL     1       5.257   0.822  -4.543  1.00  0.00    -0.352 N 
ATOM     49  C   UNL     1       6.168   0.108  -5.287  1.00  0.00     0.251 C 
ATOM     50  H   UNL     1       5.638   1.521  -3.965  1.00  0.00     0.163 HD
ATOM     51  O   UNL     1       7.372   0.352  -5.239  1.00  0.00    -0.269 OA
BRANCH  49  52
ATOM     52  C   UNL     1       5.687  -1.014  -6.110  1.00  0.00     0.039 A 
ATOM     53  C   UNL     1       6.157  -2.296  -5.812  1.00  0.00     0.014 A 
ATOM     54  C   UNL     1       4.701  -0.817  -7.079  1.00  0.00     0.014 A 
ATOM     55  C   UNL     1       5.557  -3.400  -6.413  1.00  0.00     0.010 A 
ATOM     56  C   UNL     1       4.062  -1.923  -7.629  1.00  0.00     0.010 A 
ATOM     57  C   UNL     1       4.468  -3.223  -7.281  1.00  0.00    -0.014 A 
BRANCH  57  58
ATOM     58  C   UNL     1       3.703  -4.386  -7.792  1.00  0.00     0.031 A 
ATOM     59  C   UNL     1       3.689  -4.686  -9.262  1.00  0.00     0.074 A 
ATOM     60  C   UNL     1       2.946  -5.105  -6.939  1.00  0.00     0.049 A 
ATOM     61  N   UNL     1       3.019  -5.602  -9.908  1.00  0.00    -0.248 NA
ATOM     62  C   UNL     1       4.518  -3.826 -10.124  1.00  0.00     0.031 C 
ATOM     63  C   UNL     1       2.824  -4.857  -5.499  1.00  0.00     0.029 A 
ATOM     64  N   UNL     1       2.110  -6.171  -7.160  1.00  0.00    -0.354 N 
ATOM     65  C   UNL     1       3.311  -5.407 -11.252  1.00  0.00     0.074 A 
ATOM     66  C   UNL     1       4.201  -4.270 -11.332  1.00  0.00     0.031 C 
ATOM     67  C   UNL     1       1.962  -5.740  -4.970  1.00  0.00     0.029 A 
ATOM     68  C   UNL     1       1.448  -6.599  -6.031  1.00  0.00     0.049 A 
ATOM     69  H   UNL     1       1.994  -6.590  -8.043  1.00  0.00     0.167 HD
ATOM     70  C   UNL     1       2.894  -6.127 -12.319  1.00  0.00     0.034 A 
ATOM     71  C   UNL     1       0.525  -7.569  -5.873  1.00  0.00     0.034 A 
ATOM     72  C   UNL     1       2.046  -7.282 -12.224  1.00  0.00     0.049 A 
ATOM     73  C   UNL     1       0.123  -8.387  -7.072  1.00  0.00     0.074 A 
ATOM     74  C   UNL     1       1.628  -8.128 -13.236  1.00  0.00     0.029 A 
ATOM     75  N   UNL     1       1.484  -7.755 -11.048  1.00  0.00    -0.354 N 
ATOM     76  N   UNL     1       0.530  -8.284  -8.314  1.00  0.00    -0.248 NA
ATOM     77  C   UNL     1      -0.834  -9.480  -6.844  1.00  0.00     0.031 C 
ATOM     78  C   UNL     1       0.801  -9.105 -12.673  1.00  0.00     0.029 A 
ATOM     79  C   UNL     1       0.724  -8.881 -11.307  1.00  0.00     0.049 A 
ATOM     80  H   UNL     1       1.608  -7.349 -10.160  1.00  0.00     0.167 HD
ATOM     81  C   UNL     1      -0.082  -9.323  -9.004  1.00  0.00     0.074 A 
ATOM     82  C   UNL     1      -0.880 -10.052  -8.040  1.00  0.00     0.031 C 
ATOM     83  C   UNL     1      -0.001  -9.637 -10.320  1.00  0.00     0.034 A 
BRANCH  70  84
ATOM     84  C   UNL     1       3.393  -5.716 -13.678  1.00  0.00     0.023 A 
ATOM     85  C   UNL     1       4.738  -5.954 -14.025  1.00  0.00     0.012 A 
ATOM     86  C   UNL     1       2.522  -5.154 -14.631  1.00  0.00     0.148 A 
ATOM     87  C   UNL     1       5.219  -5.609 -15.287  1.00  0.00     0.002 A 
ATOM     88  C   UNL     1       2.997  -4.852 -15.902  1.00  0.00     0.091 A 
ATOM     89  F   UNL     1       1.251  -4.916 -14.276  1.00  0.00    -0.205 F 
ATOM     90  C   UNL     1       4.346  -5.069 -16.228  1.00  0.00     0.022 A 
BRANCH  88  91
ATOM     91  S   UNL     1       1.939  -4.222 -17.209  1.00  0.00     0.127 S 
ATOM     92  O   UNL     1       2.421  -2.848 -17.342  1.00  0.00    -0.237 OA
ATOM     93  O   UNL     1       2.279  -5.098 -18.330  1.00  0.00    -0.237 OA
ATOM     94  O   UNL     1       0.573  -4.359 -16.723  1.00  0.00    -0.744 OA
ENDBRANCH  88  91
ENDBRANCH  70  84
BRANCH  71  95
ATOM     95  C   UNL     1      -0.029  -7.866  -4.521  1.00  0.00     0.023 A 
ATOM     96  C   UNL     1       0.318  -9.073  -3.882  1.00  0.00     0.012 A 
ATOM     97  C   UNL     1      -0.881  -6.962  -3.858  1.00  0.00     0.148 A 
ATOM     98  C   UNL     1      -0.203  -9.391  -2.627  1.00  0.00     0.002 A 
ATOM     99  C   UNL     1      -1.354  -7.260  -2.585  1.00  0.00     0.091 A 
ATOM    100  F   UNL     1      -1.213  -5.824  -4.485  1.00  0.00    -0.205 F 
ATOM    101  C   UNL     1      -1.031  -8.482  -1.974  1.00  0.00     0.022 A 
BRANCH  99 102
ATOM    102  S   UNL     1      -2.320  -6.089  -1.622  1.00  0.00     0.127 S 
ATOM    103  O   UNL     1      -3.661  -6.658  -1.716  1.00  0.00    -0.237 OA
ATOM    104  O   UNL     1      -1.697  -6.192  -0.301  1.00  0.00    -0.237 OA
ATOM    105  O   UNL     1      -2.127  -4.800  -2.272  1.00  0.00    -0.744 OA
ENDBRANCH  99 102
ENDBRANCH  71  95
BRANCH  83 106
ATOM    106  C   UNL     1      -0.742 -10.856 -10.799  1.00  0.00     0.023 A 
ATOM    107  C   UNL     1      -2.142 -10.816 -10.945  1.00  0.00     0.012 A 
ATOM    108  C   UNL     1      -0.032 -12.003 -11.209  1.00  0.00     0.148 A 
ATOM    109  C   UNL     1      -2.827 -11.909 -11.474  1.00  0.00     0.002 A 
ATOM    110  C   UNL     1      -0.717 -13.068 -11.779  1.00  0.00     0.091 A 
ATOM    111  F   UNL     1       1.298 -12.025 -11.041  1.00  0.00    -0.205 F 
ATOM    112  C   UNL     1      -2.115 -13.027 -11.903  1.00  0.00     0.022 A 
BRANCH 110 113
ATOM    113  S   UNL     1       0.127 -14.503 -12.453  1.00  0.00     0.127 S 
ATOM    114  O   UNL     1      -0.206 -15.534 -11.471  1.00  0.00    -0.237 OA
ATOM    115  O   UNL     1      -0.525 -14.665 -13.753  1.00  0.00    -0.237 OA
ATOM    116  O   UNL     1       1.537 -14.143 -12.526  1.00  0.00    -0.744 OA
ENDBRANCH 110 113
ENDBRANCH  83 106
ENDBRANCH  57  58
ENDBRANCH  49  52
ENDBRANCH  47  48
ENDBRANCH  46  47
ENDBRANCH  45  46
ENDBRANCH  44  45
ENDBRANCH  43  44
ENDBRANCH   1  43
TORSDOF 22
