REMARK SMILES CCCCCCNC(=O)Oc1cccc(-c2ccc([C@@H](C)C(=O)NCCCCCCNC(=O)c3ccc(-c4c5nc(c(-c6cccc(S(=O)(=O)[O-])c6F)c6ccc([nH]6)c(-c6cccc(S(=O)(=O)[O-])c6F)c6nc(c(-c7cccc(S(=O)(=O)[O-])c7F)c7ccc4[nH]7)C=C6)C=C5)cc3)cc2F)c1
REMARK SMILES IDX 22 1 23 2 24 3 20 5 21 6 19 7 16 8 17 9 98 10 18 11 97 12
REMARK SMILES IDX 99 13 15 14 11 15 12 16 100 17 13 18 14 19 10 20 8 21 7 22
REMARK SMILES IDX 9 24 6 25 5 26 4 27 3 28 2 29 1 30 25 31 26 32 27 33 28 34
REMARK SMILES IDX 29 35 30 36 31 37 32 38 33 40 34 41 35 42 96 43 36 44 95 45
REMARK SMILES IDX 37 46 38 47 39 48 89 49 40 50 94 51 88 52 90 53 41 54 93 55
REMARK SMILES IDX 87 56 86 57 42 59 74 60 54 61 73 62 55 63 58 64 72 65 91 66
REMARK SMILES IDX 56 67 57 68 71 70 92 71 59 72 43 73 44 74 52 75 45 76 47 77
REMARK SMILES IDX 53 78 46 79 48 80 49 81 50 82 51 83 75 84 76 85 84 86 77 87
REMARK SMILES IDX 79 88 85 89 78 90 80 91 81 92 82 93 83 94 60 95 61 96 69 97
REMARK SMILES IDX 62 98 64 99 70 100 63 101 65 102 66 103 67 104 68 105
REMARK H PARENT 24 4 7 23 31 39 90 58 58 69
REMARK Flexibility Score: inf
ROOT
ATOM      1  C   UNL     1      -3.819  10.758   9.575  1.00  0.00     0.227 C 
ATOM      2  O   UNL     1      -2.841  11.350   9.099  1.00  0.00    -0.274 OA
ATOM      3  N   UNL     1      -3.741  10.424  10.891  1.00  0.00    -0.356 N 
ATOM      4  H   UNL     1      -2.933  10.756  11.345  1.00  0.00     0.163 HD
ENDROOT
BRANCH   1   5
ATOM      5  C   UNL     1      -5.040  10.464   8.689  1.00  0.00     0.105 C 
ATOM      6  C   UNL     1      -6.329  11.134   9.165  1.00  0.00     0.023 C 
BRANCH   5   7
ATOM      7  C   UNL     1      -5.167   9.005   8.282  1.00  0.00    -0.033 A 
ATOM      8  C   UNL     1      -5.258   6.244   7.514  1.00  0.00     0.018 A 
ATOM      9  C   UNL     1      -5.875   6.710   8.686  1.00  0.00     0.012 A 
ATOM     10  C   UNL     1      -4.617   7.210   6.724  1.00  0.00     0.131 A 
ATOM     11  C   UNL     1      -5.866   8.063   9.039  1.00  0.00     0.005 A 
ATOM     12  C   UNL     1      -4.550   8.556   7.106  1.00  0.00     0.044 A 
ATOM     13  F   UNL     1      -4.049   6.874   5.555  1.00  0.00    -0.206 F 
BRANCH   8  14
ATOM     14  C   UNL     1      -5.302   4.805   7.166  1.00  0.00    -0.012 A 
ATOM     15  C   UNL     1      -4.295   2.801   6.227  1.00  0.00     0.133 A 
ATOM     16  C   UNL     1      -5.405   2.035   6.567  1.00  0.00     0.047 A 
ATOM     17  C   UNL     1      -4.233   4.166   6.517  1.00  0.00     0.056 A 
ATOM     18  C   UNL     1      -6.472   2.644   7.212  1.00  0.00     0.004 A 
ATOM     19  C   UNL     1      -6.423   4.013   7.495  1.00  0.00     0.009 A 
BRANCH  15  20
ATOM     20  O   UNL     1      -3.312   2.166   5.452  1.00  0.00    -0.410 OA
BRANCH  20  21
ATOM     21  C   UNL     1      -1.976   2.291   5.796  1.00  0.00     0.412 C 
ATOM     22  N   UNL     1      -1.144   1.706   4.880  1.00  0.00    -0.321 N 
ATOM     23  H   UNL     1      -0.180   1.723   5.080  1.00  0.00     0.167 HD
ATOM     24  O   UNL     1      -1.530   2.843   6.793  1.00  0.00    -0.224 OA
BRANCH  22  25
ATOM     25  C   UNL     1      -1.545   1.063   3.644  1.00  0.00     0.119 C 
BRANCH  25  26
ATOM     26  C   UNL     1      -0.955   1.768   2.423  1.00  0.00     0.021 C 
BRANCH  26  27
ATOM     27  C   UNL     1       0.574   1.710   2.331  1.00  0.00     0.002 C 
BRANCH  27  28
ATOM     28  C   UNL     1       1.177   0.301   2.305  1.00  0.00    -0.000 C 
BRANCH  28  29
ATOM     29  C   UNL     1       0.687  -0.599   1.168  1.00  0.00    -0.003 C 
ATOM     30  C   UNL     1       1.047  -0.071  -0.212  1.00  0.00     0.004 C 
ENDBRANCH  28  29
ENDBRANCH  27  28
ENDBRANCH  26  27
ENDBRANCH  25  26
ENDBRANCH  22  25
ENDBRANCH  20  21
ENDBRANCH  15  20
ENDBRANCH   8  14
ENDBRANCH   5   7
ENDBRANCH   1   5
BRANCH   3  31
ATOM     31  C   UNL     1      -4.631   9.665  11.745  1.00  0.00     0.116 C 
BRANCH  31  32
ATOM     32  C   UNL     1      -4.130   8.235  11.955  1.00  0.00     0.021 C 
BRANCH  32  33
ATOM     33  C   UNL     1      -3.185   8.083  13.151  1.00  0.00     0.002 C 
BRANCH  33  34
ATOM     34  C   UNL     1      -3.810   8.408  14.514  1.00  0.00     0.002 C 
BRANCH  34  35
ATOM     35  C   UNL     1      -5.080   7.623  14.857  1.00  0.00     0.021 C 
BRANCH  35  36
ATOM     36  C   UNL     1      -4.897   6.109  14.908  1.00  0.00     0.116 C 
BRANCH  36  37
ATOM     37  N   UNL     1      -3.938   5.720  15.932  1.00  0.00    -0.352 N 
ATOM     38  C   UNL     1      -4.118   4.938  17.045  1.00  0.00     0.251 C 
ATOM     39  H   UNL     1      -3.025   6.068  15.807  1.00  0.00     0.163 HD
ATOM     40  O   UNL     1      -3.265   4.925  17.929  1.00  0.00    -0.269 OA
BRANCH  38  41
ATOM     41  C   UNL     1      -5.339   4.116  17.181  1.00  0.00     0.039 A 
ATOM     42  C   UNL     1      -5.991   4.064  18.416  1.00  0.00     0.014 A 
ATOM     43  C   UNL     1      -5.823   3.374  16.099  1.00  0.00     0.014 A 
ATOM     44  C   UNL     1      -7.158   3.308  18.551  1.00  0.00     0.010 A 
ATOM     45  C   UNL     1      -7.023   2.681  16.216  1.00  0.00     0.010 A 
ATOM     46  C   UNL     1      -7.698   2.631  17.445  1.00  0.00    -0.014 A 
BRANCH  46  47
ATOM     47  C   UNL     1      -8.970   1.871  17.551  1.00  0.00     0.031 A 
ATOM     48  C   UNL     1      -8.986   0.384  17.322  1.00  0.00     0.074 A 
ATOM     49  C   UNL     1     -10.123   2.534  17.770  1.00  0.00     0.049 A 
ATOM     50  N   UNL     1     -10.004  -0.438  17.314  1.00  0.00    -0.248 NA
ATOM     51  C   UNL     1      -7.694  -0.263  17.037  1.00  0.00     0.031 C 
ATOM     52  C   UNL     1     -10.247   3.984  17.932  1.00  0.00     0.029 A 
ATOM     53  N   UNL     1     -11.414   2.078  17.866  1.00  0.00    -0.354 N 
ATOM     54  C   UNL     1      -9.483  -1.686  16.992  1.00  0.00     0.074 A 
ATOM     55  C   UNL     1      -8.064  -1.508  16.776  1.00  0.00     0.031 C 
ATOM     56  C   UNL     1     -11.540   4.297  18.112  1.00  0.00     0.029 A 
ATOM     57  C   UNL     1     -12.340   3.079  18.047  1.00  0.00     0.049 A 
ATOM     58  H   UNL     1     -11.654   1.125  17.811  1.00  0.00     0.167 HD
ATOM     59  C   UNL     1     -10.122  -2.878  16.913  1.00  0.00     0.034 A 
ATOM     60  C   UNL     1     -13.683   3.022  18.143  1.00  0.00     0.034 A 
ATOM     61  C   UNL     1     -11.526  -3.057  17.169  1.00  0.00     0.049 A 
ATOM     62  C   UNL     1     -14.363   1.681  18.085  1.00  0.00     0.074 A 
ATOM     63  C   UNL     1     -12.252  -4.234  17.198  1.00  0.00     0.029 A 
ATOM     64  N   UNL     1     -12.419  -2.030  17.433  1.00  0.00    -0.354 N 
ATOM     65  N   UNL     1     -13.832   0.491  17.935  1.00  0.00    -0.248 NA
ATOM     66  C   UNL     1     -15.824   1.669  18.245  1.00  0.00     0.031 C 
ATOM     67  C   UNL     1     -13.589  -3.917  17.455  1.00  0.00     0.029 A 
ATOM     68  C   UNL     1     -13.691  -2.544  17.616  1.00  0.00     0.049 A 
ATOM     69  H   UNL     1     -12.183  -1.076  17.483  1.00  0.00     0.167 HD
ATOM     70  C   UNL     1     -14.885  -0.411  18.022  1.00  0.00     0.074 A 
ATOM     71  C   UNL     1     -16.083   0.368  18.257  1.00  0.00     0.031 C 
ATOM     72  C   UNL     1     -14.866  -1.762  17.903  1.00  0.00     0.034 A 
BRANCH  59  73
ATOM     73  C   UNL     1      -9.296  -4.095  16.585  1.00  0.00     0.023 A 
ATOM     74  C   UNL     1      -8.389  -4.598  17.542  1.00  0.00     0.012 A 
ATOM     75  C   UNL     1      -9.456  -4.776  15.363  1.00  0.00     0.148 A 
ATOM     76  C   UNL     1      -7.628  -5.735  17.273  1.00  0.00     0.002 A 
ATOM     77  C   UNL     1      -8.727  -5.935  15.120  1.00  0.00     0.091 A 
ATOM     78  F   UNL     1     -10.307  -4.274  14.457  1.00  0.00    -0.205 F 
ATOM     79  C   UNL     1      -7.805  -6.408  16.067  1.00  0.00     0.022 A 
BRANCH  77  80
ATOM     80  S   UNL     1      -8.941  -6.921  13.633  1.00  0.00     0.127 S 
ATOM     81  O   UNL     1      -7.682  -6.673  12.931  1.00  0.00    -0.237 OA
ATOM     82  O   UNL     1      -9.079  -8.273  14.178  1.00  0.00    -0.237 OA
ATOM     83  O   UNL     1     -10.134  -6.406  12.977  1.00  0.00    -0.744 OA
ENDBRANCH  77  80
ENDBRANCH  59  73
BRANCH  60  84
ATOM     84  C   UNL     1     -14.468   4.268  18.370  1.00  0.00     0.023 A 
ATOM     85  C   UNL     1     -15.095   4.473  19.614  1.00  0.00     0.012 A 
ATOM     86  C   UNL     1     -14.578   5.258  17.375  1.00  0.00     0.148 A 
ATOM     87  C   UNL     1     -15.847   5.624  19.852  1.00  0.00     0.002 A 
ATOM     88  C   UNL     1     -15.282   6.428  17.637  1.00  0.00     0.091 A 
ATOM     89  F   UNL     1     -13.984   5.041  16.193  1.00  0.00    -0.205 F 
ATOM     90  C   UNL     1     -15.932   6.605  18.868  1.00  0.00     0.022 A 
BRANCH  88  91
ATOM     91  S   UNL     1     -15.333   7.801  16.479  1.00  0.00     0.127 S 
ATOM     92  O   UNL     1     -16.717   7.750  16.016  1.00  0.00    -0.237 OA
ATOM     93  O   UNL     1     -15.012   8.938  17.343  1.00  0.00    -0.237 OA
ATOM     94  O   UNL     1     -14.318   7.507  15.477  1.00  0.00    -0.744 OA
ENDBRANCH  88  91
ENDBRANCH  60  84
BRANCH  72  95
ATOM     95  C   UNL     1     -16.171  -2.496  18.064  1.00  0.00     0.023 A 
ATOM     96  C   UNL     1     -17.150  -2.419  17.054  1.00  0.00     0.012 A 
ATOM     97  C   UNL     1     -16.396  -3.321  19.184  1.00  0.00     0.148 A 
ATOM     98  C   UNL     1     -18.346  -3.126  17.172  1.00  0.00     0.002 A 
ATOM     99  C   UNL     1     -17.568  -4.062  19.270  1.00  0.00     0.091 A 
ATOM    100  F   UNL     1     -15.460  -3.367  20.143  1.00  0.00    -0.205 F 
ATOM    101  C   UNL     1     -18.550  -3.956  18.272  1.00  0.00     0.022 A 
BRANCH  99 102
ATOM    102  S   UNL     1     -17.874  -5.231  20.600  1.00  0.00     0.127 S 
ATOM    103  O   UNL     1     -18.905  -4.540  21.372  1.00  0.00    -0.237 OA
ATOM    104  O   UNL     1     -18.344  -6.411  19.873  1.00  0.00    -0.237 OA
ATOM    105  O   UNL     1     -16.598  -5.409  21.280  1.00  0.00    -0.744 OA
ENDBRANCH  99 102
ENDBRANCH  72  95
ENDBRANCH  46  47
ENDBRANCH  38  41
ENDBRANCH  36  37
ENDBRANCH  35  36
ENDBRANCH  34  35
ENDBRANCH  33  34
ENDBRANCH  32  33
ENDBRANCH  31  32
ENDBRANCH   3  31
TORSDOF 25
