REMARK SMILES CC(=O)NC(C)(C)C(=O)N1C[C@@H](C(=O)NCCCCCCNC(=O)c2ccc(-c3c4nc(c(-c5cccc(S(=O)(=O)[O-])c5F)c5ccc([nH]5)c(-c5cccc(S(=O)(=O)[O-])c5F)c5nc(c(-c6cccc(S(=O)(=O)[O-])c6F)c6ccc3[nH]6)C=C5)C=C4)cc2)[C@H](c2ccccc2C)C1
REMARK SMILES IDX 18 1 17 2 16 3 15 4 13 5 14 6 12 8 10 9 11 10 96 11 88 12
REMARK SMILES IDX 8 13 9 14 5 15 6 16 7 17 4 18 1 19 2 20 3 21 89 23 90 24
REMARK SMILES IDX 94 25 91 26 93 27 95 28 92 29 19 30 20 31 21 32 22 33 23 34
REMARK SMILES IDX 24 36 25 37 26 38 87 39 27 40 86 41 28 42 29 43 30 44 80 45
REMARK SMILES IDX 31 46 85 47 79 48 81 49 32 50 84 51 78 52 77 53 33 55 65 56
REMARK SMILES IDX 45 57 64 58 46 59 49 60 63 61 82 62 47 63 48 64 62 66 83 67
REMARK SMILES IDX 50 68 34 69 35 70 43 71 36 72 38 73 44 74 37 75 39 76 40 77
REMARK SMILES IDX 41 78 42 79 66 80 67 81 75 82 68 83 70 84 76 85 69 86 71 87
REMARK SMILES IDX 72 88 73 89 74 90 51 91 52 92 60 93 53 94 55 95 61 96 54 97
REMARK SMILES IDX 56 98 57 99 58 100 59 101
REMARK H PARENT 15 7 4 22 22 35 81 54 49 65
REMARK Flexibility Score: inf
ROOT
ATOM      1  C   UNL     1       1.091  -8.004  -3.756  1.00  0.00     0.002 C 
ENDROOT
BRANCH   1   2
ATOM      2  C   UNL     1       1.302  -6.630  -3.114  1.00  0.00     0.021 C 
BRANCH   2   3
ATOM      3  C   UNL     1       1.607  -6.673  -1.623  1.00  0.00     0.116 C 
BRANCH   3   4
ATOM      4  N   UNL     1       2.987  -7.023  -1.320  1.00  0.00    -0.356 N 
ATOM      5  C   UNL     1       4.013  -6.433  -0.662  1.00  0.00     0.225 C 
ATOM      6  O   UNL     1       4.892  -7.218  -0.279  1.00  0.00    -0.275 OA
ATOM      7  H   UNL     1       3.235  -7.904  -1.683  1.00  0.00     0.163 HD
BRANCH   5   8
ATOM      8  C   UNL     1       4.214  -4.942  -0.413  1.00  0.00     0.107 C 
ATOM      9  N   UNL     1       3.210  -2.825  -0.195  1.00  0.00    -0.339 N 
ATOM     10  C   UNL     1       3.012  -4.211   0.139  1.00  0.00     0.133 C 
ATOM     11  C   UNL     1       3.930  -2.757  -1.464  1.00  0.00     0.128 C 
ATOM     12  C   UNL     1       4.734  -4.088  -1.601  1.00  0.00     0.053 C 
BRANCH   9  13
ATOM     13  C   UNL     1       2.568  -1.709   0.329  1.00  0.00     0.247 C 
ATOM     14  O   UNL     1       2.692  -0.630  -0.258  1.00  0.00    -0.272 OA
BRANCH  13  15
ATOM     15  C   UNL     1       1.734  -1.815   1.675  1.00  0.00     0.113 C 
ATOM     16  C   UNL     1       2.726  -2.252   2.780  1.00  0.00     0.045 C 
ATOM     17  C   UNL     1       0.549  -2.788   1.581  1.00  0.00     0.045 C 
BRANCH  15  18
ATOM     18  N   UNL     1       1.207  -0.514   2.195  1.00  0.00    -0.342 N 
ATOM     19  C   UNL     1       0.127   0.613   0.253  1.00  0.00     0.114 C 
ATOM     20  C   UNL     1       0.368   0.435   1.718  1.00  0.00     0.217 C 
ATOM     21  O   UNL     1      -0.129   1.208   2.542  1.00  0.00    -0.275 OA
ATOM     22  H   UNL     1       1.551  -0.299   3.092  1.00  0.00     0.164 HD
ENDBRANCH  15  18
ENDBRANCH  13  15
ENDBRANCH   9  13
BRANCH  12  23
ATOM     23  C   UNL     1       6.275  -3.952  -1.617  1.00  0.00    -0.039 A 
ATOM     24  C   UNL     1       6.907  -2.773  -1.160  1.00  0.00     0.004 A 
ATOM     25  C   UNL     1       7.125  -4.988  -2.086  1.00  0.00    -0.048 A 
ATOM     26  C   UNL     1       8.299  -2.610  -1.184  1.00  0.00     0.000 A 
ATOM     27  C   UNL     1       8.530  -4.824  -2.053  1.00  0.00     0.004 A 
ATOM     28  C   UNL     1       6.651  -6.321  -2.599  1.00  0.00     0.044 C 
ATOM     29  C   UNL     1       9.114  -3.640  -1.621  1.00  0.00     0.000 A 
ENDBRANCH  12  23
ENDBRANCH   5   8
ENDBRANCH   3   4
ENDBRANCH   2   3
ENDBRANCH   1   2
BRANCH   1  30
ATOM     30  C   UNL     1       0.004  -8.881  -3.118  1.00  0.00     0.002 C 
BRANCH  30  31
ATOM     31  C   UNL     1      -1.374  -8.228  -2.953  1.00  0.00     0.021 C 
BRANCH  31  32
ATOM     32  C   UNL     1      -2.040  -7.785  -4.254  1.00  0.00     0.116 C 
BRANCH  32  33
ATOM     33  N   UNL     1      -2.306  -8.908  -5.140  1.00  0.00    -0.352 N 
ATOM     34  C   UNL     1      -3.495  -9.336  -5.677  1.00  0.00     0.251 C 
ATOM     35  H   UNL     1      -1.517  -9.441  -5.392  1.00  0.00     0.163 HD
ATOM     36  O   UNL     1      -3.557 -10.426  -6.240  1.00  0.00    -0.269 OA
BRANCH  34  37
ATOM     37  C   UNL     1      -4.704  -8.491  -5.567  1.00  0.00     0.039 A 
ATOM     38  C   UNL     1      -5.905  -9.074  -5.151  1.00  0.00     0.014 A 
ATOM     39  C   UNL     1      -4.652  -7.130  -5.880  1.00  0.00     0.014 A 
ATOM     40  C   UNL     1      -7.038  -8.275  -4.976  1.00  0.00     0.010 A 
ATOM     41  C   UNL     1      -5.768  -6.327  -5.656  1.00  0.00     0.010 A 
ATOM     42  C   UNL     1      -6.968  -6.889  -5.192  1.00  0.00    -0.014 A 
BRANCH  42  43
ATOM     43  C   UNL     1      -8.112  -5.996  -4.882  1.00  0.00     0.031 A 
ATOM     44  C   UNL     1      -8.803  -5.233  -5.976  1.00  0.00     0.074 A 
ATOM     45  C   UNL     1      -8.444  -5.780  -3.594  1.00  0.00     0.049 A 
ATOM     46  N   UNL     1      -9.748  -4.334  -5.881  1.00  0.00    -0.248 NA
ATOM     47  C   UNL     1      -8.361  -5.498  -7.355  1.00  0.00     0.031 C 
ATOM     48  C   UNL     1      -7.795  -6.407  -2.440  1.00  0.00     0.029 A 
ATOM     49  N   UNL     1      -9.380  -4.946  -3.036  1.00  0.00    -0.354 N 
ATOM     50  C   UNL     1      -9.993  -3.902  -7.178  1.00  0.00     0.074 A 
ATOM     51  C   UNL     1      -9.081  -4.622  -8.042  1.00  0.00     0.031 C 
ATOM     52  C   UNL     1      -8.342  -5.925  -1.313  1.00  0.00     0.029 A 
ATOM     53  C   UNL     1      -9.357  -4.935  -1.660  1.00  0.00     0.049 A 
ATOM     54  H   UNL     1     -10.007  -4.406  -3.569  1.00  0.00     0.167 HD
ATOM     55  C   UNL     1     -10.913  -3.008  -7.613  1.00  0.00     0.034 A 
ATOM     56  C   UNL     1     -10.060  -4.200  -0.777  1.00  0.00     0.034 A 
ATOM     57  C   UNL     1     -11.848  -2.330  -6.756  1.00  0.00     0.049 A 
ATOM     58  C   UNL     1     -11.081  -3.221  -1.287  1.00  0.00     0.074 A 
ATOM     59  C   UNL     1     -12.895  -1.499  -7.113  1.00  0.00     0.029 A 
ATOM     60  N   UNL     1     -11.842  -2.394  -5.372  1.00  0.00    -0.354 N 
ATOM     61  N   UNL     1     -11.425  -2.961  -2.525  1.00  0.00    -0.248 NA
ATOM     62  C   UNL     1     -11.830  -2.453  -0.281  1.00  0.00     0.031 C 
ATOM     63  C   UNL     1     -13.511  -1.044  -5.942  1.00  0.00     0.029 A 
ATOM     64  C   UNL     1     -12.852  -1.599  -4.857  1.00  0.00     0.049 A 
ATOM     65  H   UNL     1     -11.213  -2.927  -4.834  1.00  0.00     0.167 HD
ATOM     66  C   UNL     1     -12.440  -2.015  -2.448  1.00  0.00     0.074 A 
ATOM     67  C   UNL     1     -12.676  -1.768  -1.040  1.00  0.00     0.031 C 
ATOM     68  C   UNL     1     -13.103  -1.392  -3.453  1.00  0.00     0.034 A 
BRANCH  55  69
ATOM     69  C   UNL     1     -11.000  -2.760  -9.095  1.00  0.00     0.023 A 
ATOM     70  C   UNL     1     -11.584  -3.740  -9.924  1.00  0.00     0.012 A 
ATOM     71  C   UNL     1     -10.568  -1.544  -9.660  1.00  0.00     0.148 A 
ATOM     72  C   UNL     1     -11.713  -3.526 -11.295  1.00  0.00     0.002 A 
ATOM     73  C   UNL     1     -10.732  -1.324 -11.023  1.00  0.00     0.091 A 
ATOM     74  F   UNL     1      -9.992  -0.635  -8.860  1.00  0.00    -0.205 F 
ATOM     75  C   UNL     1     -11.297  -2.315 -11.842  1.00  0.00     0.022 A 
BRANCH  73  76
ATOM     76  S   UNL     1     -10.287   0.229 -11.810  1.00  0.00     0.127 S 
ATOM     77  O   UNL     1      -9.051  -0.134 -12.500  1.00  0.00    -0.237 OA
ATOM     78  O   UNL     1     -11.429   0.470 -12.692  1.00  0.00    -0.237 OA
ATOM     79  O   UNL     1     -10.144   1.195 -10.729  1.00  0.00    -0.744 OA
ENDBRANCH  73  76
ENDBRANCH  55  69
BRANCH  56  80
ATOM     80  C   UNL     1      -9.855  -4.409   0.684  1.00  0.00     0.023 A 
ATOM     81  C   UNL     1     -10.863  -5.042   1.435  1.00  0.00     0.012 A 
ATOM     82  C   UNL     1      -8.654  -4.039   1.321  1.00  0.00     0.148 A 
ATOM     83  C   UNL     1     -10.687  -5.287   2.798  1.00  0.00     0.002 A 
ATOM     84  C   UNL     1      -8.462  -4.336   2.665  1.00  0.00     0.091 A 
ATOM     85  F   UNL     1      -7.712  -3.419   0.594  1.00  0.00    -0.205 F 
ATOM     86  C   UNL     1      -9.483  -4.946   3.409  1.00  0.00     0.022 A 
BRANCH  84  87
ATOM     87  S   UNL     1      -6.887  -4.067   3.487  1.00  0.00     0.127 S 
ATOM     88  O   UNL     1      -7.161  -2.871   4.278  1.00  0.00    -0.237 OA
ATOM     89  O   UNL     1      -6.730  -5.298   4.263  1.00  0.00    -0.237 OA
ATOM     90  O   UNL     1      -5.911  -3.916   2.415  1.00  0.00    -0.744 OA
ENDBRANCH  84  87
ENDBRANCH  56  80
BRANCH  68  91
ATOM     91  C   UNL     1     -14.146  -0.375  -3.075  1.00  0.00     0.023 A 
ATOM     92  C   UNL     1     -13.737   0.892  -2.616  1.00  0.00     0.012 A 
ATOM     93  C   UNL     1     -15.519  -0.638  -3.253  1.00  0.00     0.148 A 
ATOM     94  C   UNL     1     -14.678   1.877  -2.320  1.00  0.00     0.002 A 
ATOM     95  C   UNL     1     -16.449   0.362  -2.995  1.00  0.00     0.091 A 
ATOM     96  F   UNL     1     -15.887  -1.856  -3.675  1.00  0.00    -0.205 F 
ATOM     97  C   UNL     1     -16.031   1.617  -2.521  1.00  0.00     0.022 A 
BRANCH  95  98
ATOM     98  S   UNL     1     -18.207   0.150  -3.304  1.00  0.00     0.127 S 
ATOM     99  O   UNL     1     -18.741   0.082  -1.945  1.00  0.00    -0.237 OA
ATOM    100  O   UNL     1     -18.545   1.373  -4.032  1.00  0.00    -0.237 OA
ATOM    101  O   UNL     1     -18.332  -1.073  -4.086  1.00  0.00    -0.744 OA
ENDBRANCH  95  98
ENDBRANCH  68  91
ENDBRANCH  42  43
ENDBRANCH  34  37
ENDBRANCH  32  33
ENDBRANCH  31  32
ENDBRANCH  30  31
ENDBRANCH   1  30
TORSDOF 20
