REMARK SMILES Cc1ccc(NC(=O)C[C@H]([NH2+]Cc2cccnc2)C(=O)NCCCCCCNC(=O)c2ccc(-c3c4nc(c(-c5cccc(S(=O)(=O)[O-])c5F)c5ccc([nH]5)c(-c5cccc(S(=O)(=O)[O-])c5F)c5nc(c(-c6cccc(S(=O)(=O)[O-])c6F)c6ccc3[nH]6)C=C5)C=C4)cc2)cc1Cl
REMARK SMILES IDX 24 1 23 2 22 3 21 4 19 5 20 6 10 8 9 9 7 10 6 11 8 13 5 14
REMARK SMILES IDX 1 15 2 16 3 17 95 18 4 19 94 20 96 21 11 22 12 25 13 26
REMARK SMILES IDX 14 27 18 28 15 29 17 30 16 31 25 32 26 33 27 34 28 35 29 36
REMARK SMILES IDX 30 38 31 39 32 40 93 41 33 42 92 43 34 44 35 45 36 46 86 47
REMARK SMILES IDX 37 48 91 49 85 50 87 51 38 52 90 53 84 54 83 55 39 57 71 58
REMARK SMILES IDX 51 59 70 60 52 61 55 62 69 63 88 64 53 65 54 66 68 68 89 69
REMARK SMILES IDX 56 70 40 71 41 72 49 73 42 74 44 75 50 76 43 77 45 78 46 79
REMARK SMILES IDX 47 80 48 81 72 82 73 83 81 84 74 85 76 86 82 87 75 88 77 89
REMARK SMILES IDX 78 90 79 91 80 92 57 93 58 94 66 95 59 96 61 97 67 98 60 99
REMARK SMILES IDX 62 100 63 101 64 102 65 103
REMARK H PARENT 21 7 6 12 11 23 11 24 28 37 87 56 55 67
REMARK Flexibility Score: inf
ROOT
ATOM      1  C   UNL     1       4.406  -2.473   2.020  1.00  0.00     0.002 C 
ENDROOT
BRANCH   1   2
ATOM      2  C   UNL     1       3.041  -2.836   1.438  1.00  0.00     0.021 C 
BRANCH   2   3
ATOM      3  C   UNL     1       2.638  -2.142   0.125  1.00  0.00     0.116 C 
BRANCH   3   4
ATOM      4  N   UNL     1       2.205  -3.097  -0.907  1.00  0.00    -0.351 N 
ATOM      5  C   UNL     1       1.056  -3.416  -1.565  1.00  0.00     0.278 C 
ATOM      6  O   UNL     1       1.173  -4.331  -2.398  1.00  0.00    -0.268 OA
ATOM      7  H   UNL     1       2.954  -3.662  -1.205  1.00  0.00     0.163 HD
BRANCH   5   8
ATOM      8  C   UNL     1      -0.378  -2.826  -1.324  1.00  0.00     0.282 C 
BRANCH   8   9
ATOM      9  C   UNL     1      -0.431  -1.414  -0.785  1.00  0.00     0.175 C 
BRANCH   9  10
ATOM     10  C   UNL     1      -0.637  -0.909   0.635  1.00  0.00     0.230 C 
ATOM     11  N   UNL     1      -0.575  -1.498   1.846  1.00  0.00    -0.326 N 
ATOM     12  H   UNL     1      -0.772  -0.837   2.549  1.00  0.00     0.169 HD
ATOM     13  O   UNL     1      -0.890   0.311   0.708  1.00  0.00    -0.274 OA
BRANCH  11  14
ATOM     14  C   UNL     1      -0.320  -2.751   2.426  1.00  0.00     0.042 A 
ATOM     15  C   UNL     1       0.240  -6.570   4.423  1.00  0.00     0.046 C 
ATOM     16  C   UNL     1       0.087  -5.245   3.742  1.00  0.00    -0.032 A 
ATOM     17  C   UNL     1      -0.309  -4.107   4.456  1.00  0.00     0.007 A 
ATOM     18  C   UNL     1       0.300  -5.111   2.376  1.00  0.00     0.046 A 
ATOM     19  C   UNL     1      -0.513  -2.878   3.805  1.00  0.00     0.026 A 
ATOM     20  C   UNL     1       0.131  -3.871   1.761  1.00  0.00     0.047 A 
ATOM     21  Cl  UNL     1       0.787  -6.440   1.380  1.00  0.00    -0.084 Cl
ENDBRANCH  11  14
ENDBRANCH   9  10
ENDBRANCH   8   9
BRANCH   8  22
ATOM     22  N   UNL     1      -1.249  -3.867  -0.750  1.00  0.00    -0.332 N 
ATOM     23  H   UNL     1      -0.850  -4.124   0.153  1.00  0.00     0.347 HD
ATOM     24  H   UNL     1      -1.266  -4.592  -1.466  1.00  0.00     0.347 HD
BRANCH  22  25
ATOM     25  C   UNL     1      -2.656  -3.569  -0.524  1.00  0.00     0.299 C 
BRANCH  25  26
ATOM     26  C   UNL     1      -3.132  -4.221   0.755  1.00  0.00     0.024 A 
ATOM     27  C   UNL     1      -3.088  -5.607   0.951  1.00  0.00     0.013 A 
ATOM     28  C   UNL     1      -3.577  -3.452   1.829  1.00  0.00     0.120 A 
ATOM     29  C   UNL     1      -3.438  -6.148   2.188  1.00  0.00     0.021 A 
ATOM     30  N   UNL     1      -3.939  -3.951   3.035  1.00  0.00    -0.264 NA
ATOM     31  C   UNL     1      -3.844  -5.286   3.192  1.00  0.00     0.111 A 
ENDBRANCH  25  26
ENDBRANCH  22  25
ENDBRANCH   8  22
ENDBRANCH   5   8
ENDBRANCH   3   4
ENDBRANCH   2   3
ENDBRANCH   1   2
BRANCH   1  32
ATOM     32  C   UNL     1       4.580  -1.013   2.446  1.00  0.00     0.002 C 
BRANCH  32  33
ATOM     33  C   UNL     1       3.626  -0.486   3.528  1.00  0.00     0.021 C 
BRANCH  33  34
ATOM     34  C   UNL     1       3.604  -1.246   4.857  1.00  0.00     0.116 C 
BRANCH  34  35
ATOM     35  N   UNL     1       4.924  -1.373   5.456  1.00  0.00    -0.352 N 
ATOM     36  C   UNL     1       5.449  -0.869   6.620  1.00  0.00     0.251 C 
ATOM     37  H   UNL     1       5.554  -1.919   4.932  1.00  0.00     0.163 HD
ATOM     38  O   UNL     1       6.661  -0.962   6.808  1.00  0.00    -0.269 OA
BRANCH  36  39
ATOM     39  C   UNL     1       4.603  -0.217   7.649  1.00  0.00     0.039 A 
ATOM     40  C   UNL     1       5.117   0.897   8.323  1.00  0.00     0.014 A 
ATOM     41  C   UNL     1       3.358  -0.730   8.023  1.00  0.00     0.014 A 
ATOM     42  C   UNL     1       4.370   1.520   9.329  1.00  0.00     0.010 A 
ATOM     43  C   UNL     1       2.585  -0.070   8.984  1.00  0.00     0.010 A 
ATOM     44  C   UNL     1       3.083   1.059   9.652  1.00  0.00    -0.014 A 
BRANCH  44  45
ATOM     45  C   UNL     1       2.253   1.772  10.663  1.00  0.00     0.031 A 
ATOM     46  C   UNL     1       1.844   1.103  11.949  1.00  0.00     0.074 A 
ATOM     47  C   UNL     1       1.812   3.017  10.393  1.00  0.00     0.049 A 
ATOM     48  N   UNL     1       1.139   1.586  12.942  1.00  0.00    -0.248 NA
ATOM     49  C   UNL     1       2.259  -0.296  12.139  1.00  0.00     0.031 C 
ATOM     50  C   UNL     1       2.064   3.750   9.150  1.00  0.00     0.029 A 
ATOM     51  N   UNL     1       1.047   3.882  11.137  1.00  0.00    -0.354 N 
ATOM     52  C   UNL     1       0.996   0.546  13.854  1.00  0.00     0.074 A 
ATOM     53  C   UNL     1       1.666  -0.603  13.285  1.00  0.00     0.031 C 
ATOM     54  C   UNL     1       1.478   4.955   9.223  1.00  0.00     0.029 A 
ATOM     55  C   UNL     1       0.789   5.076  10.504  1.00  0.00     0.049 A 
ATOM     56  H   UNL     1       0.714   3.667  12.038  1.00  0.00     0.167 HD
ATOM     57  C   UNL     1       0.386   0.553  15.065  1.00  0.00     0.034 A 
ATOM     58  C   UNL     1       0.083   6.150  10.908  1.00  0.00     0.034 A 
ATOM     59  C   UNL     1      -0.243   1.708  15.650  1.00  0.00     0.049 A 
ATOM     60  C   UNL     1      -0.535   6.149  12.280  1.00  0.00     0.074 A 
ATOM     61  C   UNL     1      -0.795   1.841  16.913  1.00  0.00     0.029 A 
ATOM     62  N   UNL     1      -0.417   2.926  15.011  1.00  0.00    -0.354 N 
ATOM     63  N   UNL     1      -0.502   5.216  13.200  1.00  0.00    -0.248 NA
ATOM     64  C   UNL     1      -1.254   7.366  12.683  1.00  0.00     0.031 C 
ATOM     65  C   UNL     1      -1.326   3.131  17.027  1.00  0.00     0.029 A 
ATOM     66  C   UNL     1      -1.080   3.811  15.846  1.00  0.00     0.049 A 
ATOM     67  H   UNL     1      -0.113   3.132  14.098  1.00  0.00     0.167 HD
ATOM     68  C   UNL     1      -1.165   5.745  14.302  1.00  0.00     0.074 A 
ATOM     69  C   UNL     1      -1.562   7.091  13.943  1.00  0.00     0.031 C 
ATOM     70  C   UNL     1      -1.435   5.163  15.497  1.00  0.00     0.034 A 
BRANCH  57  71
ATOM     71  C   UNL     1       0.411  -0.723  15.871  1.00  0.00     0.023 A 
ATOM     72  C   UNL     1       1.621  -1.157  16.451  1.00  0.00     0.012 A 
ATOM     73  C   UNL     1      -0.769  -1.455  16.110  1.00  0.00     0.148 A 
ATOM     74  C   UNL     1       1.664  -2.317  17.225  1.00  0.00     0.002 A 
ATOM     75  C   UNL     1      -0.727  -2.585  16.919  1.00  0.00     0.091 A 
ATOM     76  F   UNL     1      -1.907  -1.039  15.537  1.00  0.00    -0.205 F 
ATOM     77  C   UNL     1       0.490  -3.024  17.467  1.00  0.00     0.022 A 
BRANCH  75  78
ATOM     78  S   UNL     1      -2.198  -3.520  17.356  1.00  0.00     0.127 S 
ATOM     79  O   UNL     1      -2.014  -4.742  16.574  1.00  0.00    -0.237 OA
ATOM     80  O   UNL     1      -2.037  -3.692  18.801  1.00  0.00    -0.237 OA
ATOM     81  O   UNL     1      -3.330  -2.692  16.966  1.00  0.00    -0.744 OA
ENDBRANCH  75  78
ENDBRANCH  57  71
BRANCH  58  82
ATOM     82  C   UNL     1      -0.008   7.353  10.033  1.00  0.00     0.023 A 
ATOM     83  C   UNL     1       0.670   8.530  10.405  1.00  0.00     0.012 A 
ATOM     84  C   UNL     1      -0.737   7.332   8.828  1.00  0.00     0.148 A 
ATOM     85  C   UNL     1       0.598   9.675   9.611  1.00  0.00     0.002 A 
ATOM     86  C   UNL     1      -0.758   8.459   8.013  1.00  0.00     0.091 A 
ATOM     87  F   UNL     1      -1.386   6.207   8.497  1.00  0.00    -0.205 F 
ATOM     88  C   UNL     1      -0.107   9.636   8.412  1.00  0.00     0.022 A 
BRANCH  86  89
ATOM     89  S   UNL     1      -1.527   8.454   6.390  1.00  0.00     0.127 S 
ATOM     90  O   UNL     1      -2.700   9.299   6.614  1.00  0.00    -0.237 OA
ATOM     91  O   UNL     1      -0.482   9.062   5.561  1.00  0.00    -0.237 OA
ATOM     92  O   UNL     1      -1.798   7.061   6.087  1.00  0.00    -0.744 OA
ENDBRANCH  86  89
ENDBRANCH  58  82
BRANCH  70  93
ATOM     93  C   UNL     1      -2.177   5.988  16.518  1.00  0.00     0.023 A 
ATOM     94  C   UNL     1      -3.538   6.294  16.317  1.00  0.00     0.012 A 
ATOM     95  C   UNL     1      -1.539   6.427  17.695  1.00  0.00     0.148 A 
ATOM     96  C   UNL     1      -4.239   7.061  17.248  1.00  0.00     0.002 A 
ATOM     97  C   UNL     1      -2.257   7.147  18.643  1.00  0.00     0.091 A 
ATOM     98  F   UNL     1      -0.238   6.146  17.863  1.00  0.00    -0.205 F 
ATOM     99  C   UNL     1      -3.603   7.479  18.414  1.00  0.00     0.022 A 
BRANCH  97 100
ATOM    100  S   UNL     1      -1.542   7.640  20.215  1.00  0.00     0.127 S 
ATOM    101  O   UNL     1      -1.277   9.060  19.992  1.00  0.00    -0.237 OA
ATOM    102  O   UNL     1      -2.629   7.364  21.155  1.00  0.00    -0.237 OA
ATOM    103  O   UNL     1      -0.365   6.801  20.396  1.00  0.00    -0.744 OA
ENDBRANCH  97 100
ENDBRANCH  70  93
ENDBRANCH  44  45
ENDBRANCH  36  39
ENDBRANCH  34  35
ENDBRANCH  33  34
ENDBRANCH  32  33
ENDBRANCH   1  32
TORSDOF 22
