REMARK SMILES COc1ccc2c(c1)c(CC(=O)NCCCCCCNC(=O)c1ccc(-c3c4nc(c(-c5cccc(S(=O)(=O)[O-])c5F)c5ccc([nH]5)c(-c5cccc(S(=O)(=O)[O-])c5F)c5nc(c(-c6cccc(S(=O)(=O)[O-])c6F)c6ccc3[nH]6)C=C5)C=C4)cc1)c(C(F)(F)F)n2C(=O)c1ccc(Cl)cc1
REMARK SMILES IDX 16 1 15 2 14 3 13 4 11 5 12 6 10 8 9 9 3 10 4 11 8 12 5 13
REMARK SMILES IDX 7 14 6 15 91 16 86 17 2 18 1 19 92 20 93 21 94 22 95 23
REMARK SMILES IDX 100 24 96 25 99 26 97 27 98 28 87 29 88 30 89 31 90 32 17 33
REMARK SMILES IDX 18 34 19 35 20 36 21 37 22 39 23 40 24 41 85 42 25 43 84 44
REMARK SMILES IDX 26 45 27 46 28 47 78 48 29 49 83 50 77 51 79 52 30 53 82 54
REMARK SMILES IDX 76 55 75 56 31 58 63 59 43 60 62 61 44 62 47 63 61 64 80 65
REMARK SMILES IDX 45 66 46 67 60 69 81 70 48 71 32 72 33 73 41 74 34 75 36 76
REMARK SMILES IDX 42 77 35 78 37 79 38 80 39 81 40 82 64 83 65 84 73 85 66 86
REMARK SMILES IDX 68 87 74 88 67 89 69 90 70 91 71 92 72 93 49 94 50 95 58 96
REMARK SMILES IDX 51 97 53 98 59 99 52 100 54 101 55 102 56 103 57 104
REMARK H PARENT 13 7 20 38 79 57 47 68
REMARK Flexibility Score: inf
ROOT
ATOM      1  C   UNL     1       0.750   1.107   8.064  1.00  0.00     0.002 C 
ENDROOT
BRANCH   1   2
ATOM      2  C   UNL     1       0.670  -0.345   7.578  1.00  0.00     0.021 C 
BRANCH   2   3
ATOM      3  C   UNL     1      -0.706  -0.982   7.772  1.00  0.00     0.116 C 
BRANCH   3   4
ATOM      4  N   UNL     1      -1.651  -0.499   6.782  1.00  0.00    -0.356 N 
ATOM      5  C   UNL     1      -2.188  -1.165   5.718  1.00  0.00     0.224 C 
ATOM      6  O   UNL     1      -2.949  -0.558   4.961  1.00  0.00    -0.275 OA
ATOM      7  H   UNL     1      -1.945   0.434   6.893  1.00  0.00     0.163 HD
BRANCH   5   8
ATOM      8  C   UNL     1      -1.880  -2.640   5.514  1.00  0.00     0.138 C 
BRANCH   8   9
ATOM      9  C   UNL     1      -0.450  -2.915   5.130  1.00  0.00     0.000 A 
ATOM     10  C   UNL     1       0.805  -1.034   2.047  1.00  0.00     0.119 A 
ATOM     11  C   UNL     1       2.041  -1.658   1.988  1.00  0.00     0.048 A 
ATOM     12  C   UNL     1      -0.087  -1.367   3.069  1.00  0.00     0.057 A 
ATOM     13  C   UNL     1       2.415  -2.605   2.949  1.00  0.00     0.031 A 
ATOM     14  C   UNL     1       0.261  -2.325   4.046  1.00  0.00     0.008 A 
ATOM     15  C   UNL     1       1.534  -2.902   4.008  1.00  0.00     0.057 A 
ATOM     16  N   UNL     1       1.677  -3.671   5.172  1.00  0.00    -0.271 N 
ATOM     17  C   UNL     1       0.402  -3.854   5.704  1.00  0.00     0.135 A 
BRANCH  10  18
ATOM     18  O   UNL     1       0.355  -0.077   1.179  1.00  0.00    -0.497 OA
ATOM     19  C   UNL     1       0.982  -0.043  -0.096  1.00  0.00     0.278 C 
ENDBRANCH  10  18
BRANCH  16  20
ATOM     20  C   UNL     1       2.890  -4.144   5.740  1.00  0.00     0.262 C 
ATOM     21  O   UNL     1       2.847  -4.654   6.857  1.00  0.00    -0.268 OA
BRANCH  20  22
ATOM     22  C   UNL     1       4.216  -4.043   5.114  1.00  0.00     0.040 A 
ATOM     23  C   UNL     1       4.890  -2.818   5.071  1.00  0.00     0.015 A 
ATOM     24  C   UNL     1       4.767  -5.190   4.534  1.00  0.00     0.015 A 
ATOM     25  C   UNL     1       6.094  -2.728   4.369  1.00  0.00     0.021 A 
ATOM     26  C   UNL     1       5.975  -5.094   3.842  1.00  0.00     0.021 A 
ATOM     27  C   UNL     1       6.624  -3.861   3.747  1.00  0.00     0.041 A 
ATOM     28  Cl  UNL     1       8.077  -3.734   2.836  1.00  0.00    -0.084 Cl
ENDBRANCH  20  22
ENDBRANCH  16  20
BRANCH  17  29
ATOM     29  C   UNL     1       0.113  -4.881   6.748  1.00  0.00     0.432 C 
ATOM     30  F   UNL     1       0.344  -4.418   7.998  1.00  0.00    -0.165 F 
ATOM     31  F   UNL     1      -1.201  -5.239   6.710  1.00  0.00    -0.165 F 
ATOM     32  F   UNL     1       0.799  -6.035   6.569  1.00  0.00    -0.165 F 
ENDBRANCH  17  29
ENDBRANCH   8   9
ENDBRANCH   5   8
ENDBRANCH   3   4
ENDBRANCH   2   3
ENDBRANCH   1   2
BRANCH   1  33
ATOM     33  C   UNL     1       0.515   1.302   9.566  1.00  0.00     0.002 C 
BRANCH  33  34
ATOM     34  C   UNL     1       1.430   0.483  10.486  1.00  0.00     0.021 C 
BRANCH  34  35
ATOM     35  C   UNL     1       2.925   0.686  10.238  1.00  0.00     0.116 C 
BRANCH  35  36
ATOM     36  N   UNL     1       3.345   2.070  10.301  1.00  0.00    -0.352 N 
ATOM     37  C   UNL     1       3.635   2.947  11.309  1.00  0.00     0.251 C 
ATOM     38  H   UNL     1       3.445   2.475   9.409  1.00  0.00     0.163 HD
ATOM     39  O   UNL     1       4.016   4.065  10.950  1.00  0.00    -0.269 OA
BRANCH  37  40
ATOM     40  C   UNL     1       3.483   2.667  12.765  1.00  0.00     0.039 A 
ATOM     41  C   UNL     1       3.179   1.427  13.326  1.00  0.00     0.014 A 
ATOM     42  C   UNL     1       3.648   3.767  13.629  1.00  0.00     0.014 A 
ATOM     43  C   UNL     1       2.967   1.301  14.695  1.00  0.00     0.010 A 
ATOM     44  C   UNL     1       3.464   3.642  15.004  1.00  0.00     0.010 A 
ATOM     45  C   UNL     1       3.086   2.412  15.533  1.00  0.00    -0.014 A 
BRANCH  45  46
ATOM     46  C   UNL     1       2.887   2.201  16.965  1.00  0.00     0.031 A 
ATOM     47  C   UNL     1       3.847   1.268  17.618  1.00  0.00     0.074 A 
ATOM     48  C   UNL     1       1.974   2.861  17.706  1.00  0.00     0.049 A 
ATOM     49  N   UNL     1       3.600   0.120  18.165  1.00  0.00    -0.248 NA
ATOM     50  C   UNL     1       5.272   1.627  17.582  1.00  0.00     0.031 C 
ATOM     51  C   UNL     1       1.172   4.019  17.303  1.00  0.00     0.029 A 
ATOM     52  N   UNL     1       1.661   2.705  19.027  1.00  0.00    -0.354 N 
ATOM     53  C   UNL     1       4.808  -0.290  18.727  1.00  0.00     0.074 A 
ATOM     54  C   UNL     1       5.825   0.597  18.223  1.00  0.00     0.031 C 
ATOM     55  C   UNL     1       0.658   4.605  18.408  1.00  0.00     0.029 A 
ATOM     56  C   UNL     1       0.962   3.780  19.564  1.00  0.00     0.049 A 
ATOM     57  H   UNL     1       1.907   1.907  19.549  1.00  0.00     0.167 HD
ATOM     58  C   UNL     1       4.867  -1.183  19.752  1.00  0.00     0.034 A 
ATOM     59  C   UNL     1       0.702   3.996  20.874  1.00  0.00     0.034 A 
ATOM     60  C   UNL     1       3.618  -1.842  19.991  1.00  0.00     0.049 A 
ATOM     61  C   UNL     1       0.757   2.689  21.566  1.00  0.00     0.074 A 
ATOM     62  C   UNL     1       2.883  -2.858  19.428  1.00  0.00     0.029 A 
ATOM     63  N   UNL     1       2.806  -1.180  20.870  1.00  0.00    -0.354 N 
ATOM     64  N   UNL     1      -0.091   1.720  21.360  1.00  0.00    -0.248 NA
ATOM     65  C   UNL     1       1.915   2.346  22.384  1.00  0.00     0.031 C 
ATOM     66  C   UNL     1       1.534  -2.642  19.840  1.00  0.00     0.029 A 
ATOM     67  C   UNL     1       1.496  -1.497  20.634  1.00  0.00     0.049 A 
ATOM     68  H   UNL     1       3.118  -0.564  21.571  1.00  0.00     0.167 HD
ATOM     69  C   UNL     1       0.622   0.578  21.662  1.00  0.00     0.074 A 
ATOM     70  C   UNL     1       1.751   1.024  22.462  1.00  0.00     0.031 C 
ATOM     71  C   UNL     1       0.432  -0.573  20.959  1.00  0.00     0.034 A 
BRANCH  58  72
ATOM     72  C   UNL     1       5.929  -1.175  20.823  1.00  0.00     0.023 A 
ATOM     73  C   UNL     1       6.095  -2.332  21.613  1.00  0.00     0.012 A 
ATOM     74  C   UNL     1       6.562   0.007  21.266  1.00  0.00     0.148 A 
ATOM     75  C   UNL     1       6.862  -2.313  22.785  1.00  0.00     0.002 A 
ATOM     76  C   UNL     1       7.386   0.002  22.386  1.00  0.00     0.091 A 
ATOM     77  F   UNL     1       6.257   1.175  20.686  1.00  0.00    -0.205 F 
ATOM     78  C   UNL     1       7.524  -1.150  23.162  1.00  0.00     0.022 A 
BRANCH  76  79
ATOM     79  S   UNL     1       8.298   1.470  22.873  1.00  0.00     0.127 S 
ATOM     80  O   UNL     1       7.476   1.979  23.965  1.00  0.00    -0.237 OA
ATOM     81  O   UNL     1       9.587   0.906  23.276  1.00  0.00    -0.237 OA
ATOM     82  O   UNL     1       8.360   2.289  21.669  1.00  0.00    -0.744 OA
ENDBRANCH  76  79
ENDBRANCH  58  72
BRANCH  59  83
ATOM     83  C   UNL     1       0.545   5.255  21.642  1.00  0.00     0.023 A 
ATOM     84  C   UNL     1      -0.025   5.192  22.931  1.00  0.00     0.012 A 
ATOM     85  C   UNL     1       1.215   6.440  21.271  1.00  0.00     0.148 A 
ATOM     86  C   UNL     1       0.138   6.233  23.849  1.00  0.00     0.002 A 
ATOM     87  C   UNL     1       1.360   7.482  22.185  1.00  0.00     0.091 A 
ATOM     88  F   UNL     1       1.799   6.512  20.067  1.00  0.00    -0.205 F 
ATOM     89  C   UNL     1       0.844   7.372  23.482  1.00  0.00     0.022 A 
BRANCH  87  90
ATOM     90  S   UNL     1       2.255   8.984  21.765  1.00  0.00     0.127 S 
ATOM     91  O   UNL     1       1.502  10.011  22.487  1.00  0.00    -0.237 OA
ATOM     92  O   UNL     1       3.583   8.708  22.303  1.00  0.00    -0.237 OA
ATOM     93  O   UNL     1       2.159   9.092  20.314  1.00  0.00    -0.744 OA
ENDBRANCH  87  90
ENDBRANCH  59  83
BRANCH  71  94
ATOM     94  C   UNL     1      -0.879  -0.753  20.256  1.00  0.00     0.023 A 
ATOM     95  C   UNL     1      -1.228  -0.004  19.116  1.00  0.00     0.012 A 
ATOM     96  C   UNL     1      -1.720  -1.792  20.685  1.00  0.00     0.148 A 
ATOM     97  C   UNL     1      -2.407  -0.283  18.421  1.00  0.00     0.002 A 
ATOM     98  C   UNL     1      -2.870  -2.092  19.969  1.00  0.00     0.091 A 
ATOM     99  F   UNL     1      -1.359  -2.491  21.772  1.00  0.00    -0.205 F 
ATOM    100  C   UNL     1      -3.222  -1.334  18.840  1.00  0.00     0.022 A 
BRANCH  98 101
ATOM    101  S   UNL     1      -3.906  -3.497  20.384  1.00  0.00     0.127 S 
ATOM    102  O   UNL     1      -5.133  -2.850  20.842  1.00  0.00    -0.237 OA
ATOM    103  O   UNL     1      -4.021  -4.185  19.097  1.00  0.00    -0.237 OA
ATOM    104  O   UNL     1      -3.182  -4.249  21.401  1.00  0.00    -0.744 OA
ENDBRANCH  98 101
ENDBRANCH  71  94
ENDBRANCH  45  46
ENDBRANCH  37  40
ENDBRANCH  35  36
ENDBRANCH  34  35
ENDBRANCH  33  34
ENDBRANCH   1  33
TORSDOF 21
