REMARK SMILES O=C(Cc1csc(NC(=O)[C@H]2CC(=O)N(C3CC3)C2)n1)NCCCCCCNC(=O)c1ccc(-c2c3nc(c(-c4cccc(S(=O)(=O)[O-])c4F)c4ccc([nH]4)c(-c4cccc(S(=O)(=O)[O-])c4F)c4nc(c(-c5cccc(S(=O)(=O)[O-])c5F)c5ccc2[nH]5)C=C4)C=C3)cc1
REMARK SMILES IDX 24 1 23 2 22 3 21 4 1 5 2 6 3 8 4 9 5 10 20 11 6 12 7 13
REMARK SMILES IDX 8 14 9 15 10 17 11 18 12 19 19 20 13 21 15 22 14 23 16 24
REMARK SMILES IDX 17 25 18 26 25 27 26 28 27 29 28 30 29 31 30 33 31 34 32 35
REMARK SMILES IDX 93 36 33 37 92 38 34 39 35 40 36 41 86 42 37 43 91 44 85 45
REMARK SMILES IDX 87 46 38 47 90 48 84 49 83 50 39 52 71 53 51 54 70 55 52 56
REMARK SMILES IDX 55 57 69 58 88 59 53 60 54 61 68 63 89 64 56 65 40 66 41 67
REMARK SMILES IDX 49 68 42 69 44 70 50 71 43 72 45 73 46 74 47 75 48 76 72 77
REMARK SMILES IDX 73 78 81 79 74 80 76 81 82 82 75 83 77 84 78 85 79 86 80 87
REMARK SMILES IDX 57 88 58 89 66 90 59 91 61 92 67 93 60 94 62 95 63 96 64 97
REMARK SMILES IDX 65 98
REMARK H PARENT 21 7 8 16 28 32 87 51 55 62
REMARK Flexibility Score: inf
ROOT
ATOM      1  C   UNL     1      -1.842  -0.014   4.143  1.00  0.00     0.002 C 
ENDROOT
BRANCH   1   2
ATOM      2  C   UNL     1      -1.681   1.490   3.883  1.00  0.00     0.021 C 
BRANCH   2   3
ATOM      3  C   UNL     1      -0.271   2.025   4.125  1.00  0.00     0.116 C 
BRANCH   3   4
ATOM      4  N   UNL     1       0.699   1.351   3.285  1.00  0.00    -0.356 N 
ATOM      5  O   UNL     1       1.365   3.202   2.092  1.00  0.00    -0.275 OA
ATOM      6  C   UNL     1       1.451   2.002   2.332  1.00  0.00     0.226 C 
ATOM      7  H   UNL     1       0.827   0.382   3.402  1.00  0.00     0.163 HD
BRANCH   6   8
ATOM      8  C   UNL     1       2.418   1.102   1.592  1.00  0.00     0.157 C 
BRANCH   8   9
ATOM      9  C   UNL     1       3.530   0.612   2.464  1.00  0.00     0.063 A 
ATOM     10  C   UNL     1       4.057   1.214   3.593  1.00  0.00     0.093 A 
ATOM     11  N   UNL     1       4.137  -0.593   2.134  1.00  0.00    -0.224 NA
ATOM     12  S   UNL     1       5.400   0.313   4.155  1.00  0.00    -0.105 S 
ATOM     13  C   UNL     1       5.052  -0.896   3.023  1.00  0.00     0.189 A 
BRANCH  13  14
ATOM     14  N   UNL     1       5.752  -2.059   2.919  1.00  0.00    -0.302 N 
ATOM     15  C   UNL     1       6.517  -2.800   3.744  1.00  0.00     0.231 C 
ATOM     16  H   UNL     1       5.681  -2.456   2.021  1.00  0.00     0.172 HD
ATOM     17  O   UNL     1       7.167  -3.697   3.182  1.00  0.00    -0.274 OA
BRANCH  15  18
ATOM     18  C   UNL     1       6.658  -2.656   5.255  1.00  0.00     0.107 C 
ATOM     19  C   UNL     1       5.500  -2.164   6.113  1.00  0.00     0.115 C 
ATOM     20  C   UNL     1       6.856  -4.080   5.800  1.00  0.00     0.133 C 
ATOM     21  C   UNL     1       5.597  -2.944   7.398  1.00  0.00     0.223 C 
ATOM     22  N   UNL     1       6.422  -4.036   7.168  1.00  0.00    -0.339 N 
ATOM     23  O   UNL     1       5.005  -2.644   8.419  1.00  0.00    -0.275 OA
BRANCH  22  24
ATOM     24  C   UNL     1       6.655  -5.140   8.047  1.00  0.00     0.085 C 
ATOM     25  C   UNL     1       6.561  -5.053   9.545  1.00  0.00     0.027 C 
ATOM     26  C   UNL     1       5.517  -5.808   8.772  1.00  0.00     0.027 C 
ENDBRANCH  22  24
ENDBRANCH  15  18
ENDBRANCH  13  14
ENDBRANCH   8   9
ENDBRANCH   6   8
ENDBRANCH   3   4
ENDBRANCH   2   3
ENDBRANCH   1   2
BRANCH   1  27
ATOM     27  C   UNL     1      -1.509  -0.472   5.567  1.00  0.00     0.002 C 
BRANCH  27  28
ATOM     28  C   UNL     1      -2.318   0.207   6.672  1.00  0.00     0.021 C 
BRANCH  28  29
ATOM     29  C   UNL     1      -3.830   0.075   6.530  1.00  0.00     0.116 C 
BRANCH  29  30
ATOM     30  N   UNL     1      -4.281  -1.307   6.630  1.00  0.00    -0.352 N 
ATOM     31  C   UNL     1      -5.286  -1.828   7.410  1.00  0.00     0.251 C 
ATOM     32  H   UNL     1      -3.802  -1.954   6.063  1.00  0.00     0.163 HD
ATOM     33  O   UNL     1      -5.435  -3.042   7.500  1.00  0.00    -0.269 OA
BRANCH  31  34
ATOM     34  C   UNL     1      -6.170  -0.909   8.158  1.00  0.00     0.039 A 
ATOM     35  C   UNL     1      -6.412  -1.146   9.513  1.00  0.00     0.014 A 
ATOM     36  C   UNL     1      -6.731   0.204   7.526  1.00  0.00     0.014 A 
ATOM     37  C   UNL     1      -7.164  -0.228  10.252  1.00  0.00     0.010 A 
ATOM     38  C   UNL     1      -7.412   1.154   8.280  1.00  0.00     0.010 A 
ATOM     39  C   UNL     1      -7.641   0.948   9.649  1.00  0.00    -0.014 A 
BRANCH  39  40
ATOM     40  C   UNL     1      -8.381   1.979  10.424  1.00  0.00     0.031 A 
ATOM     41  C   UNL     1      -9.797   2.327  10.045  1.00  0.00     0.074 A 
ATOM     42  C   UNL     1      -7.751   2.674  11.393  1.00  0.00     0.049 A 
ATOM     43  N   UNL     1     -10.569   3.269  10.519  1.00  0.00    -0.248 NA
ATOM     44  C   UNL     1     -10.418   1.530   8.972  1.00  0.00     0.031 C 
ATOM     45  C   UNL     1      -6.361   2.478  11.812  1.00  0.00     0.029 A 
ATOM     46  N   UNL     1      -8.187   3.713  12.179  1.00  0.00    -0.354 N 
ATOM     47  C   UNL     1     -11.740   3.213   9.774  1.00  0.00     0.074 A 
ATOM     48  C   UNL     1     -11.575   2.155   8.802  1.00  0.00     0.031 C 
ATOM     49  C   UNL     1      -6.058   3.368  12.772  1.00  0.00     0.029 A 
ATOM     50  C   UNL     1      -7.215   4.226  13.009  1.00  0.00     0.049 A 
ATOM     51  H   UNL     1      -9.108   4.059  12.152  1.00  0.00     0.167 HD
ATOM     52  C   UNL     1     -12.860   3.962   9.899  1.00  0.00     0.034 A 
ATOM     53  C   UNL     1      -7.244   5.282  13.847  1.00  0.00     0.034 A 
ATOM     54  C   UNL     1     -13.043   4.976  10.901  1.00  0.00     0.049 A 
ATOM     55  C   UNL     1      -8.518   6.075  13.982  1.00  0.00     0.074 A 
ATOM     56  C   UNL     1     -14.182   5.714  11.173  1.00  0.00     0.029 A 
ATOM     57  N   UNL     1     -12.066   5.404  11.783  1.00  0.00    -0.354 N 
ATOM     58  N   UNL     1      -9.669   5.898  13.380  1.00  0.00    -0.248 NA
ATOM     59  C   UNL     1      -8.510   7.194  14.938  1.00  0.00     0.031 C 
ATOM     60  C   UNL     1     -13.880   6.619  12.193  1.00  0.00     0.029 A 
ATOM     61  C   UNL     1     -12.569   6.409  12.589  1.00  0.00     0.049 A 
ATOM     62  H   UNL     1     -11.150   5.046  11.829  1.00  0.00     0.167 HD
ATOM     63  C   UNL     1     -10.531   6.846  13.921  1.00  0.00     0.074 A 
ATOM     64  C   UNL     1      -9.776   7.586  14.908  1.00  0.00     0.031 C 
ATOM     65  C   UNL     1     -11.829   7.088  13.619  1.00  0.00     0.034 A 
BRANCH  52  66
ATOM     66  C   UNL     1     -14.005   3.700   8.956  1.00  0.00     0.023 A 
ATOM     67  C   UNL     1     -14.780   2.533   9.101  1.00  0.00     0.012 A 
ATOM     68  C   UNL     1     -14.377   4.666   8.001  1.00  0.00     0.148 A 
ATOM     69  C   UNL     1     -15.898   2.321   8.295  1.00  0.00     0.002 A 
ATOM     70  C   UNL     1     -15.520   4.472   7.236  1.00  0.00     0.091 A 
ATOM     71  F   UNL     1     -13.614   5.761   7.870  1.00  0.00    -0.205 F 
ATOM     72  C   UNL     1     -16.275   3.296   7.374  1.00  0.00     0.022 A 
BRANCH  70  73
ATOM     73  S   UNL     1     -16.140   5.705   6.087  1.00  0.00     0.127 S 
ATOM     74  O   UNL     1     -15.986   5.016   4.805  1.00  0.00    -0.237 OA
ATOM     75  O   UNL     1     -17.525   5.865   6.530  1.00  0.00    -0.237 OA
ATOM     76  O   UNL     1     -15.301   6.881   6.261  1.00  0.00    -0.744 OA
ENDBRANCH  70  73
ENDBRANCH  52  66
BRANCH  53  77
ATOM     77  C   UNL     1      -6.044   5.644  14.658  1.00  0.00     0.023 A 
ATOM     78  C   UNL     1      -6.088   5.513  16.060  1.00  0.00     0.012 A 
ATOM     79  C   UNL     1      -4.875   6.145  14.054  1.00  0.00     0.148 A 
ATOM     80  C   UNL     1      -5.014   5.927  16.849  1.00  0.00     0.002 A 
ATOM     81  C   UNL     1      -3.786   6.499  14.841  1.00  0.00     0.091 A 
ATOM     82  F   UNL     1      -4.853   6.274  12.720  1.00  0.00    -0.205 F 
ATOM     83  C   UNL     1      -3.861   6.413  16.240  1.00  0.00     0.022 A 
BRANCH  81  84
ATOM     84  S   UNL     1      -2.218   7.015  14.134  1.00  0.00     0.127 S 
ATOM     85  O   UNL     1      -2.215   8.446  14.424  1.00  0.00    -0.237 OA
ATOM     86  O   UNL     1      -1.260   6.226  14.910  1.00  0.00    -0.237 OA
ATOM     87  O   UNL     1      -2.288   6.652  12.724  1.00  0.00    -0.744 OA
ENDBRANCH  81  84
ENDBRANCH  53  77
BRANCH  65  88
ATOM     88  C   UNL     1     -12.556   8.143  14.410  1.00  0.00     0.023 A 
ATOM     89  C   UNL     1     -12.270   9.507  14.207  1.00  0.00     0.012 A 
ATOM     90  C   UNL     1     -13.597   7.776  15.287  1.00  0.00     0.148 A 
ATOM     91  C   UNL     1     -12.988  10.489  14.889  1.00  0.00     0.002 A 
ATOM     92  C   UNL     1     -14.345   8.761  15.919  1.00  0.00     0.091 A 
ATOM     93  F   UNL     1     -13.842   6.472  15.476  1.00  0.00    -0.205 F 
ATOM     94  C   UNL     1     -14.034  10.117  15.732  1.00  0.00     0.022 A 
BRANCH  92  95
ATOM     95  S   UNL     1     -15.774   8.380  16.938  1.00  0.00     0.127 S 
ATOM     96  O   UNL     1     -15.297   8.748  18.270  1.00  0.00    -0.237 OA
ATOM     97  O   UNL     1     -16.793   9.273  16.385  1.00  0.00    -0.237 OA
ATOM     98  O   UNL     1     -16.043   6.961  16.744  1.00  0.00    -0.744 OA
ENDBRANCH  92  95
ENDBRANCH  65  88
ENDBRANCH  39  40
ENDBRANCH  31  34
ENDBRANCH  29  30
ENDBRANCH  28  29
ENDBRANCH  27  28
ENDBRANCH   1  27
TORSDOF 20
