REMARK SMILES C[C@@H](Oc1ccc(/C=C2\C(=O)[NH+]=C(NCCCCCCNC(=O)c3ccc(-c4c5nc(c(-c6cccc(S(=O)(=O)[O-])c6F)c6ccc([nH]6)c(-c6cccc(S(=O)(=O)[O-])c6F)c6nc(c(-c7cccc(S(=O)(=O)[O-])c7F)c7ccc4[nH]7)C=C6)C=C5)cc3)N(c3ccc4c(c3)OCO4)C2=O)cc1)C(=O)[O-]
REMARK SMILES IDX 17 1 16 2 15 3 14 4 8 5 9 6 10 7 97 8 11 9 12 10 87 11 98 12
REMARK SMILES IDX 13 13 7 16 4 17 5 18 100 19 6 20 99 21 3 22 2 23 1 24 101 25
REMARK SMILES IDX 102 26 103 27 88 28 89 29 93 30 90 31 92 32 91 33 94 34
REMARK SMILES IDX 96 35 95 36 18 37 19 38 20 39 21 40 22 41 23 43 24 44 25 45
REMARK SMILES IDX 86 46 26 47 85 48 27 49 28 50 29 51 79 52 30 53 84 54 78 55
REMARK SMILES IDX 80 56 31 57 83 58 77 59 76 60 32 62 64 63 44 64 63 65 45 66
REMARK SMILES IDX 48 67 62 68 81 69 46 70 47 71 61 73 82 74 49 75 33 76 34 77
REMARK SMILES IDX 42 78 35 79 37 80 43 81 36 82 38 83 39 84 40 85 41 86 65 87
REMARK SMILES IDX 66 88 74 89 67 90 69 91 75 92 68 93 70 94 71 95 72 96 73 97
REMARK SMILES IDX 50 98 51 99 59 100 52 101 54 102 60 103 53 104 55 105 56 106
REMARK SMILES IDX 57 107 58 108
REMARK H PARENT 12 14 14 15 21 42 80 61 48 72
REMARK Flexibility Score: inf
ROOT
ATOM      1  C   UNL     1       9.591  -3.637  -9.868  1.00  0.00     0.003 C 
ENDROOT
BRANCH   1   2
ATOM      2  C   UNL     1       8.155  -3.294  -9.448  1.00  0.00     0.037 C 
BRANCH   2   3
ATOM      3  C   UNL     1       7.570  -4.245  -8.408  1.00  0.00     0.197 C 
BRANCH   3   4
ATOM      4  N   UNL     1       8.348  -4.170  -7.187  1.00  0.00    -0.277 N 
ATOM      5  C   UNL     1       6.355  -2.502  -2.580  1.00  0.00     0.031 C 
ATOM      6  C   UNL     1       7.018  -2.474  -3.750  1.00  0.00     0.138 C 
ATOM      7  C   UNL     1       6.476  -2.022  -5.042  1.00  0.00     0.321 C 
ATOM      8  C   UNL     1       8.413  -2.948  -3.750  1.00  0.00     0.328 C 
ATOM      9  O   UNL     1       5.721  -1.066  -5.134  1.00  0.00    -0.250 OA
ATOM     10  N   UNL     1       6.879  -2.769  -6.108  1.00  0.00    -0.210 N 
ATOM     11  N   UNL     1       8.842  -3.408  -4.989  1.00  0.00    -0.162 N 
ATOM     12  O   UNL     1       9.087  -2.941  -2.720  1.00  0.00    -0.249 OA
ATOM     13  C   UNL     1       8.000  -3.418  -6.096  1.00  0.00     0.366 C 
ATOM     14  H   UNL     1       6.304  -2.818  -6.906  1.00  0.00     0.270 HD
ATOM     15  H   UNL     1       9.181  -4.693  -7.139  1.00  0.00     0.260 HD
BRANCH   5  16
ATOM     16  C   UNL     1       4.948  -2.180  -2.316  1.00  0.00    -0.024 A 
ATOM     17  C   UNL     1       2.279  -1.648  -1.627  1.00  0.00     0.120 A 
ATOM     18  C   UNL     1       2.574  -2.283  -2.830  1.00  0.00     0.047 A 
ATOM     19  C   UNL     1       3.306  -1.324  -0.746  1.00  0.00     0.047 A 
ATOM     20  C   UNL     1       3.903  -2.558  -3.168  1.00  0.00     0.012 A 
ATOM     21  C   UNL     1       4.634  -1.576  -1.093  1.00  0.00     0.012 A 
BRANCH  17  22
ATOM     22  O   UNL     1       0.965  -1.502  -1.286  1.00  0.00    -0.485 OA
BRANCH  22  23
ATOM     23  C   UNL     1       0.536  -0.140  -1.151  1.00  0.00     0.216 C 
ATOM     24  C   UNL     1       0.740   0.383   0.269  1.00  0.00     0.059 C 
BRANCH  23  25
ATOM     25  C   UNL     1      -0.958  -0.072  -1.448  1.00  0.00     0.082 C 
ATOM     26  O   UNL     1      -1.532   0.844  -2.019  1.00  0.00    -0.546 OA
ATOM     27  O   UNL     1      -1.673  -1.092  -0.927  1.00  0.00    -0.546 OA
ENDBRANCH  23  25
ENDBRANCH  22  23
ENDBRANCH  17  22
ENDBRANCH   5  16
BRANCH  11  28
ATOM     28  C   UNL     1      10.155  -3.943  -5.045  1.00  0.00     0.115 A 
ATOM     29  C   UNL     1      11.192  -3.194  -5.642  1.00  0.00     0.048 A 
ATOM     30  C   UNL     1      10.429  -5.135  -4.363  1.00  0.00     0.094 A 
ATOM     31  C   UNL     1      12.523  -3.603  -5.503  1.00  0.00     0.054 A 
ATOM     32  C   UNL     1      11.747  -5.498  -4.234  1.00  0.00     0.169 A 
ATOM     33  C   UNL     1      12.767  -4.745  -4.770  1.00  0.00     0.166 A 
ATOM     34  O   UNL     1      12.205  -6.566  -3.527  1.00  0.00    -0.453 OA
ATOM     35  O   UNL     1      13.992  -5.240  -4.440  1.00  0.00    -0.454 OA
ATOM     36  C   UNL     1      13.611  -6.257  -3.488  1.00  0.00     0.468 C 
ENDBRANCH  11  28
ENDBRANCH   3   4
ENDBRANCH   2   3
ENDBRANCH   1   2
BRANCH   1  37
ATOM     37  C   UNL     1       9.791  -5.060 -10.399  1.00  0.00     0.002 C 
BRANCH  37  38
ATOM     38  C   UNL     1       8.875  -5.453 -11.560  1.00  0.00     0.021 C 
BRANCH  38  39
ATOM     39  C   UNL     1       8.980  -4.553 -12.786  1.00  0.00     0.116 C 
BRANCH  39  40
ATOM     40  N   UNL     1      10.303  -4.600 -13.388  1.00  0.00    -0.352 N 
ATOM     41  C   UNL     1      10.656  -4.862 -14.688  1.00  0.00     0.251 C 
ATOM     42  H   UNL     1      11.053  -4.419 -12.775  1.00  0.00     0.163 HD
ATOM     43  O   UNL     1      11.835  -5.048 -14.978  1.00  0.00    -0.269 OA
BRANCH  41  44
ATOM     44  C   UNL     1       9.613  -4.939 -15.734  1.00  0.00     0.039 A 
ATOM     45  C   UNL     1       9.660  -5.983 -16.661  1.00  0.00     0.014 A 
ATOM     46  C   UNL     1       8.592  -3.987 -15.802  1.00  0.00     0.014 A 
ATOM     47  C   UNL     1       8.651  -6.104 -17.620  1.00  0.00     0.010 A 
ATOM     48  C   UNL     1       7.548  -4.153 -16.709  1.00  0.00     0.010 A 
ATOM     49  C   UNL     1       7.569  -5.209 -17.632  1.00  0.00    -0.014 A 
BRANCH  49  50
ATOM     50  C   UNL     1       6.444  -5.371 -18.591  1.00  0.00     0.031 A 
ATOM     51  C   UNL     1       6.146  -4.296 -19.604  1.00  0.00     0.074 A 
ATOM     52  C   UNL     1       5.636  -6.446 -18.493  1.00  0.00     0.049 A 
ATOM     53  N   UNL     1       5.179  -4.240 -20.483  1.00  0.00    -0.248 NA
ATOM     54  C   UNL     1       7.032  -3.120 -19.616  1.00  0.00     0.031 C 
ATOM     55  C   UNL     1       5.768  -7.517 -17.502  1.00  0.00     0.029 A 
ATOM     56  N   UNL     1       4.521  -6.801 -19.214  1.00  0.00    -0.354 N 
ATOM     57  C   UNL     1       5.309  -3.009 -21.115  1.00  0.00     0.074 A 
ATOM     58  C   UNL     1       6.440  -2.341 -20.510  1.00  0.00     0.031 C 
ATOM     59  C   UNL     1       4.775  -8.405 -17.676  1.00  0.00     0.029 A 
ATOM     60  C   UNL     1       3.916  -7.952 -18.765  1.00  0.00     0.049 A 
ATOM     61  H   UNL     1       4.188  -6.280 -19.980  1.00  0.00     0.167 HD
ATOM     62  C   UNL     1       4.567  -2.491 -22.122  1.00  0.00     0.034 A 
ATOM     63  C   UNL     1       2.787  -8.566 -19.172  1.00  0.00     0.034 A 
ATOM     64  C   UNL     1       3.477  -3.180 -22.758  1.00  0.00     0.049 A 
ATOM     65  C   UNL     1       2.014  -7.987 -20.327  1.00  0.00     0.074 A 
ATOM     66  C   UNL     1       2.745  -2.788 -23.865  1.00  0.00     0.029 A 
ATOM     67  N   UNL     1       2.950  -4.390 -22.337  1.00  0.00    -0.354 N 
ATOM     68  N   UNL     1       2.268  -6.914 -21.035  1.00  0.00    -0.248 NA
ATOM     69  C   UNL     1       0.817  -8.722 -20.762  1.00  0.00     0.031 C 
ATOM     70  C   UNL     1       1.748  -3.741 -24.088  1.00  0.00     0.029 A 
ATOM     71  C   UNL     1       1.887  -4.748 -23.148  1.00  0.00     0.049 A 
ATOM     72  H   UNL     1       3.283  -4.917 -21.575  1.00  0.00     0.167 HD
ATOM     73  C   UNL     1       1.291  -6.870 -22.023  1.00  0.00     0.074 A 
ATOM     74  C   UNL     1       0.453  -8.035 -21.836  1.00  0.00     0.031 C 
ATOM     75  C   UNL     1       1.096  -5.940 -22.990  1.00  0.00     0.034 A 
BRANCH  62  76
ATOM     76  C   UNL     1       4.921  -1.121 -22.637  1.00  0.00     0.023 A 
ATOM     77  C   UNL     1       6.085  -0.940 -23.410  1.00  0.00     0.012 A 
ATOM     78  C   UNL     1       4.043  -0.035 -22.441  1.00  0.00     0.148 A 
ATOM     79  C   UNL     1       6.382   0.306 -23.963  1.00  0.00     0.002 A 
ATOM     80  C   UNL     1       4.322   1.190 -23.033  1.00  0.00     0.091 A 
ATOM     81  F   UNL     1       2.952  -0.225 -21.686  1.00  0.00    -0.205 F 
ATOM     82  C   UNL     1       5.495   1.365 -23.786  1.00  0.00     0.022 A 
BRANCH  80  83
ATOM     83  S   UNL     1       3.201   2.591 -22.939  1.00  0.00     0.127 S 
ATOM     84  O   UNL     1       3.977   3.534 -22.134  1.00  0.00    -0.237 OA
ATOM     85  O   UNL     1       3.060   2.963 -24.347  1.00  0.00    -0.237 OA
ATOM     86  O   UNL     1       1.984   2.094 -22.313  1.00  0.00    -0.744 OA
ENDBRANCH  80  83
ENDBRANCH  62  76
BRANCH  63  87
ATOM     87  C   UNL     1       2.332  -9.825 -18.513  1.00  0.00     0.023 A 
ATOM     88  C   UNL     1       2.350 -11.034 -19.234  1.00  0.00     0.012 A 
ATOM     89  C   UNL     1       1.871  -9.828 -17.182  1.00  0.00     0.148 A 
ATOM     90  C   UNL     1       1.871 -12.213 -18.661  1.00  0.00     0.002 A 
ATOM     91  C   UNL     1       1.452 -11.017 -16.597  1.00  0.00     0.091 A 
ATOM     92  F   UNL     1       1.848  -8.666 -16.514  1.00  0.00    -0.205 F 
ATOM     93  C   UNL     1       1.430 -12.206 -17.341  1.00  0.00     0.022 A 
BRANCH  91  94
ATOM     94  S   UNL     1       0.996 -11.122 -14.863  1.00  0.00     0.127 S 
ATOM     95  O   UNL     1      -0.456 -11.257 -14.943  1.00  0.00    -0.237 OA
ATOM     96  O   UNL     1       1.705 -12.328 -14.435  1.00  0.00    -0.237 OA
ATOM     97  O   UNL     1       1.489  -9.893 -14.255  1.00  0.00    -0.744 OA
ENDBRANCH  91  94
ENDBRANCH  63  87
BRANCH  75  98
ATOM     98  C   UNL     1      -0.034  -6.161 -23.961  1.00  0.00     0.023 A 
ATOM     99  C   UNL     1      -1.370  -6.015 -23.537  1.00  0.00     0.012 A 
ATOM    100  C   UNL     1       0.234  -6.441 -25.316  1.00  0.00     0.148 A 
ATOM    101  C   UNL     1      -2.421  -6.179 -24.438  1.00  0.00     0.002 A 
ATOM    102  C   UNL     1      -0.816  -6.549 -26.219  1.00  0.00     0.091 A 
ATOM    103  F   UNL     1       1.511  -6.593 -25.697  1.00  0.00    -0.205 F 
ATOM    104  C   UNL     1      -2.144  -6.434 -25.779  1.00  0.00     0.022 A 
BRANCH 102 105
ATOM    105  S   UNL     1      -0.551  -6.773 -27.981  1.00  0.00     0.127 S 
ATOM    106  O   UNL     1      -0.991  -8.154 -28.175  1.00  0.00    -0.237 OA
ATOM    107  O   UNL     1      -1.438  -5.763 -28.559  1.00  0.00    -0.237 OA
ATOM    108  O   UNL     1       0.868  -6.533 -28.209  1.00  0.00    -0.744 OA
ENDBRANCH 102 105
ENDBRANCH  75  98
ENDBRANCH  49  50
ENDBRANCH  41  44
ENDBRANCH  39  40
ENDBRANCH  38  39
ENDBRANCH  37  38
ENDBRANCH   1  37
TORSDOF 20
