REMARK SMILES CC1(C)O[C@H]2C[C@H]3[C@@H]4CCC5=CC(=O)C=C[C@]5(C)[C@@]4(F)[C@H](O)C[C@@]3(C)[C@@]2(C(=O)NCCCCCCNC(=O)c2ccc(-c3c4nc(c(-c5cccc(S(=O)(=O)[O-])c5F)c5ccc([nH]5)c(-c5cccc(S(=O)(=O)[O-])c5F)c5nc(c(-c6cccc(S(=O)(=O)[O-])c6F)c6ccc3[nH]6)C=C5)C=C4)cc2)O1
REMARK SMILES IDX 33 1 32 2 31 3 30 4 29 5 27 6 28 7 26 9 1 10 2 11 3 12 4 13
REMARK SMILES IDX 102 14 5 15 6 16 24 17 7 18 23 19 25 20 8 21 21 22 9 23
REMARK SMILES IDX 19 24 10 25 17 26 20 27 11 28 16 29 18 30 12 31 15 32 13 33
REMARK SMILES IDX 14 34 22 35 34 37 35 38 36 39 37 40 38 42 39 43 40 44 101 45
REMARK SMILES IDX 41 46 100 47 42 48 43 49 44 50 94 51 45 52 99 53 93 54 95 55
REMARK SMILES IDX 46 56 98 57 92 58 91 59 47 61 79 62 59 63 78 64 60 65 63 66
REMARK SMILES IDX 77 67 96 68 61 69 62 70 76 72 97 73 64 74 48 75 49 76 57 77
REMARK SMILES IDX 50 78 52 79 58 80 51 81 53 82 54 83 55 84 56 85 80 86 81 87
REMARK SMILES IDX 89 88 82 89 84 90 90 91 83 92 85 93 86 94 87 95 88 96 65 97
REMARK SMILES IDX 66 98 74 99 67 100 69 101 75 102 68 103 70 104 71 105 72 106
REMARK SMILES IDX 73 107
REMARK H PARENT 29 8 22 36 36 41 95 60 63 71
REMARK Flexibility Score: inf
ROOT
ATOM      1  C   UNL     1      -6.685  -0.358  -3.532  1.00  0.00     0.002 C 
ENDROOT
BRANCH   1   2
ATOM      2  C   UNL     1      -5.424   0.269  -4.145  1.00  0.00     0.002 C 
BRANCH   2   3
ATOM      3  C   UNL     1      -4.186   0.342  -3.252  1.00  0.00     0.021 C 
BRANCH   3   4
ATOM      4  C   UNL     1      -3.768  -0.967  -2.601  1.00  0.00     0.116 C 
BRANCH   4   5
ATOM      5  N   UNL     1      -3.003  -1.919  -3.377  1.00  0.00    -0.353 N 
ATOM      6  C   UNL     1      -2.053  -2.806  -2.901  1.00  0.00     0.255 C 
ATOM      7  O   UNL     1      -1.643  -3.684  -3.662  1.00  0.00    -0.272 OA
ATOM      8  H   UNL     1      -3.177  -1.937  -4.346  1.00  0.00     0.163 HD
BRANCH   6   9
ATOM      9  C   UNL     1      -1.505  -2.651  -1.456  1.00  0.00     0.181 C 
ATOM     10  C   UNL     1       1.054  -0.419  -0.435  1.00  0.00     0.075 C 
ATOM     11  C   UNL     1       0.402  -1.297  -1.510  1.00  0.00     0.164 C 
ATOM     12  C   UNL     1       0.778  -0.766  -2.886  1.00  0.00     0.075 C 
ATOM     13  O   UNL     1       0.910  -2.627  -1.391  1.00  0.00    -0.344 OA
ATOM     14  O   UNL     1      -1.032  -1.277  -1.350  1.00  0.00    -0.331 OA
ATOM     15  C   UNL     1      -0.201  -3.483  -1.119  1.00  0.00     0.164 C 
ATOM     16  C   UNL     1      -0.240  -3.793   0.460  1.00  0.00     0.040 C 
ATOM     17  C   UNL     1      -2.438  -3.121  -0.253  1.00  0.00     0.014 C 
ATOM     18  C   UNL     1      -1.403  -2.885   0.899  1.00  0.00     0.008 C 
ATOM     19  C   UNL     1      -3.800  -2.556   0.165  1.00  0.00     0.046 C 
ATOM     20  C   UNL     1      -2.804  -4.625  -0.540  1.00  0.00     0.015 C 
ATOM     21  C   UNL     1      -1.610  -1.696   1.912  1.00  0.00     0.035 C 
ATOM     22  C   UNL     1      -3.828  -1.204   0.840  1.00  0.00     0.154 C 
ATOM     23  C   UNL     1      -0.778  -1.759   3.185  1.00  0.00     0.012 C 
ATOM     24  C   UNL     1      -3.047  -1.200   2.180  1.00  0.00     0.152 C 
ATOM     25  C   UNL     1      -0.590  -0.326   3.702  1.00  0.00     0.032 C 
ATOM     26  C   UNL     1      -3.032   0.247   2.861  1.00  0.00     0.044 C 
ATOM     27  F   UNL     1      -3.616  -2.107   3.030  1.00  0.00    -0.239 F 
ATOM     28  C   UNL     1      -1.883   0.434   3.879  1.00  0.00    -0.053 C 
ATOM     29  C   UNL     1      -4.359   0.585   3.542  1.00  0.00    -0.009 C 
ATOM     30  C   UNL     1      -2.826   1.360   1.779  1.00  0.00     0.024 C 
ATOM     31  C   UNL     1      -1.982   1.350   4.863  1.00  0.00     0.052 C 
ATOM     32  C   UNL     1      -4.466   1.488   4.529  1.00  0.00     0.048 C 
ATOM     33  C   UNL     1      -3.240   2.111   5.074  1.00  0.00     0.178 C 
ATOM     34  O   UNL     1      -3.252   3.156   5.694  1.00  0.00    -0.290 OA
BRANCH  22  35
ATOM     35  O   UNL     1      -5.188  -0.809   1.017  1.00  0.00    -0.390 OA
ATOM     36  H   UNL     1      -5.641  -1.454   1.583  1.00  0.00     0.211 HD
ENDBRANCH  22  35
ENDBRANCH   6   9
ENDBRANCH   4   5
ENDBRANCH   3   4
ENDBRANCH   2   3
ENDBRANCH   1   2
BRANCH   1  37
ATOM     37  C   UNL     1      -7.206   0.253  -2.225  1.00  0.00     0.021 C 
BRANCH  37  38
ATOM     38  C   UNL     1      -7.521   1.747  -2.250  1.00  0.00     0.116 C 
BRANCH  38  39
ATOM     39  N   UNL     1      -8.434   2.110  -3.319  1.00  0.00    -0.352 N 
ATOM     40  C   UNL     1      -9.576   2.869  -3.303  1.00  0.00     0.251 C 
ATOM     41  H   UNL     1      -8.193   1.751  -4.203  1.00  0.00     0.163 HD
ATOM     42  O   UNL     1     -10.268   2.914  -4.318  1.00  0.00    -0.269 OA
BRANCH  40  43
ATOM     43  C   UNL     1      -9.995   3.620  -2.095  1.00  0.00     0.039 A 
ATOM     44  C   UNL     1     -11.363   3.706  -1.814  1.00  0.00     0.014 A 
ATOM     45  C   UNL     1      -9.082   4.287  -1.274  1.00  0.00     0.014 A 
ATOM     46  C   UNL     1     -11.807   4.427  -0.702  1.00  0.00     0.010 A 
ATOM     47  C   UNL     1      -9.521   4.942  -0.120  1.00  0.00     0.010 A 
ATOM     48  C   UNL     1     -10.889   5.035   0.171  1.00  0.00    -0.014 A 
BRANCH  48  49
ATOM     49  C   UNL     1     -11.368   5.750   1.385  1.00  0.00     0.031 A 
ATOM     50  C   UNL     1     -11.134   7.229   1.562  1.00  0.00     0.074 A 
ATOM     51  C   UNL     1     -11.989   5.052   2.358  1.00  0.00     0.049 A 
ATOM     52  N   UNL     1     -11.540   8.016   2.525  1.00  0.00    -0.248 NA
ATOM     53  C   UNL     1     -10.321   7.910   0.541  1.00  0.00     0.031 C 
ATOM     54  C   UNL     1     -12.188   3.601   2.360  1.00  0.00     0.029 A 
ATOM     55  N   UNL     1     -12.555   5.464   3.539  1.00  0.00    -0.354 N 
ATOM     56  C   UNL     1     -11.005   9.269   2.250  1.00  0.00     0.074 A 
ATOM     57  C   UNL     1     -10.223   9.134   1.041  1.00  0.00     0.031 C 
ATOM     58  C   UNL     1     -12.840   3.246   3.478  1.00  0.00     0.029 A 
ATOM     59  C   UNL     1     -13.088   4.438   4.284  1.00  0.00     0.049 A 
ATOM     60  H   UNL     1     -12.577   6.406   3.826  1.00  0.00     0.167 HD
ATOM     61  C   UNL     1     -11.169  10.432   2.927  1.00  0.00     0.034 A 
ATOM     62  C   UNL     1     -13.708   4.451   5.480  1.00  0.00     0.034 A 
ATOM     63  C   UNL     1     -11.984  10.573   4.104  1.00  0.00     0.049 A 
ATOM     64  C   UNL     1     -13.946   5.770   6.165  1.00  0.00     0.074 A 
ATOM     65  C   UNL     1     -12.307  11.730   4.793  1.00  0.00     0.029 A 
ATOM     66  N   UNL     1     -12.589   9.526   4.780  1.00  0.00    -0.354 N 
ATOM     67  N   UNL     1     -13.605   6.975   5.778  1.00  0.00    -0.248 NA
ATOM     68  C   UNL     1     -14.699   5.735   7.427  1.00  0.00     0.031 C 
ATOM     69  C   UNL     1     -13.078  11.377   5.905  1.00  0.00     0.029 A 
ATOM     70  C   UNL     1     -13.270  10.006   5.887  1.00  0.00     0.049 A 
ATOM     71  H   UNL     1     -12.543   8.579   4.513  1.00  0.00     0.167 HD
ATOM     72  C   UNL     1     -14.126   7.842   6.731  1.00  0.00     0.074 A 
ATOM     73  C   UNL     1     -14.838   7.026   7.692  1.00  0.00     0.031 C 
ATOM     74  C   UNL     1     -14.011   9.191   6.815  1.00  0.00     0.034 A 
BRANCH  61  75
ATOM     75  C   UNL     1     -10.490  11.667   2.391  1.00  0.00     0.023 A 
ATOM     76  C   UNL     1     -10.964  12.269   1.207  1.00  0.00     0.012 A 
ATOM     77  C   UNL     1      -9.445  12.283   3.107  1.00  0.00     0.148 A 
ATOM     78  C   UNL     1     -10.390  13.447   0.730  1.00  0.00     0.002 A 
ATOM     79  C   UNL     1      -8.910  13.482   2.651  1.00  0.00     0.091 A 
ATOM     80  F   UNL     1      -8.996  11.688   4.221  1.00  0.00    -0.205 F 
ATOM     81  C   UNL     1      -9.373  14.059   1.457  1.00  0.00     0.022 A 
BRANCH  79  82
ATOM     82  S   UNL     1      -7.657  14.397   3.558  1.00  0.00     0.127 S 
ATOM     83  O   UNL     1      -6.501  14.271   2.672  1.00  0.00    -0.237 OA
ATOM     84  O   UNL     1      -8.239  15.738   3.614  1.00  0.00    -0.237 OA
ATOM     85  O   UNL     1      -7.528  13.734   4.848  1.00  0.00    -0.744 OA
ENDBRANCH  79  82
ENDBRANCH  61  75
BRANCH  62  86
ATOM     86  C   UNL     1     -14.201   3.179   6.082  1.00  0.00     0.023 A 
ATOM     87  C   UNL     1     -15.587   2.949   6.194  1.00  0.00     0.012 A 
ATOM     88  C   UNL     1     -13.304   2.195   6.538  1.00  0.00     0.148 A 
ATOM     89  C   UNL     1     -16.068   1.783   6.790  1.00  0.00     0.002 A 
ATOM     90  C   UNL     1     -13.790   1.008   7.073  1.00  0.00     0.091 A 
ATOM     91  F   UNL     1     -11.989   2.436   6.434  1.00  0.00    -0.205 F 
ATOM     92  C   UNL     1     -15.171   0.809   7.221  1.00  0.00     0.022 A 
BRANCH  90  93
ATOM     93  S   UNL     1     -12.710  -0.355   7.519  1.00  0.00     0.127 S 
ATOM     94  O   UNL     1     -12.747  -0.302   8.978  1.00  0.00    -0.237 OA
ATOM     95  O   UNL     1     -13.403  -1.498   6.925  1.00  0.00    -0.237 OA
ATOM     96  O   UNL     1     -11.425  -0.051   6.903  1.00  0.00    -0.744 OA
ENDBRANCH  90  93
ENDBRANCH  62  86
BRANCH  74  97
ATOM     97  C   UNL     1     -14.700   9.875   7.968  1.00  0.00     0.023 A 
ATOM     98  C   UNL     1     -14.222   9.695   9.282  1.00  0.00     0.012 A 
ATOM     99  C   UNL     1     -15.802  10.724   7.747  1.00  0.00     0.148 A 
ATOM    100  C   UNL     1     -14.863  10.302  10.361  1.00  0.00     0.002 A 
ATOM    101  C   UNL     1     -16.402  11.371   8.821  1.00  0.00     0.091 A 
ATOM    102  F   UNL     1     -16.257  10.872   6.494  1.00  0.00    -0.205 F 
ATOM    103  C   UNL     1     -15.946  11.147  10.130  1.00  0.00     0.022 A 
BRANCH 101 104
ATOM    104  S   UNL     1     -17.736  12.553   8.601  1.00  0.00     0.127 S 
ATOM    105  O   UNL     1     -18.899  11.771   9.017  1.00  0.00    -0.237 OA
ATOM    106  O   UNL     1     -17.360  13.624   9.525  1.00  0.00    -0.237 OA
ATOM    107  O   UNL     1     -17.703  12.934   7.196  1.00  0.00    -0.744 OA
ENDBRANCH 101 104
ENDBRANCH  74  97
ENDBRANCH  48  49
ENDBRANCH  40  43
ENDBRANCH  38  39
ENDBRANCH  37  38
ENDBRANCH   1  37
TORSDOF 17
