REMARK SMILES O=C(NCCCCCCNC(=O)c1ccc(-c2c3nc(c(-c4cccc(S(=O)(=O)[O-])c4F)c4ccc([nH]4)c(-c4cccc(S(=O)(=O)[O-])c4F)c4nc(c(-c5cccc(S(=O)(=O)[O-])c5F)c5ccc2[nH]5)C=C4)C=C3)cc1)C1=Cc2cc(S(F)(F)(F)(F)F)ccc2O[C@H]1C(F)(F)F
REMARK SMILES IDX 7 1 6 2 5 3 4 4 3 5 1 6 2 7 76 9 77 10 91 11 78 12 90 13
REMARK SMILES IDX 79 14 89 15 80 16 88 17 87 18 92 19 93 20 94 21 95 22 81 23
REMARK SMILES IDX 82 24 83 25 84 26 85 27 86 28 8 29 9 30 10 31 11 32 12 34
REMARK SMILES IDX 13 35 14 36 75 37 15 38 74 39 16 40 17 41 18 42 68 43 19 44
REMARK SMILES IDX 73 45 67 46 69 47 20 48 72 49 66 50 65 51 21 53 53 54 33 55
REMARK SMILES IDX 52 56 34 57 37 58 51 59 70 60 35 61 36 62 50 64 71 65 38 66
REMARK SMILES IDX 22 67 23 68 31 69 24 70 26 71 32 72 25 73 27 74 28 75 29 76
REMARK SMILES IDX 30 77 54 78 55 79 63 80 56 81 58 82 64 83 57 84 59 85 60 86
REMARK SMILES IDX 61 87 62 88 39 89 40 90 48 91 41 92 43 93 49 94 42 95 44 96
REMARK SMILES IDX 45 97 46 98 47 99
REMARK H PARENT 3 8 10 33 69 52 37 63
REMARK Flexibility Score: inf
ROOT
ATOM      1  C   UNL     1       5.035  -3.972  -0.993  1.00  0.00     0.002 C 
ENDROOT
BRANCH   1   2
ATOM      2  C   UNL     1       4.529  -3.554   0.377  1.00  0.00     0.002 C 
BRANCH   2   3
ATOM      3  C   UNL     1       5.035  -2.158   0.701  1.00  0.00     0.021 C 
BRANCH   3   4
ATOM      4  C   UNL     1       4.529  -1.180  -0.347  1.00  0.00     0.116 C 
BRANCH   4   5
ATOM      5  N   UNL     1       3.059  -1.180  -0.347  1.00  0.00    -0.352 N 
ATOM      6  O   UNL     1       1.053   0.060  -0.060  1.00  0.00    -0.270 OA
ATOM      7  C   UNL     1       2.324   0.060  -0.060  1.00  0.00     0.251 C 
ATOM      8  H   UNL     1       2.566  -2.010  -0.539  1.00  0.00     0.163 HD
BRANCH   7   9
ATOM      9  C   UNL     1       3.084   1.343   0.237  1.00  0.00     0.067 C 
ATOM     10  C   UNL     1       4.444   1.343   0.237  1.00  0.00     0.025 C 
ATOM     11  C   UNL     1       2.324   2.625   0.534  1.00  0.00     0.314 C 
ATOM     12  C   UNL     1       5.204   0.060  -0.060  1.00  0.00     0.019 A 
ATOM     13  O   UNL     1       3.644  -0.437  -1.783  1.00  0.00    -0.475 OA
ATOM     14  C   UNL     1       6.275  -0.271   0.753  1.00  0.00     0.036 A 
ATOM     15  C   UNL     1       4.840  -0.720  -1.071  1.00  0.00     0.128 A 
ATOM     16  C   UNL     1       7.087  -1.309   0.238  1.00  0.00     0.107 A 
ATOM     17  C   UNL     1       5.610  -1.798  -1.435  1.00  0.00     0.048 A 
ATOM     18  C   UNL     1       6.716  -2.148  -0.712  1.00  0.00     0.028 A 
BRANCH  11  19
ATOM     19  C   UNL     1       0.829   2.355   0.471  1.00  0.00     0.429 C 
ATOM     20  F   UNL     1       0.444   2.188  -0.791  1.00  0.00    -0.167 F 
ATOM     21  F   UNL     1       0.505   1.277   1.180  1.00  0.00    -0.167 F 
ATOM     22  F   UNL     1       0.221   3.421   0.983  1.00  0.00    -0.167 F 
ENDBRANCH  11  19
BRANCH  16  23
ATOM     23  S   UNL     1       8.750  -1.499   0.928  1.00  0.00     0.310 S 
ATOM     24  F   UNL     1       8.200  -1.470   2.415  1.00  0.00    -0.094 F 
ATOM     25  F   UNL     1       8.864   0.070   1.012  1.00  0.00    -0.094 F 
ATOM     26  F   UNL     1      10.176  -1.663   1.524  1.00  0.00    -0.094 F 
ATOM     27  F   UNL     1       8.562  -3.067   0.966  1.00  0.00    -0.094 F 
ATOM     28  F   UNL     1       7.258  -1.347   0.428  1.00  0.00    -0.094 F 
ENDBRANCH  16  23
ENDBRANCH   7   9
ENDBRANCH   4   5
ENDBRANCH   3   4
ENDBRANCH   2   3
ENDBRANCH   1   2
BRANCH   1  29
ATOM     29  C   UNL     1       6.555  -3.972  -0.993  1.00  0.00     0.021 C 
BRANCH  29  30
ATOM     30  C   UNL     1       7.062  -4.950   0.054  1.00  0.00     0.116 C 
BRANCH  30  31
ATOM     31  N   UNL     1       6.572  -6.300  -0.258  1.00  0.00    -0.352 N 
ATOM     32  C   UNL     1       7.527  -7.389  -0.510  1.00  0.00     0.251 C 
ATOM     33  H   UNL     1       5.604  -6.476  -0.299  1.00  0.00     0.163 HD
ATOM     34  O   UNL     1       7.104  -8.556  -0.781  1.00  0.00    -0.269 OA
BRANCH  32  35
ATOM     35  C   UNL     1       9.022  -7.118  -0.448  1.00  0.00     0.039 A 
ATOM     36  C   UNL     1       9.845  -7.623  -1.441  1.00  0.00     0.014 A 
ATOM     37  C   UNL     1       9.514  -6.403   0.557  1.00  0.00     0.014 A 
ATOM     38  C   UNL     1      11.223  -7.562  -1.129  1.00  0.00     0.010 A 
ATOM     39  C   UNL     1      10.871  -6.273   0.724  1.00  0.00     0.010 A 
ATOM     40  C   UNL     1      11.745  -6.797  -0.188  1.00  0.00    -0.014 A 
BRANCH  40  41
ATOM     41  C   UNL     1      13.237  -6.514  -0.121  1.00  0.00     0.031 A 
ATOM     42  C   UNL     1      13.926  -6.901   1.030  1.00  0.00     0.074 A 
ATOM     43  C   UNL     1      13.829  -5.890  -1.205  1.00  0.00     0.049 A 
ATOM     44  N   UNL     1      15.232  -6.778   1.276  1.00  0.00    -0.248 NA
ATOM     45  C   UNL     1      13.293  -7.533   2.197  1.00  0.00     0.031 C 
ATOM     46  C   UNL     1      13.143  -5.505  -2.373  1.00  0.00     0.029 A 
ATOM     47  N   UNL     1      15.151  -5.532  -1.356  1.00  0.00    -0.354 N 
ATOM     48  C   UNL     1      15.523  -7.280   2.478  1.00  0.00     0.074 A 
ATOM     49  C   UNL     1      14.280  -7.767   3.090  1.00  0.00     0.031 C 
ATOM     50  C   UNL     1      14.034  -4.914  -3.211  1.00  0.00     0.029 A 
ATOM     51  C   UNL     1      15.294  -4.920  -2.582  1.00  0.00     0.049 A 
ATOM     52  H   UNL     1      15.870  -5.688  -0.702  1.00  0.00     0.167 HD
ATOM     53  C   UNL     1      16.777  -7.351   3.087  1.00  0.00     0.034 A 
ATOM     54  C   UNL     1      16.447  -4.388  -3.136  1.00  0.00     0.034 A 
ATOM     55  C   UNL     1      17.939  -6.859   2.514  1.00  0.00     0.049 A 
ATOM     56  C   UNL     1      17.692  -4.408  -2.502  1.00  0.00     0.074 A 
ATOM     57  C   UNL     1      19.212  -6.930   3.111  1.00  0.00     0.029 A 
ATOM     58  N   UNL     1      18.077  -6.224   1.299  1.00  0.00    -0.354 N 
ATOM     59  N   UNL     1      17.990  -4.945  -1.318  1.00  0.00    -0.248 NA
ATOM     60  C   UNL     1      18.914  -3.819  -3.065  1.00  0.00     0.031 C 
ATOM     61  C   UNL     1      20.105  -6.339   2.272  1.00  0.00     0.029 A 
ATOM     62  C   UNL     1      19.403  -5.887   1.138  1.00  0.00     0.049 A 
ATOM     63  H   UNL     1      17.353  -6.043   0.657  1.00  0.00     0.167 HD
ATOM     64  C   UNL     1      19.288  -4.784  -1.054  1.00  0.00     0.074 A 
ATOM     65  C   UNL     1      19.900  -4.051  -2.171  1.00  0.00     0.031 C 
ATOM     66  C   UNL     1      19.988  -5.223   0.071  1.00  0.00     0.034 A 
BRANCH  53  67
ATOM     67  C   UNL     1      16.874  -8.007   4.455  1.00  0.00     0.023 A 
ATOM     68  C   UNL     1      16.448  -9.310   4.653  1.00  0.00     0.012 A 
ATOM     69  C   UNL     1      17.329  -7.270   5.462  1.00  0.00     0.148 A 
ATOM     70  C   UNL     1      16.268  -9.653   6.014  1.00  0.00     0.002 A 
ATOM     71  C   UNL     1      17.246  -7.726   6.755  1.00  0.00     0.091 A 
ATOM     72  F   UNL     1      17.870  -6.080   5.216  1.00  0.00    -0.205 F 
ATOM     73  C   UNL     1      16.779  -8.982   7.029  1.00  0.00     0.022 A 
BRANCH  71  74
ATOM     74  S   UNL     1      17.761  -6.649   8.116  1.00  0.00     0.127 S 
ATOM     75  O   UNL     1      16.578  -6.414   9.056  1.00  0.00    -0.237 OA
ATOM     76  O   UNL     1      18.902  -7.315   8.888  1.00  0.00    -0.237 OA
ATOM     77  O   UNL     1      18.296  -5.152   7.486  1.00  0.00    -0.744 OA
ENDBRANCH  71  74
ENDBRANCH  53  67
BRANCH  54  78
ATOM     78  C   UNL     1      16.353  -3.748  -4.511  1.00  0.00     0.023 A 
ATOM     79  C   UNL     1      17.091  -4.321  -5.534  1.00  0.00     0.012 A 
ATOM     80  C   UNL     1      15.557  -2.709  -4.734  1.00  0.00     0.148 A 
ATOM     81  C   UNL     1      17.142  -3.538  -6.712  1.00  0.00     0.002 A 
ATOM     82  C   UNL     1      15.559  -2.076  -5.953  1.00  0.00     0.091 A 
ATOM     83  F   UNL     1      14.750  -2.278  -3.769  1.00  0.00    -0.205 F 
ATOM     84  C   UNL     1      16.309  -2.552  -6.992  1.00  0.00     0.022 A 
BRANCH  82  85
ATOM     85  S   UNL     1      14.553  -0.589  -6.188  1.00  0.00     0.127 S 
ATOM     86  O   UNL     1      15.459   0.585  -6.567  1.00  0.00    -0.237 OA
ATOM     87  O   UNL     1      13.537  -0.832  -7.306  1.00  0.00    -0.237 OA
ATOM     88  O   UNL     1      13.726  -0.225  -4.735  1.00  0.00    -0.744 OA
ENDBRANCH  82  85
ENDBRANCH  54  78
BRANCH  66  89
ATOM     89  C   UNL     1      21.483  -4.955   0.131  1.00  0.00     0.023 A 
ATOM     90  C   UNL     1      21.941  -3.649   0.090  1.00  0.00     0.012 A 
ATOM     91  C   UNL     1      22.326  -5.978   0.222  1.00  0.00     0.148 A 
ATOM     92  C   UNL     1      23.332  -3.536  -0.142  1.00  0.00     0.002 A 
ATOM     93  C   UNL     1      23.682  -5.778   0.123  1.00  0.00     0.091 A 
ATOM     94  F   UNL     1      21.853  -7.206   0.411  1.00  0.00    -0.205 F 
ATOM     95  C   UNL     1      24.201  -4.517   0.020  1.00  0.00     0.022 A 
BRANCH  93  96
ATOM     96  S   UNL     1      24.796  -7.204   0.128  1.00  0.00     0.127 S 
ATOM     97  O   UNL     1      25.596  -7.231  -1.177  1.00  0.00    -0.237 OA
ATOM     98  O   UNL     1      25.758  -7.095   1.313  1.00  0.00    -0.237 OA
ATOM     99  O   UNL     1      23.882  -8.642   0.266  1.00  0.00    -0.744 OA
ENDBRANCH  93  96
ENDBRANCH  66  89
ENDBRANCH  40  41
ENDBRANCH  32  35
ENDBRANCH  30  31
ENDBRANCH  29  30
ENDBRANCH   1  29
TORSDOF 18
