REMARK SMILES C[NH+](C)[C@H](CC(=O)Nc1ccc(/N=N/c2ccccc2)cc1)C(=O)NCCCCCCNC(=O)c1ccc(-c2c3nc(c(-c4cccc(S(=O)(=O)[O-])c4F)c4ccc([nH]4)c(-c4cccc(S(=O)(=O)[O-])c4F)c4nc(c(-c5cccc(S(=O)(=O)[O-])c5F)c5ccc2[nH]5)C=C4)C=C3)cc1
REMARK SMILES IDX 27 1 26 2 25 3 23 4 24 5 4 7 2 8 1 9 3 10 5 12 6 13 7 14
REMARK SMILES IDX 8 15 9 17 10 18 22 19 11 20 21 21 12 22 13 23 14 24 15 25
REMARK SMILES IDX 16 26 20 27 17 28 19 29 18 30 28 31 29 32 30 33 31 34 32 35
REMARK SMILES IDX 33 36 34 38 35 39 36 40 97 41 37 42 96 43 38 44 39 45 40 46
REMARK SMILES IDX 90 47 41 48 95 49 89 50 91 51 42 52 94 53 88 54 87 55 43 57
REMARK SMILES IDX 75 58 55 59 74 60 56 61 59 62 73 63 92 64 57 65 58 66 72 68
REMARK SMILES IDX 93 69 60 70 44 71 45 72 53 73 46 74 48 75 54 76 47 77 49 78
REMARK SMILES IDX 50 79 51 80 52 81 76 82 77 83 85 84 78 85 80 86 86 87 79 88
REMARK SMILES IDX 81 89 82 90 83 91 84 92 61 93 62 94 70 95 63 96 65 97 71 98
REMARK SMILES IDX 64 99 66 100 67 101 68 102 69 103
REMARK H PARENT 25 6 2 11 8 16 32 37 91 56 59 67
REMARK Flexibility Score: inf
ROOT
ATOM      1  C   UNL     1       3.359   0.973   1.154  1.00  0.00     0.021 C 
ENDROOT
BRANCH   1   2
ATOM      2  C   UNL     1       2.562   1.538  -0.015  1.00  0.00     0.116 C 
BRANCH   2   3
ATOM      3  N   UNL     1       3.049   1.075  -1.293  1.00  0.00    -0.351 N 
ATOM      4  C   UNL     1       2.376   0.630  -2.383  1.00  0.00     0.278 C 
ATOM      5  O   UNL     1       3.032   0.530  -3.428  1.00  0.00    -0.268 OA
ATOM      6  H   UNL     1       4.029   1.083  -1.388  1.00  0.00     0.163 HD
BRANCH   4   7
ATOM      7  C   UNL     1       0.870   0.281  -2.366  1.00  0.00     0.283 C 
BRANCH   7   8
ATOM      8  N   UNL     1       0.030   1.463  -2.754  1.00  0.00    -0.329 N 
ATOM      9  C   UNL     1       0.191   2.654  -1.929  1.00  0.00     0.333 C 
ATOM     10  C   UNL     1      -1.389   1.148  -2.912  1.00  0.00     0.333 C 
ATOM     11  H   UNL     1       0.413   1.700  -3.669  1.00  0.00     0.348 HD
ENDBRANCH   7   8
BRANCH   7  12
ATOM     12  C   UNL     1       0.312  -0.679  -1.295  1.00  0.00     0.175 C 
BRANCH  12  13
ATOM     13  C   UNL     1       1.166  -1.298  -0.207  1.00  0.00     0.230 C 
ATOM     14  O   UNL     1       0.794  -1.169   0.970  1.00  0.00    -0.274 OA
ATOM     15  N   UNL     1       2.314  -1.993  -0.377  1.00  0.00    -0.326 N 
ATOM     16  H   UNL     1       2.729  -2.256   0.476  1.00  0.00     0.169 HD
BRANCH  15  17
ATOM     17  C   UNL     1       3.042  -2.422  -1.486  1.00  0.00     0.041 A 
ATOM     18  C   UNL     1       4.401  -2.704  -1.279  1.00  0.00     0.028 A 
ATOM     19  C   UNL     1       2.499  -2.591  -2.748  1.00  0.00     0.028 A 
ATOM     20  C   UNL     1       5.221  -3.083  -2.346  1.00  0.00     0.032 A 
ATOM     21  C   UNL     1       3.321  -2.962  -3.812  1.00  0.00     0.032 A 
ATOM     22  C   UNL     1       4.693  -3.198  -3.631  1.00  0.00     0.086 A 
BRANCH  22  23
ATOM     23  N   UNL     1       5.510  -3.681  -4.671  1.00  0.00    -0.151 NA
ATOM     24  N   UNL     1       5.186  -3.186  -5.771  1.00  0.00    -0.151 NA
BRANCH  24  25
ATOM     25  C   UNL     1       5.508  -4.020  -6.859  1.00  0.00     0.086 A 
ATOM     26  C   UNL     1       5.623  -3.438  -8.125  1.00  0.00     0.030 A 
ATOM     27  C   UNL     1       5.583  -5.419  -6.756  1.00  0.00     0.030 A 
ATOM     28  C   UNL     1       5.818  -4.230  -9.260  1.00  0.00     0.002 A 
ATOM     29  C   UNL     1       5.780  -6.213  -7.886  1.00  0.00     0.002 A 
ATOM     30  C   UNL     1       5.895  -5.617  -9.138  1.00  0.00     0.000 A 
ENDBRANCH  24  25
ENDBRANCH  22  23
ENDBRANCH  15  17
ENDBRANCH  12  13
ENDBRANCH   7  12
ENDBRANCH   4   7
ENDBRANCH   2   3
ENDBRANCH   1   2
BRANCH   1  31
ATOM     31  C   UNL     1       4.859   1.271   1.133  1.00  0.00     0.002 C 
BRANCH  31  32
ATOM     32  C   UNL     1       5.234   2.745   0.987  1.00  0.00     0.002 C 
BRANCH  32  33
ATOM     33  C   UNL     1       4.529   3.701   1.950  1.00  0.00     0.021 C 
BRANCH  33  34
ATOM     34  C   UNL     1       4.575   3.297   3.417  1.00  0.00     0.116 C 
BRANCH  34  35
ATOM     35  N   UNL     1       5.932   3.183   3.917  1.00  0.00    -0.352 N 
ATOM     36  C   UNL     1       6.477   3.739   5.046  1.00  0.00     0.251 C 
ATOM     37  H   UNL     1       6.543   2.633   3.374  1.00  0.00     0.163 HD
ATOM     38  O   UNL     1       7.685   3.680   5.242  1.00  0.00    -0.269 OA
BRANCH  36  39
ATOM     39  C   UNL     1       5.595   4.432   6.009  1.00  0.00     0.039 A 
ATOM     40  C   UNL     1       5.971   5.694   6.470  1.00  0.00     0.014 A 
ATOM     41  C   UNL     1       4.399   3.848   6.439  1.00  0.00     0.014 A 
ATOM     42  C   UNL     1       5.126   6.388   7.337  1.00  0.00     0.010 A 
ATOM     43  C   UNL     1       3.522   4.575   7.240  1.00  0.00     0.010 A 
ATOM     44  C   UNL     1       3.884   5.845   7.711  1.00  0.00    -0.014 A 
BRANCH  44  45
ATOM     45  C   UNL     1       2.962   6.612   8.585  1.00  0.00     0.031 A 
ATOM     46  C   UNL     1       2.602   6.104   9.954  1.00  0.00     0.074 A 
ATOM     47  C   UNL     1       2.412   7.753   8.123  1.00  0.00     0.049 A 
ATOM     48  N   UNL     1       1.867   6.673  10.875  1.00  0.00    -0.248 NA
ATOM     49  C   UNL     1       3.110   4.776  10.332  1.00  0.00     0.031 C 
ATOM     50  C   UNL     1       2.612   8.303   6.781  1.00  0.00     0.029 A 
ATOM     51  N   UNL     1       1.570   8.651   8.728  1.00  0.00    -0.354 N 
ATOM     52  C   UNL     1       1.796   5.763  11.923  1.00  0.00     0.074 A 
ATOM     53  C   UNL     1       2.534   4.589  11.510  1.00  0.00     0.031 C 
ATOM     54  C   UNL     1       1.938   9.460   6.675  1.00  0.00     0.029 A 
ATOM     55  C   UNL     1       1.240   9.721   7.930  1.00  0.00     0.049 A 
ATOM     56  H   UNL     1       1.233   8.540   9.647  1.00  0.00     0.167 HD
ATOM     57  C   UNL     1       1.197   5.900  13.130  1.00  0.00     0.034 A 
ATOM     58  C   UNL     1       0.473  10.798   8.185  1.00  0.00     0.034 A 
ATOM     59  C   UNL     1       0.496   7.085  13.548  1.00  0.00     0.049 A 
ATOM     60  C   UNL     1      -0.139  10.950   9.551  1.00  0.00     0.074 A 
ATOM     61  C   UNL     1      -0.053   7.370  14.786  1.00  0.00     0.029 A 
ATOM     62  N   UNL     1       0.229   8.175  12.734  1.00  0.00    -0.354 N 
ATOM     63  N   UNL     1      -0.036  10.165  10.595  1.00  0.00    -0.248 NA
ATOM     64  C   UNL     1      -0.941  12.159   9.784  1.00  0.00     0.031 C 
ATOM     65  C   UNL     1      -0.684   8.617  14.708  1.00  0.00     0.029 A 
ATOM     66  C   UNL     1      -0.497   9.125  13.433  1.00  0.00     0.049 A 
ATOM     67  H   UNL     1       0.513   8.262  11.795  1.00  0.00     0.167 HD
ATOM     68  C   UNL     1      -0.732  10.798  11.619  1.00  0.00     0.074 A 
ATOM     69  C   UNL     1      -1.226  12.047  11.074  1.00  0.00     0.031 C 
ATOM     70  C   UNL     1      -0.955  10.379  12.890  1.00  0.00     0.034 A 
BRANCH  57  71
ATOM     71  C   UNL     1       1.305   4.750  14.099  1.00  0.00     0.023 A 
ATOM     72  C   UNL     1       2.549   4.444  14.689  1.00  0.00     0.012 A 
ATOM     73  C   UNL     1       0.169   3.999  14.458  1.00  0.00     0.148 A 
ATOM     74  C   UNL     1       2.669   3.382  15.586  1.00  0.00     0.002 A 
ATOM     75  C   UNL     1       0.287   2.974  15.390  1.00  0.00     0.091 A 
ATOM     76  F   UNL     1      -1.002   4.287  13.871  1.00  0.00    -0.205 F 
ATOM     77  C   UNL     1       1.538   2.655  15.944  1.00  0.00     0.022 A 
BRANCH  75  78
ATOM     78  S   UNL     1      -1.126   2.033  15.977  1.00  0.00     0.127 S 
ATOM     79  O   UNL     1      -0.913   0.742  15.325  1.00  0.00    -0.237 OA
ATOM     80  O   UNL     1      -0.913   2.027  17.425  1.00  0.00    -0.237 OA
ATOM     81  O   UNL     1      -2.305   2.769  15.542  1.00  0.00    -0.744 OA
ENDBRANCH  75  78
ENDBRANCH  57  71
BRANCH  58  82
ATOM     82  C   UNL     1       0.317  11.861   7.153  1.00  0.00     0.023 A 
ATOM     83  C   UNL     1       0.928  13.115   7.357  1.00  0.00     0.012 A 
ATOM     84  C   UNL     1      -0.400  11.632   5.963  1.00  0.00     0.148 A 
ATOM     85  C   UNL     1       0.801  14.131   6.410  1.00  0.00     0.002 A 
ATOM     86  C   UNL     1      -0.475  12.630   4.999  1.00  0.00     0.091 A 
ATOM     87  F   UNL     1      -0.980  10.436   5.793  1.00  0.00    -0.205 F 
ATOM     88  C   UNL     1       0.109  13.886   5.227  1.00  0.00     0.022 A 
BRANCH  86  89
ATOM     89  S   UNL     1      -1.232  12.364   3.392  1.00  0.00     0.127 S 
ATOM     90  O   UNL     1      -2.409  13.226   3.469  1.00  0.00    -0.237 OA
ATOM     91  O   UNL     1      -0.183  12.830   2.485  1.00  0.00    -0.237 OA
ATOM     92  O   UNL     1      -1.502  10.934   3.314  1.00  0.00    -0.744 OA
ENDBRANCH  86  89
ENDBRANCH  58  82
BRANCH  70  93
ATOM     93  C   UNL     1      -1.753  11.291  13.787  1.00  0.00     0.023 A 
ATOM     94  C   UNL     1      -3.130  11.478  13.553  1.00  0.00     0.012 A 
ATOM     95  C   UNL     1      -1.148  11.931  14.886  1.00  0.00     0.148 A 
ATOM     96  C   UNL     1      -3.880  12.327  14.366  1.00  0.00     0.002 A 
ATOM     97  C   UNL     1      -1.913  12.733  15.725  1.00  0.00     0.091 A 
ATOM     98  F   UNL     1       0.167  11.758  15.086  1.00  0.00    -0.205 F 
ATOM     99  C   UNL     1      -3.275  12.945  15.457  1.00  0.00     0.022 A 
BRANCH  97 100
ATOM    100  S   UNL     1      -1.238  13.487  17.209  1.00  0.00     0.127 S 
ATOM    101  O   UNL     1      -1.097  14.882  16.798  1.00  0.00    -0.237 OA
ATOM    102  O   UNL     1      -2.297  13.245  18.191  1.00  0.00    -0.237 OA
ATOM    103  O   UNL     1       0.007  12.782  17.483  1.00  0.00    -0.744 OA
ENDBRANCH  97 100
ENDBRANCH  70  93
ENDBRANCH  44  45
ENDBRANCH  36  39
ENDBRANCH  34  35
ENDBRANCH  33  34
ENDBRANCH  32  33
ENDBRANCH  31  32
ENDBRANCH   1  31
TORSDOF 22
