REMARK SMILES COc1ccc(NC(=O)C[C@@H](C[NH+]2CCOCC2)C(=O)NCCCCCCNC(=O)c2ccc(-c3c4nc(c(-c5cccc(S(=O)(=O)[O-])c5F)c5ccc([nH]5)c(-c5cccc(S(=O)(=O)[O-])c5F)c5nc(c(-c6cccc(S(=O)(=O)[O-])c6F)c6ccc3[nH]6)C=C5)C=C4)cc2)cc1
REMARK SMILES IDX 24 1 23 2 22 3 21 4 19 5 20 6 11 8 10 9 8 10 7 11 9 13 6 14
REMARK SMILES IDX 3 15 4 16 95 17 5 18 94 19 2 20 1 21 12 22 13 23 14 24 18 25
REMARK SMILES IDX 15 27 17 28 16 29 25 30 26 31 27 32 28 33 29 34 30 36 31 37
REMARK SMILES IDX 32 38 93 39 33 40 92 41 34 42 35 43 36 44 86 45 37 46 91 47
REMARK SMILES IDX 85 48 87 49 38 50 90 51 84 52 83 53 39 55 71 56 51 57 70 58
REMARK SMILES IDX 52 59 55 60 69 61 88 62 53 63 54 64 68 66 89 67 56 68 40 69
REMARK SMILES IDX 41 70 49 71 42 72 44 73 50 74 43 75 45 76 46 77 47 78 48 79
REMARK SMILES IDX 72 80 73 81 81 82 74 83 76 84 82 85 75 86 77 87 78 88 79 89
REMARK SMILES IDX 80 90 57 91 58 92 66 93 59 94 61 95 67 96 60 97 62 98 63 99
REMARK SMILES IDX 64 100 65 101
REMARK H PARENT 21 7 7 12 13 26 28 35 87 54 55 65
REMARK Flexibility Score: inf
ROOT
ATOM      1  C   UNL     1      -5.910   1.406  -3.720  1.00  0.00     0.002 C 
ENDROOT
BRANCH   1   2
ATOM      2  C   UNL     1      -4.992   1.311  -4.961  1.00  0.00     0.021 C 
BRANCH   2   3
ATOM      3  C   UNL     1      -4.168  -0.001  -5.301  1.00  0.00     0.116 C 
BRANCH   3   4
ATOM      4  N   UNL     1      -3.260   0.083  -6.545  1.00  0.00    -0.356 N 
ATOM      5  C   UNL     1      -1.967   0.126  -7.039  1.00  0.00     0.229 C 
ATOM      6  O   UNL     1      -1.951   0.040  -8.282  1.00  0.00    -0.275 OA
ATOM      7  H   UNL     1      -3.858   0.124  -7.326  1.00  0.00     0.163 HD
BRANCH   5   8
ATOM      8  C   UNL     1      -0.523   0.212  -6.316  1.00  0.00     0.142 C 
BRANCH   8   9
ATOM      9  C   UNL     1       0.579   1.115  -7.022  1.00  0.00     0.119 C 
BRANCH   9  10
ATOM     10  C   UNL     1       2.182   1.267  -6.986  1.00  0.00     0.225 C 
ATOM     11  N   UNL     1       3.187   1.097  -6.066  1.00  0.00    -0.326 N 
ATOM     12  H   UNL     1       4.068   1.242  -6.480  1.00  0.00     0.169 HD
ATOM     13  O   UNL     1       2.655   1.737  -8.050  1.00  0.00    -0.275 OA
BRANCH  11  14
ATOM     14  C   UNL     1       3.322   0.775  -4.701  1.00  0.00     0.041 A 
ATOM     15  C   UNL     1       3.285   0.183  -1.896  1.00  0.00     0.119 A 
ATOM     16  C   UNL     1       2.123   0.411  -2.585  1.00  0.00     0.048 A 
ATOM     17  C   UNL     1       4.487   0.266  -2.616  1.00  0.00     0.048 A 
ATOM     18  C   UNL     1       2.208   0.726  -3.935  1.00  0.00     0.030 A 
ATOM     19  C   UNL     1       4.512   0.574  -4.011  1.00  0.00     0.030 A 
BRANCH  15  20
ATOM     20  O   UNL     1       3.343  -0.090  -0.560  1.00  0.00    -0.497 OA
ATOM     21  C   UNL     1       2.158   0.167   0.210  1.00  0.00     0.278 C 
ENDBRANCH  15  20
ENDBRANCH  11  14
ENDBRANCH   9  10
ENDBRANCH   8   9
BRANCH   8  22
ATOM     22  C   UNL     1      -0.645   0.417  -4.824  1.00  0.00     0.276 C 
BRANCH  22  23
ATOM     23  N   UNL     1      -0.817   1.754  -4.205  1.00  0.00    -0.330 N 
ATOM     24  C   UNL     1      -2.148   2.242  -4.455  1.00  0.00     0.291 C 
ATOM     25  C   UNL     1       0.012   2.979  -4.190  1.00  0.00     0.291 C 
ATOM     26  H   UNL     1      -0.448   1.358  -3.341  1.00  0.00     0.348 HD
ATOM     27  C   UNL     1      -2.266   3.037  -5.760  1.00  0.00     0.221 C 
ATOM     28  C   UNL     1      -0.294   4.134  -5.190  1.00  0.00     0.221 C 
ATOM     29  O   UNL     1      -1.675   4.305  -5.516  1.00  0.00    -0.370 OA
ENDBRANCH  22  23
ENDBRANCH   8  22
ENDBRANCH   5   8
ENDBRANCH   3   4
ENDBRANCH   2   3
ENDBRANCH   1   2
BRANCH   1  30
ATOM     30  C   UNL     1      -5.368   1.080  -2.318  1.00  0.00     0.002 C 
BRANCH  30  31
ATOM     31  C   UNL     1      -4.426   2.053  -1.579  1.00  0.00     0.021 C 
BRANCH  31  32
ATOM     32  C   UNL     1      -4.836   3.524  -1.435  1.00  0.00     0.116 C 
BRANCH  32  33
ATOM     33  N   UNL     1      -6.195   3.677  -0.945  1.00  0.00    -0.352 N 
ATOM     34  C   UNL     1      -6.687   4.245   0.203  1.00  0.00     0.251 C 
ATOM     35  H   UNL     1      -6.885   3.307  -1.542  1.00  0.00     0.163 HD
ATOM     36  O   UNL     1      -7.857   4.021   0.515  1.00  0.00    -0.269 OA
BRANCH  34  37
ATOM     37  C   UNL     1      -5.864   5.131   1.060  1.00  0.00     0.039 A 
ATOM     38  C   UNL     1      -6.074   5.109   2.446  1.00  0.00     0.014 A 
ATOM     39  C   UNL     1      -4.982   6.067   0.513  1.00  0.00     0.014 A 
ATOM     40  C   UNL     1      -5.399   6.010   3.275  1.00  0.00     0.010 A 
ATOM     41  C   UNL     1      -4.257   6.919   1.348  1.00  0.00     0.010 A 
ATOM     42  C   UNL     1      -4.482   6.924   2.733  1.00  0.00    -0.014 A 
BRANCH  42  43
ATOM     43  C   UNL     1      -3.806   7.931   3.593  1.00  0.00     0.031 A 
ATOM     44  C   UNL     1      -4.083   9.401   3.388  1.00  0.00     0.074 A 
ATOM     45  C   UNL     1      -2.923   7.531   4.528  1.00  0.00     0.049 A 
ATOM     46  N   UNL     1      -3.576  10.433   4.012  1.00  0.00    -0.248 NA
ATOM     47  C   UNL     1      -5.037   9.759   2.324  1.00  0.00     0.031 C 
ATOM     48  C   UNL     1      -2.529   6.143   4.781  1.00  0.00     0.029 A 
ATOM     49  N   UNL     1      -2.184   8.253   5.431  1.00  0.00    -0.354 N 
ATOM     50  C   UNL     1      -4.128  11.556   3.403  1.00  0.00     0.074 A 
ATOM     51  C   UNL     1      -4.968  11.082   2.326  1.00  0.00     0.031 C 
ATOM     52  C   UNL     1      -1.632   6.113   5.780  1.00  0.00     0.029 A 
ATOM     53  C   UNL     1      -1.365   7.478   6.221  1.00  0.00     0.049 A 
ATOM     54  H   UNL     1      -2.234   9.233   5.507  1.00  0.00     0.167 HD
ATOM     55  C   UNL     1      -3.984  12.862   3.733  1.00  0.00     0.034 A 
ATOM     56  C   UNL     1      -0.501   7.833   7.192  1.00  0.00     0.034 A 
ATOM     57  C   UNL     1      -3.175  13.324   4.828  1.00  0.00     0.049 A 
ATOM     58  C   UNL     1      -0.382   9.290   7.555  1.00  0.00     0.074 A 
ATOM     59  C   UNL     1      -2.985  14.619   5.277  1.00  0.00     0.029 A 
ATOM     60  N   UNL     1      -2.427  12.501   5.656  1.00  0.00    -0.354 N 
ATOM     61  N   UNL     1      -1.002  10.325   7.041  1.00  0.00    -0.248 NA
ATOM     62  C   UNL     1       0.522   9.623   8.665  1.00  0.00     0.031 C 
ATOM     63  C   UNL     1      -2.111  14.579   6.368  1.00  0.00     0.029 A 
ATOM     64  C   UNL     1      -1.785  13.257   6.620  1.00  0.00     0.049 A 
ATOM     65  H   UNL     1      -2.362  11.522   5.570  1.00  0.00     0.167 HD
ATOM     66  C   UNL     1      -0.610  11.420   7.803  1.00  0.00     0.074 A 
ATOM     67  C   UNL     1       0.288  10.918   8.822  1.00  0.00     0.031 C 
ATOM     68  C   UNL     1      -0.952  12.725   7.667  1.00  0.00     0.034 A 
BRANCH  55  69
ATOM     69  C   UNL     1      -4.767  13.878   2.939  1.00  0.00     0.023 A 
ATOM     70  C   UNL     1      -6.170  13.934   3.079  1.00  0.00     0.012 A 
ATOM     71  C   UNL     1      -4.122  14.809   2.101  1.00  0.00     0.148 A 
ATOM     72  C   UNL     1      -6.922  14.871   2.371  1.00  0.00     0.002 A 
ATOM     73  C   UNL     1      -4.874  15.773   1.436  1.00  0.00     0.091 A 
ATOM     74  F   UNL     1      -2.791  14.734   1.966  1.00  0.00    -0.205 F 
ATOM     75  C   UNL     1      -6.273  15.796   1.558  1.00  0.00     0.022 A 
BRANCH  73  76
ATOM     76  S   UNL     1      -4.131  17.061   0.427  1.00  0.00     0.127 S 
ATOM     77  O   UNL     1      -4.611  16.703  -0.908  1.00  0.00    -0.237 OA
ATOM     78  O   UNL     1      -4.737  18.272   0.986  1.00  0.00    -0.237 OA
ATOM     79  O   UNL     1      -2.695  16.951   0.622  1.00  0.00    -0.744 OA
ENDBRANCH  73  76
ENDBRANCH  55  69
BRANCH  56  80
ATOM     80  C   UNL     1       0.263   6.796   7.946  1.00  0.00     0.023 A 
ATOM     81  C   UNL     1      -0.018   6.584   9.310  1.00  0.00     0.012 A 
ATOM     82  C   UNL     1       1.272   6.033   7.328  1.00  0.00     0.148 A 
ATOM     83  C   UNL     1       0.728   5.672  10.059  1.00  0.00     0.002 A 
ATOM     84  C   UNL     1       1.972   5.084   8.066  1.00  0.00     0.091 A 
ATOM     85  F   UNL     1       1.533   6.253   6.032  1.00  0.00    -0.205 F 
ATOM     86  C   UNL     1       1.717   4.918   9.435  1.00  0.00     0.022 A 
BRANCH  84  87
ATOM     87  S   UNL     1       3.168   3.981   7.304  1.00  0.00     0.127 S 
ATOM     88  O   UNL     1       4.435   4.535   7.795  1.00  0.00    -0.237 OA
ATOM     89  O   UNL     1       2.802   2.686   7.894  1.00  0.00    -0.237 OA
ATOM     90  O   UNL     1       2.940   4.074   5.882  1.00  0.00    -0.744 OA
ENDBRANCH  84  87
ENDBRANCH  56  80
BRANCH  68  91
ATOM     91  C   UNL     1      -0.419  13.691   8.694  1.00  0.00     0.023 A 
ATOM     92  C   UNL     1       0.950  14.022   8.717  1.00  0.00     0.012 A 
ATOM     93  C   UNL     1      -1.296  14.304   9.610  1.00  0.00     0.148 A 
ATOM     94  C   UNL     1       1.446  14.909   9.671  1.00  0.00     0.002 A 
ATOM     95  C   UNL     1      -0.803  15.231  10.520  1.00  0.00     0.091 A 
ATOM     96  F   UNL     1      -2.592  13.963   9.585  1.00  0.00    -0.205 F 
ATOM     97  C   UNL     1       0.570  15.521  10.564  1.00  0.00     0.022 A 
BRANCH  95  98
ATOM     98  S   UNL     1      -1.878  16.142  11.633  1.00  0.00     0.127 S 
ATOM     99  O   UNL     1      -1.621  15.475  12.908  1.00  0.00    -0.237 OA
ATOM    100  O   UNL     1      -1.343  17.502  11.537  1.00  0.00    -0.237 OA
ATOM    101  O   UNL     1      -3.225  15.987  11.103  1.00  0.00    -0.744 OA
ENDBRANCH  95  98
ENDBRANCH  68  91
ENDBRANCH  42  43
ENDBRANCH  34  37
ENDBRANCH  32  33
ENDBRANCH  31  32
ENDBRANCH  30  31
ENDBRANCH   1  30
TORSDOF 22
