REMARK SMILES CC[C@@H](C)[C@@H](C(=O)NCCCCCCNC(=O)c1ccc(-c2c3nc(c(-c4cccc(S(=O)(=O)[O-])c4F)c4ccc([nH]4)c(-c4cccc(S(=O)(=O)[O-])c4F)c4nc(c(-c5cccc(S(=O)(=O)[O-])c5F)c5ccc2[nH]5)C=C4)C=C3)cc1)S(=O)(=O)c1ccc(OC)cc1
REMARK SMILES IDX 11 1 10 2 9 3 8 4 6 5 7 6 5 8 3 9 4 10 2 11 1 12 81 13 82 14
REMARK SMILES IDX 83 15 84 16 85 17 91 18 86 19 90 20 87 21 88 22 89 23 12 24
REMARK SMILES IDX 13 25 14 26 15 27 16 28 17 30 18 31 19 32 80 33 20 34 79 35
REMARK SMILES IDX 21 36 22 37 23 38 73 39 24 40 78 41 72 42 74 43 25 44 77 45
REMARK SMILES IDX 71 46 70 47 26 49 58 50 38 51 57 52 39 53 42 54 56 55 75 56
REMARK SMILES IDX 40 57 41 58 55 60 76 61 43 62 27 63 28 64 36 65 29 66 31 67
REMARK SMILES IDX 37 68 30 69 32 70 33 71 34 72 35 73 59 74 60 75 68 76 61 77
REMARK SMILES IDX 63 78 69 79 62 80 64 81 65 82 66 83 67 84 44 85 45 86 53 87
REMARK SMILES IDX 46 88 48 89 54 90 47 91 49 92 50 93 51 94 52 95
REMARK H PARENT 8 7 15 29 74 48 42 59
REMARK Flexibility Score: inf
ROOT
ATOM      1  C   UNL     1       0.639  -0.849  -4.885  1.00  0.00     0.002 C 
ENDROOT
BRANCH   1   2
ATOM      2  C   UNL     1       0.377  -0.966  -3.383  1.00  0.00     0.021 C 
BRANCH   2   3
ATOM      3  C   UNL     1      -0.279  -2.284  -2.935  1.00  0.00     0.116 C 
BRANCH   3   4
ATOM      4  N   UNL     1       0.762  -3.264  -2.671  1.00  0.00    -0.355 N 
ATOM      5  C   UNL     1       1.412  -3.555  -1.505  1.00  0.00     0.239 C 
ATOM      6  O   UNL     1       2.591  -3.895  -1.628  1.00  0.00    -0.274 OA
ATOM      7  H   UNL     1       1.040  -3.797  -3.449  1.00  0.00     0.163 HD
BRANCH   5   8
ATOM      8  C   UNL     1       0.718  -3.494  -0.140  1.00  0.00     0.205 C 
BRANCH   8   9
ATOM      9  C   UNL     1       1.018  -2.202   0.693  1.00  0.00     0.014 C 
ATOM     10  C   UNL     1       0.525  -2.280   2.146  1.00  0.00     0.009 C 
BRANCH   9  11
ATOM     11  C   UNL     1       0.417  -0.932   0.062  1.00  0.00     0.002 C 
ATOM     12  C   UNL     1       0.928   0.380   0.649  1.00  0.00     0.004 C 
ENDBRANCH   9  11
ENDBRANCH   8   9
BRANCH   8  13
ATOM     13  S   UNL     1       1.165  -5.070   0.678  1.00  0.00     0.190 S 
ATOM     14  O   UNL     1       0.619  -5.114   2.017  1.00  0.00    -0.223 OA
ATOM     15  O   UNL     1       0.788  -6.144  -0.238  1.00  0.00    -0.223 OA
BRANCH  13  16
ATOM     16  C   UNL     1       2.945  -5.174   0.878  1.00  0.00     0.068 A 
ATOM     17  C   UNL     1       3.609  -6.341   0.488  1.00  0.00     0.024 A 
ATOM     18  C   UNL     1       3.686  -4.104   1.383  1.00  0.00     0.024 A 
ATOM     19  C   UNL     1       5.007  -6.395   0.534  1.00  0.00     0.048 A 
ATOM     20  C   UNL     1       5.084  -4.143   1.376  1.00  0.00     0.048 A 
ATOM     21  C   UNL     1       5.752  -5.282   0.932  1.00  0.00     0.118 A 
BRANCH  21  22
ATOM     22  O   UNL     1       7.111  -5.429   0.878  1.00  0.00    -0.497 OA
ATOM     23  C   UNL     1       7.866  -4.221   0.852  1.00  0.00     0.278 C 
ENDBRANCH  21  22
ENDBRANCH  13  16
ENDBRANCH   8  13
ENDBRANCH   5   8
ENDBRANCH   3   4
ENDBRANCH   2   3
ENDBRANCH   1   2
BRANCH   1  24
ATOM     24  C   UNL     1      -0.610  -0.619  -5.737  1.00  0.00     0.002 C 
BRANCH  24  25
ATOM     25  C   UNL     1      -1.482   0.573  -5.326  1.00  0.00     0.021 C 
BRANCH  25  26
ATOM     26  C   UNL     1      -0.755   1.912  -5.203  1.00  0.00     0.116 C 
BRANCH  26  27
ATOM     27  N   UNL     1      -0.134   2.316  -6.453  1.00  0.00    -0.352 N 
ATOM     28  C   UNL     1      -0.377   3.412  -7.243  1.00  0.00     0.251 C 
ATOM     29  H   UNL     1       0.569   1.712  -6.784  1.00  0.00     0.163 HD
ATOM     30  O   UNL     1       0.105   3.463  -8.372  1.00  0.00    -0.269 OA
BRANCH  28  31
ATOM     31  C   UNL     1      -1.221   4.523  -6.751  1.00  0.00     0.039 A 
ATOM     32  C   UNL     1      -2.172   5.077  -7.612  1.00  0.00     0.014 A 
ATOM     33  C   UNL     1      -1.054   5.046  -5.465  1.00  0.00     0.014 A 
ATOM     34  C   UNL     1      -2.990   6.119  -7.167  1.00  0.00     0.010 A 
ATOM     35  C   UNL     1      -1.914   6.042  -5.001  1.00  0.00     0.010 A 
ATOM     36  C   UNL     1      -2.887   6.593  -5.848  1.00  0.00    -0.014 A 
BRANCH  36  37
ATOM     37  C   UNL     1      -3.813   7.639  -5.342  1.00  0.00     0.031 A 
ATOM     38  C   UNL     1      -3.299   8.991  -4.928  1.00  0.00     0.074 A 
ATOM     39  C   UNL     1      -5.120   7.345  -5.192  1.00  0.00     0.049 A 
ATOM     40  N   UNL     1      -3.965  10.020  -4.469  1.00  0.00    -0.248 NA
ATOM     41  C   UNL     1      -1.846   9.211  -5.017  1.00  0.00     0.031 C 
ATOM     42  C   UNL     1      -5.729   6.042  -5.471  1.00  0.00     0.029 A 
ATOM     43  N   UNL     1      -6.168   8.112  -4.748  1.00  0.00    -0.354 N 
ATOM     44  C   UNL     1      -3.016  10.996  -4.189  1.00  0.00     0.074 A 
ATOM     45  C   UNL     1      -1.722  10.425  -4.498  1.00  0.00     0.031 C 
ATOM     46  C   UNL     1      -7.042   6.103  -5.200  1.00  0.00     0.029 A 
ATOM     47  C   UNL     1      -7.367   7.439  -4.710  1.00  0.00     0.049 A 
ATOM     48  H   UNL     1      -6.071   9.055  -4.482  1.00  0.00     0.167 HD
ATOM     49  C   UNL     1      -3.204  12.263  -3.747  1.00  0.00     0.034 A 
ATOM     50  C   UNL     1      -8.592   7.849  -4.325  1.00  0.00     0.034 A 
ATOM     51  C   UNL     1      -4.495  12.842  -3.481  1.00  0.00     0.049 A 
ATOM     52  C   UNL     1      -8.781   9.276  -3.889  1.00  0.00     0.074 A 
ATOM     53  C   UNL     1      -4.796  14.145  -3.123  1.00  0.00     0.029 A 
ATOM     54  N   UNL     1      -5.698  12.156  -3.536  1.00  0.00    -0.354 N 
ATOM     55  N   UNL     1      -7.894  10.237  -3.804  1.00  0.00    -0.248 NA
ATOM     56  C   UNL     1     -10.148   9.687  -3.536  1.00  0.00     0.031 C 
ATOM     57  C   UNL     1      -6.181  14.240  -2.942  1.00  0.00     0.029 A 
ATOM     58  C   UNL     1      -6.743  13.002  -3.207  1.00  0.00     0.049 A 
ATOM     59  H   UNL     1      -5.795  11.205  -3.774  1.00  0.00     0.167 HD
ATOM     60  C   UNL     1      -8.597  11.372  -3.415  1.00  0.00     0.074 A 
ATOM     61  C   UNL     1      -9.989  10.984  -3.310  1.00  0.00     0.031 C 
ATOM     62  C   UNL     1      -8.130  12.617  -3.150  1.00  0.00     0.034 A 
BRANCH  49  63
ATOM     63  C   UNL     1      -1.987  13.136  -3.580  1.00  0.00     0.023 A 
ATOM     64  C   UNL     1      -1.315  13.612  -4.725  1.00  0.00     0.012 A 
ATOM     65  C   UNL     1      -1.546  13.537  -2.304  1.00  0.00     0.148 A 
ATOM     66  C   UNL     1      -0.205  14.446  -4.603  1.00  0.00     0.002 A 
ATOM     67  C   UNL     1      -0.463  14.404  -2.192  1.00  0.00     0.091 A 
ATOM     68  F   UNL     1      -2.183  13.059  -1.226  1.00  0.00    -0.205 F 
ATOM     69  C   UNL     1       0.214  14.850  -3.339  1.00  0.00     0.022 A 
BRANCH  67  70
ATOM     70  S   UNL     1       0.107  15.043  -0.612  1.00  0.00     0.127 S 
ATOM     71  O   UNL     1       1.363  14.315  -0.436  1.00  0.00    -0.237 OA
ATOM     72  O   UNL     1       0.264  16.470  -0.894  1.00  0.00    -0.237 OA
ATOM     73  O   UNL     1      -0.940  14.726   0.349  1.00  0.00    -0.744 OA
ENDBRANCH  67  70
ENDBRANCH  49  63
BRANCH  50  74
ATOM     74  C   UNL     1      -9.748   6.913  -4.413  1.00  0.00     0.023 A 
ATOM     75  C   UNL     1     -10.736   7.125  -5.394  1.00  0.00     0.012 A 
ATOM     76  C   UNL     1      -9.854   5.798  -3.561  1.00  0.00     0.148 A 
ATOM     77  C   UNL     1     -11.825   6.260  -5.505  1.00  0.00     0.002 A 
ATOM     78  C   UNL     1     -10.912   4.908  -3.714  1.00  0.00     0.091 A 
ATOM     79  F   UNL     1      -8.911   5.620  -2.624  1.00  0.00    -0.205 F 
ATOM     80  C   UNL     1     -11.907   5.146  -4.674  1.00  0.00     0.022 A 
BRANCH  78  81
ATOM     81  S   UNL     1     -11.018   3.376  -2.782  1.00  0.00     0.127 S 
ATOM     82  O   UNL     1     -12.098   3.671  -1.844  1.00  0.00    -0.237 OA
ATOM     83  O   UNL     1     -11.354   2.407  -3.826  1.00  0.00    -0.237 OA
ATOM     84  O   UNL     1      -9.699   3.185  -2.193  1.00  0.00    -0.744 OA
ENDBRANCH  78  81
ENDBRANCH  50  74
BRANCH  62  85
ATOM     85  C   UNL     1      -9.133  13.662  -2.735  1.00  0.00     0.023 A 
ATOM     86  C   UNL     1      -9.716  13.598  -1.453  1.00  0.00     0.012 A 
ATOM     87  C   UNL     1      -9.453  14.737  -3.587  1.00  0.00     0.148 A 
ATOM     88  C   UNL     1     -10.628  14.568  -1.040  1.00  0.00     0.002 A 
ATOM     89  C   UNL     1     -10.327  15.726  -3.150  1.00  0.00     0.091 A 
ATOM     90  F   UNL     1      -8.905  14.770  -4.810  1.00  0.00    -0.205 F 
ATOM     91  C   UNL     1     -10.925  15.637  -1.882  1.00  0.00     0.022 A 
BRANCH  89  92
ATOM     92  S   UNL     1     -10.694  17.185  -4.132  1.00  0.00     0.127 S 
ATOM     93  O   UNL     1     -12.040  16.887  -4.618  1.00  0.00    -0.237 OA
ATOM     94  O   UNL     1     -10.627  18.256  -3.137  1.00  0.00    -0.237 OA
ATOM     95  O   UNL     1      -9.657  17.248  -5.154  1.00  0.00    -0.744 OA
ENDBRANCH  89  92
ENDBRANCH  62  85
ENDBRANCH  36  37
ENDBRANCH  28  31
ENDBRANCH  26  27
ENDBRANCH  25  26
ENDBRANCH  24  25
ENDBRANCH   1  24
TORSDOF 21
