REMARK SMILES Cc1sc2[nH]c(SCC(=O)NCCCCCCNC(=O)c3ccc(-c4c5nc(c(-c6cccc(S(=O)(=O)[O-])c6F)c6ccc([nH]6)c(-c6cccc(S(=O)(=O)[O-])c6F)c6nc(c(-c7cccc(S(=O)(=O)[O-])c7F)c7ccc4[nH]7)C=C6)C=C5)cc3)nc(=O)c2c1C
REMARK SMILES IDX 15 1 14 2 13 3 12 4 11 5 9 6 10 7 8 9 7 10 6 11 1 12 2 13
REMARK SMILES IDX 3 14 88 15 4 16 87 17 89 18 5 19 85 20 84 22 86 23 16 24
REMARK SMILES IDX 17 25 18 26 19 27 20 29 21 30 22 31 83 32 23 33 82 34 24 35
REMARK SMILES IDX 25 36 26 37 76 38 27 39 81 40 75 41 77 42 28 43 80 44 74 45
REMARK SMILES IDX 73 46 29 48 61 49 41 50 60 51 42 52 45 53 59 54 78 55 43 56
REMARK SMILES IDX 44 57 58 59 79 60 46 61 30 62 31 63 39 64 32 65 34 66 40 67
REMARK SMILES IDX 33 68 35 69 36 70 37 71 38 72 62 73 63 74 71 75 64 76 66 77
REMARK SMILES IDX 72 78 65 79 67 80 68 81 69 82 70 83 47 84 48 85 56 86 49 87
REMARK SMILES IDX 51 88 57 89 50 90 52 91 53 92 54 93 55 94
REMARK H PARENT 11 8 5 21 18 28 77 47 45 58
REMARK Flexibility Score: inf
ROOT
ATOM      1  C   UNL     1      -7.603  -0.301   6.669  1.00  0.00     0.002 C 
ENDROOT
BRANCH   1   2
ATOM      2  C   UNL     1      -6.334  -0.394   5.812  1.00  0.00     0.002 C 
BRANCH   2   3
ATOM      3  C   UNL     1      -5.081   0.247   6.425  1.00  0.00     0.021 C 
BRANCH   3   4
ATOM      4  C   UNL     1      -4.630  -0.384   7.745  1.00  0.00     0.116 C 
BRANCH   4   5
ATOM      5  N   UNL     1      -4.078  -1.710   7.535  1.00  0.00    -0.355 N 
ATOM      6  C   UNL     1      -2.805  -2.175   7.692  1.00  0.00     0.230 C 
ATOM      7  O   UNL     1      -2.620  -3.381   7.509  1.00  0.00    -0.274 OA
ATOM      8  H   UNL     1      -4.728  -2.384   7.229  1.00  0.00     0.163 HD
BRANCH   6   9
ATOM      9  C   UNL     1      -1.694  -1.284   8.215  1.00  0.00     0.178 C 
BRANCH   9  10
ATOM     10  S   UNL     1      -1.331   0.174   7.213  1.00  0.00    -0.078 SA
BRANCH  10  11
ATOM     11  C   UNL     1      -0.868  -0.504   5.675  1.00  0.00     0.170 A 
ATOM     12  C   UNL     1       0.916   0.030  -0.205  1.00  0.00     0.057 C 
ATOM     13  C   UNL     1       0.459  -0.245   1.191  1.00  0.00     0.007 A 
ATOM     14  S   UNL     1      -0.070   1.065   2.164  1.00  0.00    -0.122 S 
ATOM     15  C   UNL     1       0.406  -1.459   1.870  1.00  0.00    -0.022 A 
ATOM     16  C   UNL     1      -0.340   0.048   3.478  1.00  0.00     0.108 A 
ATOM     17  C   UNL     1      -0.056  -1.271   3.227  1.00  0.00     0.080 A 
ATOM     18  C   UNL     1       0.785  -2.788   1.298  1.00  0.00     0.046 C 
ATOM     19  N   UNL     1      -0.769   0.431   4.689  1.00  0.00    -0.326 N 
ATOM     20  C   UNL     1      -0.236  -2.254   4.308  1.00  0.00     0.282 A 
ATOM     21  H   UNL     1      -1.008   1.370   4.862  1.00  0.00     0.169 HD
ATOM     22  N   UNL     1      -0.618  -1.766   5.549  1.00  0.00    -0.185 NA
ATOM     23  O   UNL     1      -0.025  -3.450   4.114  1.00  0.00    -0.267 OA
ENDBRANCH  10  11
ENDBRANCH   9  10
ENDBRANCH   6   9
ENDBRANCH   4   5
ENDBRANCH   3   4
ENDBRANCH   2   3
ENDBRANCH   1   2
BRANCH   1  24
ATOM     24  C   UNL     1      -8.088   1.125   6.992  1.00  0.00     0.021 C 
BRANCH  24  25
ATOM     25  C   UNL     1      -8.607   1.934   5.790  1.00  0.00     0.116 C 
BRANCH  25  26
ATOM     26  N   UNL     1      -9.768   1.280   5.213  1.00  0.00    -0.352 N 
ATOM     27  C   UNL     1     -11.061   1.704   5.085  1.00  0.00     0.251 C 
ATOM     28  H   UNL     1      -9.594   0.380   4.854  1.00  0.00     0.163 HD
ATOM     29  O   UNL     1     -11.945   0.848   5.049  1.00  0.00    -0.269 OA
BRANCH  27  30
ATOM     30  C   UNL     1     -11.432   3.131   4.942  1.00  0.00     0.039 A 
ATOM     31  C   UNL     1     -12.689   3.517   5.426  1.00  0.00     0.014 A 
ATOM     32  C   UNL     1     -10.685   4.027   4.172  1.00  0.00     0.014 A 
ATOM     33  C   UNL     1     -13.198   4.784   5.141  1.00  0.00     0.010 A 
ATOM     34  C   UNL     1     -11.199   5.301   3.886  1.00  0.00     0.010 A 
ATOM     35  C   UNL     1     -12.459   5.687   4.364  1.00  0.00    -0.014 A 
BRANCH  35  36
ATOM     36  C   UNL     1     -13.018   7.047   4.192  1.00  0.00     0.031 A 
ATOM     37  C   UNL     1     -12.021   8.164   4.331  1.00  0.00     0.074 A 
ATOM     38  C   UNL     1     -14.115   7.239   3.425  1.00  0.00     0.049 A 
ATOM     39  N   UNL     1     -11.249   8.593   3.375  1.00  0.00    -0.248 NA
ATOM     40  C   UNL     1     -11.650   8.678   5.652  1.00  0.00     0.031 C 
ATOM     41  C   UNL     1     -14.289   6.668   2.084  1.00  0.00     0.029 A 
ATOM     42  N   UNL     1     -15.153   8.141   3.549  1.00  0.00    -0.354 N 
ATOM     43  C   UNL     1     -10.273   9.396   3.952  1.00  0.00     0.074 A 
ATOM     44  C   UNL     1     -10.562   9.411   5.369  1.00  0.00     0.031 C 
ATOM     45  C   UNL     1     -15.265   7.347   1.446  1.00  0.00     0.029 A 
ATOM     46  C   UNL     1     -15.856   8.328   2.357  1.00  0.00     0.049 A 
ATOM     47  H   UNL     1     -15.374   8.604   4.389  1.00  0.00     0.167 HD
ATOM     48  C   UNL     1      -9.295  10.021   3.237  1.00  0.00     0.034 A 
ATOM     49  C   UNL     1     -16.450   9.504   1.995  1.00  0.00     0.034 A 
ATOM     50  C   UNL     1      -9.401   9.871   1.814  1.00  0.00     0.049 A 
ATOM     51  C   UNL     1     -15.248  10.247   1.451  1.00  0.00     0.074 A 
ATOM     52  C   UNL     1      -8.780   9.179   0.799  1.00  0.00     0.029 A 
ATOM     53  N   UNL     1     -10.403  10.572   1.186  1.00  0.00    -0.354 N 
ATOM     54  N   UNL     1     -14.648  10.023   0.309  1.00  0.00    -0.248 NA
ATOM     55  C   UNL     1     -14.438  10.964   2.436  1.00  0.00     0.031 C 
ATOM     56  C   UNL     1      -9.733   9.136  -0.271  1.00  0.00     0.029 A 
ATOM     57  C   UNL     1     -10.879   9.805   0.157  1.00  0.00     0.049 A 
ATOM     58  H   UNL     1     -10.722  11.469   1.433  1.00  0.00     0.167 HD
ATOM     59  C   UNL     1     -13.290  10.254   0.561  1.00  0.00     0.074 A 
ATOM     60  C   UNL     1     -13.237  10.835   1.889  1.00  0.00     0.031 C 
ATOM     61  C   UNL     1     -12.273   9.809  -0.237  1.00  0.00     0.034 A 
BRANCH  48  62
ATOM     62  C   UNL     1      -8.342  11.026   3.782  1.00  0.00     0.023 A 
ATOM     63  C   UNL     1      -8.738  12.375   3.675  1.00  0.00     0.012 A 
ATOM     64  C   UNL     1      -7.021  10.726   4.164  1.00  0.00     0.148 A 
ATOM     65  C   UNL     1      -7.834  13.411   3.893  1.00  0.00     0.002 A 
ATOM     66  C   UNL     1      -6.120  11.771   4.389  1.00  0.00     0.091 A 
ATOM     67  F   UNL     1      -6.654   9.440   4.255  1.00  0.00    -0.205 F 
ATOM     68  C   UNL     1      -6.524  13.109   4.241  1.00  0.00     0.022 A 
BRANCH  66  69
ATOM     69  S   UNL     1      -4.392  11.520   4.824  1.00  0.00     0.127 S 
ATOM     70  O   UNL     1      -3.700  12.079   3.665  1.00  0.00    -0.237 OA
ATOM     71  O   UNL     1      -4.271  12.314   6.048  1.00  0.00    -0.237 OA
ATOM     72  O   UNL     1      -4.230  10.085   5.015  1.00  0.00    -0.744 OA
ENDBRANCH  66  69
ENDBRANCH  48  62
BRANCH  49  73
ATOM     73  C   UNL     1     -17.406  10.092   3.003  1.00  0.00     0.023 A 
ATOM     74  C   UNL     1     -18.331   9.198   3.597  1.00  0.00     0.012 A 
ATOM     75  C   UNL     1     -17.449  11.436   3.424  1.00  0.00     0.148 A 
ATOM     76  C   UNL     1     -19.145   9.577   4.665  1.00  0.00     0.002 A 
ATOM     77  C   UNL     1     -18.234  11.804   4.519  1.00  0.00     0.091 A 
ATOM     78  F   UNL     1     -16.711  12.345   2.774  1.00  0.00    -0.205 F 
ATOM     79  C   UNL     1     -19.069  10.873   5.152  1.00  0.00     0.022 A 
BRANCH  77  80
ATOM     80  S   UNL     1     -18.182  13.449   5.247  1.00  0.00     0.127 S 
ATOM     81  O   UNL     1     -19.603  13.761   5.403  1.00  0.00    -0.237 OA
ATOM     82  O   UNL     1     -17.469  13.188   6.496  1.00  0.00    -0.237 OA
ATOM     83  O   UNL     1     -17.475  14.283   4.286  1.00  0.00    -0.744 OA
ENDBRANCH  77  80
ENDBRANCH  49  73
BRANCH  61  84
ATOM     84  C   UNL     1     -12.662   9.173  -1.538  1.00  0.00     0.023 A 
ATOM     85  C   UNL     1     -13.204   9.999  -2.539  1.00  0.00     0.012 A 
ATOM     86  C   UNL     1     -12.414   7.814  -1.825  1.00  0.00     0.148 A 
ATOM     87  C   UNL     1     -13.470   9.497  -3.811  1.00  0.00     0.002 A 
ATOM     88  C   UNL     1     -12.657   7.324  -3.105  1.00  0.00     0.091 A 
ATOM     89  F   UNL     1     -11.922   7.026  -0.857  1.00  0.00    -0.205 F 
ATOM     90  C   UNL     1     -13.184   8.166  -4.098  1.00  0.00     0.022 A 
BRANCH  88  91
ATOM     91  S   UNL     1     -12.284   5.638  -3.605  1.00  0.00     0.127 S 
ATOM     92  O   UNL     1     -13.587   5.162  -4.072  1.00  0.00    -0.237 OA
ATOM     93  O   UNL     1     -11.300   5.848  -4.667  1.00  0.00    -0.237 OA
ATOM     94  O   UNL     1     -11.773   4.960  -2.421  1.00  0.00    -0.744 OA
ENDBRANCH  88  91
ENDBRANCH  61  84
ENDBRANCH  35  36
ENDBRANCH  27  30
ENDBRANCH  25  26
ENDBRANCH  24  25
ENDBRANCH   1  24
TORSDOF 18
