REMARK SMILES CC(=O)Nc1cnc(N2CC=C(c3ccccc3C)CC2)c(C(=O)NCCCCCCNC(=O)c2ccc(-c3c4nc(c(-c5cccc(S(=O)(=O)[O-])c5F)c5ccc([nH]5)c(-c5cccc(S(=O)(=O)[O-])c5F)c5nc(c(-c6cccc(S(=O)(=O)[O-])c6F)c6ccc3[nH]6)C=C5)C=C4)cc2)c1
REMARK SMILES IDX 29 1 28 2 27 3 26 4 25 5 23 6 24 7 22 9 5 10 6 11 98 12 7 13
REMARK SMILES IDX 8 14 4 15 1 16 2 17 3 18 9 20 10 21 21 22 11 23 20 24 12 25
REMARK SMILES IDX 13 26 14 27 18 28 15 29 17 30 19 31 16 32 30 33 31 34 32 35
REMARK SMILES IDX 33 36 34 38 35 39 36 40 97 41 37 42 96 43 38 44 39 45 40 46
REMARK SMILES IDX 90 47 41 48 95 49 89 50 91 51 42 52 94 53 88 54 87 55 43 57
REMARK SMILES IDX 75 58 55 59 74 60 56 61 59 62 73 63 92 64 57 65 58 66 72 68
REMARK SMILES IDX 93 69 60 70 44 71 45 72 53 73 46 74 48 75 54 76 47 77 49 78
REMARK SMILES IDX 50 79 51 80 52 81 76 82 77 83 85 84 78 85 80 86 86 87 79 88
REMARK SMILES IDX 81 89 82 90 83 91 84 92 61 93 62 94 70 95 63 96 65 97 71 98
REMARK SMILES IDX 64 99 66 100 67 101 68 102 69 103
REMARK H PARENT 25 8 4 19 32 37 91 56 59 67
REMARK Flexibility Score: inf
ROOT
ATOM      1  C   UNL     1       6.125  -2.517   1.294  1.00  0.00     0.002 C 
ENDROOT
BRANCH   1   2
ATOM      2  C   UNL     1       6.397  -1.642   0.058  1.00  0.00     0.002 C 
BRANCH   2   3
ATOM      3  C   UNL     1       5.208  -0.828  -0.473  1.00  0.00     0.021 C 
BRANCH   3   4
ATOM      4  C   UNL     1       4.488  -0.012   0.596  1.00  0.00     0.116 C 
BRANCH   4   5
ATOM      5  N   UNL     1       5.147   1.243   0.861  1.00  0.00    -0.352 N 
ATOM      6  C   UNL     1       4.759   2.557   0.859  1.00  0.00     0.255 C 
ATOM      7  O   UNL     1       5.428   3.244   1.634  1.00  0.00    -0.269 OA
ATOM      8  H   UNL     1       6.096   1.129   1.099  1.00  0.00     0.163 HD
BRANCH   6   9
ATOM      9  C   UNL     1       3.621   3.148   0.067  1.00  0.00     0.084 A 
ATOM     10  C   UNL     1       1.544   2.886  -1.191  1.00  0.00     0.060 A 
ATOM     11  C   UNL     1       1.363   4.248  -1.079  1.00  0.00     0.139 A 
ATOM     12  C   UNL     1       2.723   2.358  -0.671  1.00  0.00     0.045 A 
ATOM     13  N   UNL     1       2.233   5.063  -0.453  1.00  0.00    -0.236 NA
ATOM     14  C   UNL     1       3.366   4.538   0.096  1.00  0.00     0.141 A 
BRANCH  10  15
ATOM     15  N   UNL     1       0.562   2.114  -1.832  1.00  0.00    -0.325 N 
ATOM     16  C   UNL     1       0.563   0.147  -0.302  1.00  0.00     0.114 C 
ATOM     17  C   UNL     1       0.141   0.838  -1.573  1.00  0.00     0.221 C 
ATOM     18  O   UNL     1      -0.653   0.301  -2.346  1.00  0.00    -0.275 OA
ATOM     19  H   UNL     1       0.107   2.558  -2.583  1.00  0.00     0.169 HD
ENDBRANCH  10  15
BRANCH  14  20
ATOM     20  N   UNL     1       4.218   5.502   0.574  1.00  0.00    -0.352 N 
ATOM     21  C   UNL     1       3.773   6.301   1.698  1.00  0.00     0.146 C 
ATOM     22  C   UNL     1       5.617   5.576   0.169  1.00  0.00     0.123 C 
ATOM     23  C   UNL     1       4.505   7.616   1.744  1.00  0.00    -0.002 C 
ATOM     24  C   UNL     1       5.965   7.024  -0.180  1.00  0.00     0.057 C 
ATOM     25  C   UNL     1       5.489   7.972   0.894  1.00  0.00    -0.041 C 
BRANCH  25  26
ATOM     26  C   UNL     1       6.143   9.287   1.009  1.00  0.00    -0.020 A 
ATOM     27  C   UNL     1       6.834   9.580   2.199  1.00  0.00     0.008 A 
ATOM     28  C   UNL     1       6.104  10.252  -0.018  1.00  0.00    -0.044 A 
ATOM     29  C   UNL     1       7.482  10.802   2.371  1.00  0.00     0.001 A 
ATOM     30  C   UNL     1       6.776  11.472   0.165  1.00  0.00     0.004 A 
ATOM     31  C   UNL     1       5.386  10.016  -1.319  1.00  0.00     0.045 C 
ATOM     32  C   UNL     1       7.455  11.748   1.352  1.00  0.00     0.000 A 
ENDBRANCH  25  26
ENDBRANCH  14  20
ENDBRANCH   6   9
ENDBRANCH   4   5
ENDBRANCH   3   4
ENDBRANCH   2   3
ENDBRANCH   1   2
BRANCH   1  33
ATOM     33  C   UNL     1       4.814  -3.309   1.301  1.00  0.00     0.021 C 
BRANCH  33  34
ATOM     34  C   UNL     1       4.719  -4.355   0.200  1.00  0.00     0.116 C 
BRANCH  34  35
ATOM     35  N   UNL     1       4.602  -5.716   0.706  1.00  0.00    -0.352 N 
ATOM     36  C   UNL     1       4.508  -6.893  -0.015  1.00  0.00     0.251 C 
ATOM     37  H   UNL     1       4.589  -5.810   1.686  1.00  0.00     0.163 HD
ATOM     38  O   UNL     1       4.335  -7.960   0.567  1.00  0.00    -0.269 OA
BRANCH  36  39
ATOM     39  C   UNL     1       4.714  -6.834  -1.478  1.00  0.00     0.039 A 
ATOM     40  C   UNL     1       5.780  -7.558  -2.021  1.00  0.00     0.014 A 
ATOM     41  C   UNL     1       4.049  -5.869  -2.233  1.00  0.00     0.014 A 
ATOM     42  C   UNL     1       6.338  -7.143  -3.228  1.00  0.00     0.010 A 
ATOM     43  C   UNL     1       4.647  -5.405  -3.386  1.00  0.00     0.010 A 
ATOM     44  C   UNL     1       5.830  -6.000  -3.841  1.00  0.00    -0.014 A 
BRANCH  44  45
ATOM     45  C   UNL     1       6.507  -5.298  -4.920  1.00  0.00     0.031 A 
ATOM     46  C   UNL     1       6.234  -5.646  -6.322  1.00  0.00     0.074 A 
ATOM     47  C   UNL     1       7.333  -4.269  -4.629  1.00  0.00     0.049 A 
ATOM     48  N   UNL     1       7.074  -5.453  -7.281  1.00  0.00    -0.248 NA
ATOM     49  C   UNL     1       4.985  -6.264  -6.744  1.00  0.00     0.031 C 
ATOM     50  C   UNL     1       7.842  -3.257  -5.547  1.00  0.00     0.029 A 
ATOM     51  N   UNL     1       8.057  -4.061  -3.453  1.00  0.00    -0.354 N 
ATOM     52  C   UNL     1       6.394  -5.659  -8.460  1.00  0.00     0.074 A 
ATOM     53  C   UNL     1       5.126  -6.237  -8.074  1.00  0.00     0.031 C 
ATOM     54  C   UNL     1       8.958  -2.726  -5.026  1.00  0.00     0.029 A 
ATOM     55  C   UNL     1       9.285  -3.490  -3.835  1.00  0.00     0.049 A 
ATOM     56  H   UNL     1       7.766  -4.272  -2.537  1.00  0.00     0.167 HD
ATOM     57  C   UNL     1       6.902  -5.160  -9.622  1.00  0.00     0.034 A 
ATOM     58  C   UNL     1      10.507  -4.017  -3.529  1.00  0.00     0.034 A 
ATOM     59  C   UNL     1       8.172  -4.463  -9.396  1.00  0.00     0.049 A 
ATOM     60  C   UNL     1      11.365  -4.279  -4.753  1.00  0.00     0.074 A 
ATOM     61  C   UNL     1       8.480  -3.127  -9.188  1.00  0.00     0.029 A 
ATOM     62  N   UNL     1       9.313  -5.184  -9.067  1.00  0.00    -0.354 N 
ATOM     63  N   UNL     1      10.948  -4.157  -5.982  1.00  0.00    -0.248 NA
ATOM     64  C   UNL     1      12.745  -4.753  -4.689  1.00  0.00     0.031 C 
ATOM     65  C   UNL     1       9.804  -3.050  -8.688  1.00  0.00     0.029 A 
ATOM     66  C   UNL     1      10.310  -4.335  -8.606  1.00  0.00     0.049 A 
ATOM     67  H   UNL     1       9.402  -6.160  -9.150  1.00  0.00     0.167 HD
ATOM     68  C   UNL     1      11.886  -4.665  -6.848  1.00  0.00     0.074 A 
ATOM     69  C   UNL     1      13.027  -4.938  -5.991  1.00  0.00     0.031 C 
ATOM     70  C   UNL     1      11.599  -4.870  -8.174  1.00  0.00     0.034 A 
BRANCH  57  71
ATOM     71  C   UNL     1       6.067  -4.979 -10.875  1.00  0.00     0.023 A 
ATOM     72  C   UNL     1       6.339  -3.851 -11.682  1.00  0.00     0.012 A 
ATOM     73  C   UNL     1       4.992  -5.798 -11.285  1.00  0.00     0.148 A 
ATOM     74  C   UNL     1       5.529  -3.485 -12.759  1.00  0.00     0.002 A 
ATOM     75  C   UNL     1       4.139  -5.396 -12.319  1.00  0.00     0.091 A 
ATOM     76  F   UNL     1       4.825  -6.998 -10.715  1.00  0.00    -0.205 F 
ATOM     77  C   UNL     1       4.404  -4.236 -13.054  1.00  0.00     0.022 A 
BRANCH  75  78
ATOM     78  S   UNL     1       2.600  -6.253 -12.696  1.00  0.00     0.127 S 
ATOM     79  O   UNL     1       1.640  -5.149 -12.765  1.00  0.00    -0.237 OA
ATOM     80  O   UNL     1       2.894  -6.880 -13.982  1.00  0.00    -0.237 OA
ATOM     81  O   UNL     1       2.370  -7.165 -11.582  1.00  0.00    -0.744 OA
ENDBRANCH  75  78
ENDBRANCH  57  71
BRANCH  58  82
ATOM     82  C   UNL     1      10.496  -4.852  -2.291  1.00  0.00     0.023 A 
ATOM     83  C   UNL     1      10.080  -4.217  -1.095  1.00  0.00     0.012 A 
ATOM     84  C   UNL     1      10.458  -6.253  -2.364  1.00  0.00     0.148 A 
ATOM     85  C   UNL     1       9.461  -4.947  -0.079  1.00  0.00     0.002 A 
ATOM     86  C   UNL     1       9.852  -6.974  -1.337  1.00  0.00     0.091 A 
ATOM     87  F   UNL     1      10.932  -6.860  -3.459  1.00  0.00    -0.205 F 
ATOM     88  C   UNL     1       9.306  -6.321  -0.222  1.00  0.00     0.022 A 
BRANCH  86  89
ATOM     89  S   UNL     1       9.642  -8.751  -1.487  1.00  0.00     0.127 S 
ATOM     90  O   UNL     1      10.938  -9.240  -1.027  1.00  0.00    -0.237 OA
ATOM     91  O   UNL     1       8.527  -9.023  -0.581  1.00  0.00    -0.237 OA
ATOM     92  O   UNL     1       9.327  -8.951  -2.894  1.00  0.00    -0.744 OA
ENDBRANCH  86  89
ENDBRANCH  58  82
BRANCH  70  93
ATOM     93  C   UNL     1      12.473  -5.586  -9.199  1.00  0.00     0.023 A 
ATOM     94  C   UNL     1      13.565  -6.397  -8.842  1.00  0.00     0.012 A 
ATOM     95  C   UNL     1      12.147  -5.555 -10.585  1.00  0.00     0.148 A 
ATOM     96  C   UNL     1      14.324  -7.093  -9.793  1.00  0.00     0.002 A 
ATOM     97  C   UNL     1      12.835  -6.336 -11.513  1.00  0.00     0.091 A 
ATOM     98  F   UNL     1      11.183  -4.737 -11.031  1.00  0.00    -0.205 F 
ATOM     99  C   UNL     1      13.945  -7.084 -11.126  1.00  0.00     0.022 A 
BRANCH  97 100
ATOM    100  S   UNL     1      12.236  -6.522 -13.200  1.00  0.00     0.127 S 
ATOM    101  O   UNL     1      13.010  -5.507 -13.911  1.00  0.00    -0.237 OA
ATOM    102  O   UNL     1      12.610  -7.903 -13.516  1.00  0.00    -0.237 OA
ATOM    103  O   UNL     1      10.799  -6.300 -13.119  1.00  0.00    -0.744 OA
ENDBRANCH  97 100
ENDBRANCH  70  93
ENDBRANCH  44  45
ENDBRANCH  36  39
ENDBRANCH  34  35
ENDBRANCH  33  34
ENDBRANCH   1  33
TORSDOF 19
