REMARK SMILES Nc1cc(C(=O)NCCCCCCNC(=O)c2ccc(-c3c4nc(c(-c5cccc(S(=O)(=O)[O-])c5F)c5ccc([nH]5)c(-c5cccc(S(=O)(=O)[O-])c5F)c5nc(c(-c6cccc(S(=O)(=O)[O-])c6F)c6ccc3[nH]6)C=C5)C=C4)cc2)ccc1N1CC2(CCOCC2)C1
REMARK SMILES IDX 11 1 10 2 9 3 8 4 7 5 5 6 6 7 4 9 2 10 3 11 82 12 81 13
REMARK SMILES IDX 80 14 1 15 83 18 84 19 91 20 85 21 86 22 90 23 87 24 89 25
REMARK SMILES IDX 88 26 12 27 13 28 14 29 15 30 16 32 17 33 18 34 79 35 19 36
REMARK SMILES IDX 78 37 20 38 21 39 22 40 72 41 23 42 77 43 71 44 73 45 24 46
REMARK SMILES IDX 76 47 70 48 69 49 25 51 57 52 37 53 56 54 38 55 41 56 55 57
REMARK SMILES IDX 74 58 39 59 40 60 54 62 75 63 42 64 26 65 27 66 35 67 28 68
REMARK SMILES IDX 30 69 36 70 29 71 31 72 32 73 33 74 34 75 58 76 59 77 67 78
REMARK SMILES IDX 60 79 62 80 68 81 61 82 63 83 64 84 65 85 66 86 43 87 44 88
REMARK SMILES IDX 52 89 45 90 47 91 53 92 46 93 48 94 49 95 50 96 51 97
REMARK H PARENT 7 8 1 16 1 17 14 31 73 50 41 61
REMARK Flexibility Score: inf
ROOT
ATOM      1  C   UNL     1      -7.083  -2.692  -0.077  1.00  0.00     0.002 C 
ENDROOT
BRANCH   1   2
ATOM      2  C   UNL     1      -6.016  -2.610  -1.178  1.00  0.00     0.002 C 
BRANCH   2   3
ATOM      3  C   UNL     1      -5.019  -1.454  -1.016  1.00  0.00     0.021 C 
BRANCH   3   4
ATOM      4  C   UNL     1      -4.248  -1.523   0.303  1.00  0.00     0.116 C 
BRANCH   4   5
ATOM      5  N   UNL     1      -3.140  -2.442   0.175  1.00  0.00    -0.352 N 
ATOM      6  C   UNL     1      -1.809  -2.299  -0.092  1.00  0.00     0.251 C 
ATOM      7  O   UNL     1      -1.175  -3.352  -0.222  1.00  0.00    -0.269 OA
ATOM      8  H   UNL     1      -3.405  -3.381   0.310  1.00  0.00     0.163 HD
BRANCH   6   9
ATOM      9  C   UNL     1      -1.074  -0.999  -0.175  1.00  0.00     0.041 A 
ATOM     10  C   UNL     1       1.153   0.022  -0.131  1.00  0.00     0.056 A 
ATOM     11  C   UNL     1       0.327  -1.103  -0.180  1.00  0.00     0.041 A 
ATOM     12  C   UNL     1       0.576   1.309  -0.107  1.00  0.00     0.060 A 
ATOM     13  C   UNL     1      -0.814   1.422  -0.143  1.00  0.00     0.029 A 
ATOM     14  C   UNL     1      -1.627   0.281  -0.220  1.00  0.00     0.016 A 
BRANCH  10  15
ATOM     15  N   UNL     1       2.538  -0.153  -0.171  1.00  0.00    -0.397 N 
ATOM     16  H   UNL     1       2.919  -1.060  -0.188  1.00  0.00     0.156 HD
ATOM     17  H   UNL     1       3.133   0.631  -0.184  1.00  0.00     0.156 HD
ENDBRANCH  10  15
BRANCH  12  18
ATOM     18  N   UNL     1       1.386   2.442   0.025  1.00  0.00    -0.369 N 
ATOM     19  C   UNL     1       2.308   3.032  -0.887  1.00  0.00     0.125 C 
ATOM     20  C   UNL     1       1.263   3.622   0.817  1.00  0.00     0.125 C 
ATOM     21  C   UNL     1       2.681   3.979   0.289  1.00  0.00     0.010 C 
ATOM     22  C   UNL     1       2.941   5.440  -0.057  1.00  0.00     0.039 C 
ATOM     23  C   UNL     1       3.819   3.445   1.180  1.00  0.00     0.039 C 
ATOM     24  C   UNL     1       4.319   5.548  -0.706  1.00  0.00     0.161 C 
ATOM     25  C   UNL     1       5.140   3.646   0.450  1.00  0.00     0.161 C 
ATOM     26  O   UNL     1       5.335   5.032   0.161  1.00  0.00    -0.381 OA
ENDBRANCH  12  18
ENDBRANCH   6   9
ENDBRANCH   4   5
ENDBRANCH   3   4
ENDBRANCH   2   3
ENDBRANCH   1   2
BRANCH   1  27
ATOM     27  C   UNL     1      -7.848  -1.388   0.166  1.00  0.00     0.021 C 
BRANCH  27  28
ATOM     28  C   UNL     1      -8.634  -0.902  -1.046  1.00  0.00     0.116 C 
BRANCH  28  29
ATOM     29  N   UNL     1      -9.669  -1.854  -1.420  1.00  0.00    -0.352 N 
ATOM     30  C   UNL     1     -11.024  -1.662  -1.517  1.00  0.00     0.251 C 
ATOM     31  H   UNL     1      -9.353  -2.762  -1.632  1.00  0.00     0.163 HD
ATOM     32  O   UNL     1     -11.780  -2.625  -1.586  1.00  0.00    -0.269 OA
BRANCH  30  33
ATOM     33  C   UNL     1     -11.561  -0.286  -1.535  1.00  0.00     0.039 A 
ATOM     34  C   UNL     1     -12.689   0.014  -0.769  1.00  0.00     0.014 A 
ATOM     35  C   UNL     1     -10.953   0.701  -2.316  1.00  0.00     0.014 A 
ATOM     36  C   UNL     1     -13.180   1.320  -0.752  1.00  0.00     0.010 A 
ATOM     37  C   UNL     1     -11.396   2.016  -2.236  1.00  0.00     0.010 A 
ATOM     38  C   UNL     1     -12.522   2.337  -1.464  1.00  0.00    -0.014 A 
BRANCH  38  39
ATOM     39  C   UNL     1     -12.995   3.743  -1.414  1.00  0.00     0.031 A 
ATOM     40  C   UNL     1     -13.466   4.427  -2.668  1.00  0.00     0.074 A 
ATOM     41  C   UNL     1     -12.919   4.427  -0.255  1.00  0.00     0.049 A 
ATOM     42  N   UNL     1     -13.860   5.663  -2.833  1.00  0.00    -0.248 NA
ATOM     43  C   UNL     1     -13.469   3.629  -3.906  1.00  0.00     0.031 C 
ATOM     44  C   UNL     1     -12.406   3.894   1.009  1.00  0.00     0.029 A 
ATOM     45  N   UNL     1     -13.248   5.726   0.041  1.00  0.00    -0.354 N 
ATOM     46  C   UNL     1     -14.122   5.801  -4.191  1.00  0.00     0.074 A 
ATOM     47  C   UNL     1     -13.808   4.533  -4.812  1.00  0.00     0.031 C 
ATOM     48  C   UNL     1     -12.459   4.856   1.945  1.00  0.00     0.029 A 
ATOM     49  C   UNL     1     -12.976   6.080   1.342  1.00  0.00     0.049 A 
ATOM     50  H   UNL     1     -13.640   6.345  -0.616  1.00  0.00     0.167 HD
ATOM     51  C   UNL     1     -14.607   6.875  -4.856  1.00  0.00     0.034 A 
ATOM     52  C   UNL     1     -13.118   7.261   1.975  1.00  0.00     0.034 A 
ATOM     53  C   UNL     1     -14.954   8.120  -4.226  1.00  0.00     0.049 A 
ATOM     54  C   UNL     1     -13.691   8.429   1.220  1.00  0.00     0.074 A 
ATOM     55  C   UNL     1     -15.534   9.240  -4.796  1.00  0.00     0.029 A 
ATOM     56  N   UNL     1     -14.744   8.415  -2.888  1.00  0.00    -0.354 N 
ATOM     57  N   UNL     1     -14.079   8.492  -0.031  1.00  0.00    -0.248 NA
ATOM     58  C   UNL     1     -13.882   9.677   1.972  1.00  0.00     0.031 C 
ATOM     59  C   UNL     1     -15.645  10.224  -3.808  1.00  0.00     0.029 A 
ATOM     60  C   UNL     1     -15.171   9.703  -2.615  1.00  0.00     0.049 A 
ATOM     61  H   UNL     1     -14.349   7.800  -2.229  1.00  0.00     0.167 HD
ATOM     62  C   UNL     1     -14.597   9.770  -0.205  1.00  0.00     0.074 A 
ATOM     63  C   UNL     1     -14.489  10.442   1.074  1.00  0.00     0.031 C 
ATOM     64  C   UNL     1     -15.106  10.340  -1.325  1.00  0.00     0.034 A 
BRANCH  51  65
ATOM     65  C   UNL     1     -14.835   6.739  -6.340  1.00  0.00     0.023 A 
ATOM     66  C   UNL     1     -15.879   5.917  -6.814  1.00  0.00     0.012 A 
ATOM     67  C   UNL     1     -14.059   7.469  -7.262  1.00  0.00     0.148 A 
ATOM     68  C   UNL     1     -16.123   5.795  -8.181  1.00  0.00     0.002 A 
ATOM     69  C   UNL     1     -14.341   7.380  -8.620  1.00  0.00     0.091 A 
ATOM     70  F   UNL     1     -13.059   8.229  -6.795  1.00  0.00    -0.205 F 
ATOM     71  C   UNL     1     -15.362   6.534  -9.082  1.00  0.00     0.022 A 
BRANCH  69  72
ATOM     72  S   UNL     1     -13.474   8.354  -9.856  1.00  0.00     0.127 S 
ATOM     73  O   UNL     1     -12.705   7.325 -10.555  1.00  0.00    -0.237 OA
ATOM     74  O   UNL     1     -14.578   8.921 -10.630  1.00  0.00    -0.237 OA
ATOM     75  O   UNL     1     -12.684   9.329  -9.118  1.00  0.00    -0.744 OA
ENDBRANCH  69  72
ENDBRANCH  51  65
BRANCH  52  76
ATOM     76  C   UNL     1     -12.764   7.380   3.418  1.00  0.00     0.023 A 
ATOM     77  C   UNL     1     -13.786   7.555   4.370  1.00  0.00     0.012 A 
ATOM     78  C   UNL     1     -11.427   7.296   3.852  1.00  0.00     0.148 A 
ATOM     79  C   UNL     1     -13.481   7.683   5.726  1.00  0.00     0.002 A 
ATOM     80  C   UNL     1     -11.134   7.367   5.209  1.00  0.00     0.091 A 
ATOM     81  F   UNL     1     -10.468   7.137   2.929  1.00  0.00    -0.205 F 
ATOM     82  C   UNL     1     -12.157   7.579   6.146  1.00  0.00     0.022 A 
BRANCH  80  83
ATOM     83  S   UNL     1      -9.476   7.112   5.851  1.00  0.00     0.127 S 
ATOM     84  O   UNL     1      -9.127   8.451   6.318  1.00  0.00    -0.237 OA
ATOM     85  O   UNL     1      -9.711   6.130   6.910  1.00  0.00    -0.237 OA
ATOM     86  O   UNL     1      -8.693   6.608   4.730  1.00  0.00    -0.744 OA
ENDBRANCH  80  83
ENDBRANCH  52  76
BRANCH  64  87
ATOM     87  C   UNL     1     -15.635  11.747  -1.217  1.00  0.00     0.023 A 
ATOM     88  C   UNL     1     -14.743  12.827  -1.071  1.00  0.00     0.012 A 
ATOM     89  C   UNL     1     -17.015  12.000  -1.341  1.00  0.00     0.148 A 
ATOM     90  C   UNL     1     -15.221  14.136  -1.016  1.00  0.00     0.002 A 
ATOM     91  C   UNL     1     -17.479  13.310  -1.339  1.00  0.00     0.091 A 
ATOM     92  F   UNL     1     -17.849  10.956  -1.461  1.00  0.00    -0.205 F 
ATOM     93  C   UNL     1     -16.585  14.378  -1.163  1.00  0.00     0.022 A 
BRANCH  91  94
ATOM     94  S   UNL     1     -19.204  13.722  -1.623  1.00  0.00     0.127 S 
ATOM     95  O   UNL     1     -19.621  14.181  -0.299  1.00  0.00    -0.237 OA
ATOM     96  O   UNL     1     -19.107  14.776  -2.633  1.00  0.00    -0.237 OA
ATOM     97  O   UNL     1     -19.840  12.496  -2.086  1.00  0.00    -0.744 OA
ENDBRANCH  91  94
ENDBRANCH  64  87
ENDBRANCH  38  39
ENDBRANCH  30  33
ENDBRANCH  28  29
ENDBRANCH  27  28
ENDBRANCH   1  27
TORSDOF 18
