REMARK SMILES O=C1[NH+]=C(S)N(c2cccc(Br)c2)C(=O)/C1=C/c1ccc(-c2ccc(C(=O)NCCCCCCNC(=O)c3ccc(-c4c5nc(c(-c6cccc(S(=O)(=O)[O-])c6F)c6ccc([nH]6)c(-c6cccc(S(=O)(=O)[O-])c6F)c6nc(c(-c7cccc(S(=O)(=O)[O-])c7F)c7ccc4[nH]7)C=C6)C=C5)cc3)cc2)o1
REMARK SMILES IDX 31 1 30 2 29 3 28 4 26 5 27 6 25 8 22 9 23 10 102 11 24 12
REMARK SMILES IDX 101 13 21 14 18 15 19 16 103 17 20 18 17 19 1 20 2 21 3 22
REMARK SMILES IDX 16 23 4 24 14 26 6 27 15 28 5 29 7 31 8 32 13 33 9 34 11 35
REMARK SMILES IDX 10 36 12 37 32 38 33 39 34 40 35 41 36 42 37 44 38 45 39 46
REMARK SMILES IDX 100 47 40 48 99 49 41 50 42 51 43 52 93 53 44 54 98 55 92 56
REMARK SMILES IDX 94 57 45 58 97 59 91 60 90 61 46 63 78 64 58 65 77 66 59 67
REMARK SMILES IDX 62 68 76 69 95 70 60 71 61 72 75 74 96 75 63 76 47 77 48 78
REMARK SMILES IDX 56 79 49 80 51 81 57 82 50 83 52 84 53 85 54 86 55 87 79 88
REMARK SMILES IDX 80 89 88 90 81 91 83 92 89 93 82 94 84 95 85 96 86 97 87 98
REMARK SMILES IDX 64 99 65 100 73 101 66 102 68 103 74 104 67 105 69 106
REMARK SMILES IDX 70 107 71 108 72 109
REMARK H PARENT 28 7 3 25 5 30 35 43 94 62 62 73
REMARK Flexibility Score: inf
ROOT
ATOM      1  C   UNL     1      -8.076  -7.892   2.292  1.00  0.00     0.002 C 
ENDROOT
BRANCH   1   2
ATOM      2  C   UNL     1      -6.864  -7.132   1.738  1.00  0.00     0.021 C 
BRANCH   2   3
ATOM      3  C   UNL     1      -7.009  -5.614   1.872  1.00  0.00     0.116 C 
BRANCH   3   4
ATOM      4  N   UNL     1      -6.691  -5.212   3.231  1.00  0.00    -0.352 N 
ATOM      5  C   UNL     1      -5.567  -4.661   3.792  1.00  0.00     0.251 C 
ATOM      6  O   UNL     1      -5.575  -4.446   5.004  1.00  0.00    -0.269 OA
ATOM      7  H   UNL     1      -7.421  -5.365   3.873  1.00  0.00     0.163 HD
BRANCH   5   8
ATOM      8  C   UNL     1      -4.385  -4.246   2.987  1.00  0.00     0.039 A 
ATOM      9  C   UNL     1      -2.287  -3.175   1.456  1.00  0.00     0.017 A 
ATOM     10  C   UNL     1      -2.580  -2.634   2.709  1.00  0.00     0.013 A 
ATOM     11  C   UNL     1      -2.984  -4.301   1.014  1.00  0.00     0.013 A 
ATOM     12  C   UNL     1      -3.633  -3.160   3.465  1.00  0.00     0.014 A 
ATOM     13  C   UNL     1      -3.993  -4.860   1.797  1.00  0.00     0.014 A 
BRANCH   9  14
ATOM     14  C   UNL     1      -1.306  -2.580   0.579  1.00  0.00     0.134 A 
ATOM     15  C   UNL     1       0.769  -2.126  -0.018  1.00  0.00     0.128 A 
ATOM     16  C   UNL     1      -0.066  -1.725  -1.054  1.00  0.00     0.051 A 
ATOM     17  O   UNL     1      -0.011  -2.658   0.979  1.00  0.00    -0.457 OA
ATOM     18  C   UNL     1      -1.393  -2.002  -0.665  1.00  0.00     0.051 A 
BRANCH  15  19
ATOM     19  C   UNL     1       2.181  -2.080   0.053  1.00  0.00     0.071 C 
ATOM     20  O   UNL     1       1.119   0.603   0.504  1.00  0.00    -0.241 OA
ATOM     21  C   UNL     1       2.302   0.412   0.280  1.00  0.00     0.347 C 
ATOM     22  N   UNL     1       3.162   1.461   0.166  1.00  0.00    -0.200 N 
ATOM     23  C   UNL     1       2.894  -0.940   0.131  1.00  0.00     0.158 C 
ATOM     24  C   UNL     1       4.431   1.300   0.104  1.00  0.00     0.323 C 
ATOM     25  H   UNL     1       2.796   2.375   0.130  1.00  0.00     0.316 HD
ATOM     26  C   UNL     1       4.369  -1.097   0.097  1.00  0.00     0.354 C 
ATOM     27  N   UNL     1       5.094   0.087   0.111  1.00  0.00    -0.151 N 
ATOM     28  O   UNL     1       4.878  -2.218   0.076  1.00  0.00    -0.240 OA
BRANCH  24  29
ATOM     29  S   UNL     1       5.323   2.800  -0.089  1.00  0.00    -0.055 SA
ATOM     30  H   UNL     1       4.457   3.848  -0.063  1.00  0.00     0.116 HD
ENDBRANCH  24  29
BRANCH  27  31
ATOM     31  C   UNL     1       6.520  -0.015   0.113  1.00  0.00     0.138 A 
ATOM     32  C   UNL     1       7.178  -0.717  -0.909  1.00  0.00     0.052 A 
ATOM     33  C   UNL     1       7.274   0.558   1.145  1.00  0.00     0.068 A 
ATOM     34  C   UNL     1       8.571  -0.806  -0.922  1.00  0.00     0.006 A 
ATOM     35  C   UNL     1       8.665   0.455   1.130  1.00  0.00     0.022 A 
ATOM     36  C   UNL     1       9.317  -0.215   0.097  1.00  0.00     0.016 A 
ATOM     37  Br  UNL     1       9.673   1.229   2.530  1.00  0.00    -0.051 Br
ENDBRANCH  27  31
ENDBRANCH  15  19
ENDBRANCH   9  14
ENDBRANCH   5   8
ENDBRANCH   3   4
ENDBRANCH   2   3
ENDBRANCH   1   2
BRANCH   1  38
ATOM     38  C   UNL     1      -9.391  -7.607   1.558  1.00  0.00     0.002 C 
BRANCH  38  39
ATOM     39  C   UNL     1      -9.347  -7.868   0.050  1.00  0.00     0.021 C 
BRANCH  39  40
ATOM     40  C   UNL     1      -9.053  -9.318  -0.315  1.00  0.00     0.116 C 
BRANCH  40  41
ATOM     41  N   UNL     1     -10.107 -10.207   0.154  1.00  0.00    -0.352 N 
ATOM     42  C   UNL     1     -10.919 -11.040  -0.573  1.00  0.00     0.251 C 
ATOM     43  H   UNL     1     -10.258 -10.210   1.127  1.00  0.00     0.163 HD
ATOM     44  O   UNL     1     -11.926 -11.523  -0.063  1.00  0.00    -0.269 OA
BRANCH  42  45
ATOM     45  C   UNL     1     -10.573 -11.342  -1.976  1.00  0.00     0.039 A 
ATOM     46  C   UNL     1     -11.573 -11.303  -2.949  1.00  0.00     0.014 A 
ATOM     47  C   UNL     1      -9.256 -11.654  -2.325  1.00  0.00     0.014 A 
ATOM     48  C   UNL     1     -11.238 -11.522  -4.287  1.00  0.00     0.010 A 
ATOM     49  C   UNL     1      -8.911 -11.789  -3.664  1.00  0.00     0.010 A 
ATOM     50  C   UNL     1      -9.899 -11.732  -4.659  1.00  0.00    -0.014 A 
BRANCH  50  51
ATOM     51  C   UNL     1      -9.508 -11.880  -6.083  1.00  0.00     0.031 A 
ATOM     52  C   UNL     1      -8.872 -13.155  -6.565  1.00  0.00     0.074 A 
ATOM     53  C   UNL     1      -9.649 -10.835  -6.922  1.00  0.00     0.049 A 
ATOM     54  N   UNL     1      -8.412 -13.448  -7.753  1.00  0.00    -0.248 NA
ATOM     55  C   UNL     1      -8.706 -14.234  -5.576  1.00  0.00     0.031 C 
ATOM     56  C   UNL     1     -10.189  -9.523  -6.557  1.00  0.00     0.029 A 
ATOM     57  N   UNL     1      -9.327 -10.702  -8.249  1.00  0.00    -0.354 N 
ATOM     58  C   UNL     1      -7.875 -14.726  -7.648  1.00  0.00     0.074 A 
ATOM     59  C   UNL     1      -8.030 -15.137  -6.270  1.00  0.00     0.031 C 
ATOM     60  C   UNL     1     -10.171  -8.724  -7.635  1.00  0.00     0.029 A 
ATOM     61  C   UNL     1      -9.582  -9.449  -8.756  1.00  0.00     0.049 A 
ATOM     62  H   UNL     1      -8.950 -11.434  -8.789  1.00  0.00     0.167 HD
ATOM     63  C   UNL     1      -7.326 -15.498  -8.616  1.00  0.00     0.034 A 
ATOM     64  C   UNL     1      -9.354  -8.937  -9.981  1.00  0.00     0.034 A 
ATOM     65  C   UNL     1      -7.196 -15.093  -9.989  1.00  0.00     0.049 A 
ATOM     66  C   UNL     1      -8.747  -9.818 -11.039  1.00  0.00     0.074 A 
ATOM     67  C   UNL     1      -6.727 -15.830 -11.062  1.00  0.00     0.029 A 
ATOM     68  N   UNL     1      -7.520 -13.837 -10.479  1.00  0.00    -0.354 N 
ATOM     69  N   UNL     1      -8.383 -11.074 -10.958  1.00  0.00    -0.248 NA
ATOM     70  C   UNL     1      -8.550  -9.220 -12.367  1.00  0.00     0.031 C 
ATOM     71  C   UNL     1      -6.728 -15.005 -12.192  1.00  0.00     0.029 A 
ATOM     72  C   UNL     1      -7.243 -13.770 -11.833  1.00  0.00     0.049 A 
ATOM     73  H   UNL     1      -7.893 -13.101  -9.941  1.00  0.00     0.167 HD
ATOM     74  C   UNL     1      -7.952 -11.429 -12.231  1.00  0.00     0.074 A 
ATOM     75  C   UNL     1      -8.119 -10.259 -13.069  1.00  0.00     0.031 C 
ATOM     76  C   UNL     1      -7.456 -12.614 -12.666  1.00  0.00     0.034 A 
BRANCH  63  77
ATOM     77  C   UNL     1      -6.854 -16.877  -8.227  1.00  0.00     0.023 A 
ATOM     78  C   UNL     1      -7.795 -17.867  -7.877  1.00  0.00     0.012 A 
ATOM     79  C   UNL     1      -5.485 -17.206  -8.255  1.00  0.00     0.148 A 
ATOM     80  C   UNL     1      -7.380 -19.149  -7.519  1.00  0.00     0.002 A 
ATOM     81  C   UNL     1      -5.082 -18.500  -7.946  1.00  0.00     0.091 A 
ATOM     82  F   UNL     1      -4.602 -16.248  -8.571  1.00  0.00    -0.205 F 
ATOM     83  C   UNL     1      -6.026 -19.468  -7.564  1.00  0.00     0.022 A 
BRANCH  81  84
ATOM     84  S   UNL     1      -3.371 -19.035  -8.054  1.00  0.00     0.127 S 
ATOM     85  O   UNL     1      -3.037 -19.237  -6.644  1.00  0.00    -0.237 OA
ATOM     86  O   UNL     1      -3.483 -20.266  -8.836  1.00  0.00    -0.237 OA
ATOM     87  O   UNL     1      -2.652 -17.956  -8.716  1.00  0.00    -0.744 OA
ENDBRANCH  81  84
ENDBRANCH  63  77
BRANCH  64  88
ATOM     88  C   UNL     1      -9.747  -7.532 -10.289  1.00  0.00     0.023 A 
ATOM     89  C   UNL     1     -10.808  -7.290 -11.184  1.00  0.00     0.012 A 
ATOM     90  C   UNL     1      -9.089  -6.439  -9.692  1.00  0.00     0.148 A 
ATOM     91  C   UNL     1     -11.182  -5.986 -11.508  1.00  0.00     0.002 A 
ATOM     92  C   UNL     1      -9.504  -5.144  -9.975  1.00  0.00     0.091 A 
ATOM     93  F   UNL     1      -8.078  -6.691  -8.849  1.00  0.00    -0.205 F 
ATOM     94  C   UNL     1     -10.536  -4.913 -10.898  1.00  0.00     0.022 A 
BRANCH  92  95
ATOM     95  S   UNL     1      -8.817  -3.708  -9.143  1.00  0.00     0.127 S 
ATOM     96  O   UNL     1      -8.113  -3.038 -10.233  1.00  0.00    -0.237 OA
ATOM     97  O   UNL     1     -10.025  -3.026  -8.676  1.00  0.00    -0.237 OA
ATOM     98  O   UNL     1      -7.974  -4.233  -8.077  1.00  0.00    -0.744 OA
ENDBRANCH  92  95
ENDBRANCH  64  88
BRANCH  76  99
ATOM     99  C   UNL     1      -7.097 -12.730 -14.125  1.00  0.00     0.023 A 
ATOM    100  C   UNL     1      -5.970 -12.054 -14.633  1.00  0.00     0.012 A 
ATOM    101  C   UNL     1      -7.840 -13.573 -14.976  1.00  0.00     0.148 A 
ATOM    102  C   UNL     1      -5.609 -12.188 -15.973  1.00  0.00     0.002 A 
ATOM    103  C   UNL     1      -7.442 -13.745 -16.295  1.00  0.00     0.091 A 
ATOM    104  F   UNL     1      -8.919 -14.194 -14.477  1.00  0.00    -0.205 F 
ATOM    105  C   UNL     1      -6.336 -13.042 -16.800  1.00  0.00     0.022 A 
BRANCH 103 106
ATOM    106  S   UNL     1      -8.254 -14.899 -17.406  1.00  0.00     0.127 S 
ATOM    107  O   UNL     1      -8.890 -13.994 -18.362  1.00  0.00    -0.237 OA
ATOM    108  O   UNL     1      -7.123 -15.657 -17.942  1.00  0.00    -0.237 OA
ATOM    109  O   UNL     1      -9.170 -15.677 -16.583  1.00  0.00    -0.744 OA
ENDBRANCH 103 106
ENDBRANCH  76  99
ENDBRANCH  50  51
ENDBRANCH  42  45
ENDBRANCH  40  41
ENDBRANCH  39  40
ENDBRANCH  38  39
ENDBRANCH   1  38
TORSDOF 20
