REMARK SMILES CC(C)[NH2+][C@@H](C(=O)NCCCCCCNC(=O)c1ccc(-c2c3nc(c(-c4cccc(S(=O)(=O)[O-])c4F)c4ccc([nH]4)c(-c4cccc(S(=O)(=O)[O-])c4F)c4nc(c(-c5cccc(S(=O)(=O)[O-])c5F)c5ccc2[nH]5)C=C4)C=C3)cc1)c1c[nH]c2ccc(Br)cc12
REMARK SMILES IDX 12 1 11 2 10 3 9 4 8 5 6 6 7 7 5 9 4 10 2 13 1 14 3 15 81 16
REMARK SMILES IDX 82 17 90 18 83 19 84 20 89 21 85 23 87 24 86 25 88 26 13 27
REMARK SMILES IDX 14 28 15 29 16 30 17 32 18 33 19 34 80 35 20 36 79 37 21 38
REMARK SMILES IDX 22 39 23 40 73 41 24 42 78 43 72 44 74 45 25 46 77 47 71 48
REMARK SMILES IDX 70 49 26 51 58 52 38 53 57 54 39 55 42 56 56 57 75 58 40 59
REMARK SMILES IDX 41 60 55 62 76 63 43 64 27 65 28 66 36 67 29 68 31 69 37 70
REMARK SMILES IDX 30 71 32 72 33 73 34 74 35 75 59 76 60 77 68 78 61 79 63 80
REMARK SMILES IDX 69 81 62 82 64 83 65 84 66 85 67 86 44 87 45 88 53 89 46 90
REMARK SMILES IDX 48 91 54 92 47 93 49 94 50 95 51 96 52 97
REMARK H PARENT 8 8 4 11 4 12 83 22 15 31 74 50 42 61
REMARK Flexibility Score: inf
ROOT
ATOM      1  C   UNL     1       4.262   3.935  -3.108  1.00  0.00     0.002 C 
ENDROOT
BRANCH   1   2
ATOM      2  C   UNL     1       3.141   2.901  -3.144  1.00  0.00     0.002 C 
BRANCH   2   3
ATOM      3  C   UNL     1       2.369   2.730  -1.834  1.00  0.00     0.021 C 
BRANCH   3   4
ATOM      4  C   UNL     1       1.095   3.582  -1.659  1.00  0.00     0.116 C 
BRANCH   4   5
ATOM      5  N   UNL     1       0.112   3.368  -2.713  1.00  0.00    -0.351 N 
ATOM      6  C   UNL     1      -1.155   2.851  -2.764  1.00  0.00     0.283 C 
ATOM      7  O   UNL     1      -1.692   2.960  -3.876  1.00  0.00    -0.268 OA
ATOM      8  H   UNL     1       0.435   3.663  -3.595  1.00  0.00     0.163 HD
BRANCH   6   9
ATOM      9  C   UNL     1      -1.930   2.307  -1.536  1.00  0.00     0.306 C 
BRANCH   9  10
ATOM     10  N   UNL     1      -1.225   1.445  -0.559  1.00  0.00    -0.330 N 
ATOM     11  H   UNL     1      -0.873   2.080   0.157  1.00  0.00     0.347 HD
ATOM     12  H   UNL     1      -1.954   0.760  -0.362  1.00  0.00     0.347 HD
BRANCH  10  13
ATOM     13  C   UNL     1      -0.120   0.566  -0.870  1.00  0.00     0.176 C 
ATOM     14  C   UNL     1       0.008  -0.517   0.208  1.00  0.00     0.075 C 
ATOM     15  C   UNL     1      -0.057  -0.092  -2.247  1.00  0.00     0.075 C 
ENDBRANCH  10  13
ENDBRANCH   9  10
BRANCH   9  16
ATOM     16  C   UNL     1      -3.267   1.584  -1.794  1.00  0.00     0.044 A 
ATOM     17  C   UNL     1      -4.024   1.017  -0.751  1.00  0.00     0.094 A 
ATOM     18  C   UNL     1      -3.701   0.759  -2.891  1.00  0.00     0.010 A 
ATOM     19  N   UNL     1      -3.642  -0.324  -0.963  1.00  0.00    -0.361 N 
ATOM     20  C   UNL     1      -3.763  -0.526  -2.328  1.00  0.00     0.046 A 
ATOM     21  C   UNL     1      -3.957   0.886  -4.269  1.00  0.00     0.026 A 
ATOM     22  H   UNL     1      -3.351  -0.976  -0.286  1.00  0.00     0.166 HD
ATOM     23  C   UNL     1      -3.853  -1.699  -3.076  1.00  0.00     0.028 A 
ATOM     24  C   UNL     1      -4.268  -0.274  -4.995  1.00  0.00     0.018 A 
ATOM     25  C   UNL     1      -4.155  -1.546  -4.429  1.00  0.00     0.018 A 
ATOM     26  Br  UNL     1      -4.908  -0.123  -6.773  1.00  0.00    -0.051 Br
ENDBRANCH   9  16
ENDBRANCH   6   9
ENDBRANCH   4   5
ENDBRANCH   3   4
ENDBRANCH   2   3
ENDBRANCH   1   2
BRANCH   1  27
ATOM     27  C   UNL     1       5.351   3.708  -2.052  1.00  0.00     0.021 C 
BRANCH  27  28
ATOM     28  C   UNL     1       5.991   2.319  -2.041  1.00  0.00     0.116 C 
BRANCH  28  29
ATOM     29  N   UNL     1       6.762   2.063  -3.248  1.00  0.00    -0.352 N 
ATOM     30  C   UNL     1       8.107   1.811  -3.373  1.00  0.00     0.251 C 
ATOM     31  H   UNL     1       6.250   2.071  -4.089  1.00  0.00     0.163 HD
ATOM     32  O   UNL     1       8.640   1.841  -4.479  1.00  0.00    -0.269 OA
BRANCH  30  33
ATOM     33  C   UNL     1       8.915   1.511  -2.170  1.00  0.00     0.039 A 
ATOM     34  C   UNL     1      10.125   2.182  -1.976  1.00  0.00     0.014 A 
ATOM     35  C   UNL     1       8.484   0.556  -1.244  1.00  0.00     0.014 A 
ATOM     36  C   UNL     1      10.879   1.930  -0.826  1.00  0.00     0.010 A 
ATOM     37  C   UNL     1       9.208   0.350  -0.071  1.00  0.00     0.010 A 
ATOM     38  C   UNL     1      10.417   1.028   0.147  1.00  0.00    -0.014 A 
BRANCH  38  39
ATOM     39  C   UNL     1      11.186   0.786   1.397  1.00  0.00     0.031 A 
ATOM     40  C   UNL     1      11.771  -0.573   1.678  1.00  0.00     0.074 A 
ATOM     41  C   UNL     1      11.299   1.769   2.312  1.00  0.00     0.049 A 
ATOM     42  N   UNL     1      12.439  -0.982   2.726  1.00  0.00    -0.248 NA
ATOM     43  C   UNL     1      11.559  -1.615   0.660  1.00  0.00     0.031 C 
ATOM     44  C   UNL     1      10.709   3.104   2.197  1.00  0.00     0.029 A 
ATOM     45  N   UNL     1      11.927   1.790   3.533  1.00  0.00    -0.354 N 
ATOM     46  C   UNL     1      12.707  -2.329   2.506  1.00  0.00     0.074 A 
ATOM     47  C   UNL     1      12.091  -2.679   1.244  1.00  0.00     0.031 C 
ATOM     48  C   UNL     1      11.001   3.812   3.300  1.00  0.00     0.029 A 
ATOM     49  C   UNL     1      11.780   2.978   4.210  1.00  0.00     0.049 A 
ATOM     50  H   UNL     1      12.434   1.025   3.891  1.00  0.00     0.167 HD
ATOM     51  C   UNL     1      13.430  -3.188   3.264  1.00  0.00     0.034 A 
ATOM     52  C   UNL     1      12.221   3.353   5.428  1.00  0.00     0.034 A 
ATOM     53  C   UNL     1      14.072  -2.829   4.500  1.00  0.00     0.049 A 
ATOM     54  C   UNL     1      13.057   2.393   6.231  1.00  0.00     0.074 A 
ATOM     55  C   UNL     1      14.879  -3.610   5.309  1.00  0.00     0.029 A 
ATOM     56  N   UNL     1      13.984  -1.586   5.105  1.00  0.00    -0.354 N 
ATOM     57  N   UNL     1      13.428   1.171   5.931  1.00  0.00    -0.248 NA
ATOM     58  C   UNL     1      13.573   2.876   7.520  1.00  0.00     0.031 C 
ATOM     59  C   UNL     1      15.270  -2.840   6.410  1.00  0.00     0.029 A 
ATOM     60  C   UNL     1      14.722  -1.575   6.276  1.00  0.00     0.049 A 
ATOM     61  H   UNL     1      13.472  -0.822   4.754  1.00  0.00     0.167 HD
ATOM     62  C   UNL     1      14.247   0.754   6.974  1.00  0.00     0.074 A 
ATOM     63  C   UNL     1      14.339   1.863   7.901  1.00  0.00     0.031 C 
ATOM     64  C   UNL     1      14.854  -0.444   7.158  1.00  0.00     0.034 A 
BRANCH  51  65
ATOM     65  C   UNL     1      13.626  -4.587   2.738  1.00  0.00     0.023 A 
ATOM     66  C   UNL     1      14.476  -4.793   1.631  1.00  0.00     0.012 A 
ATOM     67  C   UNL     1      13.028  -5.698   3.365  1.00  0.00     0.148 A 
ATOM     68  C   UNL     1      14.701  -6.075   1.134  1.00  0.00     0.002 A 
ATOM     69  C   UNL     1      13.292  -6.979   2.890  1.00  0.00     0.091 A 
ATOM     70  F   UNL     1      12.209  -5.483   4.404  1.00  0.00    -0.205 F 
ATOM     71  C   UNL     1      14.117  -7.168   1.769  1.00  0.00     0.022 A 
BRANCH  69  72
ATOM     72  S   UNL     1      12.651  -8.460   3.680  1.00  0.00     0.127 S 
ATOM     73  O   UNL     1      11.670  -8.918   2.698  1.00  0.00    -0.237 OA
ATOM     74  O   UNL     1      13.847  -9.295   3.784  1.00  0.00    -0.237 OA
ATOM     75  O   UNL     1      12.100  -8.026   4.958  1.00  0.00    -0.744 OA
ENDBRANCH  69  72
ENDBRANCH  51  65
BRANCH  52  76
ATOM     76  C   UNL     1      11.941   4.728   5.934  1.00  0.00     0.023 A 
ATOM     77  C   UNL     1      12.997   5.653   6.050  1.00  0.00     0.012 A 
ATOM     78  C   UNL     1      10.638   5.128   6.286  1.00  0.00     0.148 A 
ATOM     79  C   UNL     1      12.768   6.938   6.544  1.00  0.00     0.002 A 
ATOM     80  C   UNL     1      10.406   6.427   6.723  1.00  0.00     0.091 A 
ATOM     81  F   UNL     1       9.647   4.231   6.185  1.00  0.00    -0.205 F 
ATOM     82  C   UNL     1      11.472   7.328   6.871  1.00  0.00     0.022 A 
BRANCH  80  83
ATOM     83  S   UNL     1       8.750   7.049   7.034  1.00  0.00     0.127 S 
ATOM     84  O   UNL     1       8.699   7.053   8.493  1.00  0.00    -0.237 OA
ATOM     85  O   UNL     1       8.798   8.374   6.414  1.00  0.00    -0.237 OA
ATOM     86  O   UNL     1       7.854   6.113   6.366  1.00  0.00    -0.744 OA
ENDBRANCH  80  83
ENDBRANCH  52  76
BRANCH  64  87
ATOM     87  C   UNL     1      15.704  -0.614   8.391  1.00  0.00     0.023 A 
ATOM     88  C   UNL     1      15.090  -0.732   9.653  1.00  0.00     0.012 A 
ATOM     89  C   UNL     1      17.105  -0.722   8.290  1.00  0.00     0.148 A 
ATOM     90  C   UNL     1      15.859  -0.921  10.800  1.00  0.00     0.002 A 
ATOM     91  C   UNL     1      17.861  -0.959   9.431  1.00  0.00     0.091 A 
ATOM     92  F   UNL     1      17.672  -0.587   7.082  1.00  0.00    -0.205 F 
ATOM     93  C   UNL     1      17.242  -1.046  10.688  1.00  0.00     0.022 A 
BRANCH  91  94
ATOM     94  S   UNL     1      19.637  -1.226   9.369  1.00  0.00     0.127 S 
ATOM     95  O   UNL     1      20.147   0.037   9.900  1.00  0.00    -0.237 OA
ATOM     96  O   UNL     1      19.810  -2.376  10.257  1.00  0.00    -0.237 OA
ATOM     97  O   UNL     1      19.952  -1.491   7.972  1.00  0.00    -0.744 OA
ENDBRANCH  91  94
ENDBRANCH  64  87
ENDBRANCH  38  39
ENDBRANCH  30  33
ENDBRANCH  28  29
ENDBRANCH  27  28
ENDBRANCH   1  27
TORSDOF 19
