REMARK SMILES COc1ccc(C2=NN(C(=O)CCC(=O)NCCCCCCNC(=O)c3ccc(-c4c5nc(c(-c6cccc(S(=O)(=O)[O-])c6F)c6ccc([nH]6)c(-c6cccc(S(=O)(=O)[O-])c6F)c6nc(c(-c7cccc(S(=O)(=O)[O-])c7F)c7ccc4[nH]7)C=C6)C=C5)cc3)[C@H](c3ccc(Cl)cc3Cl)C2)cc1
REMARK SMILES IDX 18 1 17 2 16 3 14 4 15 5 13 7 12 8 10 9 11 10 9 11 7 12 8 13
REMARK SMILES IDX 98 14 89 15 6 16 3 17 4 18 100 19 5 20 99 21 2 22 1 23 90 24
REMARK SMILES IDX 91 25 96 26 92 27 95 28 97 29 93 30 94 31 19 32 20 33 21 34
REMARK SMILES IDX 22 35 23 36 24 37 25 39 26 40 27 41 88 42 28 43 87 44 29 45
REMARK SMILES IDX 30 46 31 47 81 48 32 49 86 50 80 51 82 52 33 53 85 54 79 55
REMARK SMILES IDX 78 56 34 58 66 59 46 60 65 61 47 62 50 63 64 64 83 65 48 66
REMARK SMILES IDX 49 67 63 69 84 70 51 71 35 72 36 73 44 74 37 75 39 76 45 77
REMARK SMILES IDX 38 78 40 79 41 80 42 81 43 82 67 83 68 84 76 85 69 86 71 87
REMARK SMILES IDX 77 88 70 89 72 90 73 91 74 92 75 93 52 94 53 95 61 96 54 97
REMARK SMILES IDX 56 98 62 99 55 100 57 101 58 102 59 103 60 104
REMARK H PARENT 16 6 23 38 82 57 50 68
REMARK Flexibility Score: inf
ROOT
ATOM      1  C   UNL     1       1.945   0.786  -7.442  1.00  0.00     0.021 C 
ENDROOT
BRANCH   1   2
ATOM      2  C   UNL     1       4.036   1.486  -7.772  1.00  0.00     0.116 C 
BRANCH   2   3
ATOM      3  N   UNL     1       4.863   1.924  -9.055  1.00  0.00    -0.356 N 
ATOM      4  C   UNL     1       4.846   2.913  -9.995  1.00  0.00     0.220 C 
ATOM      5  O   UNL     1       5.839   2.920 -10.739  1.00  0.00    -0.275 OA
ATOM      6  H   UNL     1       5.605   1.299  -9.222  1.00  0.00     0.163 HD
BRANCH   4   7
ATOM      7  C   UNL     1       3.796   4.012 -10.190  1.00  0.00     0.110 C 
BRANCH   7   8
ATOM      8  C   UNL     1       2.306   3.718 -10.156  1.00  0.00     0.112 C 
BRANCH   8   9
ATOM      9  C   UNL     1       1.972   3.493  -8.733  1.00  0.00     0.243 C 
ATOM     10  O   UNL     1       1.409   4.332  -8.044  1.00  0.00    -0.273 OA
BRANCH   9  11
ATOM     11  N   UNL     1       2.471   2.283  -8.316  1.00  0.00    -0.225 N 
ATOM     12  C   UNL     1       3.318   0.574  -6.073  1.00  0.00     0.071 C 
ATOM     13  N   UNL     1       2.887   2.054  -6.438  1.00  0.00    -0.174 NA
ATOM     14  C   UNL     1       3.583  -0.519  -7.684  1.00  0.00     0.091 C 
ATOM     15  C   UNL     1       2.909   0.564  -9.192  1.00  0.00     0.149 C 
BRANCH  12  16
ATOM     16  C   UNL     1       2.987  -0.182  -4.776  1.00  0.00    -0.002 A 
ATOM     17  C   UNL     1       1.973  -1.368  -2.366  1.00  0.00     0.118 A 
ATOM     18  C   UNL     1       1.353  -1.607  -3.584  1.00  0.00     0.047 A 
ATOM     19  C   UNL     1       3.131  -0.583  -2.366  1.00  0.00     0.047 A 
ATOM     20  C   UNL     1       1.861  -1.042  -4.765  1.00  0.00     0.014 A 
ATOM     21  C   UNL     1       3.628   0.023  -3.559  1.00  0.00     0.014 A 
BRANCH  17  22
ATOM     22  O   UNL     1       1.352  -1.955  -1.300  1.00  0.00    -0.497 OA
ATOM     23  C   UNL     1       1.551  -1.414   0.003  1.00  0.00     0.278 C 
ENDBRANCH  17  22
ENDBRANCH  12  16
BRANCH  15  24
ATOM     24  C   UNL     1       2.025  -0.238 -10.208  1.00  0.00    -0.004 A 
ATOM     25  C   UNL     1       1.519  -1.504  -9.833  1.00  0.00     0.009 A 
ATOM     26  C   UNL     1       2.049   0.014 -11.608  1.00  0.00     0.047 A 
ATOM     27  C   UNL     1       1.081  -2.448 -10.775  1.00  0.00     0.021 A 
ATOM     28  C   UNL     1       1.510  -0.890 -12.540  1.00  0.00     0.041 A 
ATOM     29  Cl  UNL     1       2.976   1.271 -12.357  1.00  0.00    -0.084 Cl
ATOM     30  C   UNL     1       1.056  -2.129 -12.123  1.00  0.00     0.042 A 
ATOM     31  Cl  UNL     1       0.562  -3.298 -13.283  1.00  0.00    -0.084 Cl
ENDBRANCH  15  24
ENDBRANCH   9  11
ENDBRANCH   8   9
ENDBRANCH   7   8
ENDBRANCH   4   7
ENDBRANCH   2   3
ENDBRANCH   1   2
BRANCH   1  32
ATOM     32  C   UNL     1       0.730   1.648  -6.271  1.00  0.00     0.002 C 
BRANCH  32  33
ATOM     33  C   UNL     1       1.196   2.598  -5.039  1.00  0.00     0.002 C 
BRANCH  33  34
ATOM     34  C   UNL     1       0.185   3.370  -4.226  1.00  0.00     0.021 C 
BRANCH  34  35
ATOM     35  C   UNL     1      -0.820   2.474  -3.568  1.00  0.00     0.116 C 
BRANCH  35  36
ATOM     36  N   UNL     1      -0.138   1.375  -2.874  1.00  0.00    -0.352 N 
ATOM     37  C   UNL     1       0.127   1.409  -1.529  1.00  0.00     0.251 C 
ATOM     38  H   UNL     1       0.139   0.586  -3.393  1.00  0.00     0.163 HD
ATOM     39  O   UNL     1       1.265   1.427  -1.082  1.00  0.00    -0.269 OA
BRANCH  37  40
ATOM     40  C   UNL     1      -1.067   1.474  -0.669  1.00  0.00     0.039 A 
ATOM     41  C   UNL     1      -0.952   1.961   0.630  1.00  0.00     0.014 A 
ATOM     42  C   UNL     1      -2.299   1.362  -1.306  1.00  0.00     0.014 A 
ATOM     43  C   UNL     1      -2.053   2.593   1.175  1.00  0.00     0.010 A 
ATOM     44  C   UNL     1      -3.261   2.243  -0.907  1.00  0.00     0.010 A 
ATOM     45  C   UNL     1      -3.137   2.875   0.330  1.00  0.00    -0.014 A 
BRANCH  45  46
ATOM     46  C   UNL     1      -4.092   3.937   0.659  1.00  0.00     0.031 A 
ATOM     47  C   UNL     1      -5.551   3.626   0.658  1.00  0.00     0.074 A 
ATOM     48  C   UNL     1      -3.608   5.182   0.840  1.00  0.00     0.049 A 
ATOM     49  N   UNL     1      -6.544   4.410   0.961  1.00  0.00    -0.248 NA
ATOM     50  C   UNL     1      -5.966   2.279   0.214  1.00  0.00     0.031 C 
ATOM     51  C   UNL     1      -2.202   5.586   0.678  1.00  0.00     0.029 A 
ATOM     52  N   UNL     1      -4.233   6.338   1.210  1.00  0.00    -0.354 N 
ATOM     53  C   UNL     1      -7.686   3.662   0.725  1.00  0.00     0.074 A 
ATOM     54  C   UNL     1      -7.280   2.400   0.164  1.00  0.00     0.031 C 
ATOM     55  C   UNL     1      -2.062   6.870   1.035  1.00  0.00     0.029 A 
ATOM     56  C   UNL     1      -3.371   7.395   1.390  1.00  0.00     0.049 A 
ATOM     57  H   UNL     1      -5.207   6.408   1.336  1.00  0.00     0.167 HD
ATOM     58  C   UNL     1      -8.962   3.990   1.008  1.00  0.00     0.034 A 
ATOM     59  C   UNL     1      -3.627   8.647   1.808  1.00  0.00     0.034 A 
ATOM     60  C   UNL     1      -9.319   5.253   1.580  1.00  0.00     0.049 A 
ATOM     61  C   UNL     1      -5.049   8.970   2.160  1.00  0.00     0.074 A 
ATOM     62  C   UNL     1     -10.561   5.694   1.984  1.00  0.00     0.029 A 
ATOM     63  N   UNL     1      -8.422   6.288   1.806  1.00  0.00    -0.354 N 
ATOM     64  N   UNL     1      -6.106   8.193   2.106  1.00  0.00    -0.248 NA
ATOM     65  C   UNL     1      -5.315  10.322   2.659  1.00  0.00     0.031 C 
ATOM     66  C   UNL     1     -10.424   7.019   2.406  1.00  0.00     0.029 A 
ATOM     67  C   UNL     1      -9.085   7.381   2.325  1.00  0.00     0.049 A 
ATOM     68  H   UNL     1      -7.455   6.248   1.623  1.00  0.00     0.167 HD
ATOM     69  C   UNL     1      -7.161   8.951   2.588  1.00  0.00     0.074 A 
ATOM     70  C   UNL     1      -6.603  10.239   2.961  1.00  0.00     0.031 C 
ATOM     71  C   UNL     1      -8.474   8.630   2.701  1.00  0.00     0.034 A 
BRANCH  58  72
ATOM     72  C   UNL     1     -10.017   2.962   0.719  1.00  0.00     0.023 A 
ATOM     73  C   UNL     1     -10.048   1.752   1.447  1.00  0.00     0.012 A 
ATOM     74  C   UNL     1     -10.974   3.191  -0.283  1.00  0.00     0.148 A 
ATOM     75  C   UNL     1     -10.992   0.770   1.152  1.00  0.00     0.002 A 
ATOM     76  C   UNL     1     -11.947   2.233  -0.531  1.00  0.00     0.091 A 
ATOM     77  F   UNL     1     -10.899   4.327  -0.990  1.00  0.00    -0.205 F 
ATOM     78  C   UNL     1     -11.949   1.016   0.172  1.00  0.00     0.022 A 
BRANCH  76  79
ATOM     79  S   UNL     1     -13.268   2.487  -1.718  1.00  0.00     0.127 S 
ATOM     80  O   UNL     1     -12.980   1.449  -2.707  1.00  0.00    -0.237 OA
ATOM     81  O   UNL     1     -14.456   2.240  -0.901  1.00  0.00    -0.237 OA
ATOM     82  O   UNL     1     -13.126   3.855  -2.196  1.00  0.00    -0.744 OA
ENDBRANCH  76  79
ENDBRANCH  58  72
BRANCH  59  83
ATOM     83  C   UNL     1      -2.525   9.637   1.964  1.00  0.00     0.023 A 
ATOM     84  C   UNL     1      -2.169  10.099   3.247  1.00  0.00     0.012 A 
ATOM     85  C   UNL     1      -1.813  10.111   0.845  1.00  0.00     0.148 A 
ATOM     86  C   UNL     1      -1.156  11.046   3.407  1.00  0.00     0.002 A 
ATOM     87  C   UNL     1      -0.770  11.012   1.016  1.00  0.00     0.091 A 
ATOM     88  F   UNL     1      -2.164   9.658  -0.366  1.00  0.00    -0.205 F 
ATOM     89  C   UNL     1      -0.452  11.497   2.294  1.00  0.00     0.022 A 
BRANCH  87  90
ATOM     90  S   UNL     1       0.265  11.558  -0.346  1.00  0.00     0.127 S 
ATOM     91  O   UNL     1      -0.094  12.971  -0.443  1.00  0.00    -0.237 OA
ATOM     92  O   UNL     1       1.607  11.298   0.175  1.00  0.00    -0.237 OA
ATOM     93  O   UNL     1      -0.112  10.732  -1.484  1.00  0.00    -0.744 OA
ENDBRANCH  87  90
ENDBRANCH  59  83
BRANCH  71  94
ATOM     94  C   UNL     1      -9.377   9.679   3.284  1.00  0.00     0.023 A 
ATOM     95  C   UNL     1      -9.673  10.843   2.550  1.00  0.00     0.012 A 
ATOM     96  C   UNL     1      -9.978   9.470   4.539  1.00  0.00     0.148 A 
ATOM     97  C   UNL     1     -10.519  11.812   3.083  1.00  0.00     0.002 A 
ATOM     98  C   UNL     1     -10.871  10.407   5.033  1.00  0.00     0.091 A 
ATOM     99  F   UNL     1      -9.668   8.357   5.221  1.00  0.00    -0.205 F 
ATOM    100  C   UNL     1     -11.127  11.588   4.317  1.00  0.00     0.022 A 
BRANCH  98 101
ATOM    101  S   UNL     1     -11.784  10.149   6.554  1.00  0.00     0.127 S 
ATOM    102  O   UNL     1     -11.183  11.150   7.434  1.00  0.00    -0.237 OA
ATOM    103  O   UNL     1     -13.157  10.443   6.141  1.00  0.00    -0.237 OA
ATOM    104  O   UNL     1     -11.551   8.764   6.938  1.00  0.00    -0.744 OA
ENDBRANCH  98 101
ENDBRANCH  71  94
ENDBRANCH  45  46
ENDBRANCH  37  40
ENDBRANCH  35  36
ENDBRANCH  34  35
ENDBRANCH  33  34
ENDBRANCH  32  33
ENDBRANCH   1  32
TORSDOF 22
