REMARK SMILES C[C@@H](CNc1cccc(F)c1C(=O)NCCCCCCNC(=O)c1ccc(-c2c3nc(c(-c4cccc(S(=O)(=O)[O-])c4F)c4ccc([nH]4)c(-c4cccc(S(=O)(=O)[O-])c4F)c4nc(c(-c5cccc(S(=O)(=O)[O-])c5F)c5ccc2[nH]5)C=C4)C=C3)cc1)[NH+]1CCCCC1
REMARK SMILES IDX 17 1 16 2 15 3 14 4 12 5 13 6 11 8 5 9 6 10 7 11 9 12 8 13
REMARK SMILES IDX 10 14 4 15 3 17 2 18 1 19 87 20 88 21 92 22 89 24 91 25
REMARK SMILES IDX 90 26 18 27 19 28 20 29 21 30 22 31 23 33 24 34 25 35 86 36
REMARK SMILES IDX 26 37 85 38 27 39 28 40 29 41 79 42 30 43 84 44 78 45 80 46
REMARK SMILES IDX 31 47 83 48 77 49 76 50 32 52 64 53 44 54 63 55 45 56 48 57
REMARK SMILES IDX 62 58 81 59 46 60 47 61 61 63 82 64 49 65 33 66 34 67 42 68
REMARK SMILES IDX 35 69 37 70 43 71 36 72 38 73 39 74 40 75 41 76 65 77 66 78
REMARK SMILES IDX 74 79 67 80 69 81 75 82 68 83 70 84 71 85 72 86 73 87 50 88
REMARK SMILES IDX 51 89 59 90 52 91 54 92 60 93 53 94 55 95 56 96 57 97 58 98
REMARK H PARENT 14 7 4 16 87 23 21 32 80 51 48 62
REMARK Flexibility Score: inf
ROOT
ATOM      1  C   UNL     1      -4.638   2.516  -5.614  1.00  0.00     0.002 C 
ENDROOT
BRANCH   1   2
ATOM      2  C   UNL     1      -4.086   3.700  -4.802  1.00  0.00     0.021 C 
BRANCH   2   3
ATOM      3  C   UNL     1      -3.864   3.360  -3.324  1.00  0.00     0.116 C 
BRANCH   3   4
ATOM      4  N   UNL     1      -2.586   2.683  -3.193  1.00  0.00    -0.352 N 
ATOM      5  C   UNL     1      -1.331   3.079  -2.807  1.00  0.00     0.256 C 
ATOM      6  O   UNL     1      -0.428   2.266  -3.038  1.00  0.00    -0.269 OA
ATOM      7  H   UNL     1      -2.631   1.730  -3.434  1.00  0.00     0.163 HD
BRANCH   5   8
ATOM      8  C   UNL     1      -1.015   4.311  -2.018  1.00  0.00     0.098 A 
ATOM      9  C   UNL     1      -0.006   4.218  -1.009  1.00  0.00     0.050 A 
ATOM     10  C   UNL     1       0.265   5.345  -0.213  1.00  0.00     0.027 A 
ATOM     11  C   UNL     1      -0.453   6.529  -0.364  1.00  0.00     0.005 A 
ATOM     12  C   UNL     1      -1.669   5.532  -2.196  1.00  0.00     0.138 A 
ATOM     13  C   UNL     1      -1.424   6.618  -1.352  1.00  0.00     0.040 A 
ATOM     14  F   UNL     1      -2.524   5.734  -3.206  1.00  0.00    -0.206 F 
BRANCH   9  15
ATOM     15  N   UNL     1       0.647   3.012  -0.742  1.00  0.00    -0.378 N 
ATOM     16  H   UNL     1       0.914   2.451  -1.506  1.00  0.00     0.160 HD
BRANCH  15  17
ATOM     17  C   UNL     1       0.955   2.533   0.602  1.00  0.00     0.177 C 
BRANCH  17  18
ATOM     18  C   UNL     1       0.354   1.111   0.914  1.00  0.00     0.200 C 
ATOM     19  C   UNL     1       1.076   0.070   0.029  1.00  0.00     0.077 C 
BRANCH  18  20
ATOM     20  N   UNL     1      -1.136   0.955   1.050  1.00  0.00    -0.331 N 
ATOM     21  C   UNL     1      -1.903   2.156   0.705  1.00  0.00     0.262 C 
ATOM     22  C   UNL     1      -1.690  -0.245   0.409  1.00  0.00     0.262 C 
ATOM     23  H   UNL     1      -1.256   0.816   2.053  1.00  0.00     0.348 HD
ATOM     24  C   UNL     1      -3.416   2.044   0.881  1.00  0.00     0.062 C 
ATOM     25  C   UNL     1      -3.204  -0.400   0.595  1.00  0.00     0.062 C 
ATOM     26  C   UNL     1      -3.946   0.839   0.124  1.00  0.00     0.012 C 
ENDBRANCH  18  20
ENDBRANCH  17  18
ENDBRANCH  15  17
ENDBRANCH   9  15
ENDBRANCH   5   8
ENDBRANCH   3   4
ENDBRANCH   2   3
ENDBRANCH   1   2
BRANCH   1  27
ATOM     27  C   UNL     1      -6.069   2.101  -5.250  1.00  0.00     0.002 C 
BRANCH  27  28
ATOM     28  C   UNL     1      -7.101   3.228  -5.313  1.00  0.00     0.021 C 
BRANCH  28  29
ATOM     29  C   UNL     1      -7.216   3.899  -6.678  1.00  0.00     0.116 C 
BRANCH  29  30
ATOM     30  N   UNL     1      -7.680   2.968  -7.696  1.00  0.00    -0.352 N 
ATOM     31  C   UNL     1      -8.766   3.071  -8.531  1.00  0.00     0.251 C 
ATOM     32  H   UNL     1      -7.141   2.151  -7.801  1.00  0.00     0.163 HD
ATOM     33  O   UNL     1      -9.149   2.096  -9.167  1.00  0.00    -0.269 OA
BRANCH  31  34
ATOM     34  C   UNL     1      -9.472   4.364  -8.649  1.00  0.00     0.039 A 
ATOM     35  C   UNL     1     -10.867   4.382  -8.621  1.00  0.00     0.014 A 
ATOM     36  C   UNL     1      -8.752   5.555  -8.788  1.00  0.00     0.014 A 
ATOM     37  C   UNL     1     -11.541   5.604  -8.682  1.00  0.00     0.010 A 
ATOM     38  C   UNL     1      -9.421   6.773  -8.770  1.00  0.00     0.010 A 
ATOM     39  C   UNL     1     -10.823   6.811  -8.727  1.00  0.00    -0.014 A 
BRANCH  39  40
ATOM     40  C   UNL     1     -11.518   8.122  -8.720  1.00  0.00     0.031 A 
ATOM     41  C   UNL     1     -11.380   9.061  -9.887  1.00  0.00     0.074 A 
ATOM     42  C   UNL     1     -12.210   8.500  -7.627  1.00  0.00     0.049 A 
ATOM     43  N   UNL     1     -11.870  10.264 -10.037  1.00  0.00    -0.248 NA
ATOM     44  C   UNL     1     -10.566   8.601 -11.025  1.00  0.00     0.031 C 
ATOM     45  C   UNL     1     -12.355   7.707  -6.405  1.00  0.00     0.029 A 
ATOM     46  N   UNL     1     -12.902   9.654  -7.358  1.00  0.00    -0.354 N 
ATOM     47  C   UNL     1     -11.400  10.715 -11.264  1.00  0.00     0.074 A 
ATOM     48  C   UNL     1     -10.555   9.673 -11.803  1.00  0.00     0.031 C 
ATOM     49  C   UNL     1     -13.101   8.390  -5.524  1.00  0.00     0.029 A 
ATOM     50  C   UNL     1     -13.457   9.683  -6.100  1.00  0.00     0.049 A 
ATOM     51  H   UNL     1     -12.993  10.392  -8.004  1.00  0.00     0.167 HD
ATOM     52  C   UNL     1     -11.673  11.879 -11.899  1.00  0.00     0.034 A 
ATOM     53  C   UNL     1     -14.168  10.644  -5.475  1.00  0.00     0.034 A 
ATOM     54  C   UNL     1     -12.548  12.893 -11.375  1.00  0.00     0.049 A 
ATOM     55  C   UNL     1     -14.481  11.917  -6.211  1.00  0.00     0.074 A 
ATOM     56  C   UNL     1     -12.954  14.069 -11.979  1.00  0.00     0.029 A 
ATOM     57  N   UNL     1     -13.144  12.859 -10.124  1.00  0.00    -0.354 N 
ATOM     58  N   UNL     1     -14.144  12.267  -7.428  1.00  0.00    -0.248 NA
ATOM     59  C   UNL     1     -15.298  12.914  -5.504  1.00  0.00     0.031 C 
ATOM     60  C   UNL     1     -13.768  14.762 -11.080  1.00  0.00     0.029 A 
ATOM     61  C   UNL     1     -13.903  13.999  -9.931  1.00  0.00     0.049 A 
ATOM     62  H   UNL     1     -13.042  12.130  -9.469  1.00  0.00     0.167 HD
ATOM     63  C   UNL     1     -14.731  13.508  -7.647  1.00  0.00     0.074 A 
ATOM     64  C   UNL     1     -15.460  13.842  -6.440  1.00  0.00     0.031 C 
ATOM     65  C   UNL     1     -14.663  14.302  -8.744  1.00  0.00     0.034 A 
BRANCH  52  66
ATOM     66  C   UNL     1     -11.066  12.103 -13.260  1.00  0.00     0.023 A 
ATOM     67  C   UNL     1     -11.525  11.349 -14.359  1.00  0.00     0.012 A 
ATOM     68  C   UNL     1     -10.109  13.115 -13.469  1.00  0.00     0.148 A 
ATOM     69  C   UNL     1     -11.022  11.578 -15.639  1.00  0.00     0.002 A 
ATOM     70  C   UNL     1      -9.650  13.372 -14.755  1.00  0.00     0.091 A 
ATOM     71  F   UNL     1      -9.669  13.809 -12.409  1.00  0.00    -0.205 F 
ATOM     72  C   UNL     1     -10.096  12.597 -15.839  1.00  0.00     0.022 A 
BRANCH  70  73
ATOM     73  S   UNL     1      -8.526  14.722 -15.134  1.00  0.00     0.127 S 
ATOM     74  O   UNL     1      -7.314  13.998 -15.516  1.00  0.00    -0.237 OA
ATOM     75  O   UNL     1      -9.211  15.390 -16.241  1.00  0.00    -0.237 OA
ATOM     76  O   UNL     1      -8.420  15.512 -13.916  1.00  0.00    -0.744 OA
ENDBRANCH  70  73
ENDBRANCH  52  66
BRANCH  53  77
ATOM     77  C   UNL     1     -14.690  10.390  -4.103  1.00  0.00     0.023 A 
ATOM     78  C   UNL     1     -16.070  10.177  -3.918  1.00  0.00     0.012 A 
ATOM     79  C   UNL     1     -13.823  10.279  -2.998  1.00  0.00     0.148 A 
ATOM     80  C   UNL     1     -16.579   9.872  -2.655  1.00  0.00     0.002 A 
ATOM     81  C   UNL     1     -14.329   9.918  -1.755  1.00  0.00     0.091 A 
ATOM     82  F   UNL     1     -12.514  10.493  -3.196  1.00  0.00    -0.205 F 
ATOM     83  C   UNL     1     -15.708   9.729  -1.578  1.00  0.00     0.022 A 
BRANCH  81  84
ATOM     84  S   UNL     1     -13.272   9.571  -0.344  1.00  0.00     0.127 S 
ATOM     85  O   UNL     1     -13.655  10.630   0.586  1.00  0.00    -0.237 OA
ATOM     86  O   UNL     1     -13.714   8.228   0.035  1.00  0.00    -0.237 OA
ATOM     87  O   UNL     1     -11.906   9.637  -0.844  1.00  0.00    -0.744 OA
ENDBRANCH  81  84
ENDBRANCH  53  77
BRANCH  65  88
ATOM     88  C   UNL     1     -15.411  15.609  -8.724  1.00  0.00     0.023 A 
ATOM     89  C   UNL     1     -14.930  16.679  -7.944  1.00  0.00     0.012 A 
ATOM     90  C   UNL     1     -16.514  15.815  -9.577  1.00  0.00     0.148 A 
ATOM     91  C   UNL     1     -15.548  17.929  -8.000  1.00  0.00     0.002 A 
ATOM     92  C   UNL     1     -17.090  17.075  -9.668  1.00  0.00     0.091 A 
ATOM     93  F   UNL     1     -16.964  14.778 -10.299  1.00  0.00    -0.205 F 
ATOM     94  C   UNL     1     -16.616  18.131  -8.872  1.00  0.00     0.022 A 
BRANCH  92  95
ATOM     95  S   UNL     1     -18.397  17.460 -10.840  1.00  0.00     0.127 S 
ATOM     96  O   UNL     1     -19.535  17.690  -9.951  1.00  0.00    -0.237 OA
ATOM     97  O   UNL     1     -17.880  18.663 -11.493  1.00  0.00    -0.237 OA
ATOM     98  O   UNL     1     -18.513  16.298 -11.711  1.00  0.00    -0.744 OA
ENDBRANCH  92  95
ENDBRANCH  65  88
ENDBRANCH  39  40
ENDBRANCH  31  34
ENDBRANCH  29  30
ENDBRANCH  28  29
ENDBRANCH  27  28
ENDBRANCH   1  27
TORSDOF 20
