REMARK SMILES CC1(C)C[C@](CC(=O)NCCCCCCNC(=O)c2ccc(-c3c4nc(c(-c5cccc(S(=O)(=O)[O-])c5F)c5ccc([nH]5)c(-c5cccc(S(=O)(=O)[O-])c5F)c5nc(c(-c6cccc(S(=O)(=O)[O-])c6F)c6ccc3[nH]6)C=C5)C=C4)cc2)([NH+]2CCCC2)C(C)(C)O1
REMARK SMILES IDX 13 1 12 2 11 3 10 4 9 5 7 6 8 7 6 9 5 10 1 11 2 12 3 13 4 14
REMARK SMILES IDX 90 15 87 16 88 17 89 18 82 19 83 20 86 21 84 23 85 24 14 25
REMARK SMILES IDX 15 26 16 27 17 28 18 30 19 31 20 32 81 33 21 34 80 35 22 36
REMARK SMILES IDX 23 37 24 38 74 39 25 40 79 41 73 42 75 43 26 44 78 45 72 46
REMARK SMILES IDX 71 47 27 49 59 50 39 51 58 52 40 53 43 54 57 55 76 56 41 57
REMARK SMILES IDX 42 58 56 60 77 61 44 62 28 63 29 64 37 65 30 66 32 67 38 68
REMARK SMILES IDX 31 69 33 70 34 71 35 72 36 73 60 74 61 75 69 76 62 77 64 78
REMARK SMILES IDX 70 79 63 80 65 81 66 82 67 83 68 84 45 85 46 86 54 87 47 88
REMARK SMILES IDX 49 89 55 90 48 91 50 92 51 93 52 94 53 95
REMARK H PARENT 9 8 82 22 16 29 75 48 43 59
REMARK Flexibility Score: inf
ROOT
ATOM      1  C   UNL     1      -6.848   0.253  -4.319  1.00  0.00     0.002 C 
ENDROOT
BRANCH   1   2
ATOM      2  C   UNL     1      -5.722  -0.079  -5.303  1.00  0.00     0.002 C 
BRANCH   2   3
ATOM      3  C   UNL     1      -4.352  -0.339  -4.686  1.00  0.00     0.021 C 
BRANCH   3   4
ATOM      4  C   UNL     1      -4.273  -1.482  -3.677  1.00  0.00     0.116 C 
BRANCH   4   5
ATOM      5  N   UNL     1      -3.572  -2.635  -4.192  1.00  0.00    -0.356 N 
ATOM      6  C   UNL     1      -2.467  -3.303  -3.781  1.00  0.00     0.226 C 
ATOM      7  O   UNL     1      -2.300  -4.409  -4.316  1.00  0.00    -0.275 OA
ATOM      8  H   UNL     1      -3.979  -3.012  -5.006  1.00  0.00     0.163 HD
BRANCH   6   9
ATOM      9  C   UNL     1      -1.476  -2.836  -2.707  1.00  0.00     0.171 C 
BRANCH   9  10
ATOM     10  C   UNL     1      -0.466  -1.620  -2.845  1.00  0.00     0.138 C 
ATOM     11  C   UNL     1       1.050  -0.633   0.383  1.00  0.00     0.042 C 
ATOM     12  C   UNL     1       1.094  -0.560  -1.155  1.00  0.00     0.070 C 
ATOM     13  C   UNL     1       2.501  -0.060  -1.504  1.00  0.00     0.042 C 
ATOM     14  C   UNL     1       0.685  -1.895  -1.799  1.00  0.00     0.107 C 
ATOM     15  O   UNL     1       0.157   0.416  -1.623  1.00  0.00    -0.363 OA
ATOM     16  C   UNL     1      -0.993  -0.238  -2.235  1.00  0.00     0.118 C 
ATOM     17  C   UNL     1      -2.008  -0.332  -1.066  1.00  0.00     0.049 C 
ATOM     18  C   UNL     1      -1.498   0.759  -3.283  1.00  0.00     0.049 C 
BRANCH  10  19
ATOM     19  N   UNL     1       0.209  -1.605  -4.184  1.00  0.00    -0.327 N 
ATOM     20  C   UNL     1      -0.516  -1.926  -5.407  1.00  0.00     0.263 C 
ATOM     21  C   UNL     1       1.223  -0.606  -4.499  1.00  0.00     0.263 C 
ATOM     22  H   UNL     1       0.679  -2.458  -3.879  1.00  0.00     0.348 HD
ATOM     23  C   UNL     1       0.413  -1.541  -6.544  1.00  0.00     0.067 C 
ATOM     24  C   UNL     1       1.149  -0.346  -5.998  1.00  0.00     0.067 C 
ENDBRANCH  10  19
ENDBRANCH   9  10
ENDBRANCH   6   9
ENDBRANCH   4   5
ENDBRANCH   3   4
ENDBRANCH   2   3
ENDBRANCH   1   2
BRANCH   1  25
ATOM     25  C   UNL     1      -6.551   1.309  -3.248  1.00  0.00     0.021 C 
BRANCH  25  26
ATOM     26  C   UNL     1      -6.016   2.655  -3.739  1.00  0.00     0.116 C 
BRANCH  26  27
ATOM     27  N   UNL     1      -6.832   3.236  -4.788  1.00  0.00    -0.352 N 
ATOM     28  C   UNL     1      -7.599   4.372  -4.805  1.00  0.00     0.251 C 
ATOM     29  H   UNL     1      -6.837   2.727  -5.632  1.00  0.00     0.163 HD
ATOM     30  O   UNL     1      -8.349   4.570  -5.758  1.00  0.00    -0.269 OA
BRANCH  28  31
ATOM     31  C   UNL     1      -7.549   5.352  -3.697  1.00  0.00     0.039 A 
ATOM     32  C   UNL     1      -8.751   5.916  -3.257  1.00  0.00     0.014 A 
ATOM     33  C   UNL     1      -6.340   5.772  -3.135  1.00  0.00     0.014 A 
ATOM     34  C   UNL     1      -8.745   6.864  -2.231  1.00  0.00     0.010 A 
ATOM     35  C   UNL     1      -6.341   6.671  -2.067  1.00  0.00     0.010 A 
ATOM     36  C   UNL     1      -7.542   7.236  -1.610  1.00  0.00    -0.014 A 
BRANCH  36  37
ATOM     37  C   UNL     1      -7.536   8.203  -0.481  1.00  0.00     0.031 A 
ATOM     38  C   UNL     1      -6.855   9.539  -0.617  1.00  0.00     0.074 A 
ATOM     39  C   UNL     1      -8.087   7.848   0.698  1.00  0.00     0.049 A 
ATOM     40  N   UNL     1      -6.740  10.497   0.267  1.00  0.00    -0.248 NA
ATOM     41  C   UNL     1      -6.197   9.832  -1.901  1.00  0.00     0.031 C 
ATOM     42  C   UNL     1      -8.697   6.548   0.987  1.00  0.00     0.029 A 
ATOM     43  N   UNL     1      -8.195   8.535   1.882  1.00  0.00    -0.354 N 
ATOM     44  C   UNL     1      -5.965  11.483  -0.334  1.00  0.00     0.074 A 
ATOM     45  C   UNL     1      -5.622  11.001  -1.654  1.00  0.00     0.031 C 
ATOM     46  C   UNL     1      -9.107   6.529   2.266  1.00  0.00     0.029 A 
ATOM     47  C   UNL     1      -8.773   7.803   2.894  1.00  0.00     0.049 A 
ATOM     48  H   UNL     1      -7.889   9.463   1.996  1.00  0.00     0.167 HD
ATOM     49  C   UNL     1      -5.594  12.688   0.159  1.00  0.00     0.034 A 
ATOM     50  C   UNL     1      -9.001   8.117   4.185  1.00  0.00     0.034 A 
ATOM     51  C   UNL     1      -5.988  13.190   1.448  1.00  0.00     0.049 A 
ATOM     52  C   UNL     1      -8.644   9.494   4.678  1.00  0.00     0.074 A 
ATOM     53  C   UNL     1      -5.767  14.448   1.983  1.00  0.00     0.029 A 
ATOM     54  N   UNL     1      -6.673  12.462   2.407  1.00  0.00    -0.354 N 
ATOM     55  N   UNL     1      -8.089  10.485   4.025  1.00  0.00    -0.248 NA
ATOM     56  C   UNL     1      -8.984   9.812   6.074  1.00  0.00     0.031 C 
ATOM     57  C   UNL     1      -6.296  14.471   3.277  1.00  0.00     0.029 A 
ATOM     58  C   UNL     1      -6.869  13.237   3.537  1.00  0.00     0.049 A 
ATOM     59  H   UNL     1      -6.975  11.531   2.300  1.00  0.00     0.167 HD
ATOM     60  C   UNL     1      -8.044  11.552   4.916  1.00  0.00     0.074 A 
ATOM     61  C   UNL     1      -8.652  11.094   6.147  1.00  0.00     0.031 C 
ATOM     62  C   UNL     1      -7.529  12.793   4.736  1.00  0.00     0.034 A 
BRANCH  49  63
ATOM     63  C   UNL     1      -4.760  13.588  -0.714  1.00  0.00     0.023 A 
ATOM     64  C   UNL     1      -5.356  14.244  -1.809  1.00  0.00     0.012 A 
ATOM     65  C   UNL     1      -3.417  13.867  -0.388  1.00  0.00     0.148 A 
ATOM     66  C   UNL     1      -4.625  15.147  -2.580  1.00  0.00     0.002 A 
ATOM     67  C   UNL     1      -2.707  14.799  -1.136  1.00  0.00     0.091 A 
ATOM     68  F   UNL     1      -2.864  13.219   0.647  1.00  0.00    -0.205 F 
ATOM     69  C   UNL     1      -3.307  15.433  -2.236  1.00  0.00     0.022 A 
BRANCH  67  70
ATOM     70  S   UNL     1      -1.030  15.299  -0.728  1.00  0.00     0.127 S 
ATOM     71  O   UNL     1      -0.276  14.747  -1.853  1.00  0.00    -0.237 OA
ATOM     72  O   UNL     1      -1.137  16.758  -0.723  1.00  0.00    -0.237 OA
ATOM     73  O   UNL     1      -0.736  14.705   0.569  1.00  0.00    -0.744 OA
ENDBRANCH  67  70
ENDBRANCH  49  63
BRANCH  50  74
ATOM     74  C   UNL     1      -9.651   7.128   5.091  1.00  0.00     0.023 A 
ATOM     75  C   UNL     1     -10.963   7.359   5.547  1.00  0.00     0.012 A 
ATOM     76  C   UNL     1      -8.983   5.954   5.490  1.00  0.00     0.148 A 
ATOM     77  C   UNL     1     -11.584   6.460   6.416  1.00  0.00     0.002 A 
ATOM     78  C   UNL     1      -9.628   5.034   6.308  1.00  0.00     0.091 A 
ATOM     79  F   UNL     1      -7.729   5.757   5.060  1.00  0.00    -0.205 F 
ATOM     80  C   UNL     1     -10.921   5.293   6.788  1.00  0.00     0.022 A 
BRANCH  78  81
ATOM     81  S   UNL     1      -8.895   3.445   6.717  1.00  0.00     0.127 S 
ATOM     82  O   UNL     1      -8.436   3.669   8.084  1.00  0.00    -0.237 OA
ATOM     83  O   UNL     1     -10.036   2.538   6.589  1.00  0.00    -0.237 OA
ATOM     84  O   UNL     1      -7.854   3.233   5.718  1.00  0.00    -0.744 OA
ENDBRANCH  78  81
ENDBRANCH  50  74
BRANCH  62  85
ATOM     85  C   UNL     1      -7.627  13.766   5.881  1.00  0.00     0.023 A 
ATOM     86  C   UNL     1      -6.806  13.599   7.013  1.00  0.00     0.012 A 
ATOM     87  C   UNL     1      -8.472  14.891   5.798  1.00  0.00     0.148 A 
ATOM     88  C   UNL     1      -6.848  14.519   8.060  1.00  0.00     0.002 A 
ATOM     89  C   UNL     1      -8.472  15.829   6.823  1.00  0.00     0.091 A 
ATOM     90  F   UNL     1      -9.259  15.022   4.720  1.00  0.00    -0.205 F 
ATOM     91  C   UNL     1      -7.670  15.639   7.960  1.00  0.00     0.022 A 
BRANCH  89  92
ATOM     92  S   UNL     1      -9.425  17.350   6.733  1.00  0.00     0.127 S 
ATOM     93  O   UNL     1     -10.512  17.076   7.671  1.00  0.00    -0.237 OA
ATOM     94  O   UNL     1      -8.460  18.350   7.191  1.00  0.00    -0.237 OA
ATOM     95  O   UNL     1      -9.821  17.491   5.338  1.00  0.00    -0.744 OA
ENDBRANCH  89  92
ENDBRANCH  62  85
ENDBRANCH  36  37
ENDBRANCH  28  31
ENDBRANCH  26  27
ENDBRANCH  25  26
ENDBRANCH   1  25
TORSDOF 18
