REMARK SMILES O=C(/C=C/c1ccccc1Oc1cccc(Cl)c1)NCCCCCCNC(=O)c1ccc(-c2c3nc(c(-c4cccc(S(=O)(=O)[O-])c4F)c4ccc([nH]4)c(-c4cccc(S(=O)(=O)[O-])c4F)c4nc(c(-c5cccc(S(=O)(=O)[O-])c5F)c5ccc2[nH]5)C=C4)C=C3)cc1
REMARK SMILES IDX 22 1 21 2 20 3 19 4 1 5 2 6 3 8 4 9 5 10 6 11 10 12 7 13
REMARK SMILES IDX 9 14 8 15 11 16 12 17 13 18 18 19 14 20 16 21 15 22 17 23
REMARK SMILES IDX 23 24 24 25 25 26 26 27 27 28 28 30 29 31 30 32 91 33 31 34
REMARK SMILES IDX 90 35 32 36 33 37 34 38 84 39 35 40 89 41 83 42 85 43 36 44
REMARK SMILES IDX 88 45 82 46 81 47 37 49 69 50 49 51 68 52 50 53 53 54 67 55
REMARK SMILES IDX 86 56 51 57 52 58 66 60 87 61 54 62 38 63 39 64 47 65 40 66
REMARK SMILES IDX 42 67 48 68 41 69 43 70 44 71 45 72 46 73 70 74 71 75 79 76
REMARK SMILES IDX 72 77 74 78 80 79 73 80 75 81 76 82 77 83 78 84 55 85 56 86
REMARK SMILES IDX 64 87 57 88 59 89 65 90 58 91 60 92 61 93 62 94 63 95
REMARK H PARENT 19 7 26 29 85 48 53 59
REMARK Flexibility Score: inf
ROOT
ATOM      1  C   UNL     1       4.092   0.906   3.703  1.00  0.00     0.002 C 
ENDROOT
BRANCH   1   2
ATOM      2  C   UNL     1       2.586   0.660   3.540  1.00  0.00     0.021 C 
BRANCH   2   3
ATOM      3  C   UNL     1       2.020   1.102   2.192  1.00  0.00     0.116 C 
BRANCH   3   4
ATOM      4  N   UNL     1       2.665   0.411   1.096  1.00  0.00    -0.353 N 
ATOM      5  O   UNL     1       1.202  -1.359   1.010  1.00  0.00    -0.270 OA
ATOM      6  C   UNL     1       2.216  -0.791   0.618  1.00  0.00     0.244 C 
ATOM      7  H   UNL     1       3.456   0.821   0.677  1.00  0.00     0.163 HD
BRANCH   6   8
ATOM      8  C   UNL     1       3.000  -1.384  -0.496  1.00  0.00     0.072 C 
ATOM      9  C   UNL     1       4.261  -1.056  -0.811  1.00  0.00     0.017 C 
BRANCH   9  10
ATOM     10  C   UNL     1       4.962  -1.597  -1.982  1.00  0.00     0.017 A 
ATOM     11  C   UNL     1       6.085  -2.392  -1.677  1.00  0.00     0.012 A 
ATOM     12  C   UNL     1       4.637  -1.373  -3.335  1.00  0.00     0.134 A 
ATOM     13  C   UNL     1       6.857  -2.979  -2.681  1.00  0.00     0.001 A 
ATOM     14  C   UNL     1       5.421  -1.982  -4.333  1.00  0.00     0.048 A 
ATOM     15  C   UNL     1       6.521  -2.777  -4.013  1.00  0.00     0.004 A 
BRANCH  12  16
ATOM     16  O   UNL     1       3.587  -0.663  -3.886  1.00  0.00    -0.457 OA
BRANCH  16  17
ATOM     17  C   UNL     1       2.891   0.275  -3.173  1.00  0.00     0.128 A 
ATOM     18  C   UNL     1       1.505   0.104  -3.102  1.00  0.00     0.047 A 
ATOM     19  C   UNL     1       3.495   1.388  -2.590  1.00  0.00     0.067 A 
ATOM     20  C   UNL     1       0.727   0.996  -2.366  1.00  0.00     0.005 A 
ATOM     21  C   UNL     1       2.712   2.267  -1.843  1.00  0.00     0.044 A 
ATOM     22  C   UNL     1       1.334   2.073  -1.722  1.00  0.00     0.021 A 
ATOM     23  Cl  UNL     1       3.463   3.568  -1.003  1.00  0.00    -0.084 Cl
ENDBRANCH  16  17
ENDBRANCH  12  16
ENDBRANCH   9  10
ENDBRANCH   6   8
ENDBRANCH   3   4
ENDBRANCH   2   3
ENDBRANCH   1   2
BRANCH   1  24
ATOM     24  C   UNL     1       4.531   2.371   3.614  1.00  0.00     0.002 C 
BRANCH  24  25
ATOM     25  C   UNL     1       3.866   3.315   4.618  1.00  0.00     0.021 C 
BRANCH  25  26
ATOM     26  C   UNL     1       4.011   2.912   6.083  1.00  0.00     0.116 C 
BRANCH  26  27
ATOM     27  N   UNL     1       5.400   2.875   6.516  1.00  0.00    -0.352 N 
ATOM     28  C   UNL     1       5.980   3.426   7.630  1.00  0.00     0.251 C 
ATOM     29  H   UNL     1       6.013   2.383   5.923  1.00  0.00     0.163 HD
ATOM     30  O   UNL     1       7.206   3.426   7.742  1.00  0.00    -0.269 OA
BRANCH  28  31
ATOM     31  C   UNL     1       5.142   4.039   8.685  1.00  0.00     0.039 A 
ATOM     32  C   UNL     1       5.546   5.255   9.243  1.00  0.00     0.014 A 
ATOM     33  C   UNL     1       3.971   3.421   9.132  1.00  0.00     0.014 A 
ATOM     34  C   UNL     1       4.748   5.875  10.207  1.00  0.00     0.010 A 
ATOM     35  C   UNL     1       3.137   4.079  10.034  1.00  0.00     0.010 A 
ATOM     36  C   UNL     1       3.519   5.310  10.588  1.00  0.00    -0.014 A 
BRANCH  36  37
ATOM     37  C   UNL     1       2.621   6.014  11.541  1.00  0.00     0.031 A 
ATOM     38  C   UNL     1       2.271   5.403  12.871  1.00  0.00     0.074 A 
ATOM     39  C   UNL     1       2.067   7.189  11.179  1.00  0.00     0.049 A 
ATOM     40  N   UNL     1       1.533   5.893  13.834  1.00  0.00    -0.248 NA
ATOM     41  C   UNL     1       2.796   4.056  13.148  1.00  0.00     0.031 C 
ATOM     42  C   UNL     1       2.256   7.848   9.884  1.00  0.00     0.029 A 
ATOM     43  N   UNL     1       1.225   8.033  11.860  1.00  0.00    -0.354 N 
ATOM     44  C   UNL     1       1.473   4.907  14.811  1.00  0.00     0.074 A 
ATOM     45  C   UNL     1       2.224   3.776  14.310  1.00  0.00     0.031 C 
ATOM     46  C   UNL     1       1.577   9.005   9.876  1.00  0.00     0.029 A 
ATOM     47  C   UNL     1       0.879   9.158  11.149  1.00  0.00     0.049 A 
ATOM     48  H   UNL     1       0.900   7.849  12.771  1.00  0.00     0.167 HD
ATOM     49  C   UNL     1       0.870   4.944  16.024  1.00  0.00     0.034 A 
ATOM     50  C   UNL     1       0.094  10.200  11.485  1.00  0.00     0.034 A 
ATOM     51  C   UNL     1       0.151   6.083  16.532  1.00  0.00     0.049 A 
ATOM     52  C   UNL     1      -0.530  10.234  12.853  1.00  0.00     0.074 A 
ATOM     53  C   UNL     1      -0.403   6.261  17.788  1.00  0.00     0.029 A 
ATOM     54  N   UNL     1      -0.134   7.229  15.806  1.00  0.00    -0.354 N 
ATOM     55  N   UNL     1      -0.422   9.371  13.834  1.00  0.00    -0.248 NA
ATOM     56  C   UNL     1      -1.355  11.408  13.173  1.00  0.00     0.031 C 
ATOM     57  C   UNL     1      -1.060   7.497  17.806  1.00  0.00     0.029 A 
ATOM     58  C   UNL     1      -0.878   8.108  16.576  1.00  0.00     0.049 A 
ATOM     59  H   UNL     1       0.150   7.394  14.878  1.00  0.00     0.167 HD
ATOM     60  C   UNL     1      -1.135   9.913  14.898  1.00  0.00     0.074 A 
ATOM     61  C   UNL     1      -1.646  11.192  14.448  1.00  0.00     0.031 C 
ATOM     62  C   UNL     1      -1.356   9.394  16.132  1.00  0.00     0.034 A 
BRANCH  49  63
ATOM     63  C   UNL     1       0.987   3.723  16.902  1.00  0.00     0.023 A 
ATOM     64  C   UNL     1       2.233   3.375  17.463  1.00  0.00     0.012 A 
ATOM     65  C   UNL     1      -0.146   2.942  17.207  1.00  0.00     0.148 A 
ATOM     66  C   UNL     1       2.360   2.248  18.274  1.00  0.00     0.002 A 
ATOM     67  C   UNL     1      -0.022   1.849  18.057  1.00  0.00     0.091 A 
ATOM     68  F   UNL     1      -1.320   3.273  16.650  1.00  0.00    -0.205 F 
ATOM     69  C   UNL     1       1.232   1.492  18.579  1.00  0.00     0.022 A 
BRANCH  67  70
ATOM     70  S   UNL     1      -1.431   0.864  18.578  1.00  0.00     0.127 S 
ATOM     71  O   UNL     1      -1.211  -0.378  17.838  1.00  0.00    -0.237 OA
ATOM     72  O   UNL     1      -1.217   0.759  20.021  1.00  0.00    -0.237 OA
ATOM     73  O   UNL     1      -2.614   1.621  18.194  1.00  0.00    -0.744 OA
ENDBRANCH  67  70
ENDBRANCH  49  63
BRANCH  50  74
ATOM     74  C   UNL     1      -0.077  11.339  10.539  1.00  0.00     0.023 A 
ATOM     75  C   UNL     1       0.507  12.583  10.848  1.00  0.00     0.012 A 
ATOM     76  C   UNL     1      -0.787  11.194   9.332  1.00  0.00     0.148 A 
ATOM     77  C   UNL     1       0.361  13.672   9.987  1.00  0.00     0.002 A 
ATOM     78  C   UNL     1      -0.881  12.266   8.453  1.00  0.00     0.091 A 
ATOM     79  F   UNL     1      -1.341  10.004   9.061  1.00  0.00    -0.205 F 
ATOM     80  C   UNL     1      -0.324  13.511   8.786  1.00  0.00     0.022 A 
BRANCH  78  81
ATOM     81  S   UNL     1      -1.632  12.120   6.828  1.00  0.00     0.127 S 
ATOM     82  O   UNL     1      -2.810  12.974   6.965  1.00  0.00    -0.237 OA
ATOM     83  O   UNL     1      -0.580  12.655   5.963  1.00  0.00    -0.237 OA
ATOM     84  O   UNL     1      -1.902  10.701   6.642  1.00  0.00    -0.744 OA
ENDBRANCH  78  81
ENDBRANCH  50  74
BRANCH  62  85
ATOM     85  C   UNL     1      -2.164  10.223  17.098  1.00  0.00     0.023 A 
ATOM     86  C   UNL     1      -3.542  10.425  16.874  1.00  0.00     0.012 A 
ATOM     87  C   UNL     1      -1.567  10.774  18.249  1.00  0.00     0.148 A 
ATOM     88  C   UNL     1      -4.298  11.202  17.751  1.00  0.00     0.002 A 
ATOM     89  C   UNL     1      -2.339  11.500  19.148  1.00  0.00     0.091 A 
ATOM     90  F   UNL     1      -0.252  10.589  18.440  1.00  0.00    -0.205 F 
ATOM     91  C   UNL     1      -3.700  11.730  18.892  1.00  0.00     0.022 A 
BRANCH  89  92
ATOM     92  S   UNL     1      -1.675  12.131  20.694  1.00  0.00     0.127 S 
ATOM     93  O   UNL     1      -1.571  13.561  20.411  1.00  0.00    -0.237 OA
ATOM     94  O   UNL     1      -2.723  11.773  21.651  1.00  0.00    -0.237 OA
ATOM     95  O   UNL     1      -0.411  11.438  20.898  1.00  0.00    -0.744 OA
ENDBRANCH  89  92
ENDBRANCH  62  85
ENDBRANCH  36  37
ENDBRANCH  28  31
ENDBRANCH  26  27
ENDBRANCH  25  26
ENDBRANCH  24  25
ENDBRANCH   1  24
TORSDOF 19
