REMARK SMILES O=C(NCCCCCCNC(=O)c1ccc(COc2cccc(Cl)c2Cl)o1)c1ccc(-c2c3nc(c(-c4cccc(S(=O)(=O)[O-])c4F)c4ccc([nH]4)c(-c4cccc(S(=O)(=O)[O-])c4F)c4nc(c(-c5cccc(S(=O)(=O)[O-])c5F)c5ccc2[nH]5)C=C4)C=C3)cc1
REMARK SMILES IDX 6 1 5 2 4 3 3 4 1 5 2 6 28 8 29 9 90 10 30 11 89 12 31 13
REMARK SMILES IDX 32 14 33 15 83 16 34 17 88 18 82 19 84 20 35 21 87 22 81 23
REMARK SMILES IDX 80 24 36 26 68 27 48 28 67 29 49 30 52 31 66 32 85 33 50 34
REMARK SMILES IDX 51 35 65 37 86 38 53 39 37 40 38 41 46 42 39 43 41 44 47 45
REMARK SMILES IDX 40 46 42 47 43 48 44 49 45 50 69 51 70 52 78 53 71 54 73 55
REMARK SMILES IDX 79 56 72 57 74 58 75 59 76 60 77 61 54 62 55 63 63 64 56 65
REMARK SMILES IDX 58 66 64 67 57 68 59 69 60 70 61 71 62 72 7 73 8 74 9 75
REMARK SMILES IDX 10 76 11 77 12 79 13 80 14 81 27 82 15 83 16 84 17 85 18 86
REMARK SMILES IDX 19 87 20 88 25 89 21 90 23 91 26 92 22 93 24 94
REMARK H PARENT 3 7 84 25 52 36 10 78
REMARK Flexibility Score: inf
ROOT
ATOM      1  C   UNL     1       4.073  -1.449   3.480  1.00  0.00     0.002 C 
ENDROOT
BRANCH   1   2
ATOM      2  C   UNL     1       4.548  -0.349   2.528  1.00  0.00     0.021 C 
BRANCH   2   3
ATOM      3  C   UNL     1       4.334  -0.632   1.045  1.00  0.00     0.116 C 
BRANCH   3   4
ATOM      4  N   UNL     1       2.931  -0.788   0.714  1.00  0.00    -0.352 N 
ATOM      5  O   UNL     1       0.958  -0.258  -0.223  1.00  0.00    -0.269 OA
ATOM      6  C   UNL     1       2.177  -0.114  -0.213  1.00  0.00     0.251 C 
ATOM      7  H   UNL     1       2.451  -1.478   1.227  1.00  0.00     0.163 HD
BRANCH   6   8
ATOM      8  C   UNL     1       2.829   0.800  -1.176  1.00  0.00     0.039 A 
ATOM      9  C   UNL     1       3.977   0.414  -1.879  1.00  0.00     0.014 A 
ATOM     10  C   UNL     1       2.257   2.054  -1.402  1.00  0.00     0.014 A 
ATOM     11  C   UNL     1       4.606   1.318  -2.733  1.00  0.00     0.010 A 
ATOM     12  C   UNL     1       2.856   2.937  -2.301  1.00  0.00     0.010 A 
ATOM     13  C   UNL     1       4.046   2.584  -2.957  1.00  0.00    -0.014 A 
BRANCH  13  14
ATOM     14  C   UNL     1       4.659   3.520  -3.932  1.00  0.00     0.031 A 
ATOM     15  C   UNL     1       5.255   4.821  -3.478  1.00  0.00     0.074 A 
ATOM     16  C   UNL     1       4.604   3.220  -5.244  1.00  0.00     0.049 A 
ATOM     17  N   UNL     1       5.753   5.792  -4.198  1.00  0.00    -0.248 NA
ATOM     18  C   UNL     1       5.287   5.069  -2.028  1.00  0.00     0.031 C 
ATOM     19  C   UNL     1       4.003   2.008  -5.802  1.00  0.00     0.029 A 
ATOM     20  N   UNL     1       5.021   3.925  -6.343  1.00  0.00    -0.354 N 
ATOM     21  C   UNL     1       6.118   6.785  -3.298  1.00  0.00     0.074 A 
ATOM     22  C   UNL     1       5.784   6.298  -1.976  1.00  0.00     0.031 C 
ATOM     23  C   UNL     1       4.070   2.063  -7.140  1.00  0.00     0.029 A 
ATOM     24  C   UNL     1       4.680   3.329  -7.534  1.00  0.00     0.049 A 
ATOM     25  H   UNL     1       5.516   4.775  -6.286  1.00  0.00     0.167 HD
ATOM     26  C   UNL     1       6.693   7.985  -3.550  1.00  0.00     0.034 A 
ATOM     27  C   UNL     1       4.814   3.762  -8.803  1.00  0.00     0.034 A 
ATOM     28  C   UNL     1       7.056   8.446  -4.863  1.00  0.00     0.049 A 
ATOM     29  C   UNL     1       5.479   5.084  -9.057  1.00  0.00     0.074 A 
ATOM     30  C   UNL     1       7.721   9.608  -5.213  1.00  0.00     0.029 A 
ATOM     31  N   UNL     1       6.777   7.773  -6.043  1.00  0.00    -0.354 N 
ATOM     32  N   UNL     1       5.955   5.943  -8.189  1.00  0.00    -0.248 NA
ATOM     33  C   UNL     1       5.655   5.484 -10.460  1.00  0.00     0.031 C 
ATOM     34  C   UNL     1       7.834   9.643  -6.607  1.00  0.00     0.029 A 
ATOM     35  C   UNL     1       7.248   8.498  -7.125  1.00  0.00     0.049 A 
ATOM     36  H   UNL     1       6.313   6.907  -6.103  1.00  0.00     0.167 HD
ATOM     37  C   UNL     1       6.511   6.973  -8.937  1.00  0.00     0.074 A 
ATOM     38  C   UNL     1       6.326   6.623 -10.331  1.00  0.00     0.031 C 
ATOM     39  C   UNL     1       7.108   8.111  -8.506  1.00  0.00     0.034 A 
BRANCH  26  40
ATOM     40  C   UNL     1       7.009   8.868  -2.373  1.00  0.00     0.023 A 
ATOM     41  C   UNL     1       8.111   8.556  -1.552  1.00  0.00     0.012 A 
ATOM     42  C   UNL     1       6.255  10.027  -2.107  1.00  0.00     0.148 A 
ATOM     43  C   UNL     1       8.441   9.368  -0.467  1.00  0.00     0.002 A 
ATOM     44  C   UNL     1       6.611  10.850  -1.043  1.00  0.00     0.091 A 
ATOM     45  F   UNL     1       5.192  10.295  -2.878  1.00  0.00    -0.205 F 
ATOM     46  C   UNL     1       7.698  10.519  -0.218  1.00  0.00     0.022 A 
BRANCH  44  47
ATOM     47  S   UNL     1       5.739  12.384  -0.702  1.00  0.00     0.127 S 
ATOM     48  O   UNL     1       4.772  11.958   0.306  1.00  0.00    -0.237 OA
ATOM     49  O   UNL     1       6.805  13.250  -0.194  1.00  0.00    -0.237 OA
ATOM     50  O   UNL     1       5.186  12.805  -1.982  1.00  0.00    -0.744 OA
ENDBRANCH  44  47
ENDBRANCH  26  40
BRANCH  27  51
ATOM     51  C   UNL     1       4.342   2.892  -9.914  1.00  0.00     0.023 A 
ATOM     52  C   UNL     1       5.285   2.210 -10.706  1.00  0.00     0.012 A 
ATOM     53  C   UNL     1       2.968   2.654 -10.118  1.00  0.00     0.148 A 
ATOM     54  C   UNL     1       4.868   1.310 -11.687  1.00  0.00     0.002 A 
ATOM     55  C   UNL     1       2.561   1.716 -11.059  1.00  0.00     0.091 A 
ATOM     56  F   UNL     1       2.089   3.323  -9.359  1.00  0.00    -0.205 F 
ATOM     57  C   UNL     1       3.509   1.051 -11.853  1.00  0.00     0.022 A 
BRANCH  55  58
ATOM     58  S   UNL     1       0.846   1.211 -11.238  1.00  0.00     0.127 S 
ATOM     59  O   UNL     1       0.500   1.784 -12.536  1.00  0.00    -0.237 OA
ATOM     60  O   UNL     1       0.957  -0.248 -11.219  1.00  0.00    -0.237 OA
ATOM     61  O   UNL     1       0.148   1.775 -10.091  1.00  0.00    -0.744 OA
ENDBRANCH  55  58
ENDBRANCH  27  51
BRANCH  39  62
ATOM     62  C   UNL     1       7.634   9.064  -9.544  1.00  0.00     0.023 A 
ATOM     63  C   UNL     1       6.737   9.901 -10.234  1.00  0.00     0.012 A 
ATOM     64  C   UNL     1       9.020   9.205  -9.755  1.00  0.00     0.148 A 
ATOM     65  C   UNL     1       7.211  10.858 -11.131  1.00  0.00     0.002 A 
ATOM     66  C   UNL     1       9.487  10.187 -10.620  1.00  0.00     0.091 A 
ATOM     67  F   UNL     1       9.853   8.382  -9.101  1.00  0.00    -0.205 F 
ATOM     68  C   UNL     1       8.584  11.010 -11.314  1.00  0.00     0.022 A 
BRANCH  66  69
ATOM     69  S   UNL     1      11.239  10.512 -10.851  1.00  0.00     0.127 S 
ATOM     70  O   UNL     1      11.467   9.980 -12.193  1.00  0.00    -0.237 OA
ATOM     71  O   UNL     1      11.300  11.971 -10.754  1.00  0.00    -0.237 OA
ATOM     72  O   UNL     1      11.922   9.807  -9.775  1.00  0.00    -0.744 OA
ENDBRANCH  66  69
ENDBRANCH  39  62
ENDBRANCH  13  14
ENDBRANCH   6   8
ENDBRANCH   3   4
ENDBRANCH   2   3
ENDBRANCH   1   2
BRANCH   1  73
ATOM     73  C   UNL     1       4.621  -2.852   3.200  1.00  0.00     0.002 C 
BRANCH  73  74
ATOM     74  C   UNL     1       6.142  -2.950   3.047  1.00  0.00     0.021 C 
BRANCH  74  75
ATOM     75  C   UNL     1       6.947  -2.392   4.217  1.00  0.00     0.116 C 
BRANCH  75  76
ATOM     76  N   UNL     1       6.766  -3.187   5.415  1.00  0.00    -0.349 N 
ATOM     77  C   UNL     1       7.714  -3.834   6.165  1.00  0.00     0.286 C 
ATOM     78  H   UNL     1       5.838  -3.273   5.734  1.00  0.00     0.163 HD
ATOM     79  O   UNL     1       7.312  -4.641   7.013  1.00  0.00    -0.266 OA
BRANCH  77  80
ATOM     80  C   UNL     1       9.112  -3.539   5.953  1.00  0.00     0.191 A 
ATOM     81  C   UNL     1       9.807  -2.362   5.728  1.00  0.00     0.057 A 
ATOM     82  O   UNL     1      10.004  -4.571   6.041  1.00  0.00    -0.452 OA
ATOM     83  C   UNL     1      11.181  -2.697   5.666  1.00  0.00     0.050 A 
ATOM     84  C   UNL     1      11.256  -4.055   5.894  1.00  0.00     0.142 A 
BRANCH  84  85
ATOM     85  C   UNL     1      12.390  -4.996   6.092  1.00  0.00     0.304 C 
BRANCH  85  86
ATOM     86  O   UNL     1      12.161  -5.778   7.280  1.00  0.00    -0.484 OA
BRANCH  86  87
ATOM     87  C   UNL     1      12.552  -5.127   8.425  1.00  0.00     0.140 A 
ATOM     88  C   UNL     1      11.659  -4.231   9.025  1.00  0.00     0.048 A 
ATOM     89  C   UNL     1      13.771  -5.431   9.043  1.00  0.00     0.101 A 
ATOM     90  C   UNL     1      12.006  -3.574  10.201  1.00  0.00     0.005 A 
ATOM     91  C   UNL     1      14.104  -4.784  10.241  1.00  0.00     0.063 A 
ATOM     92  Cl  UNL     1      14.830  -6.593   8.316  1.00  0.00    -0.079 Cl
ATOM     93  C   UNL     1      13.229  -3.849  10.809  1.00  0.00     0.022 A 
ATOM     94  Cl  UNL     1      15.581  -5.100  11.086  1.00  0.00    -0.083 Cl
ENDBRANCH  86  87
ENDBRANCH  85  86
ENDBRANCH  84  85
ENDBRANCH  77  80
ENDBRANCH  75  76
ENDBRANCH  74  75
ENDBRANCH  73  74
ENDBRANCH   1  73
TORSDOF 19
