REMARK SMILES CCc1cc(OC(F)(F)F)cc2c1O[C@H](C(F)(F)F)C(C(=O)NCCCCCCNC(=O)c1ccc(-c3c4nc(c(-c5cccc(S(=O)(=O)[O-])c5F)c5ccc([nH]5)c(-c5cccc(S(=O)(=O)[O-])c5F)c5nc(c(-c6cccc(S(=O)(=O)[O-])c6F)c6ccc3[nH]6)C=C5)C=C4)cc1)=C2
REMARK SMILES IDX 27 1 26 2 25 3 24 4 23 5 21 6 22 7 20 9 3 10 4 11 13 12 5 13
REMARK SMILES IDX 12 14 14 15 11 16 96 17 15 18 2 19 1 20 6 21 7 22 8 23 9 24
REMARK SMILES IDX 10 25 16 26 17 27 18 28 19 29 28 30 29 31 30 32 31 33 32 35
REMARK SMILES IDX 33 36 34 37 95 38 35 39 94 40 36 41 37 42 38 43 88 44 39 45
REMARK SMILES IDX 93 46 87 47 89 48 40 49 92 50 86 51 85 52 41 54 73 55 53 56
REMARK SMILES IDX 72 57 54 58 57 59 71 60 90 61 55 62 56 63 70 65 91 66 58 67
REMARK SMILES IDX 42 68 43 69 51 70 44 71 46 72 52 73 45 74 47 75 48 76 49 77
REMARK SMILES IDX 50 78 74 79 75 80 83 81 76 82 78 83 84 84 77 85 79 86 80 87
REMARK SMILES IDX 81 88 82 89 59 90 60 91 68 92 61 93 63 94 69 95 62 96 64 97
REMARK SMILES IDX 65 98 66 99 67 100
REMARK H PARENT 23 8 30 34 89 53 57 64
REMARK Flexibility Score: inf
ROOT
ATOM      1  C   UNL     1       2.982   0.175  10.501  1.00  0.00     0.002 C 
ENDROOT
BRANCH   1   2
ATOM      2  C   UNL     1       3.964   0.163   9.323  1.00  0.00     0.002 C 
BRANCH   2   3
ATOM      3  C   UNL     1       3.437  -0.541   8.065  1.00  0.00     0.021 C 
BRANCH   3   4
ATOM      4  C   UNL     1       2.201   0.146   7.481  1.00  0.00     0.116 C 
BRANCH   4   5
ATOM      5  N   UNL     1       2.610   1.286   6.685  1.00  0.00    -0.352 N 
ATOM      6  C   UNL     1       2.852   1.443   5.362  1.00  0.00     0.251 C 
ATOM      7  O   UNL     1       3.247   2.547   4.988  1.00  0.00    -0.270 OA
ATOM      8  H   UNL     1       2.739   2.108   7.210  1.00  0.00     0.163 HD
BRANCH   6   9
ATOM      9  C   UNL     1       2.542   0.400   4.345  1.00  0.00     0.067 C 
ATOM     10  C   UNL     1       0.880  -1.925   1.252  1.00  0.00    -0.002 A 
ATOM     11  C   UNL     1       0.773  -3.320   1.455  1.00  0.00     0.054 A 
ATOM     12  C   UNL     1       1.447  -1.150   2.275  1.00  0.00     0.131 A 
ATOM     13  C   UNL     1       1.230  -3.926   2.627  1.00  0.00     0.130 A 
ATOM     14  C   UNL     1       1.931  -1.751   3.446  1.00  0.00     0.021 A 
ATOM     15  O   UNL     1       1.431   0.211   2.143  1.00  0.00    -0.475 OA
ATOM     16  C   UNL     1       1.817  -3.134   3.614  1.00  0.00     0.058 A 
ATOM     17  C   UNL     1       2.439  -0.922   4.539  1.00  0.00     0.025 C 
ATOM     18  C   UNL     1       2.380   0.958   2.944  1.00  0.00     0.314 C 
BRANCH  10  19
ATOM     19  C   UNL     1       0.307  -1.384  -0.045  1.00  0.00     0.036 C 
ATOM     20  C   UNL     1       0.759  -0.015  -0.538  1.00  0.00     0.009 C 
ENDBRANCH  10  19
BRANCH  13  21
ATOM     21  O   UNL     1       1.147  -5.251   2.945  1.00  0.00    -0.406 OA
BRANCH  21  22
ATOM     22  C   UNL     1       0.591  -6.134   1.986  1.00  0.00     0.573 C 
ATOM     23  F   UNL     1      -0.688  -5.805   1.700  1.00  0.00    -0.132 F 
ATOM     24  F   UNL     1       1.318  -6.125   0.847  1.00  0.00    -0.132 F 
ATOM     25  F   UNL     1       0.605  -7.389   2.483  1.00  0.00    -0.132 F 
ENDBRANCH  21  22
ENDBRANCH  13  21
BRANCH  18  26
ATOM     26  C   UNL     1       3.730   1.080   2.207  1.00  0.00     0.429 C 
ATOM     27  F   UNL     1       4.416  -0.088   2.190  1.00  0.00    -0.167 F 
ATOM     28  F   UNL     1       3.546   1.446   0.912  1.00  0.00    -0.167 F 
ATOM     29  F   UNL     1       4.548   2.009   2.750  1.00  0.00    -0.167 F 
ENDBRANCH  18  26
ENDBRANCH   6   9
ENDBRANCH   4   5
ENDBRANCH   3   4
ENDBRANCH   2   3
ENDBRANCH   1   2
BRANCH   1  30
ATOM     30  C   UNL     1       2.466  -1.206  10.914  1.00  0.00     0.021 C 
BRANCH  30  31
ATOM     31  C   UNL     1       3.561  -2.159  11.379  1.00  0.00     0.116 C 
BRANCH  31  32
ATOM     32  N   UNL     1       4.214  -1.666  12.582  1.00  0.00    -0.352 N 
ATOM     33  C   UNL     1       4.304  -2.256  13.818  1.00  0.00     0.251 C 
ATOM     34  H   UNL     1       4.651  -0.788  12.498  1.00  0.00     0.163 HD
ATOM     35  O   UNL     1       4.648  -1.595  14.792  1.00  0.00    -0.269 OA
BRANCH  33  36
ATOM     36  C   UNL     1       3.981  -3.690  13.963  1.00  0.00     0.039 A 
ATOM     37  C   UNL     1       3.202  -4.107  15.044  1.00  0.00     0.014 A 
ATOM     38  C   UNL     1       4.460  -4.620  13.035  1.00  0.00     0.014 A 
ATOM     39  C   UNL     1       2.865  -5.456  15.169  1.00  0.00     0.010 A 
ATOM     40  C   UNL     1       4.059  -5.949  13.120  1.00  0.00     0.010 A 
ATOM     41  C   UNL     1       3.269  -6.383  14.194  1.00  0.00    -0.014 A 
BRANCH  41  42
ATOM     42  C   UNL     1       2.875  -7.811  14.280  1.00  0.00     0.031 A 
ATOM     43  C   UNL     1       3.925  -8.879  14.428  1.00  0.00     0.074 A 
ATOM     44  C   UNL     1       1.579  -8.151  14.140  1.00  0.00     0.049 A 
ATOM     45  N   UNL     1       3.779 -10.178  14.467  1.00  0.00    -0.248 NA
ATOM     46  C   UNL     1       5.326  -8.432  14.514  1.00  0.00     0.031 C 
ATOM     47  C   UNL     1       0.478  -7.212  13.911  1.00  0.00     0.029 A 
ATOM     48  N   UNL     1       0.970  -9.381  14.142  1.00  0.00    -0.354 N 
ATOM     49  C   UNL     1       5.063 -10.703  14.547  1.00  0.00     0.074 A 
ATOM     50  C   UNL     1       5.979  -9.585  14.514  1.00  0.00     0.031 C 
ATOM     51  C   UNL     1      -0.670  -7.899  13.800  1.00  0.00     0.029 A 
ATOM     52  C   UNL     1      -0.386  -9.326  13.917  1.00  0.00     0.049 A 
ATOM     53  H   UNL     1       1.458 -10.223  14.291  1.00  0.00     0.167 HD
ATOM     54  C   UNL     1       5.445 -11.996  14.668  1.00  0.00     0.034 A 
ATOM     55  C   UNL     1      -1.296 -10.313  13.807  1.00  0.00     0.034 A 
ATOM     56  C   UNL     1       4.528 -13.101  14.741  1.00  0.00     0.049 A 
ATOM     57  C   UNL     1      -0.849 -11.739  13.980  1.00  0.00     0.074 A 
ATOM     58  C   UNL     1       4.808 -14.439  14.955  1.00  0.00     0.029 A 
ATOM     59  N   UNL     1       3.153 -13.000  14.592  1.00  0.00    -0.354 N 
ATOM     60  N   UNL     1       0.353 -12.204  14.220  1.00  0.00    -0.248 NA
ATOM     61  C   UNL     1      -1.889 -12.775  13.904  1.00  0.00     0.031 C 
ATOM     62  C   UNL     1       3.605 -15.151  14.906  1.00  0.00     0.029 A 
ATOM     63  C   UNL     1       2.572 -14.252  14.695  1.00  0.00     0.049 A 
ATOM     64  H   UNL     1       2.663 -12.161  14.436  1.00  0.00     0.167 HD
ATOM     65  C   UNL     1       0.210 -13.580  14.357  1.00  0.00     0.074 A 
ATOM     66  C   UNL     1      -1.200 -13.870  14.197  1.00  0.00     0.031 C 
ATOM     67  C   UNL     1       1.161 -14.520  14.582  1.00  0.00     0.034 A 
BRANCH  54  68
ATOM     68  C   UNL     1       6.920 -12.285  14.777  1.00  0.00     0.023 A 
ATOM     69  C   UNL     1       7.616 -11.925  15.950  1.00  0.00     0.012 A 
ATOM     70  C   UNL     1       7.605 -12.961  13.748  1.00  0.00     0.148 A 
ATOM     71  C   UNL     1       8.976 -12.200  16.083  1.00  0.00     0.002 A 
ATOM     72  C   UNL     1       8.950 -13.274  13.908  1.00  0.00     0.091 A 
ATOM     73  F   UNL     1       6.933 -13.277  12.632  1.00  0.00    -0.205 F 
ATOM     74  C   UNL     1       9.640 -12.883  15.068  1.00  0.00     0.022 A 
BRANCH  72  75
ATOM     75  S   UNL     1       9.876 -14.221  12.695  1.00  0.00     0.127 S 
ATOM     76  O   UNL     1      10.779 -13.206  12.154  1.00  0.00    -0.237 OA
ATOM     77  O   UNL     1      10.527 -15.233  13.528  1.00  0.00    -0.237 OA
ATOM     78  O   UNL     1       8.893 -14.745  11.758  1.00  0.00    -0.744 OA
ENDBRANCH  72  75
ENDBRANCH  54  68
BRANCH  55  79
ATOM     79  C   UNL     1      -2.731  -9.982  13.579  1.00  0.00     0.023 A 
ATOM     80  C   UNL     1      -3.664 -10.198  14.612  1.00  0.00     0.012 A 
ATOM     81  C   UNL     1      -3.170  -9.429  12.361  1.00  0.00     0.148 A 
ATOM     82  C   UNL     1      -5.015  -9.905  14.423  1.00  0.00     0.002 A 
ATOM     83  C   UNL     1      -4.507  -9.085  12.199  1.00  0.00     0.091 A 
ATOM     84  F   UNL     1      -2.268  -9.239  11.388  1.00  0.00    -0.205 F 
ATOM     85  C   UNL     1      -5.435  -9.339  13.221  1.00  0.00     0.022 A 
BRANCH  83  86
ATOM     86  S   UNL     1      -5.112  -8.231  10.739  1.00  0.00     0.127 S 
ATOM     87  O   UNL     1      -5.914  -9.268  10.096  1.00  0.00    -0.237 OA
ATOM     88  O   UNL     1      -5.879  -7.133  11.329  1.00  0.00    -0.237 OA
ATOM     89  O   UNL     1      -3.923  -7.807  10.011  1.00  0.00    -0.744 OA
ENDBRANCH  83  86
ENDBRANCH  55  79
BRANCH  67  90
ATOM     90  C   UNL     1       0.712 -15.953  14.704  1.00  0.00     0.023 A 
ATOM     91  C   UNL     1       0.281 -16.654  13.561  1.00  0.00     0.012 A 
ATOM     92  C   UNL     1       0.791 -16.625  15.940  1.00  0.00     0.148 A 
ATOM     93  C   UNL     1      -0.098 -17.993  13.653  1.00  0.00     0.002 A 
ATOM     94  C   UNL     1       0.462 -17.973  16.014  1.00  0.00     0.091 A 
ATOM     95  F   UNL     1       1.187 -15.935  17.020  1.00  0.00    -0.205 F 
ATOM     96  C   UNL     1       0.005 -18.655  14.874  1.00  0.00     0.022 A 
BRANCH  94  97
ATOM     97  S   UNL     1       0.656 -18.932  17.520  1.00  0.00     0.127 S 
ATOM     98  O   UNL     1      -0.735 -19.155  17.912  1.00  0.00    -0.237 OA
ATOM     99  O   UNL     1       1.353 -20.126  17.039  1.00  0.00    -0.237 OA
ATOM    100  O   UNL     1       1.435 -18.102  18.428  1.00  0.00    -0.744 OA
ENDBRANCH  94  97
ENDBRANCH  67  90
ENDBRANCH  41  42
ENDBRANCH  33  36
ENDBRANCH  31  32
ENDBRANCH  30  31
ENDBRANCH   1  30
TORSDOF 20
