REMARK SMILES COc1ccc(C(=O)C2=C(NCCCCCCNC(=O)c3ccc(-c4c5nc(c(-c6cccc(S(=O)(=O)[O-])c6F)c6ccc([nH]6)c(-c6cccc(S(=O)(=O)[O-])c6F)c6nc(c(-c7cccc(S(=O)(=O)[O-])c7F)c7ccc4[nH]7)C=C6)C=C5)cc3)C(=O)N(CC(=O)[O-])[C@H]2c2ccccc2)cc1
REMARK SMILES IDX 14 1 13 2 12 3 11 4 10 6 9 7 91 8 84 9 86 10 85 11 7 12 8 13
REMARK SMILES IDX 6 14 3 15 4 16 99 17 5 18 98 19 2 20 1 21 92 22 93 23 97 24
REMARK SMILES IDX 94 25 96 26 95 27 87 28 88 29 89 30 90 31 15 32 16 33 17 34
REMARK SMILES IDX 18 35 19 36 20 38 21 39 22 40 83 41 23 42 82 43 24 44 25 45
REMARK SMILES IDX 26 46 76 47 27 48 81 49 75 50 77 51 28 52 80 53 74 54 73 55
REMARK SMILES IDX 29 57 61 58 41 59 60 60 42 61 45 62 59 63 78 64 43 65 44 66
REMARK SMILES IDX 58 68 79 69 46 70 30 71 31 72 39 73 32 74 34 75 40 76 33 77
REMARK SMILES IDX 35 78 36 79 37 80 38 81 62 82 63 83 71 84 64 85 66 86 72 87
REMARK SMILES IDX 65 88 67 89 68 90 69 91 70 92 47 93 48 94 56 95 49 96 51 97
REMARK SMILES IDX 57 98 50 99 52 100 53 101 54 102 55 103
REMARK H PARENT 11 5 18 37 77 56 45 67
REMARK Flexibility Score: inf
ROOT
ATOM      1  C   UNL     1       1.205   1.745   9.154  1.00  0.00     0.002 C 
ENDROOT
BRANCH   1   2
ATOM      2  C   UNL     1       0.910   2.120   7.696  1.00  0.00     0.021 C 
BRANCH   2   3
ATOM      3  C   UNL     1       1.382   3.515   7.284  1.00  0.00     0.113 C 
BRANCH   3   4
ATOM      4  N   UNL     1       2.825   3.565   7.304  1.00  0.00    -0.380 N 
ATOM      5  H   UNL     1       3.239   3.294   8.155  1.00  0.00     0.160 HD
BRANCH   4   6
ATOM      6  C   UNL     1       3.705   3.932   6.323  1.00  0.00     0.110 C 
ATOM      7  C   UNL     1       3.628   4.355   5.055  1.00  0.00     0.056 C 
ATOM      8  C   UNL     1       4.946   4.707   4.434  1.00  0.00     0.153 C 
ATOM      9  C   UNL     1       5.173   3.961   6.638  1.00  0.00     0.271 C 
ATOM     10  N   UNL     1       5.837   4.441   5.538  1.00  0.00    -0.320 N 
ATOM     11  O   UNL     1       5.664   3.618   7.703  1.00  0.00    -0.267 OA
BRANCH   7  12
ATOM     12  C   UNL     1       2.371   4.681   4.364  1.00  0.00     0.193 C 
ATOM     13  O   UNL     1       1.916   5.817   4.461  1.00  0.00    -0.289 OA
BRANCH  12  14
ATOM     14  C   UNL     1       1.704   3.666   3.494  1.00  0.00     0.023 A 
ATOM     15  C   UNL     1       0.531   1.946   1.591  1.00  0.00     0.118 A 
ATOM     16  C   UNL     1      -0.075   3.160   1.917  1.00  0.00     0.047 A 
ATOM     17  C   UNL     1       1.679   1.557   2.279  1.00  0.00     0.047 A 
ATOM     18  C   UNL     1       0.511   4.021   2.852  1.00  0.00     0.016 A 
ATOM     19  C   UNL     1       2.242   2.400   3.246  1.00  0.00     0.016 A 
BRANCH  15  20
ATOM     20  O   UNL     1      -0.088   1.236   0.601  1.00  0.00    -0.497 OA
ATOM     21  C   UNL     1       0.614   0.112   0.084  1.00  0.00     0.278 C 
ENDBRANCH  15  20
ENDBRANCH  12  14
ENDBRANCH   7  12
BRANCH   8  22
ATOM     22  C   UNL     1       5.288   3.861   3.217  1.00  0.00    -0.021 A 
ATOM     23  C   UNL     1       5.698   2.518   3.342  1.00  0.00     0.006 A 
ATOM     24  C   UNL     1       5.138   4.395   1.929  1.00  0.00     0.006 A 
ATOM     25  C   UNL     1       5.929   1.730   2.216  1.00  0.00     0.000 A 
ATOM     26  C   UNL     1       5.382   3.606   0.802  1.00  0.00     0.000 A 
ATOM     27  C   UNL     1       5.769   2.274   0.945  1.00  0.00     0.000 A 
ENDBRANCH   8  22
BRANCH  10  28
ATOM     28  C   UNL     1       7.276   4.652   5.503  1.00  0.00     0.173 C 
BRANCH  28  29
ATOM     29  C   UNL     1       7.760   5.883   6.255  1.00  0.00     0.061 C 
ATOM     30  O   UNL     1       8.933   6.160   6.463  1.00  0.00    -0.548 OA
ATOM     31  O   UNL     1       6.789   6.735   6.635  1.00  0.00    -0.548 OA
ENDBRANCH  28  29
ENDBRANCH  10  28
ENDBRANCH   4   6
ENDBRANCH   3   4
ENDBRANCH   2   3
ENDBRANCH   1   2
BRANCH   1  32
ATOM     32  C   UNL     1       0.621   2.692  10.207  1.00  0.00     0.002 C 
BRANCH  32  33
ATOM     33  C   UNL     1      -0.882   2.959  10.089  1.00  0.00     0.021 C 
BRANCH  33  34
ATOM     34  C   UNL     1      -1.763   1.714  10.101  1.00  0.00     0.116 C 
BRANCH  34  35
ATOM     35  N   UNL     1      -1.662   0.973  11.348  1.00  0.00    -0.352 N 
ATOM     36  C   UNL     1      -2.665   0.507  12.163  1.00  0.00     0.251 C 
ATOM     37  H   UNL     1      -0.746   0.777  11.650  1.00  0.00     0.163 HD
ATOM     38  O   UNL     1      -2.393   0.037  13.264  1.00  0.00    -0.269 OA
BRANCH  36  39
ATOM     39  C   UNL     1      -4.075   0.592  11.721  1.00  0.00     0.039 A 
ATOM     40  C   UNL     1      -5.036   1.064  12.619  1.00  0.00     0.014 A 
ATOM     41  C   UNL     1      -4.449   0.206  10.431  1.00  0.00     0.014 A 
ATOM     42  C   UNL     1      -6.363   1.204  12.203  1.00  0.00     0.010 A 
ATOM     43  C   UNL     1      -5.757   0.410   9.998  1.00  0.00     0.010 A 
ATOM     44  C   UNL     1      -6.729   0.906  10.880  1.00  0.00    -0.014 A 
BRANCH  44  45
ATOM     45  C   UNL     1      -8.119   1.118  10.398  1.00  0.00     0.031 A 
ATOM     46  C   UNL     1      -8.949  -0.049   9.934  1.00  0.00     0.074 A 
ATOM     47  C   UNL     1      -8.602   2.372  10.292  1.00  0.00     0.049 A 
ATOM     48  N   UNL     1     -10.155  -0.053   9.428  1.00  0.00    -0.248 NA
ATOM     49  C   UNL     1      -8.335  -1.383  10.027  1.00  0.00     0.031 C 
ATOM     50  C   UNL     1      -7.867   3.593  10.632  1.00  0.00     0.029 A 
ATOM     51  N   UNL     1      -9.815   2.830   9.840  1.00  0.00    -0.354 N 
ATOM     52  C   UNL     1     -10.429  -1.377   9.107  1.00  0.00     0.074 A 
ATOM     53  C   UNL     1      -9.252  -2.145   9.448  1.00  0.00     0.031 C 
ATOM     54  C   UNL     1      -8.643   4.659  10.377  1.00  0.00     0.029 A 
ATOM     55  C   UNL     1      -9.918   4.202   9.831  1.00  0.00     0.049 A 
ATOM     56  H   UNL     1     -10.542   2.233   9.549  1.00  0.00     0.167 HD
ATOM     57  C   UNL     1     -11.567  -1.911   8.602  1.00  0.00     0.034 A 
ATOM     58  C   UNL     1     -10.922   5.003   9.424  1.00  0.00     0.034 A 
ATOM     59  C   UNL     1     -12.753  -1.151   8.309  1.00  0.00     0.049 A 
ATOM     60  C   UNL     1     -12.193   4.380   8.910  1.00  0.00     0.074 A 
ATOM     61  C   UNL     1     -13.987  -1.613   7.887  1.00  0.00     0.029 A 
ATOM     62  N   UNL     1     -12.852   0.228   8.402  1.00  0.00    -0.354 N 
ATOM     63  N   UNL     1     -12.493   3.112   8.773  1.00  0.00    -0.248 NA
ATOM     64  C   UNL     1     -13.277   5.298   8.530  1.00  0.00     0.031 C 
ATOM     65  C   UNL     1     -14.827  -0.509   7.704  1.00  0.00     0.029 A 
ATOM     66  C   UNL     1     -14.123   0.637   8.036  1.00  0.00     0.049 A 
ATOM     67  H   UNL     1     -12.126   0.829   8.687  1.00  0.00     0.167 HD
ATOM     68  C   UNL     1     -13.809   3.077   8.327  1.00  0.00     0.074 A 
ATOM     69  C   UNL     1     -14.256   4.452   8.237  1.00  0.00     0.031 C 
ATOM     70  C   UNL     1     -14.574   2.005   8.006  1.00  0.00     0.034 A 
BRANCH  57  71
ATOM     71  C   UNL     1     -11.607  -3.402   8.387  1.00  0.00     0.023 A 
ATOM     72  C   UNL     1     -11.666  -4.262   9.502  1.00  0.00     0.012 A 
ATOM     73  C   UNL     1     -11.649  -3.949   7.090  1.00  0.00     0.148 A 
ATOM     74  C   UNL     1     -11.731  -5.644   9.332  1.00  0.00     0.002 A 
ATOM     75  C   UNL     1     -11.758  -5.326   6.927  1.00  0.00     0.091 A 
ATOM     76  F   UNL     1     -11.571  -3.118   6.041  1.00  0.00    -0.205 F 
ATOM     77  C   UNL     1     -11.787  -6.175   8.046  1.00  0.00     0.022 A 
BRANCH  75  78
ATOM     78  S   UNL     1     -11.917  -6.102   5.315  1.00  0.00     0.127 S 
ATOM     79  O   UNL     1     -10.610  -6.742   5.165  1.00  0.00    -0.237 OA
ATOM     80  O   UNL     1     -13.028  -7.030   5.527  1.00  0.00    -0.237 OA
ATOM     81  O   UNL     1     -12.197  -5.024   4.377  1.00  0.00    -0.744 OA
ENDBRANCH  75  78
ENDBRANCH  57  71
BRANCH  58  82
ATOM     82  C   UNL     1     -10.794   6.482   9.551  1.00  0.00     0.023 A 
ATOM     83  C   UNL     1     -11.568   7.162  10.512  1.00  0.00     0.012 A 
ATOM     84  C   UNL     1      -9.896   7.214   8.750  1.00  0.00     0.148 A 
ATOM     85  C   UNL     1     -11.475   8.547  10.651  1.00  0.00     0.002 A 
ATOM     86  C   UNL     1      -9.768   8.587   8.931  1.00  0.00     0.091 A 
ATOM     87  F   UNL     1      -9.178   6.552   7.833  1.00  0.00    -0.205 F 
ATOM     88  C   UNL     1     -10.569   9.258   9.869  1.00  0.00     0.022 A 
BRANCH  86  89
ATOM     89  S   UNL     1      -8.536   9.561   8.060  1.00  0.00     0.127 S 
ATOM     90  O   UNL     1      -9.361  10.317   7.122  1.00  0.00    -0.237 OA
ATOM     91  O   UNL     1      -7.953  10.352   9.145  1.00  0.00    -0.237 OA
ATOM     92  O   UNL     1      -7.622   8.595   7.467  1.00  0.00    -0.744 OA
ENDBRANCH  86  89
ENDBRANCH  58  82
BRANCH  70  93
ATOM     93  C   UNL     1     -15.989   2.263   7.559  1.00  0.00     0.023 A 
ATOM     94  C   UNL     1     -16.233   2.808   6.283  1.00  0.00     0.012 A 
ATOM     95  C   UNL     1     -17.079   1.893   8.373  1.00  0.00     0.148 A 
ATOM     96  C   UNL     1     -17.538   3.011   5.836  1.00  0.00     0.002 A 
ATOM     97  C   UNL     1     -18.376   2.052   7.901  1.00  0.00     0.091 A 
ATOM     98  F   UNL     1     -16.827   1.393   9.591  1.00  0.00    -0.205 F 
ATOM     99  C   UNL     1     -18.608   2.622   6.638  1.00  0.00     0.022 A 
BRANCH  97 100
ATOM    100  S   UNL     1     -19.811   1.491   8.825  1.00  0.00     0.127 S 
ATOM    101  O   UNL     1     -20.384   2.755   9.284  1.00  0.00    -0.237 OA
ATOM    102  O   UNL     1     -20.594   0.804   7.796  1.00  0.00    -0.237 OA
ATOM    103  O   UNL     1     -19.297   0.619   9.873  1.00  0.00    -0.744 OA
ENDBRANCH  97 100
ENDBRANCH  70  93
ENDBRANCH  44  45
ENDBRANCH  36  39
ENDBRANCH  34  35
ENDBRANCH  33  34
ENDBRANCH  32  33
ENDBRANCH   1  32
TORSDOF 22
