REMARK SMILES Cc1cc(Cl)ccc1OCC(=O)Nc1ccc(CC(=O)NCCCCCCNC(=O)c2ccc(-c3c4nc(c(-c5cccc(S(=O)(=O)[O-])c5F)c5ccc([nH]5)c(-c5cccc(S(=O)(=O)[O-])c5F)c5nc(c(-c6cccc(S(=O)(=O)[O-])c6F)c6ccc3[nH]6)C=C5)C=C4)cc2)cc1
REMARK SMILES IDX 23 1 22 2 21 3 19 4 20 5 18 7 17 8 14 9 15 10 95 11 16 12
REMARK SMILES IDX 94 13 13 14 11 15 12 16 10 18 9 19 8 20 1 21 2 22 3 23 4 24
REMARK SMILES IDX 7 25 5 26 6 27 24 28 25 29 26 30 27 31 28 32 29 33 30 35
REMARK SMILES IDX 31 36 32 37 93 38 33 39 92 40 34 41 35 42 36 43 86 44 37 45
REMARK SMILES IDX 91 46 85 47 87 48 38 49 90 50 84 51 83 52 39 54 71 55 51 56
REMARK SMILES IDX 70 57 52 58 55 59 69 60 88 61 53 62 54 63 68 65 89 66 56 67
REMARK SMILES IDX 40 68 41 69 49 70 42 71 44 72 50 73 43 74 45 75 46 76 47 77
REMARK SMILES IDX 48 78 72 79 73 80 81 81 74 82 76 83 82 84 75 85 77 86 78 87
REMARK SMILES IDX 79 88 80 89 57 90 58 91 66 92 59 93 61 94 67 95 60 96 62 97
REMARK SMILES IDX 63 98 64 99 65 100
REMARK H PARENT 21 6 13 17 28 34 87 53 55 64
REMARK Flexibility Score: inf
ROOT
ATOM      1  C   UNL     1      -1.847  -4.470   4.958  1.00  0.00     0.021 C 
ENDROOT
BRANCH   1   2
ATOM      2  C   UNL     1      -2.326  -5.766   4.300  1.00  0.00     0.116 C 
BRANCH   2   3
ATOM      3  N   UNL     1      -3.430  -6.351   5.040  1.00  0.00    -0.356 N 
ATOM      4  C   UNL     1      -4.764  -6.335   4.754  1.00  0.00     0.224 C 
ATOM      5  O   UNL     1      -5.552  -6.787   5.588  1.00  0.00    -0.275 OA
ATOM      6  H   UNL     1      -3.181  -6.827   5.865  1.00  0.00     0.163 HD
BRANCH   4   7
ATOM      7  C   UNL     1      -5.249  -5.829   3.409  1.00  0.00     0.135 C 
BRANCH   7   8
ATOM      8  C   UNL     1      -5.096  -4.345   3.196  1.00  0.00    -0.039 A 
ATOM      9  C   UNL     1      -4.769  -1.582   2.741  1.00  0.00     0.041 A 
ATOM     10  C   UNL     1      -5.502  -2.041   3.842  1.00  0.00     0.026 A 
ATOM     11  C   UNL     1      -4.176  -2.513   1.900  1.00  0.00     0.026 A 
ATOM     12  C   UNL     1      -5.679  -3.412   4.060  1.00  0.00     0.006 A 
ATOM     13  C   UNL     1      -4.350  -3.878   2.110  1.00  0.00     0.006 A 
BRANCH   9  14
ATOM     14  N   UNL     1      -4.644  -0.198   2.572  1.00  0.00    -0.323 N 
ATOM     15  C   UNL     1      -4.372   0.572   1.476  1.00  0.00     0.262 C 
ATOM     16  O   UNL     1      -4.287   1.792   1.664  1.00  0.00    -0.271 OA
ATOM     17  H   UNL     1      -4.776   0.318   3.400  1.00  0.00     0.170 HD
BRANCH  15  18
ATOM     18  C   UNL     1      -4.386  -0.001   0.040  1.00  0.00     0.329 C 
BRANCH  18  19
ATOM     19  O   UNL     1      -3.326  -0.647  -0.631  1.00  0.00    -0.483 OA
BRANCH  19  20
ATOM     20  C   UNL     1      -2.030  -0.317  -0.367  1.00  0.00     0.123 A 
ATOM     21  C   UNL     1      -2.220   2.243  -0.562  1.00  0.00     0.048 C 
ATOM     22  C   UNL     1      -1.477   0.966  -0.298  1.00  0.00    -0.007 A 
ATOM     23  C   UNL     1      -0.100   1.090  -0.012  1.00  0.00     0.027 A 
ATOM     24  C   UNL     1       0.718  -0.032   0.122  1.00  0.00     0.041 A 
ATOM     25  C   UNL     1      -1.182  -1.437  -0.285  1.00  0.00     0.048 A 
ATOM     26  Cl  UNL     1       2.391   0.157   0.466  1.00  0.00    -0.084 Cl
ATOM     27  C   UNL     1       0.184  -1.301  -0.039  1.00  0.00     0.024 A 
ENDBRANCH  19  20
ENDBRANCH  18  19
ENDBRANCH  15  18
ENDBRANCH   9  14
ENDBRANCH   7   8
ENDBRANCH   4   7
ENDBRANCH   2   3
ENDBRANCH   1   2
BRANCH   1  28
ATOM     28  C   UNL     1      -1.168  -4.680   6.319  1.00  0.00     0.002 C 
BRANCH  28  29
ATOM     29  C   UNL     1       0.057  -5.601   6.299  1.00  0.00     0.002 C 
BRANCH  29  30
ATOM     30  C   UNL     1       1.172  -5.174   5.342  1.00  0.00     0.021 C 
BRANCH  30  31
ATOM     31  C   UNL     1       1.795  -3.819   5.662  1.00  0.00     0.116 C 
BRANCH  31  32
ATOM     32  N   UNL     1       2.495  -3.829   6.940  1.00  0.00    -0.352 N 
ATOM     33  C   UNL     1       3.785  -3.449   7.217  1.00  0.00     0.251 C 
ATOM     34  H   UNL     1       1.972  -4.153   7.708  1.00  0.00     0.163 HD
ATOM     35  O   UNL     1       4.284  -3.700   8.312  1.00  0.00    -0.269 OA
BRANCH  33  36
ATOM     36  C   UNL     1       4.574  -2.751   6.182  1.00  0.00     0.039 A 
ATOM     37  C   UNL     1       5.872  -3.186   5.902  1.00  0.00     0.014 A 
ATOM     38  C   UNL     1       4.020  -1.678   5.479  1.00  0.00     0.014 A 
ATOM     39  C   UNL     1       6.595  -2.583   4.869  1.00  0.00     0.010 A 
ATOM     40  C   UNL     1       4.714  -1.124   4.410  1.00  0.00     0.010 A 
ATOM     41  C   UNL     1       6.009  -1.568   4.096  1.00  0.00    -0.014 A 
BRANCH  41  42
ATOM     42  C   UNL     1       6.716  -0.945   2.950  1.00  0.00     0.031 A 
ATOM     43  C   UNL     1       7.046   0.522   2.988  1.00  0.00     0.074 A 
ATOM     44  C   UNL     1       6.946  -1.664   1.834  1.00  0.00     0.049 A 
ATOM     45  N   UNL     1       7.518   1.288   2.040  1.00  0.00    -0.248 NA
ATOM     46  C   UNL     1       6.783   1.226   4.255  1.00  0.00     0.031 C 
ATOM     47  C   UNL     1       6.610  -3.077   1.654  1.00  0.00     0.029 A 
ATOM     48  N   UNL     1       7.474  -1.291   0.623  1.00  0.00    -0.354 N 
ATOM     49  C   UNL     1       7.563   2.569   2.576  1.00  0.00     0.074 A 
ATOM     50  C   UNL     1       7.050   2.482   3.926  1.00  0.00     0.031 C 
ATOM     51  C   UNL     1       6.922  -3.447   0.402  1.00  0.00     0.029 A 
ATOM     52  C   UNL     1       7.446  -2.292  -0.321  1.00  0.00     0.049 A 
ATOM     53  H   UNL     1       7.837  -0.393   0.446  1.00  0.00     0.167 HD
ATOM     54  C   UNL     1       8.016   3.710   2.006  1.00  0.00     0.034 A 
ATOM     55  C   UNL     1       7.785  -2.275  -1.625  1.00  0.00     0.034 A 
ATOM     56  C   UNL     1       8.569   3.780   0.682  1.00  0.00     0.049 A 
ATOM     57  C   UNL     1       8.325  -1.004  -2.224  1.00  0.00     0.074 A 
ATOM     58  C   UNL     1       9.130   4.870   0.041  1.00  0.00     0.029 A 
ATOM     59  N   UNL     1       8.631   2.717  -0.205  1.00  0.00    -0.354 N 
ATOM     60  N   UNL     1       8.498   0.165  -1.657  1.00  0.00    -0.248 NA
ATOM     61  C   UNL     1       8.750  -1.055  -3.631  1.00  0.00     0.031 C 
ATOM     62  C   UNL     1       9.522   4.468  -1.240  1.00  0.00     0.029 A 
ATOM     63  C   UNL     1       9.222   3.123  -1.388  1.00  0.00     0.049 A 
ATOM     64  H   UNL     1       8.302   1.807  -0.021  1.00  0.00     0.167 HD
ATOM     65  C   UNL     1       9.087   0.975  -2.620  1.00  0.00     0.074 A 
ATOM     66  C   UNL     1       9.253   0.160  -3.806  1.00  0.00     0.031 C 
ATOM     67  C   UNL     1       9.446   2.279  -2.534  1.00  0.00     0.034 A 
BRANCH  54  68
ATOM     68  C   UNL     1       7.989   4.965   2.838  1.00  0.00     0.023 A 
ATOM     69  C   UNL     1       8.896   5.105   3.908  1.00  0.00     0.012 A 
ATOM     70  C   UNL     1       7.110   6.023   2.535  1.00  0.00     0.148 A 
ATOM     71  C   UNL     1       8.906   6.261   4.686  1.00  0.00     0.002 A 
ATOM     72  C   UNL     1       7.155   7.191   3.289  1.00  0.00     0.091 A 
ATOM     73  F   UNL     1       6.239   5.865   1.528  1.00  0.00    -0.205 F 
ATOM     74  C   UNL     1       8.043   7.306   4.371  1.00  0.00     0.022 A 
BRANCH  72  75
ATOM     75  S   UNL     1       6.138   8.624   2.913  1.00  0.00     0.127 S 
ATOM     76  O   UNL     1       5.149   8.575   3.988  1.00  0.00    -0.237 OA
ATOM     77  O   UNL     1       7.099   9.722   3.020  1.00  0.00    -0.237 OA
ATOM     78  O   UNL     1       5.619   8.404   1.570  1.00  0.00    -0.744 OA
ENDBRANCH  72  75
ENDBRANCH  54  68
BRANCH  55  79
ATOM     79  C   UNL     1       7.681  -3.524  -2.433  1.00  0.00     0.023 A 
ATOM     80  C   UNL     1       8.858  -4.186  -2.831  1.00  0.00     0.012 A 
ATOM     81  C   UNL     1       6.432  -4.083  -2.768  1.00  0.00     0.148 A 
ATOM     82  C   UNL     1       8.795  -5.366  -3.573  1.00  0.00     0.002 A 
ATOM     83  C   UNL     1       6.376  -5.288  -3.460  1.00  0.00     0.091 A 
ATOM     84  F   UNL     1       5.322  -3.433  -2.390  1.00  0.00    -0.205 F 
ATOM     85  C   UNL     1       7.556  -5.923  -3.878  1.00  0.00     0.022 A 
BRANCH  83  86
ATOM     86  S   UNL     1       4.827  -6.144  -3.775  1.00  0.00     0.127 S 
ATOM     87  O   UNL     1       4.652  -5.932  -5.209  1.00  0.00    -0.237 OA
ATOM     88  O   UNL     1       5.155  -7.518  -3.390  1.00  0.00    -0.237 OA
ATOM     89  O   UNL     1       3.842  -5.504  -2.913  1.00  0.00    -0.744 OA
ENDBRANCH  83  86
ENDBRANCH  55  79
BRANCH  67  90
ATOM     90  C   UNL     1      10.103   2.913  -3.731  1.00  0.00     0.023 A 
ATOM     91  C   UNL     1       9.326   3.270  -4.849  1.00  0.00     0.012 A 
ATOM     92  C   UNL     1      11.469   3.261  -3.693  1.00  0.00     0.148 A 
ATOM     93  C   UNL     1       9.901   3.953  -5.920  1.00  0.00     0.002 A 
ATOM     94  C   UNL     1      12.024   3.980  -4.744  1.00  0.00     0.091 A 
ATOM     95  F   UNL     1      12.192   2.895  -2.625  1.00  0.00    -0.205 F 
ATOM     96  C   UNL     1      11.244   4.319  -5.862  1.00  0.00     0.022 A 
BRANCH  94  97
ATOM     97  S   UNL     1      13.717   4.580  -4.715  1.00  0.00     0.127 S 
ATOM     98  O   UNL     1      14.344   3.754  -5.746  1.00  0.00    -0.237 OA
ATOM     99  O   UNL     1      13.553   5.988  -5.079  1.00  0.00    -0.237 OA
ATOM    100  O   UNL     1      14.202   4.357  -3.360  1.00  0.00    -0.744 OA
ENDBRANCH  94  97
ENDBRANCH  67  90
ENDBRANCH  41  42
ENDBRANCH  33  36
ENDBRANCH  31  32
ENDBRANCH  30  31
ENDBRANCH  29  30
ENDBRANCH  28  29
ENDBRANCH   1  28
TORSDOF 21
