REMARK SMILES Nc1c(CC(=O)NCCCCCCNC(=O)c2ccc(-c3c4nc(c(-c5cccc(S(=O)(=O)[O-])c5F)c5ccc([nH]5)c(-c5cccc(S(=O)(=O)[O-])c5F)c5nc(c(-c6cccc(S(=O)(=O)[O-])c6F)c6ccc3[nH]6)C=C5)C=C4)cc2)cccc1C(=O)c1ccc(Br)cc1
REMARK SMILES IDX 10 1 9 2 8 3 7 4 5 5 6 6 4 8 3 9 2 10 83 11 80 12 82 13
REMARK SMILES IDX 81 14 1 15 84 18 85 19 86 20 87 21 92 22 88 23 91 24 89 25
REMARK SMILES IDX 90 26 11 27 12 28 13 29 14 30 15 31 16 33 17 34 18 35 79 36
REMARK SMILES IDX 19 37 78 38 20 39 21 40 22 41 72 42 23 43 77 44 71 45 73 46
REMARK SMILES IDX 24 47 76 48 70 49 69 50 25 52 57 53 37 54 56 55 38 56 41 57
REMARK SMILES IDX 55 58 74 59 39 60 40 61 54 63 75 64 42 65 26 66 27 67 35 68
REMARK SMILES IDX 28 69 30 70 36 71 29 72 31 73 32 74 33 75 34 76 58 77 59 78
REMARK SMILES IDX 67 79 60 80 62 81 68 82 61 83 63 84 64 85 65 86 66 87 43 88
REMARK SMILES IDX 44 89 52 90 45 91 47 92 53 93 46 94 48 95 49 96 50 97 51 98
REMARK H PARENT 7 7 1 16 1 17 14 32 73 51 41 62
REMARK Flexibility Score: inf
ROOT
ATOM      1  C   UNL     1       0.255  -1.338   4.931  1.00  0.00     0.002 C 
ENDROOT
BRANCH   1   2
ATOM      2  C   UNL     1       0.595  -0.885   3.505  1.00  0.00     0.021 C 
BRANCH   2   3
ATOM      3  C   UNL     1       1.570  -1.826   2.798  1.00  0.00     0.116 C 
BRANCH   3   4
ATOM      4  N   UNL     1       0.912  -3.054   2.399  1.00  0.00    -0.356 N 
ATOM      5  C   UNL     1       0.472  -3.429   1.164  1.00  0.00     0.224 C 
ATOM      6  O   UNL     1      -0.175  -4.476   1.069  1.00  0.00    -0.275 OA
ATOM      7  H   UNL     1       0.763  -3.708   3.119  1.00  0.00     0.163 HD
BRANCH   5   8
ATOM      8  C   UNL     1       0.846  -2.625  -0.071  1.00  0.00     0.137 C 
BRANCH   8   9
ATOM      9  C   UNL     1       0.234  -1.236  -0.152  1.00  0.00    -0.015 A 
ATOM     10  C   UNL     1       1.020  -0.049  -0.174  1.00  0.00     0.046 A 
ATOM     11  C   UNL     1       0.360   1.208  -0.168  1.00  0.00     0.046 A 
ATOM     12  C   UNL     1      -1.170  -1.153  -0.158  1.00  0.00     0.006 A 
ATOM     13  C   UNL     1      -1.049   1.245  -0.157  1.00  0.00     0.014 A 
ATOM     14  C   UNL     1      -1.808   0.079  -0.157  1.00  0.00     0.001 A 
BRANCH  10  15
ATOM     15  N   UNL     1       2.405  -0.170  -0.149  1.00  0.00    -0.398 N 
ATOM     16  H   UNL     1       2.821  -1.062  -0.154  1.00  0.00     0.156 HD
ATOM     17  H   UNL     1       2.969   0.636  -0.127  1.00  0.00     0.156 HD
ENDBRANCH  10  15
BRANCH  11  18
ATOM     18  C   UNL     1       1.020   2.562  -0.129  1.00  0.00     0.195 C 
ATOM     19  O   UNL     1       0.347   3.567   0.098  1.00  0.00    -0.289 OA
BRANCH  18  20
ATOM     20  C   UNL     1       2.471   2.765  -0.292  1.00  0.00     0.023 A 
ATOM     21  C   UNL     1       3.181   3.346   0.766  1.00  0.00     0.013 A 
ATOM     22  C   UNL     1       3.138   2.346  -1.448  1.00  0.00     0.013 A 
ATOM     23  C   UNL     1       4.574   3.430   0.704  1.00  0.00     0.016 A 
ATOM     24  C   UNL     1       4.532   2.418  -1.501  1.00  0.00     0.016 A 
ATOM     25  C   UNL     1       5.243   2.945  -0.420  1.00  0.00     0.018 A 
ATOM     26  Br  UNL     1       7.131   2.973  -0.476  1.00  0.00    -0.051 Br
ENDBRANCH  18  20
ENDBRANCH  11  18
ENDBRANCH   8   9
ENDBRANCH   5   8
ENDBRANCH   3   4
ENDBRANCH   2   3
ENDBRANCH   1   2
BRANCH   1  27
ATOM     27  C   UNL     1       1.462  -1.452   5.868  1.00  0.00     0.002 C 
BRANCH  27  28
ATOM     28  C   UNL     1       2.282  -0.167   6.017  1.00  0.00     0.021 C 
BRANCH  28  29
ATOM     29  C   UNL     1       1.501   1.007   6.599  1.00  0.00     0.116 C 
BRANCH  29  30
ATOM     30  N   UNL     1       1.022   0.719   7.944  1.00  0.00    -0.352 N 
ATOM     31  C   UNL     1       1.237   1.411   9.107  1.00  0.00     0.251 C 
ATOM     32  H   UNL     1       0.464  -0.087   8.030  1.00  0.00     0.163 HD
ATOM     33  O   UNL     1       0.950   0.898  10.189  1.00  0.00    -0.269 OA
BRANCH  31  34
ATOM     34  C   UNL     1       1.823   2.765   9.060  1.00  0.00     0.039 A 
ATOM     35  C   UNL     1       2.822   3.107   9.974  1.00  0.00     0.014 A 
ATOM     36  C   UNL     1       1.382   3.699   8.117  1.00  0.00     0.014 A 
ATOM     37  C   UNL     1       3.414   4.370   9.910  1.00  0.00     0.010 A 
ATOM     38  C   UNL     1       2.027   4.925   8.004  1.00  0.00     0.010 A 
ATOM     39  C   UNL     1       3.042   5.279   8.905  1.00  0.00    -0.014 A 
BRANCH  39  40
ATOM     40  C   UNL     1       3.706   6.601   8.779  1.00  0.00     0.031 A 
ATOM     41  C   UNL     1       2.910   7.868   8.939  1.00  0.00     0.074 A 
ATOM     42  C   UNL     1       5.009   6.661   8.439  1.00  0.00     0.049 A 
ATOM     43  N   UNL     1       3.302   9.109   8.812  1.00  0.00    -0.248 NA
ATOM     44  C   UNL     1       1.480   7.722   9.259  1.00  0.00     0.031 C 
ATOM     45  C   UNL     1       5.871   5.505   8.183  1.00  0.00     0.029 A 
ATOM     46  N   UNL     1       5.830   7.739   8.224  1.00  0.00    -0.354 N 
ATOM     47  C   UNL     1       2.167   9.888   9.000  1.00  0.00     0.074 A 
ATOM     48  C   UNL     1       1.062   8.979   9.214  1.00  0.00     0.031 C 
ATOM     49  C   UNL     1       7.098   5.935   7.853  1.00  0.00     0.029 A 
ATOM     50  C   UNL     1       7.104   7.394   7.838  1.00  0.00     0.049 A 
ATOM     51  H   UNL     1       5.535   8.672   8.336  1.00  0.00     0.167 HD
ATOM     52  C   UNL     1       2.056  11.238   9.022  1.00  0.00     0.034 A 
ATOM     53  C   UNL     1       8.155   8.165   7.497  1.00  0.00     0.034 A 
ATOM     54  C   UNL     1       3.163  12.138   8.841  1.00  0.00     0.049 A 
ATOM     55  C   UNL     1       8.012   9.662   7.551  1.00  0.00     0.074 A 
ATOM     56  C   UNL     1       3.171  13.519   8.928  1.00  0.00     0.029 A 
ATOM     57  N   UNL     1       4.455  11.751   8.523  1.00  0.00    -0.354 N 
ATOM     58  N   UNL     1       6.967  10.380   7.884  1.00  0.00    -0.248 NA
ATOM     59  C   UNL     1       9.203  10.456   7.216  1.00  0.00     0.031 C 
ATOM     60  C   UNL     1       4.461  13.968   8.628  1.00  0.00     0.029 A 
ATOM     61  C   UNL     1       5.266  12.865   8.396  1.00  0.00     0.049 A 
ATOM     62  H   UNL     1       4.753  10.819   8.405  1.00  0.00     0.167 HD
ATOM     63  C   UNL     1       7.383  11.705   7.837  1.00  0.00     0.074 A 
ATOM     64  C   UNL     1       8.783  11.689   7.462  1.00  0.00     0.031 C 
ATOM     65  C   UNL     1       6.669  12.834   8.070  1.00  0.00     0.034 A 
BRANCH  52  66
ATOM     66  C   UNL     1       0.694  11.825   9.292  1.00  0.00     0.023 A 
ATOM     67  C   UNL     1       0.123  11.703  10.575  1.00  0.00     0.012 A 
ATOM     68  C   UNL     1       0.004  12.544   8.296  1.00  0.00     0.148 A 
ATOM     69  C   UNL     1      -1.129  12.252  10.853  1.00  0.00     0.002 A 
ATOM     70  C   UNL     1      -1.220  13.130   8.594  1.00  0.00     0.091 A 
ATOM     71  F   UNL     1       0.553  12.634   7.076  1.00  0.00    -0.205 F 
ATOM     72  C   UNL     1      -1.794  12.973   9.866  1.00  0.00     0.022 A 
BRANCH  70  73
ATOM     73  S   UNL     1      -2.119  14.152   7.421  1.00  0.00     0.127 S 
ATOM     74  O   UNL     1      -3.274  13.307   7.119  1.00  0.00    -0.237 OA
ATOM     75  O   UNL     1      -2.424  15.339   8.219  1.00  0.00    -0.237 OA
ATOM     76  O   UNL     1      -1.208  14.383   6.308  1.00  0.00    -0.744 OA
ENDBRANCH  70  73
ENDBRANCH  52  66
BRANCH  53  77
ATOM     77  C   UNL     1       9.454   7.535   7.127  1.00  0.00     0.023 A 
ATOM     78  C   UNL     1      10.559   7.663   7.990  1.00  0.00     0.012 A 
ATOM     79  C   UNL     1       9.593   6.793   5.938  1.00  0.00     0.148 A 
ATOM     80  C   UNL     1      11.790   7.096   7.658  1.00  0.00     0.002 A 
ATOM     81  C   UNL     1      10.805   6.181   5.642  1.00  0.00     0.091 A 
ATOM     82  F   UNL     1       8.531   6.689   5.126  1.00  0.00    -0.205 F 
ATOM     83  C   UNL     1      11.911   6.347   6.490  1.00  0.00     0.022 A 
BRANCH  81  84
ATOM     84  S   UNL     1      11.013   5.089   4.231  1.00  0.00     0.127 S 
ATOM     85  O   UNL     1      11.899   5.872   3.374  1.00  0.00    -0.237 OA
ATOM     86  O   UNL     1      11.630   3.914   4.848  1.00  0.00    -0.237 OA
ATOM     87  O   UNL     1       9.672   4.858   3.711  1.00  0.00    -0.744 OA
ENDBRANCH  81  84
ENDBRANCH  53  77
BRANCH  65  88
ATOM     88  C   UNL     1       7.393  14.152   7.974  1.00  0.00     0.023 A 
ATOM     89  C   UNL     1       7.792  14.649   6.717  1.00  0.00     0.012 A 
ATOM     90  C   UNL     1       7.613  14.932   9.127  1.00  0.00     0.148 A 
ATOM     91  C   UNL     1       8.431  15.884   6.614  1.00  0.00     0.002 A 
ATOM     92  C   UNL     1       8.201  16.185   9.010  1.00  0.00     0.091 A 
ATOM     93  F   UNL     1       7.242  14.435  10.316  1.00  0.00    -0.205 F 
ATOM     94  C   UNL     1       8.624  16.657   7.757  1.00  0.00     0.022 A 
BRANCH  92  95
ATOM     95  S   UNL     1       8.400  17.292  10.411  1.00  0.00     0.127 S 
ATOM     96  O   UNL     1       9.850  17.271  10.603  1.00  0.00    -0.237 OA
ATOM     97  O   UNL     1       7.872  18.552   9.887  1.00  0.00    -0.237 OA
ATOM     98  O   UNL     1       7.620  16.713  11.496  1.00  0.00    -0.744 OA
ENDBRANCH  92  95
ENDBRANCH  65  88
ENDBRANCH  39  40
ENDBRANCH  31  34
ENDBRANCH  29  30
ENDBRANCH  28  29
ENDBRANCH  27  28
ENDBRANCH   1  27
TORSDOF 20
