REMARK SMILES O=C(NCCCCCCNC(=O)[C@@H]1[C@H](C(=O)NCc2ccncc2)[C@H]2C=C[C@@H]1O2)c1ccc(-c2c3nc(c(-c4cccc(S(=O)(=O)[O-])c4F)c4ccc([nH]4)c(-c4cccc(S(=O)(=O)[O-])c4F)c4nc(c(-c5cccc(S(=O)(=O)[O-])c5F)c5ccc2[nH]5)C=C4)C=C3)cc1
REMARK SMILES IDX 6 1 5 2 4 3 3 4 1 5 2 6 30 8 31 9 92 10 32 11 91 12 33 13
REMARK SMILES IDX 34 14 35 15 85 16 36 17 90 18 84 19 86 20 37 21 89 22 83 23
REMARK SMILES IDX 82 24 38 26 70 27 50 28 69 29 51 30 54 31 68 32 87 33 52 34
REMARK SMILES IDX 53 35 67 37 88 38 55 39 39 40 40 41 48 42 41 43 43 44 49 45
REMARK SMILES IDX 42 46 44 47 45 48 46 49 47 50 71 51 72 52 80 53 73 54 75 55
REMARK SMILES IDX 81 56 74 57 76 58 77 59 78 60 79 61 56 62 57 63 65 64 58 65
REMARK SMILES IDX 60 66 66 67 59 68 61 69 62 70 63 71 64 72 7 73 8 74 9 75
REMARK SMILES IDX 10 76 11 77 12 79 13 80 14 81 28 82 25 83 27 84 29 85 26 86
REMARK SMILES IDX 15 87 16 88 17 89 18 91 19 92 20 93 24 94 21 95 23 96 22 97
REMARK H PARENT 3 7 86 25 54 36 10 78 17 90
REMARK Flexibility Score: inf
ROOT
ATOM      1  C   UNL     1       4.304  -2.358   2.784  1.00  0.00     0.002 C 
ENDROOT
BRANCH   1   2
ATOM      2  C   UNL     1       4.698  -0.993   2.220  1.00  0.00     0.021 C 
BRANCH   2   3
ATOM      3  C   UNL     1       4.446  -0.841   0.725  1.00  0.00     0.116 C 
BRANCH   3   4
ATOM      4  N   UNL     1       3.030  -0.901   0.406  1.00  0.00    -0.352 N 
ATOM      5  O   UNL     1       1.024  -0.075  -0.205  1.00  0.00    -0.269 OA
ATOM      6  C   UNL     1       2.248   0.044  -0.207  1.00  0.00     0.251 C 
ATOM      7  H   UNL     1       2.570  -1.732   0.664  1.00  0.00     0.163 HD
BRANCH   6   8
ATOM      8  C   UNL     1       2.888   1.213  -0.845  1.00  0.00     0.039 A 
ATOM      9  C   UNL     1       4.008   1.049  -1.667  1.00  0.00     0.014 A 
ATOM     10  C   UNL     1       2.365   2.486  -0.611  1.00  0.00     0.014 A 
ATOM     11  C   UNL     1       4.683   2.165  -2.148  1.00  0.00     0.010 A 
ATOM     12  C   UNL     1       2.998   3.600  -1.163  1.00  0.00     0.010 A 
ATOM     13  C   UNL     1       4.178   3.452  -1.911  1.00  0.00    -0.014 A 
BRANCH  13  14
ATOM     14  C   UNL     1       4.851   4.638  -2.496  1.00  0.00     0.031 A 
ATOM     15  C   UNL     1       5.436   5.704  -1.615  1.00  0.00     0.074 A 
ATOM     16  C   UNL     1       4.881   4.773  -3.836  1.00  0.00     0.049 A 
ATOM     17  N   UNL     1       5.980   6.844  -1.952  1.00  0.00    -0.248 NA
ATOM     18  C   UNL     1       5.395   5.465  -0.163  1.00  0.00     0.031 C 
ATOM     19  C   UNL     1       4.321   3.815  -4.791  1.00  0.00     0.029 A 
ATOM     20  N   UNL     1       5.375   5.780  -4.625  1.00  0.00    -0.354 N 
ATOM     21  C   UNL     1       6.301   7.482  -0.760  1.00  0.00     0.074 A 
ATOM     22  C   UNL     1       5.887   6.601   0.312  1.00  0.00     0.031 C 
ATOM     23  C   UNL     1       4.492   4.284  -6.035  1.00  0.00     0.029 A 
ATOM     24  C   UNL     1       5.118   5.599  -5.963  1.00  0.00     0.049 A 
ATOM     25  H   UNL     1       5.865   6.557  -4.268  1.00  0.00     0.167 HD
ATOM     26  C   UNL     1       6.891   8.688  -0.577  1.00  0.00     0.034 A 
ATOM     27  C   UNL     1       5.323   6.414  -7.014  1.00  0.00     0.034 A 
ATOM     28  C   UNL     1       7.309   9.550  -1.651  1.00  0.00     0.049 A 
ATOM     29  C   UNL     1       5.972   7.748  -6.787  1.00  0.00     0.074 A 
ATOM     30  C   UNL     1       7.974  10.761  -1.573  1.00  0.00     0.029 A 
ATOM     31  N   UNL     1       7.085   9.304  -2.998  1.00  0.00    -0.354 N 
ATOM     32  N   UNL     1       6.374   8.285  -5.661  1.00  0.00    -0.248 NA
ATOM     33  C   UNL     1       6.224   8.576  -7.974  1.00  0.00     0.031 C 
ATOM     34  C   UNL     1       8.115  11.267  -2.869  1.00  0.00     0.029 A 
ATOM     35  C   UNL     1       7.583  10.347  -3.760  1.00  0.00     0.049 A 
ATOM     36  H   UNL     1       6.637   8.505  -3.359  1.00  0.00     0.167 HD
ATOM     37  C   UNL     1       6.965   9.495  -6.006  1.00  0.00     0.074 A 
ATOM     38  C   UNL     1       6.871   9.608  -7.447  1.00  0.00     0.031 C 
ATOM     39  C   UNL     1       7.530  10.425  -5.199  1.00  0.00     0.034 A 
BRANCH  26  40
ATOM     40  C   UNL     1       7.124   9.146   0.841  1.00  0.00     0.023 A 
ATOM     41  C   UNL     1       8.089   8.500   1.641  1.00  0.00     0.012 A 
ATOM     42  C   UNL     1       6.414  10.242   1.371  1.00  0.00     0.148 A 
ATOM     43  C   UNL     1       8.310   8.905   2.957  1.00  0.00     0.002 A 
ATOM     44  C   UNL     1       6.675  10.672   2.667  1.00  0.00     0.091 A 
ATOM     45  F   UNL     1       5.487  10.836   0.605  1.00  0.00    -0.205 F 
ATOM     46  C   UNL     1       7.610   9.996   3.466  1.00  0.00     0.022 A 
BRANCH  44  47
ATOM     47  S   UNL     1       5.885  12.118   3.382  1.00  0.00     0.127 S 
ATOM     48  O   UNL     1       4.949  11.506   4.324  1.00  0.00    -0.237 OA
ATOM     49  O   UNL     1       7.014  12.809   4.007  1.00  0.00    -0.237 OA
ATOM     50  O   UNL     1       5.278  12.834   2.269  1.00  0.00    -0.744 OA
ENDBRANCH  44  47
ENDBRANCH  26  40
BRANCH  27  51
ATOM     51  C   UNL     1       4.927   5.961  -8.376  1.00  0.00     0.023 A 
ATOM     52  C   UNL     1       5.922   5.617  -9.310  1.00  0.00     0.012 A 
ATOM     53  C   UNL     1       3.570   5.801  -8.720  1.00  0.00     0.148 A 
ATOM     54  C   UNL     1       5.572   5.139 -10.573  1.00  0.00     0.002 A 
ATOM     55  C   UNL     1       3.230   5.271  -9.958  1.00  0.00     0.091 A 
ATOM     56  F   UNL     1       2.642   6.137  -7.814  1.00  0.00    -0.205 F 
ATOM     57  C   UNL     1       4.229   4.955 -10.893  1.00  0.00     0.022 A 
BRANCH  55  58
ATOM     58  S   UNL     1       1.538   4.871 -10.408  1.00  0.00     0.127 S 
ATOM     59  O   UNL     1       1.294   5.802 -11.507  1.00  0.00    -0.237 OA
ATOM     60  O   UNL     1       1.659   3.468 -10.803  1.00  0.00    -0.237 OA
ATOM     61  O   UNL     1       0.745   5.095  -9.207  1.00  0.00    -0.744 OA
ENDBRANCH  55  58
ENDBRANCH  27  51
BRANCH  39  62
ATOM     62  C   UNL     1       8.159  11.630  -5.848  1.00  0.00     0.023 A 
ATOM     63  C   UNL     1       7.353  12.643  -6.401  1.00  0.00     0.012 A 
ATOM     64  C   UNL     1       9.559  11.796  -5.819  1.00  0.00     0.148 A 
ATOM     65  C   UNL     1       7.933  13.794  -6.935  1.00  0.00     0.002 A 
ATOM     66  C   UNL     1      10.125  12.967  -6.303  1.00  0.00     0.091 A 
ATOM     67  F   UNL     1      10.308  10.808  -5.307  1.00  0.00    -0.205 F 
ATOM     68  C   UNL     1       9.315  13.963  -6.872  1.00  0.00     0.022 A 
BRANCH  66  69
ATOM     69  S   UNL     1      11.882  13.315  -6.170  1.00  0.00     0.127 S 
ATOM     70  O   UNL     1      12.303  13.263  -7.569  1.00  0.00    -0.237 OA
ATOM     71  O   UNL     1      11.887  14.654  -5.580  1.00  0.00    -0.237 OA
ATOM     72  O   UNL     1      12.437  12.274  -5.315  1.00  0.00    -0.744 OA
ENDBRANCH  66  69
ENDBRANCH  39  62
ENDBRANCH  13  14
ENDBRANCH   6   8
ENDBRANCH   3   4
ENDBRANCH   2   3
ENDBRANCH   1   2
BRANCH   1  73
ATOM     73  C   UNL     1       4.973  -3.549   2.089  1.00  0.00     0.002 C 
BRANCH  73  74
ATOM     74  C   UNL     1       6.507  -3.486   2.034  1.00  0.00     0.021 C 
BRANCH  74  75
ATOM     75  C   UNL     1       7.173  -3.334   3.402  1.00  0.00     0.116 C 
BRANCH  75  76
ATOM     76  N   UNL     1       6.831  -4.465   4.239  1.00  0.00    -0.356 N 
ATOM     77  C   UNL     1       7.547  -5.616   4.342  1.00  0.00     0.227 C 
ATOM     78  H   UNL     1       6.011  -4.394   4.780  1.00  0.00     0.163 HD
ATOM     79  O   UNL     1       6.934  -6.676   4.241  1.00  0.00    -0.275 OA
BRANCH  77  80
ATOM     80  C   UNL     1       9.051  -5.537   4.429  1.00  0.00     0.127 C 
ATOM     81  C   UNL     1       9.755  -6.785   5.027  1.00  0.00     0.127 C 
ATOM     82  C   UNL     1       9.603  -4.422   5.343  1.00  0.00     0.155 C 
ATOM     83  C   UNL     1      10.656  -6.170   6.099  1.00  0.00     0.155 C 
ATOM     84  C   UNL     1      11.054  -4.203   5.016  1.00  0.00     0.004 C 
ATOM     85  O   UNL     1       9.789  -5.120   6.598  1.00  0.00    -0.365 OA
ATOM     86  C   UNL     1      11.701  -5.289   5.465  1.00  0.00     0.004 C 
BRANCH  81  87
ATOM     87  C   UNL     1       8.945  -7.975   5.534  1.00  0.00     0.227 C 
ATOM     88  O   UNL     1       9.139  -9.076   4.995  1.00  0.00    -0.275 OA
ATOM     89  N   UNL     1       8.046  -7.982   6.546  1.00  0.00    -0.352 N 
ATOM     90  H   UNL     1       7.598  -8.854   6.638  1.00  0.00     0.163 HD
BRANCH  89  91
ATOM     91  C   UNL     1       7.580  -7.019   7.529  1.00  0.00     0.151 C 
BRANCH  91  92
ATOM     92  C   UNL     1       6.213  -6.444   7.253  1.00  0.00    -0.026 A 
ATOM     93  C   UNL     1       5.993  -5.063   7.347  1.00  0.00     0.025 A 
ATOM     94  C   UNL     1       5.117  -7.258   6.949  1.00  0.00     0.025 A 
ATOM     95  C   UNL     1       4.720  -4.565   7.105  1.00  0.00     0.111 A 
ATOM     96  C   UNL     1       3.882  -6.666   6.724  1.00  0.00     0.111 A 
ATOM     97  N   UNL     1       3.659  -5.337   6.793  1.00  0.00    -0.265 NA
ENDBRANCH  91  92
ENDBRANCH  89  91
ENDBRANCH  81  87
ENDBRANCH  77  80
ENDBRANCH  75  76
ENDBRANCH  74  75
ENDBRANCH  73  74
ENDBRANCH   1  73
TORSDOF 19
