REMARK SMILES O=C(CCc1cccnc1)Nc1cccc(F)c1C(=O)NCCCCCCNC(=O)c1ccc(-c2c3nc(c(-c4cccc(S(=O)(=O)[O-])c4F)c4ccc([nH]4)c(-c4cccc(S(=O)(=O)[O-])c4F)c4nc(c(-c5cccc(S(=O)(=O)[O-])c5F)c5ccc2[nH]5)C=C4)C=C3)cc1
REMARK SMILES IDX 24 1 23 2 22 3 21 4 19 5 20 6 18 8 12 9 13 10 14 11 16 12
REMARK SMILES IDX 15 13 17 14 11 15 1 16 2 17 3 19 4 20 5 21 6 22 10 23 7 24
REMARK SMILES IDX 9 25 8 26 25 27 26 28 27 29 28 30 29 31 30 33 31 34 32 35
REMARK SMILES IDX 93 36 33 37 92 38 34 39 35 40 36 41 86 42 37 43 91 44 85 45
REMARK SMILES IDX 87 46 38 47 90 48 84 49 83 50 39 52 71 53 51 54 70 55 52 56
REMARK SMILES IDX 55 57 69 58 88 59 53 60 54 61 68 63 89 64 56 65 40 66 41 67
REMARK SMILES IDX 49 68 42 69 44 70 50 71 43 72 45 73 46 74 47 75 48 76 72 77
REMARK SMILES IDX 73 78 81 79 74 80 76 81 82 82 75 83 77 84 78 85 79 86 80 87
REMARK SMILES IDX 57 88 58 89 66 90 59 91 61 92 67 93 60 94 62 95 63 96 64 97
REMARK SMILES IDX 65 98
REMARK H PARENT 21 7 11 18 28 32 87 51 55 62
REMARK Flexibility Score: inf
ROOT
ATOM      1  C   UNL     1       6.219   5.998   4.390  1.00  0.00     0.002 C 
ENDROOT
BRANCH   1   2
ATOM      2  C   UNL     1       5.296   4.966   5.045  1.00  0.00     0.021 C 
BRANCH   2   3
ATOM      3  C   UNL     1       3.931   4.716   4.403  1.00  0.00     0.116 C 
BRANCH   3   4
ATOM      4  N   UNL     1       3.983   4.301   3.012  1.00  0.00    -0.352 N 
ATOM      5  C   UNL     1       3.181   3.454   2.279  1.00  0.00     0.256 C 
ATOM      6  O   UNL     1       3.391   3.396   1.065  1.00  0.00    -0.269 OA
ATOM      7  H   UNL     1       4.726   4.696   2.501  1.00  0.00     0.163 HD
BRANCH   5   8
ATOM      8  C   UNL     1       2.143   2.555   2.854  1.00  0.00     0.099 A 
ATOM      9  C   UNL     1       1.893   1.285   2.269  1.00  0.00     0.056 A 
ATOM     10  C   UNL     1       0.952   0.429   2.869  1.00  0.00     0.027 A 
ATOM     11  C   UNL     1       0.210   0.833   3.978  1.00  0.00     0.005 A 
ATOM     12  C   UNL     1       1.309   2.972   3.897  1.00  0.00     0.138 A 
ATOM     13  C   UNL     1       0.370   2.118   4.474  1.00  0.00     0.040 A 
ATOM     14  F   UNL     1       1.329   4.235   4.343  1.00  0.00    -0.206 F 
BRANCH   9  15
ATOM     15  N   UNL     1       2.579   0.872   1.088  1.00  0.00    -0.325 N 
ATOM     16  O   UNL     1       1.012  -0.585   0.200  1.00  0.00    -0.275 OA
ATOM     17  C   UNL     1       2.130  -0.067   0.180  1.00  0.00     0.224 C 
ATOM     18  H   UNL     1       3.449   1.294   0.904  1.00  0.00     0.169 HD
BRANCH  17  19
ATOM     19  C   UNL     1       3.129  -0.550  -0.864  1.00  0.00     0.105 C 
BRANCH  19  20
ATOM     20  C   UNL     1       3.982   0.496  -1.580  1.00  0.00     0.047 C 
BRANCH  20  21
ATOM     21  C   UNL     1       5.167   1.013  -0.808  1.00  0.00    -0.029 A 
ATOM     22  C   UNL     1       5.475   2.375  -0.826  1.00  0.00     0.007 A 
ATOM     23  C   UNL     1       5.998   0.188  -0.055  1.00  0.00     0.114 A 
ATOM     24  C   UNL     1       6.516   2.863  -0.041  1.00  0.00     0.020 A 
ATOM     25  N   UNL     1       7.020   0.631   0.711  1.00  0.00    -0.264 NA
ATOM     26  C   UNL     1       7.241   1.962   0.716  1.00  0.00     0.111 A 
ENDBRANCH  20  21
ENDBRANCH  19  20
ENDBRANCH  17  19
ENDBRANCH   9  15
ENDBRANCH   5   8
ENDBRANCH   3   4
ENDBRANCH   2   3
ENDBRANCH   1   2
BRANCH   1  27
ATOM     27  C   UNL     1       5.647   7.390   4.115  1.00  0.00     0.002 C 
BRANCH  27  28
ATOM     28  C   UNL     1       4.946   8.098   5.276  1.00  0.00     0.021 C 
BRANCH  28  29
ATOM     29  C   UNL     1       5.734   8.223   6.576  1.00  0.00     0.116 C 
BRANCH  29  30
ATOM     30  N   UNL     1       6.946   9.011   6.439  1.00  0.00    -0.352 N 
ATOM     31  C   UNL     1       7.398  10.064   7.199  1.00  0.00     0.251 C 
ATOM     32  H   UNL     1       7.532   8.753   5.691  1.00  0.00     0.163 HD
ATOM     33  O   UNL     1       8.399  10.682   6.841  1.00  0.00    -0.269 OA
BRANCH  31  34
ATOM     34  C   UNL     1       6.680  10.477   8.429  1.00  0.00     0.039 A 
ATOM     35  C   UNL     1       6.487  11.842   8.666  1.00  0.00     0.014 A 
ATOM     36  C   UNL     1       6.220   9.541   9.360  1.00  0.00     0.014 A 
ATOM     37  C   UNL     1       5.787  12.262   9.802  1.00  0.00     0.010 A 
ATOM     38  C   UNL     1       5.463   9.958  10.455  1.00  0.00     0.010 A 
ATOM     39  C   UNL     1       5.242  11.323  10.693  1.00  0.00    -0.014 A 
BRANCH  39  40
ATOM     40  C   UNL     1       4.431  11.756  11.863  1.00  0.00     0.031 A 
ATOM     41  C   UNL     1       4.897  11.473  13.266  1.00  0.00     0.074 A 
ATOM     42  C   UNL     1       3.237  12.349  11.661  1.00  0.00     0.049 A 
ATOM     43  N   UNL     1       4.309  11.757  14.400  1.00  0.00    -0.248 NA
ATOM     44  C   UNL     1       6.177  10.761  13.420  1.00  0.00     0.031 C 
ATOM     45  C   UNL     1       2.635  12.608  10.351  1.00  0.00     0.029 A 
ATOM     46  N   UNL     1       2.304  12.822  12.552  1.00  0.00    -0.354 N 
ATOM     47  C   UNL     1       5.125  11.233  15.395  1.00  0.00     0.074 A 
ATOM     48  C   UNL     1       6.237  10.588  14.734  1.00  0.00     0.031 C 
ATOM     49  C   UNL     1       1.442  13.198  10.523  1.00  0.00     0.029 A 
ATOM     50  C   UNL     1       1.177  13.337  11.952  1.00  0.00     0.049 A 
ATOM     51  H   UNL     1       2.429  12.795  13.528  1.00  0.00     0.167 HD
ATOM     52  C   UNL     1       4.978  11.309  16.739  1.00  0.00     0.034 A 
ATOM     53  C   UNL     1       0.055  13.860  12.488  1.00  0.00     0.034 A 
ATOM     54  C   UNL     1       3.902  12.003  17.394  1.00  0.00     0.049 A 
ATOM     55  C   UNL     1      -0.059  13.979  13.984  1.00  0.00     0.074 A 
ATOM     56  C   UNL     1       3.726  12.221  18.749  1.00  0.00     0.029 A 
ATOM     57  N   UNL     1       2.823  12.585  16.750  1.00  0.00    -0.354 N 
ATOM     58  N   UNL     1       0.804  13.622  14.904  1.00  0.00    -0.248 NA
ATOM     59  C   UNL     1      -1.279  14.604  14.518  1.00  0.00     0.031 C 
ATOM     60  C   UNL     1       2.526  12.913  18.927  1.00  0.00     0.029 A 
ATOM     61  C   UNL     1       1.971  13.152  17.680  1.00  0.00     0.049 A 
ATOM     62  H   UNL     1       2.684  12.594  15.775  1.00  0.00     0.167 HD
ATOM     63  C   UNL     1       0.248  14.006  16.119  1.00  0.00     0.074 A 
ATOM     64  C   UNL     1      -1.019  14.639  15.819  1.00  0.00     0.031 C 
ATOM     65  C   UNL     1       0.741  13.834  17.370  1.00  0.00     0.034 A 
BRANCH  52  66
ATOM     66  C   UNL     1       6.038  10.691  17.612  1.00  0.00     0.023 A 
ATOM     67  C   UNL     1       7.292  11.322  17.728  1.00  0.00     0.012 A 
ATOM     68  C   UNL     1       5.752   9.566  18.411  1.00  0.00     0.148 A 
ATOM     69  C   UNL     1       8.252  10.835  18.614  1.00  0.00     0.002 A 
ATOM     70  C   UNL     1       6.697   9.113  19.324  1.00  0.00     0.091 A 
ATOM     71  F   UNL     1       4.558   8.972  18.274  1.00  0.00    -0.205 F 
ATOM     72  C   UNL     1       7.950   9.741  19.421  1.00  0.00     0.022 A 
BRANCH  70  73
ATOM     73  S   UNL     1       6.376   7.768  20.471  1.00  0.00     0.127 S 
ATOM     74  O   UNL     1       7.301   6.742  19.988  1.00  0.00    -0.237 OA
ATOM     75  O   UNL     1       6.745   8.365  21.755  1.00  0.00    -0.237 OA
ATOM     76  O   UNL     1       4.964   7.444  20.330  1.00  0.00    -0.744 OA
ENDBRANCH  70  73
ENDBRANCH  52  66
BRANCH  53  77
ATOM     77  C   UNL     1      -1.016  14.379  11.589  1.00  0.00     0.023 A 
ATOM     78  C   UNL     1      -1.229  15.768  11.496  1.00  0.00     0.012 A 
ATOM     79  C   UNL     1      -1.780  13.512  10.783  1.00  0.00     0.148 A 
ATOM     80  C   UNL     1      -2.196  16.283  10.631  1.00  0.00     0.002 A 
ATOM     81  C   UNL     1      -2.700  14.035   9.882  1.00  0.00     0.091 A 
ATOM     82  F   UNL     1      -1.573  12.192  10.898  1.00  0.00    -0.205 F 
ATOM     83  C   UNL     1      -2.921  15.419   9.815  1.00  0.00     0.022 A 
BRANCH  81  84
ATOM     84  S   UNL     1      -3.569  13.007   8.691  1.00  0.00     0.127 S 
ATOM     85  O   UNL     1      -4.937  13.045   9.206  1.00  0.00    -0.237 OA
ATOM     86  O   UNL     1      -3.360  13.748   7.445  1.00  0.00    -0.237 OA
ATOM     87  O   UNL     1      -2.911  11.712   8.735  1.00  0.00    -0.744 OA
ENDBRANCH  81  84
ENDBRANCH  53  77
BRANCH  65  88
ATOM     88  C   UNL     1      -0.061  14.354  18.534  1.00  0.00     0.023 A 
ATOM     89  C   UNL     1      -1.210  13.657  18.953  1.00  0.00     0.012 A 
ATOM     90  C   UNL     1       0.412  15.439  19.300  1.00  0.00     0.148 A 
ATOM     91  C   UNL     1      -1.884  14.039  20.113  1.00  0.00     0.002 A 
ATOM     92  C   UNL     1      -0.236  15.782  20.480  1.00  0.00     0.091 A 
ATOM     93  F   UNL     1       1.501  16.095  18.873  1.00  0.00    -0.205 F 
ATOM     94  C   UNL     1      -1.388  15.089  20.884  1.00  0.00     0.022 A 
BRANCH  92  95
ATOM     95  S   UNL     1       0.388  17.047  21.594  1.00  0.00     0.127 S 
ATOM     96  O   UNL     1      -0.639  18.081  21.475  1.00  0.00    -0.237 OA
ATOM     97  O   UNL     1       0.404  16.346  22.878  1.00  0.00    -0.237 OA
ATOM     98  O   UNL     1       1.703  17.419  21.088  1.00  0.00    -0.744 OA
ENDBRANCH  92  95
ENDBRANCH  65  88
ENDBRANCH  39  40
ENDBRANCH  31  34
ENDBRANCH  29  30
ENDBRANCH  28  29
ENDBRANCH  27  28
ENDBRANCH   1  27
TORSDOF 20
