REMARK SMILES COc1ccc2c(c1)[C@H]([NH2+][C@H]1CCC[C@H](C(=O)NCCCCCCNC(=O)c3ccc(-c4c5nc(c(-c6cccc(S(=O)(=O)[O-])c6F)c6ccc([nH]6)c(-c6cccc(S(=O)(=O)[O-])c6F)c6nc(c(-c7cccc(S(=O)(=O)[O-])c7F)c7ccc4[nH]7)C=C6)C=C5)cc3)C1)CC2
REMARK SMILES IDX 21 1 20 2 19 3 18 4 16 5 17 6 15 8 11 9 12 10 91 11 13 12
REMARK SMILES IDX 14 13 10 14 9 17 3 18 4 19 8 20 5 21 7 22 6 23 93 24 92 25
REMARK SMILES IDX 2 26 1 27 22 28 23 29 24 30 25 31 26 32 27 34 28 35 29 36
REMARK SMILES IDX 90 37 30 38 89 39 31 40 32 41 33 42 83 43 34 44 88 45 82 46
REMARK SMILES IDX 84 47 35 48 87 49 81 50 80 51 36 53 68 54 48 55 67 56 49 57
REMARK SMILES IDX 52 58 66 59 85 60 50 61 51 62 65 64 86 65 53 66 37 67 38 68
REMARK SMILES IDX 46 69 39 70 41 71 47 72 40 73 42 74 43 75 44 76 45 77 69 78
REMARK SMILES IDX 70 79 78 80 71 81 73 82 79 83 72 84 74 85 75 86 76 87 77 88
REMARK SMILES IDX 54 89 55 90 63 91 56 92 58 93 64 94 57 95 59 96 60 97 61 98
REMARK SMILES IDX 62 99
REMARK H PARENT 18 7 10 15 10 16 25 33 84 52 52 63
REMARK Flexibility Score: inf
ROOT
ATOM      1  C   UNL     1       5.698   4.063   5.001  1.00  0.00     0.002 C 
ENDROOT
BRANCH   1   2
ATOM      2  C   UNL     1       4.279   3.594   4.670  1.00  0.00     0.021 C 
BRANCH   2   3
ATOM      3  C   UNL     1       3.179   4.212   5.537  1.00  0.00     0.116 C 
BRANCH   3   4
ATOM      4  N   UNL     1       3.107   5.660   5.431  1.00  0.00    -0.356 N 
ATOM      5  C   UNL     1       2.108   6.479   4.993  1.00  0.00     0.223 C 
ATOM      6  O   UNL     1       2.297   7.697   5.056  1.00  0.00    -0.275 OA
ATOM      7  H   UNL     1       3.919   6.131   5.725  1.00  0.00     0.163 HD
BRANCH   5   8
ATOM      8  C   UNL     1       0.835   5.927   4.345  1.00  0.00     0.084 C 
ATOM      9  C   UNL     1      -0.687   3.744   4.791  1.00  0.00     0.183 C 
ATOM     10  C   UNL     1       0.071   3.289   3.547  1.00  0.00     0.065 C 
ATOM     11  C   UNL     1      -0.056   5.080   5.306  1.00  0.00     0.078 C 
ATOM     12  C   UNL     1       0.255   4.345   2.488  1.00  0.00     0.007 C 
ATOM     13  C   UNL     1       1.251   5.337   2.996  1.00  0.00     0.014 C 
BRANCH   9  14
ATOM     14  N   UNL     1      -2.143   3.837   4.516  1.00  0.00    -0.338 N 
ATOM     15  H   UNL     1      -2.533   4.492   5.193  1.00  0.00     0.347 HD
ATOM     16  H   UNL     1      -2.188   4.113   3.535  1.00  0.00     0.347 HD
BRANCH  14  17
ATOM     17  C   UNL     1      -2.977   2.594   4.577  1.00  0.00     0.214 C 
ATOM     18  C   UNL     1      -0.631  -0.330   3.969  1.00  0.00     0.119 A 
ATOM     19  C   UNL     1      -0.887  -1.042   5.141  1.00  0.00     0.047 A 
ATOM     20  C   UNL     1      -1.511   0.661   3.545  1.00  0.00     0.056 A 
ATOM     21  C   UNL     1      -2.003  -0.725   5.914  1.00  0.00     0.008 A 
ATOM     22  C   UNL     1      -2.349   1.215   4.497  1.00  0.00     0.016 A 
ATOM     23  C   UNL     1      -2.690   0.441   5.609  1.00  0.00    -0.038 A 
ATOM     24  C   UNL     1      -3.841   1.051   6.334  1.00  0.00     0.042 C 
ATOM     25  C   UNL     1      -3.653   2.530   5.978  1.00  0.00     0.075 C 
BRANCH  18  26
ATOM     26  O   UNL     1       0.670  -0.323   3.528  1.00  0.00    -0.497 OA
ATOM     27  C   UNL     1       0.878  -0.810   2.215  1.00  0.00     0.278 C 
ENDBRANCH  18  26
ENDBRANCH  14  17
ENDBRANCH   9  14
ENDBRANCH   5   8
ENDBRANCH   3   4
ENDBRANCH   2   3
ENDBRANCH   1   2
BRANCH   1  28
ATOM     28  C   UNL     1       6.108   3.889   6.465  1.00  0.00     0.002 C 
BRANCH  28  29
ATOM     29  C   UNL     1       6.026   2.455   6.992  1.00  0.00     0.021 C 
BRANCH  29  30
ATOM     30  C   UNL     1       6.890   1.449   6.238  1.00  0.00     0.116 C 
BRANCH  30  31
ATOM     31  N   UNL     1       8.304   1.795   6.295  1.00  0.00    -0.352 N 
ATOM     32  C   UNL     1       9.362   1.040   6.727  1.00  0.00     0.251 C 
ATOM     33  H   UNL     1       8.531   2.699   5.977  1.00  0.00     0.163 HD
ATOM     34  O   UNL     1      10.462   1.568   6.907  1.00  0.00    -0.269 OA
BRANCH  32  35
ATOM     35  C   UNL     1       9.181  -0.401   6.989  1.00  0.00     0.039 A 
ATOM     36  C   UNL     1       9.723  -0.956   8.150  1.00  0.00     0.014 A 
ATOM     37  C   UNL     1       8.476  -1.205   6.087  1.00  0.00     0.014 A 
ATOM     38  C   UNL     1       9.511  -2.306   8.434  1.00  0.00     0.010 A 
ATOM     39  C   UNL     1       8.200  -2.530   6.410  1.00  0.00     0.010 A 
ATOM     40  C   UNL     1       8.720  -3.097   7.583  1.00  0.00    -0.014 A 
BRANCH  40  41
ATOM     41  C   UNL     1       8.424  -4.517   7.907  1.00  0.00     0.031 A 
ATOM     42  C   UNL     1       8.880  -5.617   6.986  1.00  0.00     0.074 A 
ATOM     43  C   UNL     1       7.681  -4.810   8.993  1.00  0.00     0.049 A 
ATOM     44  N   UNL     1       8.660  -6.903   7.066  1.00  0.00    -0.248 NA
ATOM     45  C   UNL     1       9.668  -5.218   5.807  1.00  0.00     0.031 C 
ATOM     46  C   UNL     1       7.115  -3.828   9.922  1.00  0.00     0.029 A 
ATOM     47  N   UNL     1       7.249  -6.017   9.485  1.00  0.00    -0.354 N 
ATOM     48  C   UNL     1       9.261  -7.463   5.945  1.00  0.00     0.074 A 
ATOM     49  C   UNL     1       9.815  -6.373   5.174  1.00  0.00     0.031 C 
ATOM     50  C   UNL     1       6.409  -4.470  10.866  1.00  0.00     0.029 A 
ATOM     51  C   UNL     1       6.441  -5.903  10.593  1.00  0.00     0.049 A 
ATOM     52  H   UNL     1       7.493  -6.881   9.082  1.00  0.00     0.167 HD
ATOM     53  C   UNL     1       9.375  -8.769   5.605  1.00  0.00     0.034 A 
ATOM     54  C   UNL     1       5.785  -6.845  11.298  1.00  0.00     0.034 A 
ATOM     55  C   UNL     1       8.845  -9.854   6.387  1.00  0.00     0.049 A 
ATOM     56  C   UNL     1       5.938  -8.290  10.905  1.00  0.00     0.074 A 
ATOM     57  C   UNL     1       8.953 -11.214   6.155  1.00  0.00     0.029 A 
ATOM     58  N   UNL     1       8.105  -9.705   7.550  1.00  0.00    -0.354 N 
ATOM     59  N   UNL     1       6.626  -8.808   9.917  1.00  0.00    -0.248 NA
ATOM     60  C   UNL     1       5.255  -9.285  11.746  1.00  0.00     0.031 C 
ATOM     61  C   UNL     1       8.257 -11.886   7.165  1.00  0.00     0.029 A 
ATOM     62  C   UNL     1       7.748 -10.947   8.046  1.00  0.00     0.049 A 
ATOM     63  H   UNL     1       7.869  -8.842   7.962  1.00  0.00     0.167 HD
ATOM     64  C   UNL     1       6.493 -10.187  10.041  1.00  0.00     0.074 A 
ATOM     65  C   UNL     1       5.678 -10.423  11.214  1.00  0.00     0.031 C 
ATOM     66  C   UNL     1       6.986 -11.168   9.247  1.00  0.00     0.034 A 
BRANCH  53  67
ATOM     67  C   UNL     1      10.157  -9.105   4.361  1.00  0.00     0.023 A 
ATOM     68  C   UNL     1      11.556  -8.932   4.358  1.00  0.00     0.012 A 
ATOM     69  C   UNL     1       9.526  -9.654   3.228  1.00  0.00     0.148 A 
ATOM     70  C   UNL     1      12.313  -9.270   3.236  1.00  0.00     0.002 A 
ATOM     71  C   UNL     1      10.293 -10.032   2.131  1.00  0.00     0.091 A 
ATOM     72  F   UNL     1       8.194  -9.796   3.243  1.00  0.00    -0.205 F 
ATOM     73  C   UNL     1      11.683  -9.829   2.129  1.00  0.00     0.022 A 
BRANCH  71  74
ATOM     74  S   UNL     1       9.593 -10.834   0.684  1.00  0.00     0.127 S 
ATOM     75  O   UNL     1       9.797  -9.815  -0.346  1.00  0.00    -0.237 OA
ATOM     76  O   UNL     1      10.443 -12.017   0.549  1.00  0.00    -0.237 OA
ATOM     77  O   UNL     1       8.202 -11.114   1.010  1.00  0.00    -0.744 OA
ENDBRANCH  71  74
ENDBRANCH  53  67
BRANCH  54  78
ATOM     78  C   UNL     1       4.945  -6.461  12.469  1.00  0.00     0.023 A 
ATOM     79  C   UNL     1       5.338  -6.842  13.767  1.00  0.00     0.012 A 
ATOM     80  C   UNL     1       3.756  -5.725  12.301  1.00  0.00     0.148 A 
ATOM     81  C   UNL     1       4.537  -6.541  14.870  1.00  0.00     0.002 A 
ATOM     82  C   UNL     1       2.994  -5.377  13.409  1.00  0.00     0.091 A 
ATOM     83  F   UNL     1       3.393  -5.380  11.058  1.00  0.00    -0.205 F 
ATOM     84  C   UNL     1       3.370  -5.802  14.692  1.00  0.00     0.022 A 
BRANCH  82  85
ATOM     85  S   UNL     1       1.550  -4.316  13.284  1.00  0.00     0.127 S 
ATOM     86  O   UNL     1       0.462  -5.263  13.512  1.00  0.00    -0.237 OA
ATOM     87  O   UNL     1       1.778  -3.364  14.372  1.00  0.00    -0.237 OA
ATOM     88  O   UNL     1       1.611  -3.728  11.953  1.00  0.00    -0.744 OA
ENDBRANCH  82  85
ENDBRANCH  54  78
BRANCH  66  89
ATOM     89  C   UNL     1       6.709 -12.595   9.645  1.00  0.00     0.023 A 
ATOM     90  C   UNL     1       5.410 -13.124   9.516  1.00  0.00     0.012 A 
ATOM     91  C   UNL     1       7.756 -13.429  10.084  1.00  0.00     0.148 A 
ATOM     92  C   UNL     1       5.149 -14.452   9.854  1.00  0.00     0.002 A 
ATOM     93  C   UNL     1       7.500 -14.765  10.368  1.00  0.00     0.091 A 
ATOM     94  F   UNL     1       8.982 -12.901  10.216  1.00  0.00    -0.205 F 
ATOM     95  C   UNL     1       6.195 -15.274  10.268  1.00  0.00     0.022 A 
BRANCH  93  96
ATOM     96  S   UNL     1       8.799 -15.923  10.812  1.00  0.00     0.127 S 
ATOM     97  O   UNL     1       8.499 -16.180  12.220  1.00  0.00    -0.237 OA
ATOM     98  O   UNL     1       8.528 -17.047   9.916  1.00  0.00    -0.237 OA
ATOM     99  O   UNL     1      10.057 -15.235  10.558  1.00  0.00    -0.744 OA
ENDBRANCH  93  96
ENDBRANCH  66  89
ENDBRANCH  40  41
ENDBRANCH  32  35
ENDBRANCH  30  31
ENDBRANCH  29  30
ENDBRANCH  28  29
ENDBRANCH   1  28
TORSDOF 19
