REMARK SMILES Cc1cccc(NC(=O)C[C@@H]2CCCCO2)c1C(=O)NCCCCCCNC(=O)c1ccc(-c2c3nc(c(-c4cccc(S(=O)(=O)[O-])c4F)c4ccc([nH]4)c(-c4cccc(S(=O)(=O)[O-])c4F)c4nc(c(-c5cccc(S(=O)(=O)[O-])c5F)c5ccc2[nH]5)C=C4)C=C3)cc1
REMARK SMILES IDX 23 1 22 2 21 3 20 4 18 5 19 6 17 8 1 9 2 10 3 11 4 12 6 13
REMARK SMILES IDX 5 14 7 15 8 16 9 18 10 19 11 20 12 21 16 22 13 23 15 24
REMARK SMILES IDX 14 25 24 26 25 27 26 28 27 29 28 30 29 32 30 33 31 34 92 35
REMARK SMILES IDX 32 36 91 37 33 38 34 39 35 40 85 41 36 42 90 43 84 44 86 45
REMARK SMILES IDX 37 46 89 47 83 48 82 49 38 51 70 52 50 53 69 54 51 55 54 56
REMARK SMILES IDX 68 57 87 58 52 59 53 60 67 62 88 63 55 64 39 65 40 66 48 67
REMARK SMILES IDX 41 68 43 69 49 70 42 71 44 72 45 73 46 74 47 75 71 76 72 77
REMARK SMILES IDX 80 78 73 79 75 80 81 81 74 82 76 83 77 84 78 85 79 86 56 87
REMARK SMILES IDX 57 88 65 89 58 90 60 91 66 92 59 93 61 94 62 95 63 96 64 97
REMARK H PARENT 20 7 7 17 27 31 86 50 54 61
REMARK Flexibility Score: inf
ROOT
ATOM      1  C   UNL     1       5.423   2.948  -0.800  1.00  0.00     0.002 C 
ENDROOT
BRANCH   1   2
ATOM      2  C   UNL     1       4.353   1.857  -0.696  1.00  0.00     0.021 C 
BRANCH   2   3
ATOM      3  C   UNL     1       3.364   2.077   0.454  1.00  0.00     0.116 C 
BRANCH   3   4
ATOM      4  N   UNL     1       2.211   2.792  -0.049  1.00  0.00    -0.352 N 
ATOM      5  C   UNL     1       0.904   2.427  -0.228  1.00  0.00     0.253 C 
ATOM      6  O   UNL     1       0.160   3.256  -0.752  1.00  0.00    -0.269 OA
ATOM      7  H   UNL     1       2.403   3.721  -0.313  1.00  0.00     0.163 HD
BRANCH   5   8
ATOM      8  C   UNL     1       0.339   1.167   0.346  1.00  0.00     0.066 A 
ATOM      9  C   UNL     1       1.938  -0.455  -0.843  1.00  0.00     0.045 C 
ATOM     10  C   UNL     1       0.935  -0.107   0.224  1.00  0.00    -0.036 A 
ATOM     11  C   UNL     1       0.463  -1.167   1.020  1.00  0.00     0.004 A 
ATOM     12  C   UNL     1      -0.636  -0.993   1.855  1.00  0.00     0.002 A 
ATOM     13  C   UNL     1      -0.928   1.248   0.979  1.00  0.00     0.054 A 
ATOM     14  C   UNL     1      -1.347   0.204   1.812  1.00  0.00     0.027 A 
BRANCH  13  15
ATOM     15  N   UNL     1      -1.795   2.320   0.650  1.00  0.00    -0.325 N 
ATOM     16  C   UNL     1      -3.106   2.311   0.240  1.00  0.00     0.227 C 
ATOM     17  H   UNL     1      -1.392   3.215   0.728  1.00  0.00     0.169 HD
ATOM     18  O   UNL     1      -3.631   3.383  -0.083  1.00  0.00    -0.275 OA
BRANCH  16  19
ATOM     19  C   UNL     1      -3.915   1.034   0.157  1.00  0.00     0.132 C 
BRANCH  19  20
ATOM     20  C   UNL     1      -4.186   0.503  -1.264  1.00  0.00     0.127 C 
ATOM     21  C   UNL     1      -4.896  -0.860  -1.210  1.00  0.00     0.033 C 
ATOM     22  O   UNL     1      -3.054   0.389  -2.125  1.00  0.00    -0.378 OA
ATOM     23  C   UNL     1      -3.957  -1.963  -0.723  1.00  0.00     0.005 C 
ATOM     24  C   UNL     1      -2.105  -0.613  -1.790  1.00  0.00     0.160 C 
ATOM     25  C   UNL     1      -2.692  -1.998  -1.568  1.00  0.00     0.029 C 
ENDBRANCH  19  20
ENDBRANCH  16  19
ENDBRANCH  13  15
ENDBRANCH   5   8
ENDBRANCH   3   4
ENDBRANCH   2   3
ENDBRANCH   1   2
BRANCH   1  26
ATOM     26  C   UNL     1       6.323   3.108   0.435  1.00  0.00     0.002 C 
BRANCH  26  27
ATOM     27  C   UNL     1       6.784   1.802   1.086  1.00  0.00     0.021 C 
BRANCH  27  28
ATOM     28  C   UNL     1       7.707   0.982   0.198  1.00  0.00     0.116 C 
BRANCH  28  29
ATOM     29  N   UNL     1       9.106   1.274   0.431  1.00  0.00    -0.352 N 
ATOM     30  C   UNL     1      10.243   0.723  -0.141  1.00  0.00     0.251 C 
ATOM     31  H   UNL     1       9.277   1.974   1.101  1.00  0.00     0.163 HD
ATOM     32  O   UNL     1      11.309   0.900   0.400  1.00  0.00    -0.269 OA
BRANCH  30  33
ATOM     33  C   UNL     1      10.143   0.067  -1.475  1.00  0.00     0.039 A 
ATOM     34  C   UNL     1      11.123   0.399  -2.420  1.00  0.00     0.014 A 
ATOM     35  C   UNL     1       9.021  -0.655  -1.864  1.00  0.00     0.014 A 
ATOM     36  C   UNL     1      10.853   0.239  -3.779  1.00  0.00     0.010 A 
ATOM     37  C   UNL     1       8.715  -0.744  -3.204  1.00  0.00     0.010 A 
ATOM     38  C   UNL     1       9.598  -0.225  -4.154  1.00  0.00    -0.014 A 
BRANCH  38  39
ATOM     39  C   UNL     1       9.086  -0.235  -5.513  1.00  0.00     0.031 A 
ATOM     40  C   UNL     1       9.327  -1.411  -6.365  1.00  0.00     0.074 A 
ATOM     41  C   UNL     1       8.245   0.751  -5.897  1.00  0.00     0.049 A 
ATOM     42  N   UNL     1       9.051  -1.466  -7.620  1.00  0.00    -0.248 NA
ATOM     43  C   UNL     1       9.924  -2.634  -5.846  1.00  0.00     0.031 C 
ATOM     44  C   UNL     1       7.353   0.766  -7.050  1.00  0.00     0.029 A 
ATOM     45  N   UNL     1       8.193   2.065  -5.421  1.00  0.00    -0.354 N 
ATOM     46  C   UNL     1       9.201  -2.773  -8.029  1.00  0.00     0.074 A 
ATOM     47  C   UNL     1       9.807  -3.442  -6.904  1.00  0.00     0.031 C 
ATOM     48  C   UNL     1       7.095   2.044  -7.375  1.00  0.00     0.029 A 
ATOM     49  C   UNL     1       7.977   2.864  -6.562  1.00  0.00     0.049 A 
ATOM     50  H   UNL     1       8.287   2.368  -4.489  1.00  0.00     0.167 HD
ATOM     51  C   UNL     1       8.680  -3.135  -9.236  1.00  0.00     0.034 A 
ATOM     52  C   UNL     1       8.918   3.733  -7.045  1.00  0.00     0.034 A 
ATOM     53  C   UNL     1       8.237  -1.947  -9.985  1.00  0.00     0.049 A 
ATOM     54  C   UNL     1       9.361   3.422  -8.475  1.00  0.00     0.074 A 
ATOM     55  C   UNL     1       7.029  -1.295 -10.172  1.00  0.00     0.029 A 
ATOM     56  N   UNL     1       9.211  -1.074 -10.436  1.00  0.00    -0.354 N 
ATOM     57  N   UNL     1       8.910   2.429  -9.196  1.00  0.00    -0.248 NA
ATOM     58  C   UNL     1      10.425   4.157  -9.162  1.00  0.00     0.031 C 
ATOM     59  C   UNL     1       7.310   0.020 -10.663  1.00  0.00     0.029 A 
ATOM     60  C   UNL     1       8.681   0.149 -10.806  1.00  0.00     0.049 A 
ATOM     61  H   UNL     1      10.168  -1.297 -10.487  1.00  0.00     0.167 HD
ATOM     62  C   UNL     1       9.692   2.284 -10.313  1.00  0.00     0.074 A 
ATOM     63  C   UNL     1      10.603   3.415 -10.267  1.00  0.00     0.031 C 
ATOM     64  C   UNL     1       9.603   1.220 -11.168  1.00  0.00     0.034 A 
BRANCH  51  65
ATOM     65  C   UNL     1       8.376  -4.554  -9.692  1.00  0.00     0.023 A 
ATOM     66  C   UNL     1       7.470  -4.701 -10.768  1.00  0.00     0.012 A 
ATOM     67  C   UNL     1       8.841  -5.760  -9.116  1.00  0.00     0.148 A 
ATOM     68  C   UNL     1       6.995  -5.948 -11.192  1.00  0.00     0.002 A 
ATOM     69  C   UNL     1       8.326  -7.003  -9.498  1.00  0.00     0.091 A 
ATOM     70  F   UNL     1       9.839  -5.740  -8.235  1.00  0.00    -0.205 F 
ATOM     71  C   UNL     1       7.400  -7.100 -10.537  1.00  0.00     0.022 A 
BRANCH  69  72
ATOM     72  S   UNL     1       8.755  -8.535  -8.646  1.00  0.00     0.127 S 
ATOM     73  O   UNL     1       7.438  -9.044  -8.257  1.00  0.00    -0.237 OA
ATOM     74  O   UNL     1       9.417  -9.305  -9.695  1.00  0.00    -0.237 OA
ATOM     75  O   UNL     1       9.601  -8.157  -7.520  1.00  0.00    -0.744 OA
ENDBRANCH  69  72
ENDBRANCH  51  65
BRANCH  52  76
ATOM     76  C   UNL     1       9.813   4.283  -5.975  1.00  0.00     0.023 A 
ATOM     77  C   UNL     1       9.188   4.950  -4.892  1.00  0.00     0.012 A 
ATOM     78  C   UNL     1      11.136   3.837  -5.814  1.00  0.00     0.148 A 
ATOM     79  C   UNL     1       9.790   4.992  -3.633  1.00  0.00     0.002 A 
ATOM     80  C   UNL     1      11.744   3.917  -4.563  1.00  0.00     0.091 A 
ATOM     81  F   UNL     1      11.766   3.279  -6.854  1.00  0.00    -0.205 F 
ATOM     82  C   UNL     1      11.053   4.438  -3.460  1.00  0.00     0.022 A 
BRANCH  80  83
ATOM     83  S   UNL     1      13.397   3.260  -4.308  1.00  0.00     0.127 S 
ATOM     84  O   UNL     1      14.223   4.416  -4.643  1.00  0.00    -0.237 OA
ATOM     85  O   UNL     1      13.386   2.903  -2.890  1.00  0.00    -0.237 OA
ATOM     86  O   UNL     1      13.477   2.119  -5.208  1.00  0.00    -0.744 OA
ENDBRANCH  80  83
ENDBRANCH  52  76
BRANCH  64  87
ATOM     87  C   UNL     1      10.414   1.131 -12.443  1.00  0.00     0.023 A 
ATOM     88  C   UNL     1      10.565   2.270 -13.261  1.00  0.00     0.012 A 
ATOM     89  C   UNL     1      10.913  -0.095 -12.946  1.00  0.00     0.148 A 
ATOM     90  C   UNL     1      11.224   2.208 -14.493  1.00  0.00     0.002 A 
ATOM     91  C   UNL     1      11.470  -0.172 -14.219  1.00  0.00     0.091 A 
ATOM     92  F   UNL     1      10.902  -1.187 -12.172  1.00  0.00    -0.205 F 
ATOM     93  C   UNL     1      11.655   0.982 -14.983  1.00  0.00     0.022 A 
BRANCH  91  94
ATOM     94  S   UNL     1      11.839  -1.749 -15.003  1.00  0.00     0.127 S 
ATOM     95  O   UNL     1      11.273  -1.560 -16.341  1.00  0.00    -0.237 OA
ATOM     96  O   UNL     1      13.298  -1.775 -14.957  1.00  0.00    -0.237 OA
ATOM     97  O   UNL     1      11.153  -2.755 -14.204  1.00  0.00    -0.744 OA
ENDBRANCH  91  94
ENDBRANCH  64  87
ENDBRANCH  38  39
ENDBRANCH  30  33
ENDBRANCH  28  29
ENDBRANCH  27  28
ENDBRANCH  26  27
ENDBRANCH   1  26
TORSDOF 19
