REMARK SMILES COCc1cc(C)nc(N/N=C\c2ccc(-c3cccc(C(=O)NCCCCCCNC(=O)c4ccc(-c5c6nc(c(-c7cccc(S(=O)(=O)[O-])c7F)c7ccc([nH]7)c(-c7cccc(S(=O)(=O)[O-])c7F)c7nc(c(-c8cccc(S(=O)(=O)[O-])c8F)c8ccc5[nH]8)C=C7)C=C6)cc4)c3)o2)c1C#N
REMARK SMILES IDX 26 1 25 2 24 3 22 4 23 5 21 7 17 8 18 9 97 10 19 11 20 12
REMARK SMILES IDX 16 13 13 14 14 15 98 16 15 17 12 18 11 19 10 20 9 22 4 23
REMARK SMILES IDX 5 24 99 25 6 26 7 27 8 28 3 29 2 30 1 31 100 32 101 33 27 34
REMARK SMILES IDX 28 35 29 36 30 37 31 38 32 39 33 41 34 42 35 43 96 44 36 45
REMARK SMILES IDX 95 46 37 47 38 48 39 49 89 50 40 51 94 52 88 53 90 54 41 55
REMARK SMILES IDX 93 56 87 57 86 58 42 60 74 61 54 62 73 63 55 64 58 65 72 66
REMARK SMILES IDX 91 67 56 68 57 69 71 71 92 72 59 73 43 74 44 75 52 76 45 77
REMARK SMILES IDX 47 78 53 79 46 80 48 81 49 82 50 83 51 84 75 85 76 86 84 87
REMARK SMILES IDX 77 88 79 89 85 90 78 91 80 92 81 93 82 94 83 95 60 96 61 97
REMARK SMILES IDX 69 98 62 99 64 100 70 101 63 102 65 103 66 104 67 105 68 106
REMARK H PARENT 24 6 10 21 31 40 90 59 58 70
REMARK Flexibility Score: inf
ROOT
ATOM      1  C   UNL     1       5.183  -7.637   3.483  1.00  0.00     0.021 C 
ENDROOT
BRANCH   1   2
ATOM      2  C   UNL     1       5.487  -6.443   2.568  1.00  0.00     0.116 C 
BRANCH   2   3
ATOM      3  N   UNL     1       5.849  -6.881   1.231  1.00  0.00    -0.352 N 
ATOM      4  C   UNL     1       5.110  -7.067   0.086  1.00  0.00     0.251 C 
ATOM      5  O   UNL     1       5.722  -7.346  -0.947  1.00  0.00    -0.269 OA
ATOM      6  H   UNL     1       6.806  -7.083   1.124  1.00  0.00     0.163 HD
BRANCH   4   7
ATOM      7  C   UNL     1       3.626  -6.911   0.027  1.00  0.00     0.040 A 
ATOM      8  C   UNL     1       1.444  -6.623   1.096  1.00  0.00     0.018 A 
ATOM      9  C   UNL     1       0.858  -6.443  -0.161  1.00  0.00     0.012 A 
ATOM     10  C   UNL     1       2.802  -6.947   1.150  1.00  0.00     0.025 A 
ATOM     11  C   UNL     1       1.645  -6.489  -1.317  1.00  0.00     0.002 A 
ATOM     12  C   UNL     1       3.026  -6.694  -1.220  1.00  0.00     0.014 A 
BRANCH   8  13
ATOM     13  C   UNL     1       0.782  -6.245   2.347  1.00  0.00     0.134 A 
ATOM     14  C   UNL     1      -0.933  -5.417   3.438  1.00  0.00     0.147 A 
ATOM     15  C   UNL     1       0.156  -5.255   4.268  1.00  0.00     0.053 A 
ATOM     16  O   UNL     1      -0.569  -6.108   2.313  1.00  0.00    -0.455 OA
ATOM     17  C   UNL     1       1.263  -5.792   3.566  1.00  0.00     0.051 A 
BRANCH  14  18
ATOM     18  C   UNL     1      -2.287  -4.971   3.484  1.00  0.00     0.180 C 
ATOM     19  N   UNL     1      -2.803  -3.792   3.664  1.00  0.00    -0.178 NA
BRANCH  19  20
ATOM     20  N   UNL     1      -2.116  -2.631   3.853  1.00  0.00    -0.260 N 
ATOM     21  H   UNL     1      -2.434  -2.067   4.594  1.00  0.00     0.192 HD
BRANCH  20  22
ATOM     22  C   UNL     1      -1.000  -2.119   3.126  1.00  0.00     0.164 A 
ATOM     23  C   UNL     1       0.549  -0.292   2.708  1.00  0.00     0.001 A 
ATOM     24  C   UNL     1       1.465  -1.221   2.233  1.00  0.00     0.031 A 
ATOM     25  C   UNL     1      -0.680  -0.750   3.217  1.00  0.00     0.102 A 
ATOM     26  C   UNL     1       0.989  -2.476   1.944  1.00  0.00     0.040 A 
ATOM     27  C   UNL     1       1.784  -3.305   0.984  1.00  0.00     0.067 C 
ATOM     28  N   UNL     1      -0.213  -2.928   2.377  1.00  0.00    -0.233 NA
BRANCH  23  29
ATOM     29  C   UNL     1       0.842   1.151   2.384  1.00  0.00     0.196 C 
BRANCH  29  30
ATOM     30  O   UNL     1       0.330   1.487   1.082  1.00  0.00    -0.380 OA
ATOM     31  C   UNL     1       0.874   0.733  -0.001  1.00  0.00     0.195 C 
ENDBRANCH  29  30
ENDBRANCH  23  29
BRANCH  25  32
ATOM     32  C   UNL     1      -1.635   0.182   3.736  1.00  0.00     0.103 C 
ATOM     33  N   UNL     1      -2.441   0.912   4.137  1.00  0.00    -0.192 NA
ENDBRANCH  25  32
ENDBRANCH  20  22
ENDBRANCH  19  20
ENDBRANCH  14  18
ENDBRANCH   8  13
ENDBRANCH   4   7
ENDBRANCH   2   3
ENDBRANCH   1   2
BRANCH   1  34
ATOM     34  C   UNL     1       6.418  -8.247   4.145  1.00  0.00     0.002 C 
BRANCH  34  35
ATOM     35  C   UNL     1       7.202  -7.278   5.032  1.00  0.00     0.002 C 
BRANCH  35  36
ATOM     36  C   UNL     1       6.373  -6.592   6.122  1.00  0.00     0.021 C 
BRANCH  36  37
ATOM     37  C   UNL     1       5.740  -7.554   7.124  1.00  0.00     0.116 C 
BRANCH  37  38
ATOM     38  N   UNL     1       6.753  -8.353   7.797  1.00  0.00    -0.352 N 
ATOM     39  C   UNL     1       7.074  -8.409   9.128  1.00  0.00     0.251 C 
ATOM     40  H   UNL     1       7.285  -8.938   7.211  1.00  0.00     0.163 HD
ATOM     41  O   UNL     1       8.143  -8.903   9.476  1.00  0.00    -0.269 OA
BRANCH  39  42
ATOM     42  C   UNL     1       6.132  -7.884  10.137  1.00  0.00     0.039 A 
ATOM     43  C   UNL     1       6.639  -7.187  11.236  1.00  0.00     0.014 A 
ATOM     44  C   UNL     1       4.757  -8.109  10.018  1.00  0.00     0.014 A 
ATOM     45  C   UNL     1       5.760  -6.685  12.196  1.00  0.00     0.010 A 
ATOM     46  C   UNL     1       3.878  -7.534  10.930  1.00  0.00     0.010 A 
ATOM     47  C   UNL     1       4.371  -6.831  12.038  1.00  0.00    -0.014 A 
BRANCH  47  48
ATOM     48  C   UNL     1       3.432  -6.239  13.022  1.00  0.00     0.031 A 
ATOM     49  C   UNL     1       2.505  -7.113  13.822  1.00  0.00     0.074 A 
ATOM     50  C   UNL     1       3.376  -4.899  13.152  1.00  0.00     0.049 A 
ATOM     51  N   UNL     1       1.630  -6.767  14.730  1.00  0.00    -0.248 NA
ATOM     52  C   UNL     1       2.544  -8.559  13.550  1.00  0.00     0.031 C 
ATOM     53  C   UNL     1       4.159  -3.943  12.366  1.00  0.00     0.029 A 
ATOM     54  N   UNL     1       2.615  -4.109  13.975  1.00  0.00    -0.354 N 
ATOM     55  C   UNL     1       0.994  -7.941  15.114  1.00  0.00     0.074 A 
ATOM     56  C   UNL     1       1.557  -9.006  14.312  1.00  0.00     0.031 C 
ATOM     57  C   UNL     1       3.848  -2.697  12.754  1.00  0.00     0.029 A 
ATOM     58  C   UNL     1       2.819  -2.762  13.786  1.00  0.00     0.049 A 
ATOM     59  H   UNL     1       1.983  -4.471  14.637  1.00  0.00     0.167 HD
ATOM     60  C   UNL     1       0.044  -8.122  16.062  1.00  0.00     0.034 A 
ATOM     61  C   UNL     1       2.235  -1.698  14.369  1.00  0.00     0.034 A 
ATOM     62  C   UNL     1      -0.496  -7.062  16.871  1.00  0.00     0.049 A 
ATOM     63  C   UNL     1       1.214  -1.927  15.448  1.00  0.00     0.074 A 
ATOM     64  C   UNL     1      -1.390  -7.153  17.924  1.00  0.00     0.029 A 
ATOM     65  N   UNL     1      -0.214  -5.715  16.703  1.00  0.00    -0.354 N 
ATOM     66  N   UNL     1       0.751  -3.060  15.918  1.00  0.00    -0.248 NA
ATOM     67  C   UNL     1       0.665  -0.733  16.105  1.00  0.00     0.031 C 
ATOM     68  C   UNL     1      -1.685  -5.856  18.360  1.00  0.00     0.029 A 
ATOM     69  C   UNL     1      -0.934  -4.961  17.615  1.00  0.00     0.049 A 
ATOM     70  H   UNL     1       0.407  -5.347  16.033  1.00  0.00     0.167 HD
ATOM     71  C   UNL     1      -0.121  -2.718  16.945  1.00  0.00     0.074 A 
ATOM     72  C   UNL     1      -0.097  -1.272  17.046  1.00  0.00     0.031 C 
ATOM     73  C   UNL     1      -0.881  -3.525  17.726  1.00  0.00     0.034 A 
BRANCH  60  74
ATOM     74  C   UNL     1      -0.457  -9.525  16.293  1.00  0.00     0.023 A 
ATOM     75  C   UNL     1       0.394 -10.494  16.865  1.00  0.00     0.012 A 
ATOM     76  C   UNL     1      -1.788  -9.873  15.988  1.00  0.00     0.148 A 
ATOM     77  C   UNL     1      -0.055 -11.795  17.088  1.00  0.00     0.002 A 
ATOM     78  C   UNL     1      -2.244 -11.157  16.262  1.00  0.00     0.091 A 
ATOM     79  F   UNL     1      -2.578  -8.948  15.426  1.00  0.00    -0.205 F 
ATOM     80  C   UNL     1      -1.376 -12.123  16.797  1.00  0.00     0.022 A 
BRANCH  78  81
ATOM     81  S   UNL     1      -3.950 -11.655  16.002  1.00  0.00     0.127 S 
ATOM     82  O   UNL     1      -3.819 -12.582  14.879  1.00  0.00    -0.237 OA
ATOM     83  O   UNL     1      -4.283 -12.287  17.279  1.00  0.00    -0.237 OA
ATOM     84  O   UNL     1      -4.688 -10.432  15.719  1.00  0.00    -0.744 OA
ENDBRANCH  78  81
ENDBRANCH  60  74
BRANCH  61  85
ATOM     85  C   UNL     1       2.638  -0.322  13.966  1.00  0.00     0.023 A 
ATOM     86  C   UNL     1       3.357   0.491  14.864  1.00  0.00     0.012 A 
ATOM     87  C   UNL     1       2.341   0.169  12.680  1.00  0.00     0.148 A 
ATOM     88  C   UNL     1       3.742   1.782  14.499  1.00  0.00     0.002 A 
ATOM     89  C   UNL     1       2.783   1.430  12.301  1.00  0.00     0.091 A 
ATOM     90  F   UNL     1       1.651  -0.620  11.843  1.00  0.00    -0.205 F 
ATOM     91  C   UNL     1       3.466   2.247  13.216  1.00  0.00     0.022 A 
BRANCH  89  92
ATOM     92  S   UNL     1       2.600   2.050  10.625  1.00  0.00     0.127 S 
ATOM     93  O   UNL     1       1.651   3.143  10.812  1.00  0.00    -0.237 OA
ATOM     94  O   UNL     1       3.967   2.465  10.308  1.00  0.00    -0.237 OA
ATOM     95  O   UNL     1       2.119   0.924   9.835  1.00  0.00    -0.744 OA
ENDBRANCH  89  92
ENDBRANCH  61  85
BRANCH  73  96
ATOM     96  C   UNL     1      -1.728  -2.867  18.787  1.00  0.00     0.023 A 
ATOM     97  C   UNL     1      -2.841  -2.085  18.420  1.00  0.00     0.012 A 
ATOM     98  C   UNL     1      -1.442  -3.063  20.152  1.00  0.00     0.148 A 
ATOM     99  C   UNL     1      -3.626  -1.467  19.394  1.00  0.00     0.002 A 
ATOM    100  C   UNL     1      -2.262  -2.493  21.118  1.00  0.00     0.091 A 
ATOM    101  F   UNL     1      -0.369  -3.797  20.483  1.00  0.00    -0.205 F 
ATOM    102  C   UNL     1      -3.343  -1.680  20.741  1.00  0.00     0.022 A 
BRANCH 100 103
ATOM    103  S   UNL     1      -2.034  -2.794  22.874  1.00  0.00     0.127 S 
ATOM    104  O   UNL     1      -1.535  -1.499  23.335  1.00  0.00    -0.237 OA
ATOM    105  O   UNL     1      -3.393  -3.115  23.311  1.00  0.00    -0.237 OA
ATOM    106  O   UNL     1      -1.090  -3.899  22.974  1.00  0.00    -0.744 OA
ENDBRANCH 100 103
ENDBRANCH  73  96
ENDBRANCH  47  48
ENDBRANCH  39  42
ENDBRANCH  37  38
ENDBRANCH  36  37
ENDBRANCH  35  36
ENDBRANCH  34  35
ENDBRANCH   1  34
TORSDOF 23
