REMARK SMILES O=C(CCNC(=O)[C@H]1CCCN(S(=O)(=O)c2ccc(Cl)cc2)C1)NCCCCCCNC(=O)c1ccc(-c2c3nc(c(-c4cccc(S(=O)(=O)[O-])c4F)c4ccc([nH]4)c(-c4cccc(S(=O)(=O)[O-])c4F)c4nc(c(-c5cccc(S(=O)(=O)[O-])c5F)c5ccc2[nH]5)C=C4)C=C3)cc1
REMARK SMILES IDX 26 1 25 2 24 3 1 4 2 5 3 7 4 8 5 9 6 10 7 12 8 13 9 14 23 15
REMARK SMILES IDX 10 16 12 17 11 18 13 19 14 20 15 21 16 22 17 23 22 24 18 25
REMARK SMILES IDX 21 26 19 27 20 28 27 29 28 30 29 31 30 32 31 33 32 34 33 36
REMARK SMILES IDX 34 37 35 38 96 39 36 40 95 41 37 42 38 43 39 44 89 45 40 46
REMARK SMILES IDX 94 47 88 48 90 49 41 50 93 51 87 52 86 53 42 55 74 56 54 57
REMARK SMILES IDX 73 58 55 59 58 60 72 61 91 62 56 63 57 64 71 66 92 67 59 68
REMARK SMILES IDX 43 69 44 70 52 71 45 72 47 73 53 74 46 75 48 76 49 77 50 78
REMARK SMILES IDX 51 79 75 80 76 81 84 82 77 83 79 84 85 85 78 86 80 87 81 88
REMARK SMILES IDX 82 89 83 90 60 91 61 92 69 93 62 94 64 95 70 96 63 97 65 98
REMARK SMILES IDX 66 99 67 100 68 101
REMARK H PARENT 24 6 5 11 31 35 90 54 58 65
REMARK Flexibility Score: inf
ROOT
ATOM      1  C   UNL     1       2.770  -3.996  -4.885  1.00  0.00     0.021 C 
ENDROOT
BRANCH   1   2
ATOM      2  C   UNL     1       3.998  -3.575  -5.690  1.00  0.00     0.116 C 
BRANCH   2   3
ATOM      3  N   UNL     1       4.990  -2.918  -4.861  1.00  0.00    -0.356 N 
ATOM      4  O   UNL     1       6.811  -4.150  -5.541  1.00  0.00    -0.275 OA
ATOM      5  C   UNL     1       6.328  -3.228  -4.894  1.00  0.00     0.221 C 
ATOM      6  H   UNL     1       4.689  -2.214  -4.242  1.00  0.00     0.163 HD
BRANCH   5   7
ATOM      7  C   UNL     1       7.188  -2.304  -4.055  1.00  0.00     0.121 C 
BRANCH   7   8
ATOM      8  C   UNL     1       7.184  -0.892  -4.639  1.00  0.00     0.125 C 
BRANCH   8   9
ATOM      9  N   UNL     1       6.096  -0.083  -4.104  1.00  0.00    -0.355 N 
ATOM     10  C   UNL     1       5.937   0.658  -2.981  1.00  0.00     0.224 C 
ATOM     11  H   UNL     1       5.302  -0.073  -4.686  1.00  0.00     0.163 HD
ATOM     12  O   UNL     1       4.788   1.065  -2.771  1.00  0.00    -0.275 OA
BRANCH  10  13
ATOM     13  C   UNL     1       7.062   1.114  -2.054  1.00  0.00     0.093 C 
ATOM     14  C   UNL     1       8.219   0.161  -1.782  1.00  0.00     0.016 C 
ATOM     15  C   UNL     1       7.543   2.485  -2.540  1.00  0.00     0.116 C 
ATOM     16  C   UNL     1       9.214   0.815  -0.833  1.00  0.00     0.018 C 
ATOM     17  N   UNL     1       8.613   3.075  -1.647  1.00  0.00    -0.197 NA
ATOM     18  C   UNL     1       9.732   2.120  -1.426  1.00  0.00     0.102 C 
BRANCH  17  19
ATOM     19  S   UNL     1       9.093   4.626  -2.256  1.00  0.00     0.243 S 
ATOM     20  O   UNL     1       9.783   4.395  -3.514  1.00  0.00    -0.207 OA
ATOM     21  O   UNL     1       7.947   5.501  -2.190  1.00  0.00    -0.207 OA
BRANCH  19  22
ATOM     22  C   UNL     1      10.308   5.230  -1.101  1.00  0.00     0.082 A 
ATOM     23  C   UNL     1      11.645   4.837  -1.250  1.00  0.00     0.023 A 
ATOM     24  C   UNL     1       9.952   6.172  -0.131  1.00  0.00     0.023 A 
ATOM     25  C   UNL     1      12.616   5.328  -0.377  1.00  0.00     0.022 A 
ATOM     26  C   UNL     1      10.935   6.681   0.725  1.00  0.00     0.022 A 
ATOM     27  C   UNL     1      12.257   6.247   0.608  1.00  0.00     0.041 A 
ATOM     28  Cl  UNL     1      13.459   6.858   1.677  1.00  0.00    -0.084 Cl
ENDBRANCH  19  22
ENDBRANCH  17  19
ENDBRANCH  10  13
ENDBRANCH   8   9
ENDBRANCH   7   8
ENDBRANCH   5   7
ENDBRANCH   2   3
ENDBRANCH   1   2
BRANCH   1  29
ATOM     29  C   UNL     1       2.066  -2.859  -4.131  1.00  0.00     0.002 C 
BRANCH  29  30
ATOM     30  C   UNL     1       1.590  -1.686  -4.993  1.00  0.00     0.002 C 
BRANCH  30  31
ATOM     31  C   UNL     1       0.620  -2.050  -6.119  1.00  0.00     0.021 C 
BRANCH  31  32
ATOM     32  C   UNL     1      -0.636  -2.798  -5.680  1.00  0.00     0.116 C 
BRANCH  32  33
ATOM     33  N   UNL     1      -1.468  -2.022  -4.773  1.00  0.00    -0.352 N 
ATOM     34  C   UNL     1      -2.831  -1.847  -4.787  1.00  0.00     0.251 C 
ATOM     35  H   UNL     1      -0.988  -1.558  -4.049  1.00  0.00     0.163 HD
ATOM     36  O   UNL     1      -3.357  -1.046  -4.020  1.00  0.00    -0.269 OA
BRANCH  34  37
ATOM     37  C   UNL     1      -3.661  -2.605  -5.750  1.00  0.00     0.039 A 
ATOM     38  C   UNL     1      -4.635  -1.925  -6.486  1.00  0.00     0.014 A 
ATOM     39  C   UNL     1      -3.474  -3.978  -5.934  1.00  0.00     0.014 A 
ATOM     40  C   UNL     1      -5.378  -2.610  -7.451  1.00  0.00     0.010 A 
ATOM     41  C   UNL     1      -4.167  -4.642  -6.943  1.00  0.00     0.010 A 
ATOM     42  C   UNL     1      -5.128  -3.967  -7.710  1.00  0.00    -0.014 A 
BRANCH  42  43
ATOM     43  C   UNL     1      -5.849  -4.695  -8.786  1.00  0.00     0.031 A 
ATOM     44  C   UNL     1      -6.747  -5.855  -8.449  1.00  0.00     0.074 A 
ATOM     45  C   UNL     1      -5.625  -4.372 -10.075  1.00  0.00     0.049 A 
ATOM     46  N   UNL     1      -7.413  -6.644  -9.253  1.00  0.00    -0.248 NA
ATOM     47  C   UNL     1      -6.894  -6.192  -7.023  1.00  0.00     0.031 C 
ATOM     48  C   UNL     1      -4.718  -3.318 -10.537  1.00  0.00     0.029 A 
ATOM     49  N   UNL     1      -6.121  -4.913 -11.235  1.00  0.00    -0.354 N 
ATOM     50  C   UNL     1      -8.025  -7.589  -8.438  1.00  0.00     0.074 A 
ATOM     51  C   UNL     1      -7.625  -7.296  -7.079  1.00  0.00     0.031 C 
ATOM     52  C   UNL     1      -4.728  -3.286 -11.880  1.00  0.00     0.029 A 
ATOM     53  C   UNL     1      -5.618  -4.331 -12.376  1.00  0.00     0.049 A 
ATOM     54  H   UNL     1      -6.775  -5.649 -11.249  1.00  0.00     0.167 HD
ATOM     55  C   UNL     1      -8.868  -8.591  -8.784  1.00  0.00     0.034 A 
ATOM     56  C   UNL     1      -5.847  -4.608 -13.674  1.00  0.00     0.034 A 
ATOM     57  C   UNL     1      -9.303  -8.849 -10.130  1.00  0.00     0.049 A 
ATOM     58  C   UNL     1      -6.819  -5.701 -14.030  1.00  0.00     0.074 A 
ATOM     59  C   UNL     1     -10.231  -9.776 -10.572  1.00  0.00     0.029 A 
ATOM     60  N   UNL     1      -8.838  -8.184 -11.254  1.00  0.00    -0.354 N 
ATOM     61  N   UNL     1      -7.519  -6.474 -13.235  1.00  0.00    -0.248 NA
ATOM     62  C   UNL     1      -7.059  -5.937 -15.461  1.00  0.00     0.031 C 
ATOM     63  C   UNL     1     -10.311  -9.684 -11.966  1.00  0.00     0.029 A 
ATOM     64  C   UNL     1      -9.449  -8.685 -12.390  1.00  0.00     0.049 A 
ATOM     65  H   UNL     1      -8.170  -7.460 -11.245  1.00  0.00     0.167 HD
ATOM     66  C   UNL     1      -8.310  -7.259 -14.066  1.00  0.00     0.074 A 
ATOM     67  C   UNL     1      -8.016  -6.855 -15.426  1.00  0.00     0.031 C 
ATOM     68  C   UNL     1      -9.190  -8.236 -13.734  1.00  0.00     0.034 A 
BRANCH  55  69
ATOM     69  C   UNL     1      -9.422  -9.451  -7.677  1.00  0.00     0.023 A 
ATOM     70  C   UNL     1     -10.374  -8.909  -6.789  1.00  0.00     0.012 A 
ATOM     71  C   UNL     1      -9.042 -10.800  -7.543  1.00  0.00     0.148 A 
ATOM     72  C   UNL     1     -10.909  -9.684  -5.761  1.00  0.00     0.002 A 
ATOM     73  C   UNL     1      -9.613 -11.579  -6.542  1.00  0.00     0.091 A 
ATOM     74  F   UNL     1      -8.119 -11.293  -8.381  1.00  0.00    -0.205 F 
ATOM     75  C   UNL     1     -10.537 -11.020  -5.644  1.00  0.00     0.022 A 
BRANCH  73  76
ATOM     76  S   UNL     1      -9.256 -13.331  -6.360  1.00  0.00     0.127 S 
ATOM     77  O   UNL     1      -8.390 -13.334  -5.182  1.00  0.00    -0.237 OA
ATOM     78  O   UNL     1     -10.587 -13.897  -6.139  1.00  0.00    -0.237 OA
ATOM     79  O   UNL     1      -8.624 -13.740  -7.606  1.00  0.00    -0.744 OA
ENDBRANCH  73  76
ENDBRANCH  55  69
BRANCH  56  80
ATOM     80  C   UNL     1      -5.207  -3.781 -14.737  1.00  0.00     0.023 A 
ATOM     81  C   UNL     1      -6.004  -2.898 -15.491  1.00  0.00     0.012 A 
ATOM     82  C   UNL     1      -3.822  -3.839 -14.985  1.00  0.00     0.148 A 
ATOM     83  C   UNL     1      -5.440  -2.110 -16.495  1.00  0.00     0.002 A 
ATOM     84  C   UNL     1      -3.258  -3.012 -15.950  1.00  0.00     0.091 A 
ATOM     85  F   UNL     1      -3.083  -4.694 -14.265  1.00  0.00    -0.205 F 
ATOM     86  C   UNL     1      -4.067  -2.159 -16.718  1.00  0.00     0.022 A 
BRANCH  84  87
ATOM     87  S   UNL     1      -1.484  -2.915 -16.217  1.00  0.00     0.127 S 
ATOM     88  O   UNL     1      -1.339  -3.582 -17.508  1.00  0.00    -0.237 OA
ATOM     89  O   UNL     1      -1.260  -1.469 -16.241  1.00  0.00    -0.237 OA
ATOM     90  O   UNL     1      -0.879  -3.595 -15.080  1.00  0.00    -0.744 OA
ENDBRANCH  84  87
ENDBRANCH  56  80
BRANCH  68  91
ATOM     91  C   UNL     1      -9.931  -8.919 -14.853  1.00  0.00     0.023 A 
ATOM     92  C   UNL     1      -9.253  -9.829 -15.688  1.00  0.00     0.012 A 
ATOM     93  C   UNL     1     -11.315  -8.718 -15.029  1.00  0.00     0.148 A 
ATOM     94  C   UNL     1      -9.934 -10.504 -16.701  1.00  0.00     0.002 A 
ATOM     95  C   UNL     1     -11.996  -9.431 -16.009  1.00  0.00     0.091 A 
ATOM     96  F   UNL     1     -11.939  -7.834 -14.237  1.00  0.00    -0.205 F 
ATOM     97  C   UNL     1     -11.305 -10.315 -16.853  1.00  0.00     0.022 A 
BRANCH  95  98
ATOM     98  S   UNL     1     -13.778  -9.322 -16.212  1.00  0.00     0.127 S 
ATOM     99  O   UNL     1     -13.890  -8.528 -17.434  1.00  0.00    -0.237 OA
ATOM    100  O   UNL     1     -14.161 -10.727 -16.361  1.00  0.00    -0.237 OA
ATOM    101  O   UNL     1     -14.281  -8.686 -15.002  1.00  0.00    -0.744 OA
ENDBRANCH  95  98
ENDBRANCH  68  91
ENDBRANCH  42  43
ENDBRANCH  34  37
ENDBRANCH  32  33
ENDBRANCH  31  32
ENDBRANCH  30  31
ENDBRANCH  29  30
ENDBRANCH   1  29
TORSDOF 21
