REMARK SMILES CC(C)[C@@H]([NH2+][C@@H]1CSCC(C)(C)C1)C(=O)NCCCCCCNC(=O)c1ccc(-c2c3nc(c(-c4cccc(S(=O)(=O)[O-])c4F)c4ccc([nH]4)c(-c4cccc(S(=O)(=O)[O-])c4F)c4nc(c(-c5cccc(S(=O)(=O)[O-])c5F)c5ccc2[nH]5)C=C4)C=C3)cc1
REMARK SMILES IDX 20 1 19 2 18 3 17 4 16 5 14 6 15 7 4 9 2 10 1 11 3 12 5 13
REMARK SMILES IDX 6 16 7 17 13 18 8 19 10 20 9 21 11 22 12 23 21 24 22 25
REMARK SMILES IDX 23 26 24 27 25 29 26 30 27 31 88 32 28 33 87 34 29 35 30 36
REMARK SMILES IDX 31 37 81 38 32 39 86 40 80 41 82 42 33 43 85 44 79 45 78 46
REMARK SMILES IDX 34 48 66 49 46 50 65 51 47 52 50 53 64 54 83 55 48 56 49 57
REMARK SMILES IDX 63 59 84 60 51 61 35 62 36 63 44 64 37 65 39 66 45 67 38 68
REMARK SMILES IDX 40 69 41 70 42 71 43 72 67 73 68 74 76 75 69 76 71 77 77 78
REMARK SMILES IDX 70 79 72 80 73 81 74 82 75 83 52 84 53 85 61 86 54 87 56 88
REMARK SMILES IDX 62 89 55 90 57 91 58 92 59 93 60 94
REMARK H PARENT 16 8 5 14 5 15 23 28 82 47 50 58
REMARK Flexibility Score: inf
ROOT
ATOM      1  C   UNL     1      -0.320   3.024  -6.489  1.00  0.00     0.002 C 
ENDROOT
BRANCH   1   2
ATOM      2  C   UNL     1       0.526   1.749  -6.357  1.00  0.00     0.002 C 
BRANCH   2   3
ATOM      3  C   UNL     1       1.034   1.452  -4.944  1.00  0.00     0.021 C 
BRANCH   3   4
ATOM      4  C   UNL     1      -0.090   1.271  -3.933  1.00  0.00     0.116 C 
BRANCH   4   5
ATOM      5  N   UNL     1      -0.662  -0.057  -3.979  1.00  0.00    -0.351 N 
ATOM      6  C   UNL     1      -1.144  -0.823  -2.956  1.00  0.00     0.278 C 
ATOM      7  O   UNL     1      -1.686  -1.898  -3.238  1.00  0.00    -0.268 OA
ATOM      8  H   UNL     1      -0.710  -0.466  -4.873  1.00  0.00     0.163 HD
BRANCH   6   9
ATOM      9  C   UNL     1      -0.949  -0.414  -1.474  1.00  0.00     0.275 C 
BRANCH   9  10
ATOM     10  C   UNL     1       0.580  -0.470  -1.130  1.00  0.00     0.051 C 
ATOM     11  C   UNL     1       0.865  -0.308   0.365  1.00  0.00     0.014 C 
ATOM     12  C   UNL     1       1.235  -1.773  -1.621  1.00  0.00     0.014 C 
ENDBRANCH   9  10
BRANCH   9  13
ATOM     13  N   UNL     1      -1.577   0.905  -1.190  1.00  0.00    -0.333 N 
ATOM     14  H   UNL     1      -1.348   1.522  -1.970  1.00  0.00     0.347 HD
ATOM     15  H   UNL     1      -1.198   1.175  -0.282  1.00  0.00     0.347 HD
BRANCH  13  16
ATOM     16  C   UNL     1      -3.045   0.959  -1.005  1.00  0.00     0.193 C 
ATOM     17  C   UNL     1      -3.961   0.206  -1.983  1.00  0.00     0.134 C 
ATOM     18  C   UNL     1      -3.544   2.430  -0.933  1.00  0.00     0.073 C 
ATOM     19  S   UNL     1      -3.884   0.783  -3.701  1.00  0.00    -0.155 SA
ATOM     20  C   UNL     1      -3.392   3.284  -2.219  1.00  0.00    -0.021 C 
ATOM     21  C   UNL     1      -3.906   2.586  -3.504  1.00  0.00     0.076 C 
ATOM     22  C   UNL     1      -1.940   3.785  -2.359  1.00  0.00     0.012 C 
ATOM     23  C   UNL     1      -4.230   4.582  -2.078  1.00  0.00     0.012 C 
ENDBRANCH  13  16
ENDBRANCH   9  13
ENDBRANCH   6   9
ENDBRANCH   4   5
ENDBRANCH   3   4
ENDBRANCH   2   3
ENDBRANCH   1   2
BRANCH   1  24
ATOM     24  C   UNL     1       0.334   4.303  -5.959  1.00  0.00     0.021 C 
BRANCH  24  25
ATOM     25  C   UNL     1       1.693   4.620  -6.570  1.00  0.00     0.116 C 
BRANCH  25  26
ATOM     26  N   UNL     1       1.631   4.730  -8.018  1.00  0.00    -0.352 N 
ATOM     27  C   UNL     1       2.170   5.685  -8.842  1.00  0.00     0.251 C 
ATOM     28  H   UNL     1       1.129   4.016  -8.473  1.00  0.00     0.163 HD
ATOM     29  O   UNL     1       1.864   5.715 -10.027  1.00  0.00    -0.269 OA
BRANCH  27  30
ATOM     30  C   UNL     1       3.112   6.681  -8.289  1.00  0.00     0.039 A 
ATOM     31  C   UNL     1       2.991   8.015  -8.685  1.00  0.00     0.014 A 
ATOM     32  C   UNL     1       4.119   6.299  -7.399  1.00  0.00     0.014 A 
ATOM     33  C   UNL     1       3.864   8.972  -8.163  1.00  0.00     0.010 A 
ATOM     34  C   UNL     1       4.931   7.266  -6.816  1.00  0.00     0.010 A 
ATOM     35  C   UNL     1       4.829   8.607  -7.210  1.00  0.00    -0.014 A 
BRANCH  35  36
ATOM     36  C   UNL     1       5.768   9.608  -6.645  1.00  0.00     0.031 A 
ATOM     37  C   UNL     1       7.249   9.463  -6.880  1.00  0.00     0.074 A 
ATOM     38  C   UNL     1       5.298  10.607  -5.872  1.00  0.00     0.049 A 
ATOM     39  N   UNL     1       8.232  10.200  -6.432  1.00  0.00    -0.248 NA
ATOM     40  C   UNL     1       7.687   8.324  -7.706  1.00  0.00     0.031 C 
ATOM     41  C   UNL     1       3.893  10.814  -5.517  1.00  0.00     0.029 A 
ATOM     42  N   UNL     1       5.956  11.624  -5.227  1.00  0.00    -0.354 N 
ATOM     43  C   UNL     1       9.398   9.598  -6.889  1.00  0.00     0.074 A 
ATOM     44  C   UNL     1       9.005   8.410  -7.612  1.00  0.00     0.031 C 
ATOM     45  C   UNL     1       3.792  11.897  -4.729  1.00  0.00     0.029 A 
ATOM     46  C   UNL     1       5.126  12.440  -4.494  1.00  0.00     0.049 A 
ATOM     47  H   UNL     1       6.930  11.757  -5.284  1.00  0.00     0.167 HD
ATOM     48  C   UNL     1      10.679  10.014  -6.752  1.00  0.00     0.034 A 
ATOM     49  C   UNL     1       5.411  13.502  -3.716  1.00  0.00     0.034 A 
ATOM     50  C   UNL     1      11.062  11.217  -6.066  1.00  0.00     0.049 A 
ATOM     51  C   UNL     1       6.842  13.957  -3.600  1.00  0.00     0.074 A 
ATOM     52  C   UNL     1      12.325  11.764  -5.926  1.00  0.00     0.029 A 
ATOM     53  N   UNL     1      10.185  12.060  -5.400  1.00  0.00    -0.354 N 
ATOM     54  N   UNL     1       7.918  13.450  -4.153  1.00  0.00    -0.248 NA
ATOM     55  C   UNL     1       7.095  15.153  -2.784  1.00  0.00     0.031 C 
ATOM     56  C   UNL     1      12.215  12.923  -5.152  1.00  0.00     0.029 A 
ATOM     57  C   UNL     1      10.878  13.120  -4.845  1.00  0.00     0.049 A 
ATOM     58  H   UNL     1       9.212  11.923  -5.332  1.00  0.00     0.167 HD
ATOM     59  C   UNL     1       8.964  14.293  -3.795  1.00  0.00     0.074 A 
ATOM     60  C   UNL     1       8.389  15.350  -2.988  1.00  0.00     0.031 C 
ATOM     61  C   UNL     1      10.282  14.197  -4.097  1.00  0.00     0.034 A 
BRANCH  48  62
ATOM     62  C   UNL     1      11.759   9.185  -7.399  1.00  0.00     0.023 A 
ATOM     63  C   UNL     1      11.861   9.147  -8.806  1.00  0.00     0.012 A 
ATOM     64  C   UNL     1      12.705   8.489  -6.621  1.00  0.00     0.148 A 
ATOM     65  C   UNL     1      12.860   8.401  -9.428  1.00  0.00     0.002 A 
ATOM     66  C   UNL     1      13.729   7.789  -7.248  1.00  0.00     0.091 A 
ATOM     67  F   UNL     1      12.582   8.521  -5.287  1.00  0.00    -0.205 F 
ATOM     68  C   UNL     1      13.800   7.732  -8.649  1.00  0.00     0.022 A 
BRANCH  66  69
ATOM     69  S   UNL     1      15.038   6.962  -6.337  1.00  0.00     0.127 S 
ATOM     70  O   UNL     1      14.749   5.556  -6.618  1.00  0.00    -0.237 OA
ATOM     71  O   UNL     1      16.240   7.479  -6.991  1.00  0.00    -0.237 OA
ATOM     72  O   UNL     1      14.879   7.363  -4.947  1.00  0.00    -0.744 OA
ENDBRANCH  66  69
ENDBRANCH  48  62
BRANCH  49  73
ATOM     73  C   UNL     1       4.317  14.252  -3.035  1.00  0.00     0.023 A 
ATOM     74  C   UNL     1       4.013  15.564  -3.450  1.00  0.00     0.012 A 
ATOM     75  C   UNL     1       3.577  13.677  -1.985  1.00  0.00     0.148 A 
ATOM     76  C   UNL     1       3.025  16.305  -2.802  1.00  0.00     0.002 A 
ATOM     77  C   UNL     1       2.555  14.400  -1.381  1.00  0.00     0.091 A 
ATOM     78  F   UNL     1       3.884  12.430  -1.600  1.00  0.00    -0.205 F 
ATOM     79  C   UNL     1       2.291  15.722  -1.773  1.00  0.00     0.022 A 
BRANCH  77  80
ATOM     80  S   UNL     1       1.476  13.687  -0.135  1.00  0.00     0.127 S 
ATOM     81  O   UNL     1       1.890  14.406   1.067  1.00  0.00    -0.237 OA
ATOM     82  O   UNL     1       0.151  14.045  -0.643  1.00  0.00    -0.237 OA
ATOM     83  O   UNL     1       1.755  12.257  -0.144  1.00  0.00    -0.744 OA
ENDBRANCH  77  80
ENDBRANCH  49  73
BRANCH  61  84
ATOM     84  C   UNL     1      11.193  15.296  -3.616  1.00  0.00     0.023 A 
ATOM     85  C   UNL     1      11.506  15.412  -2.248  1.00  0.00     0.012 A 
ATOM     86  C   UNL     1      11.796  16.172  -4.541  1.00  0.00     0.148 A 
ATOM     87  C   UNL     1      12.375  16.408  -1.802  1.00  0.00     0.002 A 
ATOM     88  C   UNL     1      12.704  17.125  -4.097  1.00  0.00     0.091 A 
ATOM     89  F   UNL     1      11.472  16.057  -5.837  1.00  0.00    -0.205 F 
ATOM     90  C   UNL     1      12.983  17.254  -2.727  1.00  0.00     0.022 A 
BRANCH  88  91
ATOM     91  S   UNL     1      13.612  18.188  -5.224  1.00  0.00     0.127 S 
ATOM     92  O   UNL     1      12.988  19.487  -4.976  1.00  0.00    -0.237 OA
ATOM     93  O   UNL     1      14.983  18.065  -4.728  1.00  0.00    -0.237 OA
ATOM     94  O   UNL     1      13.400  17.638  -6.556  1.00  0.00    -0.744 OA
ENDBRANCH  88  91
ENDBRANCH  61  84
ENDBRANCH  35  36
ENDBRANCH  27  30
ENDBRANCH  25  26
ENDBRANCH  24  25
ENDBRANCH   1  24
TORSDOF 19
