REMARK SMILES CCOc1ccc(C(=O)N2CCC(C(=O)NCCCCCCNC(=O)c3ccc(-c4c5nc(c(-c6cccc(S(=O)(=O)[O-])c6F)c6ccc([nH]6)c(-c6cccc(S(=O)(=O)[O-])c6F)c6nc(c(-c7cccc(S(=O)(=O)[O-])c7F)c7ccc4[nH]7)C=C6)C=C5)cc3)(c3ccccc3)CC2)cc1OC
REMARK SMILES IDX 19 1 18 2 17 3 16 4 14 5 15 6 13 8 8 9 9 10 10 11 11 12
REMARK SMILES IDX 96 13 12 14 95 15 7 16 4 17 5 18 98 19 6 20 97 21 3 22 2 23
REMARK SMILES IDX 1 24 99 25 100 26 89 27 90 28 94 29 91 30 93 31 92 32 20 33
REMARK SMILES IDX 21 34 22 35 23 36 24 37 25 39 26 40 27 41 88 42 28 43 87 44
REMARK SMILES IDX 29 45 30 46 31 47 81 48 32 49 86 50 80 51 82 52 33 53 85 54
REMARK SMILES IDX 79 55 78 56 34 58 66 59 46 60 65 61 47 62 50 63 64 64 83 65
REMARK SMILES IDX 48 66 49 67 63 69 84 70 51 71 35 72 36 73 44 74 37 75 39 76
REMARK SMILES IDX 45 77 38 78 40 79 41 80 42 81 43 82 67 83 68 84 76 85 69 86
REMARK SMILES IDX 71 87 77 88 70 89 72 90 73 91 74 92 75 93 52 94 53 95 61 96
REMARK SMILES IDX 54 97 56 98 62 99 55 100 57 101 58 102 59 103 60 104
REMARK H PARENT 16 7 23 38 82 57 50 68
REMARK Flexibility Score: inf
ROOT
ATOM      1  C   UNL     1      12.460  -0.349   6.441  1.00  0.00     0.002 C 
ENDROOT
BRANCH   1   2
ATOM      2  C   UNL     1      11.312  -0.784   5.524  1.00  0.00     0.021 C 
BRANCH   2   3
ATOM      3  C   UNL     1      10.422   0.366   5.062  1.00  0.00     0.116 C 
BRANCH   3   4
ATOM      4  N   UNL     1      11.191   1.314   4.270  1.00  0.00    -0.355 N 
ATOM      5  C   UNL     1      11.113   1.718   2.968  1.00  0.00     0.230 C 
ATOM      6  O   UNL     1      12.064   2.423   2.624  1.00  0.00    -0.274 OA
ATOM      7  H   UNL     1      11.913   1.753   4.774  1.00  0.00     0.163 HD
BRANCH   5   8
ATOM      8  C   UNL     1       9.905   1.315   2.047  1.00  0.00     0.077 C 
ATOM      9  C   UNL     1       6.608  -1.355   3.066  1.00  0.00     0.253 C 
ATOM     10  O   UNL     1       6.955  -2.439   3.535  1.00  0.00    -0.269 OA
ATOM     11  N   UNL     1       7.566  -0.418   2.627  1.00  0.00    -0.339 N 
ATOM     12  C   UNL     1       8.646  -0.973   1.830  1.00  0.00     0.121 C 
ATOM     13  C   UNL     1       7.377   1.029   2.610  1.00  0.00     0.121 C 
ATOM     14  C   UNL     1       9.972  -0.231   1.897  1.00  0.00     0.043 C 
ATOM     15  C   UNL     1       8.646   1.839   2.801  1.00  0.00     0.043 C 
BRANCH   9  16
ATOM     16  C   UNL     1       5.143  -1.135   2.817  1.00  0.00     0.043 A 
ATOM     17  C   UNL     1       2.406  -0.879   2.134  1.00  0.00     0.161 A 
ATOM     18  C   UNL     1       2.834  -1.876   3.028  1.00  0.00     0.051 A 
ATOM     19  C   UNL     1       3.338   0.011   1.609  1.00  0.00     0.161 A 
ATOM     20  C   UNL     1       4.192  -1.995   3.377  1.00  0.00     0.018 A 
ATOM     21  C   UNL     1       4.688  -0.188   1.902  1.00  0.00     0.064 A 
BRANCH  17  22
ATOM     22  O   UNL     1       1.079  -0.754   1.843  1.00  0.00    -0.490 OA
BRANCH  22  23
ATOM     23  C   UNL     1       0.568  -1.821   1.034  1.00  0.00     0.226 C 
ATOM     24  C   UNL     1      -0.051  -1.220  -0.220  1.00  0.00     0.049 C 
ENDBRANCH  22  23
ENDBRANCH  17  22
BRANCH  19  25
ATOM     25  O   UNL     1       3.179   1.100   0.804  1.00  0.00    -0.493 OA
ATOM     26  C   UNL     1       1.888   1.520   0.420  1.00  0.00     0.278 C 
ENDBRANCH  19  25
ENDBRANCH   9  16
BRANCH   8  27
ATOM     27  C   UNL     1       9.897   1.936   0.599  1.00  0.00    -0.032 A 
ATOM     28  C   UNL     1      10.872   2.822   0.109  1.00  0.00     0.005 A 
ATOM     29  C   UNL     1       8.864   1.616  -0.311  1.00  0.00     0.005 A 
ATOM     30  C   UNL     1      10.816   3.358  -1.186  1.00  0.00     0.000 A 
ATOM     31  C   UNL     1       8.794   2.158  -1.601  1.00  0.00     0.000 A 
ATOM     32  C   UNL     1       9.773   3.033  -2.041  1.00  0.00     0.000 A 
ENDBRANCH   8  27
ENDBRANCH   5   8
ENDBRANCH   3   4
ENDBRANCH   2   3
ENDBRANCH   1   2
BRANCH   1  33
ATOM     33  C   UNL     1      12.028   0.444   7.679  1.00  0.00     0.002 C 
BRANCH  33  34
ATOM     34  C   UNL     1      10.961  -0.240   8.534  1.00  0.00     0.021 C 
BRANCH  34  35
ATOM     35  C   UNL     1      11.337  -1.638   9.006  1.00  0.00     0.116 C 
BRANCH  35  36
ATOM     36  N   UNL     1      12.513  -1.623   9.860  1.00  0.00    -0.352 N 
ATOM     37  C   UNL     1      12.677  -2.177  11.106  1.00  0.00     0.251 C 
ATOM     38  H   UNL     1      13.298  -1.152   9.497  1.00  0.00     0.163 HD
ATOM     39  O   UNL     1      13.662  -1.903  11.779  1.00  0.00    -0.269 OA
BRANCH  37  40
ATOM     40  C   UNL     1      11.643  -3.095  11.630  1.00  0.00     0.039 A 
ATOM     41  C   UNL     1      11.208  -2.942  12.948  1.00  0.00     0.014 A 
ATOM     42  C   UNL     1      11.101  -4.096  10.819  1.00  0.00     0.014 A 
ATOM     43  C   UNL     1      10.197  -3.769  13.439  1.00  0.00     0.010 A 
ATOM     44  C   UNL     1      10.037  -4.861  11.283  1.00  0.00     0.010 A 
ATOM     45  C   UNL     1       9.586  -4.720  12.604  1.00  0.00    -0.014 A 
BRANCH  45  46
ATOM     46  C   UNL     1       8.486  -5.586  13.097  1.00  0.00     0.031 A 
ATOM     47  C   UNL     1       8.664  -7.081  13.138  1.00  0.00     0.074 A 
ATOM     48  C   UNL     1       7.304  -5.037  13.439  1.00  0.00     0.049 A 
ATOM     49  N   UNL     1       7.808  -8.004  13.489  1.00  0.00    -0.248 NA
ATOM     50  C   UNL     1       9.967  -7.611  12.700  1.00  0.00     0.031 C 
ATOM     51  C   UNL     1       6.983  -3.609  13.373  1.00  0.00     0.029 A 
ATOM     52  N   UNL     1       6.144  -5.617  13.887  1.00  0.00    -0.354 N 
ATOM     53  C   UNL     1       8.451  -9.219  13.281  1.00  0.00     0.074 A 
ATOM     54  C   UNL     1       9.756  -8.918  12.736  1.00  0.00     0.031 C 
ATOM     55  C   UNL     1       5.715  -3.424  13.773  1.00  0.00     0.029 A 
ATOM     56  C   UNL     1       5.121  -4.719  14.091  1.00  0.00     0.049 A 
ATOM     57  H   UNL     1       6.052  -6.583  14.048  1.00  0.00     0.167 HD
ATOM     58  C   UNL     1       8.008 -10.471  13.546  1.00  0.00     0.034 A 
ATOM     59  C   UNL     1       3.846  -4.918  14.479  1.00  0.00     0.034 A 
ATOM     60  C   UNL     1       6.724 -10.763  14.121  1.00  0.00     0.049 A 
ATOM     61  C   UNL     1       3.390  -6.317  14.796  1.00  0.00     0.074 A 
ATOM     62  C   UNL     1       6.212 -11.990  14.504  1.00  0.00     0.029 A 
ATOM     63  N   UNL     1       5.744  -9.820  14.388  1.00  0.00    -0.354 N 
ATOM     64  N   UNL     1       4.064  -7.440  14.734  1.00  0.00    -0.248 NA
ATOM     65  C   UNL     1       2.008  -6.473  15.274  1.00  0.00     0.031 C 
ATOM     66  C   UNL     1       4.909 -11.793  14.970  1.00  0.00     0.029 A 
ATOM     67  C   UNL     1       4.625 -10.438  14.921  1.00  0.00     0.049 A 
ATOM     68  H   UNL     1       5.830  -8.853  14.223  1.00  0.00     0.167 HD
ATOM     69  C   UNL     1       3.206  -8.427  15.206  1.00  0.00     0.074 A 
ATOM     70  C   UNL     1       1.968  -7.766  15.566  1.00  0.00     0.031 C 
ATOM     71  C   UNL     1       3.420  -9.760  15.325  1.00  0.00     0.034 A 
BRANCH  58  72
ATOM     72  C   UNL     1       8.939 -11.620  13.253  1.00  0.00     0.023 A 
ATOM     73  C   UNL     1      10.097 -11.800  14.039  1.00  0.00     0.012 A 
ATOM     74  C   UNL     1       8.642 -12.552  12.240  1.00  0.00     0.148 A 
ATOM     75  C   UNL     1      10.964 -12.864  13.794  1.00  0.00     0.002 A 
ATOM     76  C   UNL     1       9.484 -13.639  12.036  1.00  0.00     0.091 A 
ATOM     77  F   UNL     1       7.548 -12.355  11.491  1.00  0.00    -0.205 F 
ATOM     78  C   UNL     1      10.652 -13.789  12.802  1.00  0.00     0.022 A 
BRANCH  76  79
ATOM     79  S   UNL     1       9.127 -14.932  10.841  1.00  0.00     0.127 S 
ATOM     80  O   UNL     1      10.172 -14.707   9.842  1.00  0.00    -0.237 OA
ATOM     81  O   UNL     1       9.301 -16.144  11.641  1.00  0.00    -0.237 OA
ATOM     82  O   UNL     1       7.766 -14.694  10.383  1.00  0.00    -0.744 OA
ENDBRANCH  76  79
ENDBRANCH  58  72
BRANCH  59  83
ATOM     83  C   UNL     1       2.926  -3.758  14.649  1.00  0.00     0.023 A 
ATOM     84  C   UNL     1       2.506  -3.389  15.942  1.00  0.00     0.012 A 
ATOM     85  C   UNL     1       2.478  -3.011  13.542  1.00  0.00     0.148 A 
ATOM     86  C   UNL     1       1.625  -2.323  16.127  1.00  0.00     0.002 A 
ATOM     87  C   UNL     1       1.646  -1.915  13.738  1.00  0.00     0.091 A 
ATOM     88  F   UNL     1       2.884  -3.382  12.320  1.00  0.00    -0.205 F 
ATOM     89  C   UNL     1       1.203  -1.581  15.027  1.00  0.00     0.022 A 
BRANCH  87  90
ATOM     90  S   UNL     1       1.153  -0.826  12.398  1.00  0.00     0.127 S 
ATOM     91  O   UNL     1      -0.277  -1.108  12.294  1.00  0.00    -0.237 OA
ATOM     92  O   UNL     1       1.484   0.490  12.943  1.00  0.00    -0.237 OA
ATOM     93  O   UNL     1       1.959  -1.222  11.251  1.00  0.00    -0.744 OA
ENDBRANCH  87  90
ENDBRANCH  59  83
BRANCH  71  94
ATOM     94  C   UNL     1       2.318 -10.597  15.921  1.00  0.00     0.023 A 
ATOM     95  C   UNL     1       1.137 -10.840  15.191  1.00  0.00     0.012 A 
ATOM     96  C   UNL     1       2.489 -11.204  17.181  1.00  0.00     0.148 A 
ATOM     97  C   UNL     1       0.129 -11.643  15.724  1.00  0.00     0.002 A 
ATOM     98  C   UNL     1       1.504 -12.046  17.681  1.00  0.00     0.091 A 
ATOM     99  F   UNL     1       3.612 -10.946  17.868  1.00  0.00    -0.205 F 
ATOM    100  C   UNL     1       0.317 -12.255  16.961  1.00  0.00     0.022 A 
BRANCH  98 101
ATOM    101  S   UNL     1       1.704 -12.957  19.216  1.00  0.00     0.127 S 
ATOM    102  O   UNL     1       0.763 -12.267  20.096  1.00  0.00    -0.237 OA
ATOM    103  O   UNL     1       1.298 -14.308  18.829  1.00  0.00    -0.237 OA
ATOM    104  O   UNL     1       3.108 -12.828  19.581  1.00  0.00    -0.744 OA
ENDBRANCH  98 101
ENDBRANCH  71  94
ENDBRANCH  45  46
ENDBRANCH  37  40
ENDBRANCH  35  36
ENDBRANCH  34  35
ENDBRANCH  33  34
ENDBRANCH   1  33
TORSDOF 21
