REMARK SMILES O=C(COc1ccccc1C[NH+]1CCC2(CC[NH2+]CC2)CC1)NCCCCCCNC(=O)c1ccc(-c2c3nc(c(-c4cccc(S(=O)(=O)[O-])c4F)c4ccc([nH]4)c(-c4cccc(S(=O)(=O)[O-])c4F)c4nc(c(-c5cccc(S(=O)(=O)[O-])c5F)c5ccc2[nH]5)C=C4)C=C3)cc1
REMARK SMILES IDX 26 1 25 2 24 3 23 4 1 5 2 6 3 8 4 9 5 10 6 11 10 12 7 13
REMARK SMILES IDX 9 14 8 15 11 16 12 17 13 18 22 19 14 21 21 22 15 23 16 24
REMARK SMILES IDX 20 25 17 26 19 27 18 28 27 31 28 32 29 33 30 34 31 35 32 37
REMARK SMILES IDX 33 38 34 39 95 40 35 41 94 42 36 43 37 44 38 45 88 46 39 47
REMARK SMILES IDX 93 48 87 49 89 50 40 51 92 52 86 53 85 54 41 56 73 57 53 58
REMARK SMILES IDX 72 59 54 60 57 61 71 62 90 63 55 64 56 65 70 67 91 68 58 69
REMARK SMILES IDX 42 70 43 71 51 72 44 73 46 74 52 75 45 76 47 77 48 78 49 79
REMARK SMILES IDX 50 80 74 81 75 82 83 83 76 84 78 85 84 86 77 87 79 88 80 89
REMARK SMILES IDX 81 90 82 91 59 92 60 93 68 94 61 95 63 96 69 97 62 98 64 99
REMARK SMILES IDX 65 100 66 101 67 102
REMARK H PARENT 23 7 12 20 18 29 18 30 30 36 89 55 57 66
REMARK Flexibility Score: inf
ROOT
ATOM      1  C   UNL     1       4.340   3.473  -1.724  1.00  0.00     0.002 C 
ENDROOT
BRANCH   1   2
ATOM      2  C   UNL     1       2.894   3.508  -1.218  1.00  0.00     0.021 C 
BRANCH   2   3
ATOM      3  C   UNL     1       2.230   2.156  -0.982  1.00  0.00     0.116 C 
BRANCH   3   4
ATOM      4  N   UNL     1       2.952   1.255  -0.096  1.00  0.00    -0.353 N 
ATOM      5  O   UNL     1       1.231   0.861   1.389  1.00  0.00    -0.271 OA
ATOM      6  C   UNL     1       2.296   0.520   0.879  1.00  0.00     0.257 C 
ATOM      7  H   UNL     1       3.928   1.166  -0.191  1.00  0.00     0.163 HD
BRANCH   6   8
ATOM      8  C   UNL     1       2.982  -0.804   1.250  1.00  0.00     0.329 C 
BRANCH   8   9
ATOM      9  O   UNL     1       3.508  -1.488   0.106  1.00  0.00    -0.483 OA
BRANCH   9  10
ATOM     10  C   UNL     1       2.786  -2.606  -0.239  1.00  0.00     0.128 A 
ATOM     11  C   UNL     1       3.333  -3.846   0.114  1.00  0.00     0.047 A 
ATOM     12  C   UNL     1       1.667  -2.553  -1.090  1.00  0.00     0.048 A 
ATOM     13  C   UNL     1       2.737  -5.033  -0.323  1.00  0.00     0.004 A 
ATOM     14  C   UNL     1       1.029  -3.757  -1.437  1.00  0.00     0.013 A 
ATOM     15  C   UNL     1       1.570  -4.989  -1.077  1.00  0.00     0.001 A 
BRANCH  12  16
ATOM     16  C   UNL     1       1.171  -1.289  -1.748  1.00  0.00     0.302 C 
BRANCH  16  17
ATOM     17  N   UNL     1       1.769  -0.910  -3.031  1.00  0.00    -0.331 N 
ATOM     18  C   UNL     1       3.214  -0.773  -3.096  1.00  0.00     0.263 C 
ATOM     19  C   UNL     1       1.211  -1.531  -4.223  1.00  0.00     0.263 C 
ATOM     20  H   UNL     1       1.438   0.054  -3.049  1.00  0.00     0.348 HD
ATOM     21  C   UNL     1       3.974  -2.051  -3.434  1.00  0.00     0.069 C 
ATOM     22  C   UNL     1       1.895  -2.835  -4.638  1.00  0.00     0.069 C 
ATOM     23  C   UNL     1       3.440  -2.760  -4.698  1.00  0.00    -0.008 C 
ATOM     24  C   UNL     1       3.893  -2.027  -5.984  1.00  0.00     0.069 C 
ATOM     25  C   UNL     1       4.002  -4.203  -4.744  1.00  0.00     0.069 C 
ATOM     26  C   UNL     1       5.398  -2.156  -6.244  1.00  0.00     0.261 C 
ATOM     27  C   UNL     1       5.505  -4.234  -5.012  1.00  0.00     0.261 C 
ATOM     28  N   UNL     1       5.841  -3.554  -6.262  1.00  0.00    -0.346 N 
ATOM     29  H   UNL     1       6.852  -3.580  -6.394  1.00  0.00     0.346 HD
ATOM     30  H   UNL     1       5.365  -4.032  -7.027  1.00  0.00     0.346 HD
ENDBRANCH  16  17
ENDBRANCH  12  16
ENDBRANCH   9  10
ENDBRANCH   8   9
ENDBRANCH   6   8
ENDBRANCH   3   4
ENDBRANCH   2   3
ENDBRANCH   1   2
BRANCH   1  31
ATOM     31  C   UNL     1       4.582   2.808  -3.081  1.00  0.00     0.002 C 
BRANCH  31  32
ATOM     32  C   UNL     1       3.830   3.390  -4.279  1.00  0.00     0.021 C 
BRANCH  32  33
ATOM     33  C   UNL     1       4.016   4.887  -4.508  1.00  0.00     0.116 C 
BRANCH  33  34
ATOM     34  N   UNL     1       5.410   5.267  -4.693  1.00  0.00    -0.352 N 
ATOM     35  C   UNL     1       5.970   6.108  -5.624  1.00  0.00     0.251 C 
ATOM     36  H   UNL     1       6.044   4.862  -4.058  1.00  0.00     0.163 HD
ATOM     37  O   UNL     1       7.193   6.212  -5.700  1.00  0.00    -0.269 OA
BRANCH  35  38
ATOM     38  C   UNL     1       5.104   6.864  -6.555  1.00  0.00     0.039 A 
ATOM     39  C   UNL     1       5.433   6.889  -7.913  1.00  0.00     0.014 A 
ATOM     40  C   UNL     1       3.963   7.527  -6.096  1.00  0.00     0.014 A 
ATOM     41  C   UNL     1       4.573   7.512  -8.822  1.00  0.00     0.010 A 
ATOM     42  C   UNL     1       3.071   8.081  -7.011  1.00  0.00     0.010 A 
ATOM     43  C   UNL     1       3.363   8.073  -8.384  1.00  0.00    -0.014 A 
BRANCH  43  44
ATOM     44  C   UNL     1       2.369   8.615  -9.347  1.00  0.00     0.031 A 
ATOM     45  C   UNL     1       1.966  10.062  -9.297  1.00  0.00     0.074 A 
ATOM     46  C   UNL     1       1.750   7.774 -10.200  1.00  0.00     0.049 A 
ATOM     47  N   UNL     1       1.063  10.691 -10.005  1.00  0.00    -0.248 NA
ATOM     48  C   UNL     1       2.645  10.908  -8.303  1.00  0.00     0.031 C 
ATOM     49  C   UNL     1       1.988   6.332 -10.283  1.00  0.00     0.029 A 
ATOM     50  N   UNL     1       0.768   8.003 -11.131  1.00  0.00    -0.354 N 
ATOM     51  C   UNL     1       1.042  11.994  -9.523  1.00  0.00     0.074 A 
ATOM     52  C   UNL     1       1.996  12.056  -8.436  1.00  0.00     0.031 C 
ATOM     53  C   UNL     1       1.170   5.803 -11.206  1.00  0.00     0.029 A 
ATOM     54  C   UNL     1       0.324   6.859 -11.754  1.00  0.00     0.049 A 
ATOM     55  H   UNL     1       0.415   8.899 -11.334  1.00  0.00     0.167 HD
ATOM     56  C   UNL     1       0.317  13.052  -9.961  1.00  0.00     0.034 A 
ATOM     57  C   UNL     1      -0.667   6.673 -12.648  1.00  0.00     0.034 A 
ATOM     58  C   UNL     1      -0.616  12.990 -11.055  1.00  0.00     0.049 A 
ATOM     59  C   UNL     1      -1.444   7.863 -13.138  1.00  0.00     0.074 A 
ATOM     60  C   UNL     1      -1.333  14.022 -11.633  1.00  0.00     0.029 A 
ATOM     61  N   UNL     1      -0.978  11.830 -11.723  1.00  0.00    -0.354 N 
ATOM     62  N   UNL     1      -1.330   9.122 -12.790  1.00  0.00    -0.248 NA
ATOM     63  C   UNL     1      -2.461   7.616 -14.170  1.00  0.00     0.031 C 
ATOM     64  C   UNL     1      -2.156  13.480 -12.627  1.00  0.00     0.029 A 
ATOM     65  C   UNL     1      -1.923  12.116 -12.694  1.00  0.00     0.049 A 
ATOM     66  H   UNL     1      -0.616  10.934 -11.535  1.00  0.00     0.167 HD
ATOM     67  C   UNL     1      -2.240   9.820 -13.574  1.00  0.00     0.074 A 
ATOM     68  C   UNL     1      -2.880   8.846 -14.435  1.00  0.00     0.031 C 
ATOM     69  C   UNL     1      -2.529  11.145 -13.571  1.00  0.00     0.034 A 
BRANCH  56  70
ATOM     70  C   UNL     1       0.536  14.377  -9.276  1.00  0.00     0.023 A 
ATOM     71  C   UNL     1       1.764  15.052  -9.440  1.00  0.00     0.012 A 
ATOM     72  C   UNL     1      -0.478  14.972  -8.500  1.00  0.00     0.148 A 
ATOM     73  C   UNL     1       1.998  16.271  -8.804  1.00  0.00     0.002 A 
ATOM     74  C   UNL     1      -0.255  16.212  -7.910  1.00  0.00     0.091 A 
ATOM     75  F   UNL     1      -1.632  14.311  -8.338  1.00  0.00    -0.205 F 
ATOM     76  C   UNL     1       0.986  16.854  -8.048  1.00  0.00     0.022 A 
BRANCH  74  77
ATOM     77  S   UNL     1      -1.523  17.085  -6.984  1.00  0.00     0.127 S 
ATOM     78  O   UNL     1      -1.032  16.950  -5.614  1.00  0.00    -0.237 OA
ATOM     79  O   UNL     1      -1.429  18.438  -7.535  1.00  0.00    -0.237 OA
ATOM     80  O   UNL     1      -2.774  16.398  -7.273  1.00  0.00    -0.744 OA
ENDBRANCH  74  77
ENDBRANCH  56  70
BRANCH  57  81
ATOM     81  C   UNL     1      -0.949   5.302 -13.158  1.00  0.00     0.023 A 
ATOM     82  C   UNL     1      -0.624   4.970 -14.487  1.00  0.00     0.012 A 
ATOM     83  C   UNL     1      -1.488   4.311 -12.313  1.00  0.00     0.148 A 
ATOM     84  C   UNL     1      -0.854   3.682 -14.974  1.00  0.00     0.002 A 
ATOM     85  C   UNL     1      -1.659   3.015 -12.787  1.00  0.00     0.091 A 
ATOM     86  F   UNL     1      -1.798   4.650 -11.054  1.00  0.00    -0.205 F 
ATOM     87  C   UNL     1      -1.359   2.703 -14.122  1.00  0.00     0.022 A 
BRANCH  85  88
ATOM     88  S   UNL     1      -2.169   1.659 -11.725  1.00  0.00     0.127 S 
ATOM     89  O   UNL     1      -3.488   1.337 -12.264  1.00  0.00    -0.237 OA
ATOM     90  O   UNL     1      -1.132   0.662 -11.993  1.00  0.00    -0.237 OA
ATOM     91  O   UNL     1      -2.155   2.190 -10.369  1.00  0.00    -0.744 OA
ENDBRANCH  85  88
ENDBRANCH  57  81
BRANCH  69  92
ATOM     92  C   UNL     1      -3.570  11.636 -14.544  1.00  0.00     0.023 A 
ATOM     93  C   UNL     1      -4.930  11.331 -14.332  1.00  0.00     0.012 A 
ATOM     94  C   UNL     1      -3.209  12.464 -15.626  1.00  0.00     0.148 A 
ATOM     95  C   UNL     1      -5.909  11.817 -15.198  1.00  0.00     0.002 A 
ATOM     96  C   UNL     1      -4.194  12.986 -16.454  1.00  0.00     0.091 A 
ATOM     97  F   UNL     1      -1.909  12.729 -15.820  1.00  0.00    -0.205 F 
ATOM     98  C   UNL     1      -5.543  12.653 -16.250  1.00  0.00     0.022 A 
BRANCH  96  99
ATOM     99  S   UNL     1      -3.831  14.148 -17.776  1.00  0.00     0.127 S 
ATOM    100  O   UNL     1      -4.116  13.345 -18.964  1.00  0.00    -0.237 OA
ATOM    101  O   UNL     1      -4.794  15.219 -17.518  1.00  0.00    -0.237 OA
ATOM    102  O   UNL     1      -2.437  14.532 -17.604  1.00  0.00    -0.744 OA
ENDBRANCH  96  99
ENDBRANCH  69  92
ENDBRANCH  43  44
ENDBRANCH  35  38
ENDBRANCH  33  34
ENDBRANCH  32  33
ENDBRANCH  31  32
ENDBRANCH   1  31
TORSDOF 20
