REMARK SMILES Cc1cc(F)ccc1OC1(C(=O)NCCCCCCNC(=O)c2ccc(-c3c4nc(c(-c5cccc(S(=O)(=O)[O-])c5F)c5ccc([nH]5)c(-c5cccc(S(=O)(=O)[O-])c5F)c5nc(c(-c6cccc(S(=O)(=O)[O-])c6F)c6ccc3[nH]6)C=C5)C=C4)cc2)CCN(C(=O)[C@H]2CCOC2)CC1
REMARK SMILES IDX 17 1 16 2 15 3 14 4 13 5 11 6 12 7 10 9 86 10 97 11 87 12
REMARK SMILES IDX 96 13 88 14 89 15 90 16 9 17 8 18 1 19 2 20 3 21 4 22 7 23
REMARK SMILES IDX 5 24 6 25 91 26 92 27 95 28 93 29 94 30 18 31 19 32 20 33
REMARK SMILES IDX 21 34 22 36 23 37 24 38 85 39 25 40 84 41 26 42 27 43 28 44
REMARK SMILES IDX 78 45 29 46 83 47 77 48 79 49 30 50 82 51 76 52 75 53 31 55
REMARK SMILES IDX 63 56 43 57 62 58 44 59 47 60 61 61 80 62 45 63 46 64 60 66
REMARK SMILES IDX 81 67 48 68 32 69 33 70 41 71 34 72 36 73 42 74 35 75 37 76
REMARK SMILES IDX 38 77 39 78 40 79 64 80 65 81 73 82 66 83 68 84 74 85 67 86
REMARK SMILES IDX 69 87 70 88 71 89 72 90 49 91 50 92 58 93 51 94 53 95 59 96
REMARK SMILES IDX 52 97 54 98 55 99 56 100 57 101
REMARK H PARENT 13 8 20 35 79 54 47 65
REMARK Flexibility Score: inf
ROOT
ATOM      1  C   UNL     1      12.759   5.004   0.887  1.00  0.00     0.002 C 
ENDROOT
BRANCH   1   2
ATOM      2  C   UNL     1      12.471   6.101  -0.142  1.00  0.00     0.002 C 
BRANCH   2   3
ATOM      3  C   UNL     1      11.106   5.998  -0.828  1.00  0.00     0.021 C 
BRANCH   3   4
ATOM      4  C   UNL     1       9.923   5.997   0.138  1.00  0.00     0.116 C 
BRANCH   4   5
ATOM      5  N   UNL     1       9.696   7.309   0.710  1.00  0.00    -0.353 N 
ATOM      6  C   UNL     1       8.700   8.227   0.521  1.00  0.00     0.264 C 
ATOM      7  O   UNL     1       8.812   9.259   1.195  1.00  0.00    -0.270 OA
ATOM      8  H   UNL     1      10.386   7.591   1.354  1.00  0.00     0.163 HD
BRANCH   6   9
ATOM      9  C   UNL     1       7.493   7.981  -0.471  1.00  0.00     0.190 C 
ATOM     10  C   UNL     1       8.072   7.861  -1.872  1.00  0.00     0.080 C 
ATOM     11  C   UNL     1       6.677   6.826   0.114  1.00  0.00     0.080 C 
ATOM     12  C   UNL     1       7.954   6.509  -2.555  1.00  0.00     0.124 C 
ATOM     13  C   UNL     1       6.212   5.750  -0.850  1.00  0.00     0.124 C 
ATOM     14  N   UNL     1       7.058   5.491  -2.009  1.00  0.00    -0.342 N 
ATOM     15  C   UNL     1       6.966   4.330  -2.790  1.00  0.00     0.228 C 
ATOM     16  O   UNL     1       7.739   4.162  -3.736  1.00  0.00    -0.274 OA
BRANCH   9  17
ATOM     17  O   UNL     1       6.775   9.225  -0.308  1.00  0.00    -0.477 OA
BRANCH  17  18
ATOM     18  C   UNL     1       5.742   9.832  -0.939  1.00  0.00     0.124 A 
ATOM     19  C   UNL     1       5.066   8.285  -2.919  1.00  0.00     0.048 C 
ATOM     20  C   UNL     1       4.947   9.485  -2.040  1.00  0.00    -0.006 A 
ATOM     21  C   UNL     1       3.935  10.382  -2.465  1.00  0.00     0.046 A 
ATOM     22  C   UNL     1       3.713  11.586  -1.818  1.00  0.00     0.123 A 
ATOM     23  C   UNL     1       5.487  11.071  -0.307  1.00  0.00     0.050 A 
ATOM     24  F   UNL     1       2.750  12.406  -2.256  1.00  0.00    -0.207 F 
ATOM     25  C   UNL     1       4.487  11.945  -0.736  1.00  0.00     0.043 A 
ENDBRANCH  17  18
ENDBRANCH   9  17
BRANCH  15  26
ATOM     26  C   UNL     1       5.836   3.344  -2.519  1.00  0.00     0.107 C 
ATOM     27  C   UNL     1       4.569   3.770  -3.237  1.00  0.00     0.044 C 
ATOM     28  C   UNL     1       6.116   1.972  -3.119  1.00  0.00     0.173 C 
ATOM     29  C   UNL     1       3.881   2.465  -3.565  1.00  0.00     0.161 C 
ATOM     30  O   UNL     1       4.883   1.458  -3.638  1.00  0.00    -0.381 OA
ENDBRANCH  15  26
ENDBRANCH   6   9
ENDBRANCH   4   5
ENDBRANCH   3   4
ENDBRANCH   2   3
ENDBRANCH   1   2
BRANCH   1  31
ATOM     31  C   UNL     1      12.568   3.574   0.377  1.00  0.00     0.021 C 
BRANCH  31  32
ATOM     32  C   UNL     1      13.421   3.220  -0.835  1.00  0.00     0.116 C 
BRANCH  32  33
ATOM     33  N   UNL     1      14.842   3.282  -0.530  1.00  0.00    -0.352 N 
ATOM     34  C   UNL     1      15.795   2.303  -0.670  1.00  0.00     0.251 C 
ATOM     35  H   UNL     1      15.164   4.141  -0.174  1.00  0.00     0.163 HD
ATOM     36  O   UNL     1      16.901   2.437  -0.162  1.00  0.00    -0.269 OA
BRANCH  34  37
ATOM     37  C   UNL     1      15.464   1.081  -1.434  1.00  0.00     0.039 A 
ATOM     38  C   UNL     1      15.799  -0.167  -0.906  1.00  0.00     0.014 A 
ATOM     39  C   UNL     1      14.814   1.178  -2.667  1.00  0.00     0.014 A 
ATOM     40  C   UNL     1      15.437  -1.326  -1.596  1.00  0.00     0.010 A 
ATOM     41  C   UNL     1      14.384   0.024  -3.311  1.00  0.00     0.010 A 
ATOM     42  C   UNL     1      14.705  -1.240  -2.791  1.00  0.00    -0.014 A 
BRANCH  42  43
ATOM     43  C   UNL     1      14.279  -2.451  -3.536  1.00  0.00     0.031 A 
ATOM     44  C   UNL     1      14.782  -2.680  -4.935  1.00  0.00     0.074 A 
ATOM     45  C   UNL     1      13.367  -3.284  -2.999  1.00  0.00     0.049 A 
ATOM     46  N   UNL     1      14.448  -3.609  -5.792  1.00  0.00    -0.248 NA
ATOM     47  C   UNL     1      15.769  -1.716  -5.452  1.00  0.00     0.031 C 
ATOM     48  C   UNL     1      12.755  -3.132  -1.678  1.00  0.00     0.029 A 
ATOM     49  N   UNL     1      12.769  -4.407  -3.515  1.00  0.00    -0.354 N 
ATOM     50  C   UNL     1      15.144  -3.317  -6.958  1.00  0.00     0.074 A 
ATOM     51  C   UNL     1      15.892  -2.104  -6.712  1.00  0.00     0.031 C 
ATOM     52  C   UNL     1      11.865  -4.119  -1.489  1.00  0.00     0.029 A 
ATOM     53  C   UNL     1      11.814  -4.951  -2.688  1.00  0.00     0.049 A 
ATOM     54  H   UNL     1      13.001  -4.786  -4.393  1.00  0.00     0.167 HD
ATOM     55  C   UNL     1      15.181  -4.009  -8.122  1.00  0.00     0.034 A 
ATOM     56  C   UNL     1      10.978  -5.990  -2.881  1.00  0.00     0.034 A 
ATOM     57  C   UNL     1      14.462  -5.233  -8.349  1.00  0.00     0.049 A 
ATOM     58  C   UNL     1      11.056  -6.761  -4.171  1.00  0.00     0.074 A 
ATOM     59  C   UNL     1      14.494  -6.056  -9.459  1.00  0.00     0.029 A 
ATOM     60  N   UNL     1      13.570  -5.803  -7.453  1.00  0.00    -0.354 N 
ATOM     61  N   UNL     1      11.827  -6.554  -5.210  1.00  0.00    -0.248 NA
ATOM     62  C   UNL     1      10.174  -7.930  -4.302  1.00  0.00     0.031 C 
ATOM     63  C   UNL     1      13.595  -7.107  -9.249  1.00  0.00     0.029 A 
ATOM     64  C   UNL     1      13.037  -6.962  -7.988  1.00  0.00     0.049 A 
ATOM     65  H   UNL     1      13.349  -5.437  -6.566  1.00  0.00     0.167 HD
ATOM     66  C   UNL     1      11.557  -7.588  -6.100  1.00  0.00     0.074 A 
ATOM     67  C   UNL     1      10.558  -8.427  -5.470  1.00  0.00     0.031 C 
ATOM     68  C   UNL     1      12.083  -7.817  -7.328  1.00  0.00     0.034 A 
BRANCH  55  69
ATOM     69  C   UNL     1      16.056  -3.471  -9.226  1.00  0.00     0.023 A 
ATOM     70  C   UNL     1      17.459  -3.491  -9.081  1.00  0.00     0.012 A 
ATOM     71  C   UNL     1      15.494  -2.976 -10.419  1.00  0.00     0.148 A 
ATOM     72  C   UNL     1      18.286  -2.983 -10.082  1.00  0.00     0.002 A 
ATOM     73  C   UNL     1      16.327  -2.519 -11.434  1.00  0.00     0.091 A 
ATOM     74  F   UNL     1      14.159  -2.946 -10.534  1.00  0.00    -0.205 F 
ATOM     75  C   UNL     1      17.721  -2.506 -11.261  1.00  0.00     0.022 A 
BRANCH  73  76
ATOM     76  S   UNL     1      15.701  -1.966 -13.024  1.00  0.00     0.127 S 
ATOM     77  O   UNL     1      15.939  -0.525 -12.950  1.00  0.00    -0.237 OA
ATOM     78  O   UNL     1      16.570  -2.680 -13.961  1.00  0.00    -0.237 OA
ATOM     79  O   UNL     1      14.303  -2.368 -13.068  1.00  0.00    -0.744 OA
ENDBRANCH  73  76
ENDBRANCH  55  69
BRANCH  56  80
ATOM     80  C   UNL     1      10.036  -6.394  -1.798  1.00  0.00     0.023 A 
ATOM     81  C   UNL     1      10.257  -7.597  -1.101  1.00  0.00     0.012 A 
ATOM     82  C   UNL     1       8.950  -5.576  -1.430  1.00  0.00     0.148 A 
ATOM     83  C   UNL     1       9.395  -7.995  -0.079  1.00  0.00     0.002 A 
ATOM     84  C   UNL     1       8.130  -5.950  -0.372  1.00  0.00     0.091 A 
ATOM     85  F   UNL     1       8.755  -4.437  -2.109  1.00  0.00    -0.205 F 
ATOM     86  C   UNL     1       8.339  -7.168   0.292  1.00  0.00     0.022 A 
BRANCH  84  87
ATOM     87  S   UNL     1       6.830  -4.886   0.267  1.00  0.00     0.127 S 
ATOM     88  O   UNL     1       5.628  -5.640  -0.081  1.00  0.00    -0.237 OA
ATOM     89  O   UNL     1       7.145  -4.853   1.696  1.00  0.00    -0.237 OA
ATOM     90  O   UNL     1       6.993  -3.608  -0.413  1.00  0.00    -0.744 OA
ENDBRANCH  84  87
ENDBRANCH  56  80
BRANCH  68  91
ATOM     91  C   UNL     1      11.640  -9.056  -8.063  1.00  0.00     0.023 A 
ATOM     92  C   UNL     1      10.345  -9.131  -8.612  1.00  0.00     0.012 A 
ATOM     93  C   UNL     1      12.547 -10.112  -8.284  1.00  0.00     0.148 A 
ATOM     94  C   UNL     1       9.950 -10.251  -9.342  1.00  0.00     0.002 A 
ATOM     95  C   UNL     1      12.164 -11.200  -9.057  1.00  0.00     0.091 A 
ATOM     96  F   UNL     1      13.769 -10.029  -7.738  1.00  0.00    -0.205 F 
ATOM     97  C   UNL     1      10.862 -11.278  -9.576  1.00  0.00     0.022 A 
BRANCH  95  98
ATOM     98  S   UNL     1      13.302 -12.519  -9.496  1.00  0.00     0.127 S 
ATOM     99  O   UNL     1      12.775 -13.639  -8.718  1.00  0.00    -0.237 OA
ATOM    100  O   UNL     1      13.101 -12.632 -10.941  1.00  0.00    -0.237 OA
ATOM    101  O   UNL     1      14.627 -12.056  -9.104  1.00  0.00    -0.744 OA
ENDBRANCH  95  98
ENDBRANCH  68  91
ENDBRANCH  42  43
ENDBRANCH  34  37
ENDBRANCH  32  33
ENDBRANCH  31  32
ENDBRANCH   1  31
TORSDOF 19
