REMARK SMILES Nc1nc(N2CCCCC2)nc2c1[C@H](C(=O)NCCCCCCNC(=O)c1ccc(-c3c4nc(c(-c5cccc(S(=O)(=O)[O-])c5F)c5ccc([nH]5)c(-c5cccc(S(=O)(=O)[O-])c5F)c5nc(c(-c6cccc(S(=O)(=O)[O-])c6F)c6ccc3[nH]6)C=C5)C=C4)cc1)CC(=O)N2
REMARK SMILES IDX 21 1 20 2 19 3 18 4 17 5 15 6 16 7 14 9 2 10 3 11 13 12 4 13
REMARK SMILES IDX 12 14 11 15 93 16 90 17 91 18 92 20 1 21 5 24 6 25 10 26
REMARK SMILES IDX 7 27 9 28 8 29 22 30 23 31 24 32 25 33 26 35 27 36 28 37
REMARK SMILES IDX 89 38 29 39 88 40 30 41 31 42 32 43 82 44 33 45 87 46 81 47
REMARK SMILES IDX 83 48 34 49 86 50 80 51 79 52 35 54 67 55 47 56 66 57 48 58
REMARK SMILES IDX 51 59 65 60 84 61 49 62 50 63 64 65 85 66 52 67 36 68 37 69
REMARK SMILES IDX 45 70 38 71 40 72 46 73 39 74 41 75 42 76 43 77 44 78 68 79
REMARK SMILES IDX 69 80 77 81 70 82 72 83 78 84 71 85 73 86 74 87 75 88 76 89
REMARK SMILES IDX 53 90 54 91 62 92 55 93 57 94 63 95 56 96 58 97 59 98 60 99
REMARK SMILES IDX 61 100
REMARK H PARENT 17 8 93 19 1 22 1 23 24 34 83 53 51 64
REMARK Flexibility Score: inf
ROOT
ATOM      1  C   UNL     1      -2.817   3.624  -4.544  1.00  0.00     0.002 C 
ENDROOT
BRANCH   1   2
ATOM      2  C   UNL     1      -3.572   2.310  -4.322  1.00  0.00     0.002 C 
BRANCH   2   3
ATOM      3  C   UNL     1      -2.713   1.040  -4.357  1.00  0.00     0.021 C 
BRANCH   3   4
ATOM      4  C   UNL     1      -1.562   1.017  -3.353  1.00  0.00     0.116 C 
BRANCH   4   5
ATOM      5  N   UNL     1      -2.047   1.105  -1.986  1.00  0.00    -0.356 N 
ATOM      6  C   UNL     1      -2.050   0.173  -0.992  1.00  0.00     0.228 C 
ATOM      7  O   UNL     1      -2.600   0.467   0.070  1.00  0.00    -0.274 OA
ATOM      8  H   UNL     1      -2.435   1.975  -1.739  1.00  0.00     0.163 HD
BRANCH   6   9
ATOM      9  C   UNL     1      -1.367  -1.172  -1.214  1.00  0.00     0.125 C 
ATOM     10  C   UNL     1       0.215  -1.268   0.774  1.00  0.00     0.135 A 
ATOM     11  N   UNL     1       0.602  -1.777   1.950  1.00  0.00    -0.196 NA
ATOM     12  C   UNL     1      -0.868  -1.756   0.076  1.00  0.00     0.050 A 
ATOM     13  C   UNL     1      -0.098  -2.802   2.454  1.00  0.00     0.229 A 
ATOM     14  C   UNL     1      -1.539  -2.781   0.694  1.00  0.00     0.144 A 
ATOM     15  N   UNL     1      -1.163  -3.338   1.849  1.00  0.00    -0.195 NA
ATOM     16  N   UNL     1      -2.721  -3.261   0.145  1.00  0.00    -0.310 N 
ATOM     17  C   UNL     1      -2.305  -2.110  -1.968  1.00  0.00     0.119 C 
ATOM     18  C   UNL     1      -3.227  -2.886  -1.060  1.00  0.00     0.226 C 
ATOM     19  H   UNL     1      -3.230  -3.923   0.666  1.00  0.00     0.171 HD
ATOM     20  O   UNL     1      -4.334  -3.268  -1.434  1.00  0.00    -0.275 OA
BRANCH  10  21
ATOM     21  N   UNL     1       1.002  -0.239   0.283  1.00  0.00    -0.383 N 
ATOM     22  H   UNL     1       1.770   0.087   0.807  1.00  0.00     0.158 HD
ATOM     23  H   UNL     1       0.794   0.167  -0.589  1.00  0.00     0.158 HD
ENDBRANCH  10  21
BRANCH  13  24
ATOM     24  N   UNL     1       0.264  -3.316   3.672  1.00  0.00    -0.341 N 
ATOM     25  C   UNL     1       0.641  -2.425   4.749  1.00  0.00     0.119 C 
ATOM     26  C   UNL     1       0.585  -4.726   3.761  1.00  0.00     0.119 C 
ATOM     27  C   UNL     1       2.119  -2.583   5.085  1.00  0.00     0.022 C 
ATOM     28  C   UNL     1       2.077  -4.888   4.075  1.00  0.00     0.022 C 
ATOM     29  C   UNL     1       2.484  -4.053   5.290  1.00  0.00     0.004 C 
ENDBRANCH  13  24
ENDBRANCH   6   9
ENDBRANCH   4   5
ENDBRANCH   3   4
ENDBRANCH   2   3
ENDBRANCH   1   2
BRANCH   1  30
ATOM     30  C   UNL     1      -1.968   3.684  -5.814  1.00  0.00     0.021 C 
BRANCH  30  31
ATOM     31  C   UNL     1      -2.721   3.385  -7.106  1.00  0.00     0.116 C 
BRANCH  31  32
ATOM     32  N   UNL     1      -3.754   4.370  -7.385  1.00  0.00    -0.352 N 
ATOM     33  C   UNL     1      -3.898   5.191  -8.476  1.00  0.00     0.251 C 
ATOM     34  H   UNL     1      -4.449   4.460  -6.694  1.00  0.00     0.163 HD
ATOM     35  O   UNL     1      -4.738   6.087  -8.464  1.00  0.00    -0.269 OA
BRANCH  33  36
ATOM     36  C   UNL     1      -3.026   5.008  -9.656  1.00  0.00     0.039 A 
ATOM     37  C   UNL     1      -2.427   6.129 -10.235  1.00  0.00     0.014 A 
ATOM     38  C   UNL     1      -2.802   3.735 -10.191  1.00  0.00     0.014 A 
ATOM     39  C   UNL     1      -1.565   5.968 -11.321  1.00  0.00     0.010 A 
ATOM     40  C   UNL     1      -1.884   3.569 -11.225  1.00  0.00     0.010 A 
ATOM     41  C   UNL     1      -1.270   4.685 -11.812  1.00  0.00    -0.014 A 
BRANCH  41  42
ATOM     42  C   UNL     1      -0.342   4.504 -12.956  1.00  0.00     0.031 A 
ATOM     43  C   UNL     1      -0.852   3.969 -14.265  1.00  0.00     0.074 A 
ATOM     44  C   UNL     1       0.967   4.786 -12.807  1.00  0.00     0.049 A 
ATOM     45  N   UNL     1      -0.204   3.786 -15.386  1.00  0.00    -0.248 NA
ATOM     46  C   UNL     1      -2.267   3.567 -14.320  1.00  0.00     0.031 C 
ATOM     47  C   UNL     1       1.595   5.240 -11.565  1.00  0.00     0.029 A 
ATOM     48  N   UNL     1       2.005   4.730 -13.704  1.00  0.00    -0.354 N 
ATOM     49  C   UNL     1      -1.125   3.240 -16.271  1.00  0.00     0.074 A 
ATOM     50  C   UNL     1      -2.361   3.064 -15.542  1.00  0.00     0.031 C 
ATOM     51  C   UNL     1       2.903   5.449 -11.786  1.00  0.00     0.029 A 
ATOM     52  C   UNL     1       3.211   5.130 -13.178  1.00  0.00     0.049 A 
ATOM     53  H   UNL     1       1.895   4.432 -14.636  1.00  0.00     0.167 HD
ATOM     54  C   UNL     1      -0.975   2.959 -17.587  1.00  0.00     0.034 A 
ATOM     55  C   UNL     1       4.423   5.244 -13.757  1.00  0.00     0.034 A 
ATOM     56  C   UNL     1       0.240   3.179 -18.320  1.00  0.00     0.049 A 
ATOM     57  C   UNL     1       4.568   4.930 -15.222  1.00  0.00     0.074 A 
ATOM     58  C   UNL     1       0.469   3.010 -19.673  1.00  0.00     0.029 A 
ATOM     59  N   UNL     1       1.433   3.611 -17.761  1.00  0.00    -0.354 N 
ATOM     60  N   UNL     1       3.645   4.577 -16.084  1.00  0.00    -0.248 NA
ATOM     61  C   UNL     1       5.913   5.056 -15.803  1.00  0.00     0.031 C 
ATOM     62  C   UNL     1       1.807   3.323 -19.930  1.00  0.00     0.029 A 
ATOM     63  C   UNL     1       2.409   3.698 -18.738  1.00  0.00     0.049 A 
ATOM     64  H   UNL     1       1.566   3.825 -16.809  1.00  0.00     0.167 HD
ATOM     65  C   UNL     1       4.290   4.457 -17.310  1.00  0.00     0.074 A 
ATOM     66  C   UNL     1       5.680   4.799 -17.084  1.00  0.00     0.031 C 
ATOM     67  C   UNL     1       3.780   4.077 -18.508  1.00  0.00     0.034 A 
BRANCH  54  68
ATOM     68  C   UNL     1      -2.185   2.464 -18.334  1.00  0.00     0.023 A 
ATOM     69  C   UNL     1      -3.237   3.364 -18.604  1.00  0.00     0.012 A 
ATOM     70  C   UNL     1      -2.269   1.142 -18.808  1.00  0.00     0.148 A 
ATOM     71  C   UNL     1      -4.369   2.948 -19.301  1.00  0.00     0.002 A 
ATOM     72  C   UNL     1      -3.383   0.745 -19.540  1.00  0.00     0.091 A 
ATOM     73  F   UNL     1      -1.270   0.294 -18.523  1.00  0.00    -0.205 F 
ATOM     74  C   UNL     1      -4.437   1.643 -19.778  1.00  0.00     0.022 A 
BRANCH  72  75
ATOM     75  S   UNL     1      -3.533  -0.894 -20.260  1.00  0.00     0.127 S 
ATOM     76  O   UNL     1      -4.522  -1.513 -19.380  1.00  0.00    -0.237 OA
ATOM     77  O   UNL     1      -4.019  -0.597 -21.608  1.00  0.00    -0.237 OA
ATOM     78  O   UNL     1      -2.199  -1.475 -20.212  1.00  0.00    -0.744 OA
ENDBRANCH  72  75
ENDBRANCH  54  68
BRANCH  55  79
ATOM     79  C   UNL     1       5.566   5.782 -12.964  1.00  0.00     0.023 A 
ATOM     80  C   UNL     1       6.032   7.083 -13.236  1.00  0.00     0.012 A 
ATOM     81  C   UNL     1       6.137   5.056 -11.900  1.00  0.00     0.148 A 
ATOM     82  C   UNL     1       7.053   7.648 -12.472  1.00  0.00     0.002 A 
ATOM     83  C   UNL     1       7.119   5.644 -11.110  1.00  0.00     0.091 A 
ATOM     84  F   UNL     1       5.685   3.817 -11.664  1.00  0.00    -0.205 F 
ATOM     85  C   UNL     1       7.587   6.935 -11.402  1.00  0.00     0.022 A 
BRANCH  83  86
ATOM     86  S   UNL     1       7.772   4.861  -9.630  1.00  0.00     0.127 S 
ATOM     87  O   UNL     1       9.168   4.640  -9.999  1.00  0.00    -0.237 OA
ATOM     88  O   UNL     1       7.557   5.899  -8.622  1.00  0.00    -0.237 OA
ATOM     89  O   UNL     1       6.976   3.656  -9.435  1.00  0.00    -0.744 OA
ENDBRANCH  83  86
ENDBRANCH  55  79
BRANCH  67  90
ATOM     90  C   UNL     1       4.719   3.983 -19.682  1.00  0.00     0.023 A 
ATOM     91  C   UNL     1       5.607   2.893 -19.763  1.00  0.00     0.012 A 
ATOM     92  C   UNL     1       4.624   4.882 -20.763  1.00  0.00     0.148 A 
ATOM     93  C   UNL     1       6.392   2.701 -20.898  1.00  0.00     0.002 A 
ATOM     94  C   UNL     1       5.377   4.659 -21.911  1.00  0.00     0.091 A 
ATOM     95  F   UNL     1       3.781   5.919 -20.659  1.00  0.00    -0.205 F 
ATOM     96  C   UNL     1       6.266   3.574 -21.977  1.00  0.00     0.022 A 
BRANCH  94  97
ATOM     97  S   UNL     1       5.211   5.664 -23.391  1.00  0.00     0.127 S 
ATOM     98  O   UNL     1       6.513   6.326 -23.449  1.00  0.00    -0.237 OA
ATOM     99  O   UNL     1       4.993   4.654 -24.427  1.00  0.00    -0.237 OA
ATOM    100  O   UNL     1       4.077   6.547 -23.155  1.00  0.00    -0.744 OA
ENDBRANCH  94  97
ENDBRANCH  67  90
ENDBRANCH  41  42
ENDBRANCH  33  36
ENDBRANCH  31  32
ENDBRANCH  30  31
ENDBRANCH   1  30
TORSDOF 18
