REMARK SMILES Cc1c(C(=O)N[C@H]2C=C[C@@H](C(=O)NCCCCCCNC(=O)c3ccc(-c4c5nc(c(-c6cccc(S(=O)(=O)[O-])c6F)c6ccc([nH]6)c(-c6cccc(S(=O)(=O)[O-])c6F)c6nc(c(-c7cccc(S(=O)(=O)[O-])c7F)c7ccc4[nH]7)C=C6)C=C5)cc3)C2)oc2ccccc12
REMARK SMILES IDX 17 1 16 2 15 3 14 4 13 5 11 6 12 7 10 9 7 10 8 11 86 12 9 13
REMARK SMILES IDX 6 14 4 15 5 16 3 18 1 19 2 20 93 21 87 22 88 23 92 24 89 25
REMARK SMILES IDX 91 26 90 27 18 28 19 29 20 30 21 31 22 33 23 34 24 35 85 36
REMARK SMILES IDX 25 37 84 38 26 39 27 40 28 41 78 42 29 43 83 44 77 45 79 46
REMARK SMILES IDX 30 47 82 48 76 49 75 50 31 52 63 53 43 54 62 55 44 56 47 57
REMARK SMILES IDX 61 58 80 59 45 60 46 61 60 63 81 64 48 65 32 66 33 67 41 68
REMARK SMILES IDX 34 69 36 70 42 71 35 72 37 73 38 74 39 75 40 76 64 77 65 78
REMARK SMILES IDX 73 79 66 80 68 81 74 82 67 83 69 84 70 85 71 86 72 87 49 88
REMARK SMILES IDX 50 89 58 90 51 91 53 92 59 93 52 94 54 95 55 96 56 97 57 98
REMARK H PARENT 13 8 6 17 20 32 79 51 47 62
REMARK Flexibility Score: inf
ROOT
ATOM      1  C   UNL     1      10.236  -3.512   2.369  1.00  0.00     0.002 C 
ENDROOT
BRANCH   1   2
ATOM      2  C   UNL     1       9.224  -2.842   3.305  1.00  0.00     0.002 C 
BRANCH   2   3
ATOM      3  C   UNL     1       8.158  -2.008   2.599  1.00  0.00     0.021 C 
BRANCH   3   4
ATOM      4  C   UNL     1       7.442  -2.753   1.486  1.00  0.00     0.116 C 
BRANCH   4   5
ATOM      5  N   UNL     1       6.579  -3.784   2.023  1.00  0.00    -0.356 N 
ATOM      6  C   UNL     1       5.292  -4.069   1.702  1.00  0.00     0.227 C 
ATOM      7  O   UNL     1       4.721  -4.971   2.322  1.00  0.00    -0.274 OA
ATOM      8  H   UNL     1       6.981  -4.356   2.715  1.00  0.00     0.163 HD
BRANCH   6   9
ATOM      9  C   UNL     1       4.553  -3.276   0.634  1.00  0.00     0.103 C 
ATOM     10  C   UNL     1       4.019  -1.163  -0.284  1.00  0.00     0.106 C 
ATOM     11  C   UNL     1       5.094  -1.777  -1.104  1.00  0.00    -0.006 C 
ATOM     12  C   UNL     1       4.205  -1.850   1.064  1.00  0.00     0.047 C 
ATOM     13  C   UNL     1       5.304  -3.027  -0.655  1.00  0.00    -0.016 C 
BRANCH  10  14
ATOM     14  N   UNL     1       3.973   0.244  -0.204  1.00  0.00    -0.343 N 
ATOM     15  C   UNL     1       2.838   1.011  -0.019  1.00  0.00     0.287 C 
ATOM     16  O   UNL     1       3.069   2.216   0.129  1.00  0.00    -0.266 OA
ATOM     17  H   UNL     1       4.828   0.724  -0.287  1.00  0.00     0.164 HD
BRANCH  15  18
ATOM     18  C   UNL     1       1.452   0.483  -0.007  1.00  0.00     0.195 A 
ATOM     19  C   UNL     1       1.094  -2.170  -0.150  1.00  0.00     0.049 C 
ATOM     20  C   UNL     1       0.726  -0.728  -0.064  1.00  0.00     0.008 A 
ATOM     21  C   UNL     1      -0.666  -0.378  -0.035  1.00  0.00     0.024 A 
ATOM     22  O   UNL     1       0.519   1.508   0.084  1.00  0.00    -0.451 OA
ATOM     23  C   UNL     1      -0.727   0.994   0.059  1.00  0.00     0.135 A 
ATOM     24  C   UNL     1      -1.872  -1.106  -0.080  1.00  0.00     0.012 A 
ATOM     25  C   UNL     1      -1.913   1.719   0.115  1.00  0.00     0.048 A 
ATOM     26  C   UNL     1      -3.083  -0.414  -0.025  1.00  0.00     0.001 A 
ATOM     27  C   UNL     1      -3.101   0.978   0.071  1.00  0.00     0.004 A 
ENDBRANCH  15  18
ENDBRANCH  10  14
ENDBRANCH   6   9
ENDBRANCH   4   5
ENDBRANCH   3   4
ENDBRANCH   2   3
ENDBRANCH   1   2
BRANCH   1  28
ATOM     28  C   UNL     1      10.875  -2.584   1.333  1.00  0.00     0.021 C 
BRANCH  28  29
ATOM     29  C   UNL     1      11.521  -1.340   1.923  1.00  0.00     0.116 C 
BRANCH  29  30
ATOM     30  N   UNL     1      12.592  -1.676   2.846  1.00  0.00    -0.352 N 
ATOM     31  C   UNL     1      13.872  -1.178   2.872  1.00  0.00     0.251 C 
ATOM     32  H   UNL     1      12.374  -2.343   3.537  1.00  0.00     0.163 HD
ATOM     33  O   UNL     1      14.730  -1.683   3.576  1.00  0.00    -0.269 OA
BRANCH  31  34
ATOM     34  C   UNL     1      14.182  -0.022   2.008  1.00  0.00     0.039 A 
ATOM     35  C   UNL     1      15.264  -0.099   1.130  1.00  0.00     0.014 A 
ATOM     36  C   UNL     1      13.353   1.103   2.029  1.00  0.00     0.014 A 
ATOM     37  C   UNL     1      15.489   0.943   0.230  1.00  0.00     0.010 A 
ATOM     38  C   UNL     1      13.535   2.102   1.083  1.00  0.00     0.010 A 
ATOM     39  C   UNL     1      14.610   2.037   0.183  1.00  0.00    -0.014 A 
BRANCH  39  40
ATOM     40  C   UNL     1      14.784   3.139  -0.794  1.00  0.00     0.031 A 
ATOM     41  C   UNL     1      15.029   4.536  -0.299  1.00  0.00     0.074 A 
ATOM     42  C   UNL     1      14.591   2.906  -2.106  1.00  0.00     0.049 A 
ATOM     43  N   UNL     1      15.065   5.656  -0.972  1.00  0.00    -0.248 NA
ATOM     44  C   UNL     1      15.219   4.699   1.152  1.00  0.00     0.031 C 
ATOM     45  C   UNL     1      14.264   1.606  -2.695  1.00  0.00     0.029 A 
ATOM     46  N   UNL     1      14.593   3.766  -3.175  1.00  0.00    -0.354 N 
ATOM     47  C   UNL     1      15.231   6.659  -0.024  1.00  0.00     0.074 A 
ATOM     48  C   UNL     1      15.253   6.017   1.272  1.00  0.00     0.031 C 
ATOM     49  C   UNL     1      14.080   1.758  -4.016  1.00  0.00     0.029 A 
ATOM     50  C   UNL     1      14.241   3.167  -4.361  1.00  0.00     0.049 A 
ATOM     51  H   UNL     1      14.825   4.720  -3.100  1.00  0.00     0.167 HD
ATOM     52  C   UNL     1      15.380   7.991  -0.216  1.00  0.00     0.034 A 
ATOM     53  C   UNL     1      14.047   3.696  -5.585  1.00  0.00     0.034 A 
ATOM     54  C   UNL     1      15.399   8.614  -1.511  1.00  0.00     0.049 A 
ATOM     55  C   UNL     1      14.271   5.169  -5.788  1.00  0.00     0.074 A 
ATOM     56  C   UNL     1      15.639   9.939  -1.825  1.00  0.00     0.029 A 
ATOM     57  N   UNL     1      15.158   7.956  -2.708  1.00  0.00    -0.354 N 
ATOM     58  N   UNL     1      14.587   6.083  -4.902  1.00  0.00    -0.248 NA
ATOM     59  C   UNL     1      14.153   5.679  -7.161  1.00  0.00     0.031 C 
ATOM     60  C   UNL     1      15.523  10.086  -3.212  1.00  0.00     0.029 A 
ATOM     61  C   UNL     1      15.238   8.847  -3.764  1.00  0.00     0.049 A 
ATOM     62  H   UNL     1      14.960   6.995  -2.794  1.00  0.00     0.167 HD
ATOM     63  C   UNL     1      14.738   7.268  -5.612  1.00  0.00     0.074 A 
ATOM     64  C   UNL     1      14.494   6.952  -7.006  1.00  0.00     0.031 C 
ATOM     65  C   UNL     1      15.042   8.507  -5.151  1.00  0.00     0.034 A 
BRANCH  52  66
ATOM     66  C   UNL     1      15.579   8.848   1.007  1.00  0.00     0.023 A 
ATOM     67  C   UNL     1      16.776   8.741   1.746  1.00  0.00     0.012 A 
ATOM     68  C   UNL     1      14.595   9.766   1.420  1.00  0.00     0.148 A 
ATOM     69  C   UNL     1      16.968   9.494   2.904  1.00  0.00     0.002 A 
ATOM     70  C   UNL     1      14.815  10.550   2.547  1.00  0.00     0.091 A 
ATOM     71  F   UNL     1      13.451   9.839   0.723  1.00  0.00    -0.205 F 
ATOM     72  C   UNL     1      15.992  10.404   3.299  1.00  0.00     0.022 A 
BRANCH  70  73
ATOM     73  S   UNL     1      13.651  11.809   3.084  1.00  0.00     0.127 S 
ATOM     74  O   UNL     1      13.008  11.151   4.221  1.00  0.00    -0.237 OA
ATOM     75  O   UNL     1      14.537  12.917   3.444  1.00  0.00    -0.237 OA
ATOM     76  O   UNL     1      12.794  12.071   1.937  1.00  0.00    -0.744 OA
ENDBRANCH  70  73
ENDBRANCH  52  66
BRANCH  53  77
ATOM     77  C   UNL     1      13.674   2.801  -6.716  1.00  0.00     0.023 A 
ATOM     78  C   UNL     1      14.631   2.500  -7.704  1.00  0.00     0.012 A 
ATOM     79  C   UNL     1      12.407   2.188  -6.774  1.00  0.00     0.148 A 
ATOM     80  C   UNL     1      14.326   1.619  -8.743  1.00  0.00     0.002 A 
ATOM     81  C   UNL     1      12.129   1.269  -7.779  1.00  0.00     0.091 A 
ATOM     82  F   UNL     1      11.511   2.492  -5.825  1.00  0.00    -0.205 F 
ATOM     83  C   UNL     1      13.081   0.995  -8.773  1.00  0.00     0.022 A 
BRANCH  81  84
ATOM     84  S   UNL     1      10.611   0.309  -7.818  1.00  0.00     0.127 S 
ATOM     85  O   UNL     1       9.962   0.822  -9.022  1.00  0.00    -0.237 OA
ATOM     86  O   UNL     1      11.123  -1.058  -7.928  1.00  0.00    -0.237 OA
ATOM     87  O   UNL     1       9.928   0.594  -6.564  1.00  0.00    -0.744 OA
ENDBRANCH  81  84
ENDBRANCH  53  77
BRANCH  65  88
ATOM     88  C   UNL     1      15.171   9.619  -6.159  1.00  0.00     0.023 A 
ATOM     89  C   UNL     1      14.018  10.156  -6.765  1.00  0.00     0.012 A 
ATOM     90  C   UNL     1      16.429  10.191  -6.435  1.00  0.00     0.148 A 
ATOM     91  C   UNL     1      14.118  11.230  -7.649  1.00  0.00     0.002 A 
ATOM     92  C   UNL     1      16.515  11.292  -7.278  1.00  0.00     0.091 A 
ATOM     93  F   UNL     1      17.515   9.652  -5.863  1.00  0.00    -0.205 F 
ATOM     94  C   UNL     1      15.363  11.806  -7.894  1.00  0.00     0.022 A 
BRANCH  92  95
ATOM     95  S   UNL     1      18.061  12.158  -7.574  1.00  0.00     0.127 S 
ATOM     96  O   UNL     1      18.360  11.770  -8.952  1.00  0.00    -0.237 OA
ATOM     97  O   UNL     1      17.671  13.558  -7.405  1.00  0.00    -0.237 OA
ATOM     98  O   UNL     1      18.996  11.666  -6.570  1.00  0.00    -0.744 OA
ENDBRANCH  92  95
ENDBRANCH  65  88
ENDBRANCH  39  40
ENDBRANCH  31  34
ENDBRANCH  29  30
ENDBRANCH  28  29
ENDBRANCH   1  28
TORSDOF 18
