REMARK SMILES Cc1cccc(-c2cc(OCC(=O)NCCCCCCNC(=O)c3ccc(-c4c5nc(c(-c6cccc(S(=O)(=O)[O-])c6F)c6ccc([nH]6)c(-c6cccc(S(=O)(=O)[O-])c6F)c6nc(c(-c7cccc(S(=O)(=O)[O-])c7F)c7ccc4[nH]7)C=C6)C=C5)cc3)nc(Nc3ccccc3C)n2)c1
REMARK SMILES IDX 17 1 16 2 15 3 14 4 12 5 13 6 11 8 10 9 9 10 7 11 8 12 97 13
REMARK SMILES IDX 88 14 87 15 6 16 1 17 2 18 3 19 98 20 4 21 5 22 89 23 90 25
REMARK SMILES IDX 91 26 95 27 92 28 94 29 96 30 93 31 18 32 19 33 20 34 21 35
REMARK SMILES IDX 22 36 23 38 24 39 25 40 86 41 26 42 85 43 27 44 28 45 29 46
REMARK SMILES IDX 79 47 30 48 84 49 78 50 80 51 31 52 83 53 77 54 76 55 32 57
REMARK SMILES IDX 64 58 44 59 63 60 45 61 48 62 62 63 81 64 46 65 47 66 61 68
REMARK SMILES IDX 82 69 49 70 33 71 34 72 42 73 35 74 37 75 43 76 36 77 38 78
REMARK SMILES IDX 39 79 40 80 41 81 65 82 66 83 74 84 67 85 69 86 75 87 68 88
REMARK SMILES IDX 70 89 71 90 72 91 73 92 50 93 51 94 59 95 52 96 54 97 60 98
REMARK SMILES IDX 53 99 55 100 56 101 57 102 58 103
REMARK H PARENT 14 7 89 24 21 37 80 56 48 67
REMARK Flexibility Score: inf
ROOT
ATOM      1  C   UNL     1       1.561   7.445   0.390  1.00  0.00     0.002 C 
ENDROOT
BRANCH   1   2
ATOM      2  C   UNL     1       0.128   7.434  -0.156  1.00  0.00     0.021 C 
BRANCH   2   3
ATOM      3  C   UNL     1      -0.004   7.271  -1.668  1.00  0.00     0.116 C 
BRANCH   3   4
ATOM      4  N   UNL     1       0.601   6.048  -2.146  1.00  0.00    -0.353 N 
ATOM      5  C   UNL     1       0.018   5.057  -2.873  1.00  0.00     0.258 C 
ATOM      6  O   UNL     1       0.714   4.120  -3.271  1.00  0.00    -0.271 OA
ATOM      7  H   UNL     1       1.549   5.916  -1.917  1.00  0.00     0.163 HD
BRANCH   5   8
ATOM      8  C   UNL     1      -1.481   5.135  -3.198  1.00  0.00     0.331 C 
BRANCH   8   9
ATOM      9  O   UNL     1      -2.387   5.295  -2.119  1.00  0.00    -0.467 OA
BRANCH   9  10
ATOM     10  C   UNL     1      -2.425   4.323  -1.159  1.00  0.00     0.219 A 
ATOM     11  C   UNL     1      -1.865   2.305  -0.140  1.00  0.00     0.080 A 
ATOM     12  C   UNL     1      -1.741   3.136  -1.225  1.00  0.00     0.097 A 
ATOM     13  N   UNL     1      -2.648   2.603   0.902  1.00  0.00    -0.212 NA
ATOM     14  C   UNL     1      -3.288   3.780   0.898  1.00  0.00     0.231 A 
ATOM     15  N   UNL     1      -3.208   4.652  -0.117  1.00  0.00    -0.177 NA
BRANCH  11  16
ATOM     16  C   UNL     1      -1.118   1.052  -0.047  1.00  0.00     0.001 A 
ATOM     17  C   UNL     1       2.517  -0.113  -0.022  1.00  0.00     0.044 C 
ATOM     18  C   UNL     1       1.018  -0.136  -0.006  1.00  0.00    -0.050 A 
ATOM     19  C   UNL     1       0.329  -1.351   0.073  1.00  0.00     0.003 A 
ATOM     20  C   UNL     1       0.287   1.056  -0.074  1.00  0.00     0.013 A 
ATOM     21  C   UNL     1      -1.065  -1.371   0.114  1.00  0.00     0.001 A 
ATOM     22  C   UNL     1      -1.784  -0.176   0.066  1.00  0.00     0.010 A 
ENDBRANCH  11  16
BRANCH  14  23
ATOM     23  N   UNL     1      -4.112   4.109   1.972  1.00  0.00    -0.324 N 
ATOM     24  H   UNL     1      -4.545   4.992   1.944  1.00  0.00     0.170 HD
BRANCH  23  25
ATOM     25  C   UNL     1      -4.385   3.305   3.088  1.00  0.00     0.044 A 
ATOM     26  C   UNL     1      -5.671   2.761   3.225  1.00  0.00     0.026 A 
ATOM     27  C   UNL     1      -3.388   2.942   4.018  1.00  0.00    -0.027 A 
ATOM     28  C   UNL     1      -5.955   1.831   4.227  1.00  0.00     0.002 A 
ATOM     29  C   UNL     1      -3.684   1.998   5.015  1.00  0.00     0.005 A 
ATOM     30  C   UNL     1      -2.023   3.578   4.002  1.00  0.00     0.046 C 
ATOM     31  C   UNL     1      -4.957   1.438   5.112  1.00  0.00     0.000 A 
ENDBRANCH  23  25
ENDBRANCH  14  23
ENDBRANCH   9  10
ENDBRANCH   8   9
ENDBRANCH   5   8
ENDBRANCH   3   4
ENDBRANCH   2   3
ENDBRANCH   1   2
BRANCH   1  32
ATOM     32  C   UNL     1       2.565   8.370  -0.314  1.00  0.00     0.002 C 
BRANCH  32  33
ATOM     33  C   UNL     1       2.082   9.782  -0.637  1.00  0.00     0.021 C 
BRANCH  33  34
ATOM     34  C   UNL     1       1.681  10.599   0.575  1.00  0.00     0.116 C 
BRANCH  34  35
ATOM     35  N   UNL     1       2.746  11.457   1.038  1.00  0.00    -0.352 N 
ATOM     36  C   UNL     1       2.680  12.545   1.881  1.00  0.00     0.251 C 
ATOM     37  H   UNL     1       3.645  11.232   0.706  1.00  0.00     0.163 HD
ATOM     38  O   UNL     1       3.586  13.373   1.819  1.00  0.00    -0.269 OA
BRANCH  36  39
ATOM     39  C   UNL     1       1.655  12.602   2.958  1.00  0.00     0.039 A 
ATOM     40  C   UNL     1       2.088  13.088   4.201  1.00  0.00     0.014 A 
ATOM     41  C   UNL     1       0.431  11.946   2.868  1.00  0.00     0.014 A 
ATOM     42  C   UNL     1       1.460  12.664   5.368  1.00  0.00     0.010 A 
ATOM     43  C   UNL     1      -0.153  11.465   4.015  1.00  0.00     0.010 A 
ATOM     44  C   UNL     1       0.423  11.750   5.253  1.00  0.00    -0.014 A 
BRANCH  44  45
ATOM     45  C   UNL     1      -0.124  10.971   6.344  1.00  0.00     0.031 A 
ATOM     46  C   UNL     1      -1.272  11.485   7.100  1.00  0.00     0.074 A 
ATOM     47  C   UNL     1       0.283   9.686   6.441  1.00  0.00     0.049 A 
ATOM     48  N   UNL     1      -1.737  10.926   8.160  1.00  0.00    -0.248 NA
ATOM     49  C   UNL     1      -1.968  12.714   6.735  1.00  0.00     0.031 C 
ATOM     50  C   UNL     1      -0.401   8.574   7.087  1.00  0.00     0.029 A 
ATOM     51  N   UNL     1       1.543   9.167   6.118  1.00  0.00    -0.354 N 
ATOM     52  C   UNL     1      -2.951  11.515   8.427  1.00  0.00     0.074 A 
ATOM     53  C   UNL     1      -2.971  12.707   7.618  1.00  0.00     0.031 C 
ATOM     54  C   UNL     1       0.500   7.619   7.365  1.00  0.00     0.029 A 
ATOM     55  C   UNL     1       1.809   8.189   7.091  1.00  0.00     0.049 A 
ATOM     56  H   UNL     1       2.122   9.432   5.367  1.00  0.00     0.167 HD
ATOM     57  C   UNL     1      -3.848  10.823   9.181  1.00  0.00     0.034 A 
ATOM     58  C   UNL     1       2.823   8.302   8.002  1.00  0.00     0.034 A 
ATOM     59  C   UNL     1      -3.194   9.668   9.818  1.00  0.00     0.049 A 
ATOM     60  C   UNL     1       2.329   8.287   9.441  1.00  0.00     0.074 A 
ATOM     61  C   UNL     1      -3.184   8.310   9.552  1.00  0.00     0.029 A 
ATOM     62  N   UNL     1      -2.161   9.896  10.725  1.00  0.00    -0.354 N 
ATOM     63  N   UNL     1       1.074   8.360   9.791  1.00  0.00    -0.248 NA
ATOM     64  C   UNL     1       3.215   8.208  10.598  1.00  0.00     0.031 C 
ATOM     65  C   UNL     1      -2.051   7.747  10.209  1.00  0.00     0.029 A 
ATOM     66  C   UNL     1      -1.406   8.749  10.916  1.00  0.00     0.049 A 
ATOM     67  H   UNL     1      -1.990  10.757  11.170  1.00  0.00     0.167 HD
ATOM     68  C   UNL     1       0.970   8.477  11.153  1.00  0.00     0.074 A 
ATOM     69  C   UNL     1       2.336   8.286  11.614  1.00  0.00     0.031 C 
ATOM     70  C   UNL     1      -0.216   8.787  11.769  1.00  0.00     0.034 A 
BRANCH  57  71
ATOM     71  C   UNL     1      -5.357  11.033   9.204  1.00  0.00     0.023 A 
ATOM     72  C   UNL     1      -6.112  10.141   9.999  1.00  0.00     0.012 A 
ATOM     73  C   UNL     1      -6.112  11.953   8.430  1.00  0.00     0.148 A 
ATOM     74  C   UNL     1      -7.514  10.138  10.009  1.00  0.00     0.002 A 
ATOM     75  C   UNL     1      -7.510  11.986   8.479  1.00  0.00     0.091 A 
ATOM     76  F   UNL     1      -5.506  12.767   7.568  1.00  0.00    -0.205 F 
ATOM     77  C   UNL     1      -8.215  11.067   9.256  1.00  0.00     0.022 A 
BRANCH  75  78
ATOM     78  S   UNL     1      -8.485  13.187   7.549  1.00  0.00     0.127 S 
ATOM     79  O   UNL     1      -9.167  12.339   6.571  1.00  0.00    -0.237 OA
ATOM     80  O   UNL     1      -9.358  13.748   8.580  1.00  0.00    -0.237 OA
ATOM     81  O   UNL     1      -7.537  14.139   6.982  1.00  0.00    -0.744 OA
ENDBRANCH  75  78
ENDBRANCH  57  71
BRANCH  58  82
ATOM     82  C   UNL     1       3.995   9.081   7.493  1.00  0.00     0.023 A 
ATOM     83  C   UNL     1       4.667   8.554   6.363  1.00  0.00     0.012 A 
ATOM     84  C   UNL     1       4.165  10.441   7.806  1.00  0.00     0.148 A 
ATOM     85  C   UNL     1       5.351   9.391   5.479  1.00  0.00     0.002 A 
ATOM     86  C   UNL     1       4.860  11.270   6.923  1.00  0.00     0.091 A 
ATOM     87  F   UNL     1       3.586  10.924   8.912  1.00  0.00    -0.205 F 
ATOM     88  C   UNL     1       5.411  10.755   5.737  1.00  0.00     0.022 A 
BRANCH  86  89
ATOM     89  S   UNL     1       4.972  13.044   7.196  1.00  0.00     0.127 S 
ATOM     90  O   UNL     1       6.240  13.150   7.911  1.00  0.00    -0.237 OA
ATOM     91  O   UNL     1       4.990  13.578   5.835  1.00  0.00    -0.237 OA
ATOM     92  O   UNL     1       3.773  13.379   7.950  1.00  0.00    -0.744 OA
ENDBRANCH  86  89
ENDBRANCH  58  82
BRANCH  70  93
ATOM     93  C   UNL     1      -0.371   9.189  13.231  1.00  0.00     0.023 A 
ATOM     94  C   UNL     1       0.708   9.648  14.010  1.00  0.00     0.012 A 
ATOM     95  C   UNL     1      -1.656   9.261  13.835  1.00  0.00     0.148 A 
ATOM     96  C   UNL     1       0.544  10.086  15.330  1.00  0.00     0.002 A 
ATOM     97  C   UNL     1      -1.829   9.814  15.104  1.00  0.00     0.091 A 
ATOM     98  F   UNL     1      -2.728   8.775  13.194  1.00  0.00    -0.205 F 
ATOM     99  C   UNL     1      -0.728  10.193  15.870  1.00  0.00     0.022 A 
BRANCH  97 100
ATOM    100  S   UNL     1      -3.472  10.215  15.719  1.00  0.00     0.127 S 
ATOM    101  O   UNL     1      -3.824   9.008  16.463  1.00  0.00    -0.237 OA
ATOM    102  O   UNL     1      -3.220  11.392  16.553  1.00  0.00    -0.237 OA
ATOM    103  O   UNL     1      -4.261  10.492  14.525  1.00  0.00    -0.744 OA
ENDBRANCH  97 100
ENDBRANCH  70  93
ENDBRANCH  44  45
ENDBRANCH  36  39
ENDBRANCH  34  35
ENDBRANCH  33  34
ENDBRANCH  32  33
ENDBRANCH   1  32
TORSDOF 21
