REMARK SMILES COc1ccc(/C=C(\Sc2nc(C)n[nH]2)C(=O)NCCCCCCNC(=O)c2ccc(-c3c4nc(c(-c5cccc(S(=O)(=O)[O-])c5F)c5ccc([nH]5)c(-c5cccc(S(=O)(=O)[O-])c5F)c5nc(c(-c6cccc(S(=O)(=O)[O-])c6F)c6ccc3[nH]6)C=C5)C=C4)cc2)c(OC)c1
REMARK SMILES IDX 22 1 21 2 20 3 19 4 18 5 16 6 17 7 8 9 7 10 6 11 3 12 4 13
REMARK SMILES IDX 94 14 5 15 91 16 2 17 1 18 92 19 93 20 9 21 10 22 11 23
REMARK SMILES IDX 15 24 12 25 14 26 13 28 23 29 24 30 25 31 26 32 27 34 28 35
REMARK SMILES IDX 29 36 90 37 30 38 89 39 31 40 32 41 33 42 83 43 34 44 88 45
REMARK SMILES IDX 82 46 84 47 35 48 87 49 81 50 80 51 36 53 68 54 48 55 67 56
REMARK SMILES IDX 49 57 52 58 66 59 85 60 50 61 51 62 65 64 86 65 53 66 37 67
REMARK SMILES IDX 38 68 46 69 39 70 41 71 47 72 40 73 42 74 43 75 44 76 45 77
REMARK SMILES IDX 69 78 70 79 78 80 71 81 73 82 79 83 72 84 74 85 75 86 76 87
REMARK SMILES IDX 77 88 54 89 55 90 63 91 56 92 58 93 64 94 57 95 59 96 60 97
REMARK SMILES IDX 61 98 62 99
REMARK H PARENT 18 8 15 27 25 33 84 52 52 63
REMARK Flexibility Score: inf
ROOT
ATOM      1  C   UNL     1      -1.658  -8.863   9.237  1.00  0.00     0.002 C 
ENDROOT
BRANCH   1   2
ATOM      2  C   UNL     1      -1.460  -9.047   7.723  1.00  0.00     0.002 C 
BRANCH   2   3
ATOM      3  C   UNL     1      -1.574  -7.775   6.871  1.00  0.00     0.021 C 
BRANCH   3   4
ATOM      4  C   UNL     1      -0.578  -6.675   7.252  1.00  0.00     0.116 C 
BRANCH   4   5
ATOM      5  N   UNL     1       0.741  -6.947   6.701  1.00  0.00    -0.352 N 
ATOM      6  C   UNL     1       1.468  -6.407   5.677  1.00  0.00     0.258 C 
ATOM      7  O   UNL     1       2.597  -6.885   5.516  1.00  0.00    -0.269 OA
ATOM      8  H   UNL     1       1.210  -7.677   7.166  1.00  0.00     0.163 HD
BRANCH   6   9
ATOM      9  C   UNL     1       0.991  -5.228   4.838  1.00  0.00     0.081 C 
ATOM     10  C   UNL     1       1.999  -4.375   4.536  1.00  0.00     0.033 C 
BRANCH  10  11
ATOM     11  C   UNL     1       2.022  -3.091   3.812  1.00  0.00     0.018 A 
ATOM     12  C   UNL     1       1.803  -0.678   2.382  1.00  0.00     0.122 A 
ATOM     13  C   UNL     1       1.190  -0.816   3.624  1.00  0.00     0.047 A 
ATOM     14  C   UNL     1       2.648  -1.685   1.925  1.00  0.00     0.093 A 
ATOM     15  C   UNL     1       1.301  -2.013   4.336  1.00  0.00     0.016 A 
ATOM     16  C   UNL     1       2.813  -2.862   2.672  1.00  0.00     0.129 A 
BRANCH  12  17
ATOM     17  O   UNL     1       1.536   0.487   1.716  1.00  0.00    -0.497 OA
ATOM     18  C   UNL     1       1.643   0.419   0.297  1.00  0.00     0.278 C 
ENDBRANCH  12  17
BRANCH  16  19
ATOM     19  O   UNL     1       3.752  -3.805   2.320  1.00  0.00    -0.496 OA
ATOM     20  C   UNL     1       4.991  -3.234   1.888  1.00  0.00     0.278 C 
ENDBRANCH  16  19
ENDBRANCH  10  11
BRANCH   9  21
ATOM     21  S   UNL     1      -0.673  -5.289   4.361  1.00  0.00    -0.045 SA
BRANCH  21  22
ATOM     22  C   UNL     1      -1.044  -3.846   3.531  1.00  0.00     0.188 A 
ATOM     23  N   UNL     1      -0.777  -3.539   2.290  1.00  0.00    -0.206 NA
ATOM     24  N   UNL     1      -1.879  -2.910   4.063  1.00  0.00    -0.254 N 
ATOM     25  C   UNL     1      -1.464  -2.367   2.109  1.00  0.00     0.148 A 
ATOM     26  N   UNL     1      -2.100  -1.904   3.197  1.00  0.00    -0.158 NA
ATOM     27  H   UNL     1      -2.272  -2.963   4.965  1.00  0.00     0.192 HD
ATOM     28  C   UNL     1      -1.467  -1.670   0.812  1.00  0.00     0.092 C 
ENDBRANCH  21  22
ENDBRANCH   9  21
ENDBRANCH   6   9
ENDBRANCH   4   5
ENDBRANCH   3   4
ENDBRANCH   2   3
ENDBRANCH   1   2
BRANCH   1  29
ATOM     29  C   UNL     1      -2.902  -8.076   9.674  1.00  0.00     0.021 C 
BRANCH  29  30
ATOM     30  C   UNL     1      -4.220  -8.744   9.302  1.00  0.00     0.116 C 
BRANCH  30  31
ATOM     31  N   UNL     1      -4.417 -10.002  10.020  1.00  0.00    -0.352 N 
ATOM     32  C   UNL     1      -5.436 -10.918   9.891  1.00  0.00     0.251 C 
ATOM     33  H   UNL     1      -3.728 -10.224  10.686  1.00  0.00     0.163 HD
ATOM     34  O   UNL     1      -5.667 -11.710  10.809  1.00  0.00    -0.269 OA
BRANCH  32  35
ATOM     35  C   UNL     1      -6.249 -10.950   8.664  1.00  0.00     0.039 A 
ATOM     36  C   UNL     1      -7.613 -11.249   8.722  1.00  0.00     0.014 A 
ATOM     37  C   UNL     1      -5.638 -10.682   7.440  1.00  0.00     0.014 A 
ATOM     38  C   UNL     1      -8.364 -11.202   7.552  1.00  0.00     0.010 A 
ATOM     39  C   UNL     1      -6.403 -10.490   6.314  1.00  0.00     0.010 A 
ATOM     40  C   UNL     1      -7.757 -10.794   6.351  1.00  0.00    -0.014 A 
BRANCH  40  41
ATOM     41  C   UNL     1      -8.573 -10.523   5.171  1.00  0.00     0.031 A 
ATOM     42  C   UNL     1      -9.693  -9.587   5.444  1.00  0.00     0.074 A 
ATOM     43  C   UNL     1      -8.254 -10.913   3.918  1.00  0.00     0.049 A 
ATOM     44  N   UNL     1     -10.944  -9.888   5.561  1.00  0.00    -0.248 NA
ATOM     45  C   UNL     1      -9.375  -8.205   5.838  1.00  0.00     0.031 C 
ATOM     46  C   UNL     1      -7.024 -11.582   3.477  1.00  0.00     0.029 A 
ATOM     47  N   UNL     1      -8.900 -10.672   2.740  1.00  0.00    -0.354 N 
ATOM     48  C   UNL     1     -11.594  -8.670   5.729  1.00  0.00     0.074 A 
ATOM     49  C   UNL     1     -10.585  -7.743   6.164  1.00  0.00     0.031 C 
ATOM     50  C   UNL     1      -6.899 -11.461   2.138  1.00  0.00     0.029 A 
ATOM     51  C   UNL     1      -8.107 -10.860   1.608  1.00  0.00     0.049 A 
ATOM     52  H   UNL     1      -9.842 -10.390   2.694  1.00  0.00     0.167 HD
ATOM     53  C   UNL     1     -12.811  -8.461   5.153  1.00  0.00     0.034 A 
ATOM     54  C   UNL     1      -8.405 -10.512   0.331  1.00  0.00     0.034 A 
ATOM     55  C   UNL     1     -13.408  -9.714   4.742  1.00  0.00     0.049 A 
ATOM     56  C   UNL     1      -9.874 -10.380   0.248  1.00  0.00     0.074 A 
ATOM     57  C   UNL     1     -13.702 -10.918   5.352  1.00  0.00     0.029 A 
ATOM     58  N   UNL     1     -13.421  -9.963   3.391  1.00  0.00    -0.354 N 
ATOM     59  N   UNL     1     -10.690 -11.390   0.342  1.00  0.00    -0.248 NA
ATOM     60  C   UNL     1     -10.466  -9.072   0.461  1.00  0.00     0.031 C 
ATOM     61  C   UNL     1     -13.434 -11.912   4.363  1.00  0.00     0.029 A 
ATOM     62  C   UNL     1     -13.071 -11.266   3.181  1.00  0.00     0.049 A 
ATOM     63  H   UNL     1     -13.646  -9.310   2.690  1.00  0.00     0.167 HD
ATOM     64  C   UNL     1     -11.736 -10.901   1.111  1.00  0.00     0.074 A 
ATOM     65  C   UNL     1     -11.618  -9.447   1.021  1.00  0.00     0.031 C 
ATOM     66  C   UNL     1     -12.393 -11.719   1.986  1.00  0.00     0.034 A 
BRANCH  53  67
ATOM     67  C   UNL     1     -13.255  -7.149   4.520  1.00  0.00     0.023 A 
ATOM     68  C   UNL     1     -14.568  -7.116   3.993  1.00  0.00     0.012 A 
ATOM     69  C   UNL     1     -12.393  -6.097   4.131  1.00  0.00     0.148 A 
ATOM     70  C   UNL     1     -14.961  -6.160   3.049  1.00  0.00     0.002 A 
ATOM     71  C   UNL     1     -12.812  -5.104   3.253  1.00  0.00     0.091 A 
ATOM     72  F   UNL     1     -11.112  -6.096   4.500  1.00  0.00    -0.205 F 
ATOM     73  C   UNL     1     -14.081  -5.154   2.676  1.00  0.00     0.022 A 
BRANCH  71  74
ATOM     74  S   UNL     1     -11.726  -3.753   2.770  1.00  0.00     0.127 S 
ATOM     75  O   UNL     1     -11.451  -4.089   1.376  1.00  0.00    -0.237 OA
ATOM     76  O   UNL     1     -12.594  -2.593   2.973  1.00  0.00    -0.237 OA
ATOM     77  O   UNL     1     -10.588  -3.814   3.678  1.00  0.00    -0.744 OA
ENDBRANCH  71  74
ENDBRANCH  53  67
BRANCH  54  78
ATOM     78  C   UNL     1      -7.535 -10.110  -0.799  1.00  0.00     0.023 A 
ATOM     79  C   UNL     1      -8.046 -10.136  -2.115  1.00  0.00     0.012 A 
ATOM     80  C   UNL     1      -6.325  -9.421  -0.572  1.00  0.00     0.148 A 
ATOM     81  C   UNL     1      -7.405  -9.454  -3.155  1.00  0.00     0.002 A 
ATOM     82  C   UNL     1      -5.688  -8.748  -1.611  1.00  0.00     0.091 A 
ATOM     83  F   UNL     1      -5.852  -9.344   0.679  1.00  0.00    -0.205 F 
ATOM     84  C   UNL     1      -6.233  -8.749  -2.901  1.00  0.00     0.022 A 
BRANCH  82  85
ATOM     85  S   UNL     1      -4.189  -7.790  -1.352  1.00  0.00     0.127 S 
ATOM     86  O   UNL     1      -3.338  -8.262  -2.445  1.00  0.00    -0.237 OA
ATOM     87  O   UNL     1      -4.677  -6.422  -1.502  1.00  0.00    -0.237 OA
ATOM     88  O   UNL     1      -3.716  -8.153  -0.022  1.00  0.00    -0.744 OA
ENDBRANCH  82  85
ENDBRANCH  54  78
BRANCH  66  89
ATOM     89  C   UNL     1     -12.216 -13.209   1.830  1.00  0.00     0.023 A 
ATOM     90  C   UNL     1     -10.966 -13.854   1.933  1.00  0.00     0.012 A 
ATOM     91  C   UNL     1     -13.373 -13.994   1.690  1.00  0.00     0.148 A 
ATOM     92  C   UNL     1     -10.870 -15.246   1.854  1.00  0.00     0.002 A 
ATOM     93  C   UNL     1     -13.279 -15.379   1.662  1.00  0.00     0.091 A 
ATOM     94  F   UNL     1     -14.557 -13.369   1.593  1.00  0.00    -0.205 F 
ATOM     95  C   UNL     1     -12.028 -16.010   1.730  1.00  0.00     0.022 A 
BRANCH  93  96
ATOM     96  S   UNL     1     -14.749 -16.406   1.619  1.00  0.00     0.127 S 
ATOM     97  O   UNL     1     -14.811 -16.792   0.212  1.00  0.00    -0.237 OA
ATOM     98  O   UNL     1     -14.403 -17.493   2.538  1.00  0.00    -0.237 OA
ATOM     99  O   UNL     1     -15.838 -15.559   2.090  1.00  0.00    -0.744 OA
ENDBRANCH  93  96
ENDBRANCH  66  89
ENDBRANCH  40  41
ENDBRANCH  32  35
ENDBRANCH  30  31
ENDBRANCH  29  30
ENDBRANCH   1  29
TORSDOF 21
