REMARK SMILES O=C(NCCCCCCNC(=O)c1ccc(-c2c3nc(c(-c4cccc(S(=O)(=O)[O-])c4F)c4ccc([nH]4)c(-c4cccc(S(=O)(=O)[O-])c4F)c4nc(c(-c5cccc(S(=O)(=O)[O-])c5F)c5ccc2[nH]5)C=C4)C=C3)cc1)c1ccc(/C=C/c2ccc3cccc(O)c3n2)cc1
REMARK SMILES IDX 6 1 5 2 4 3 3 4 1 5 2 6 76 8 77 9 94 10 78 11 93 12 79 13
REMARK SMILES IDX 80 14 81 15 82 16 83 17 92 18 84 19 91 20 85 21 89 22 86 23
REMARK SMILES IDX 88 24 87 25 90 26 7 28 8 29 9 30 10 31 11 32 12 34 13 35
REMARK SMILES IDX 14 36 75 37 15 38 74 39 16 40 17 41 18 42 68 43 19 44 73 45
REMARK SMILES IDX 67 46 69 47 20 48 72 49 66 50 65 51 21 53 53 54 33 55 52 56
REMARK SMILES IDX 34 57 37 58 51 59 70 60 35 61 36 62 50 64 71 65 38 66 22 67
REMARK SMILES IDX 23 68 31 69 24 70 26 71 32 72 25 73 27 74 28 75 29 76 30 77
REMARK SMILES IDX 54 78 55 79 63 80 56 81 58 82 64 83 57 84 59 85 60 86 61 87
REMARK SMILES IDX 62 88 39 89 40 90 48 91 41 92 43 93 49 94 42 95 44 96 45 97
REMARK SMILES IDX 46 98 47 99
REMARK H PARENT 3 7 90 27 10 33 69 52 37 63
REMARK Flexibility Score: inf
ROOT
ATOM      1  C   UNL     1       4.317  -0.756   3.650  1.00  0.00     0.002 C 
ENDROOT
BRANCH   1   2
ATOM      2  C   UNL     1       4.846   0.064   2.466  1.00  0.00     0.021 C 
BRANCH   2   3
ATOM      3  C   UNL     1       4.601  -0.543   1.081  1.00  0.00     0.116 C 
BRANCH   3   4
ATOM      4  N   UNL     1       3.184  -0.708   0.817  1.00  0.00    -0.352 N 
ATOM      5  O   UNL     1       1.184  -0.249  -0.094  1.00  0.00    -0.269 OA
ATOM      6  C   UNL     1       2.408  -0.175  -0.174  1.00  0.00     0.251 C 
ATOM      7  H   UNL     1       2.708  -1.294   1.449  1.00  0.00     0.163 HD
BRANCH   6   8
ATOM      8  C   UNL     1       3.011   0.502  -1.341  1.00  0.00     0.039 A 
ATOM      9  C   UNL     1       3.971  -0.116  -2.153  1.00  0.00     0.014 A 
ATOM     10  C   UNL     1       2.499   1.748  -1.695  1.00  0.00     0.014 A 
ATOM     11  C   UNL     1       4.423   0.520  -3.322  1.00  0.00     0.009 A 
ATOM     12  C   UNL     1       2.951   2.373  -2.856  1.00  0.00     0.009 A 
ATOM     13  C   UNL     1       3.906   1.764  -3.693  1.00  0.00    -0.026 A 
BRANCH  13  14
ATOM     14  C   UNL     1       4.348   2.551  -4.853  1.00  0.00     0.010 C 
ATOM     15  C   UNL     1       5.322   2.337  -5.762  1.00  0.00     0.029 C 
BRANCH  15  16
ATOM     16  C   UNL     1       5.803   3.585  -6.417  1.00  0.00     0.064 A 
ATOM     17  C   UNL     1       6.673   4.287  -5.588  1.00  0.00     0.029 A 
ATOM     18  N   UNL     1       4.927   4.204  -7.251  1.00  0.00    -0.245 NA
ATOM     19  C   UNL     1       6.329   5.595  -5.278  1.00  0.00     0.013 A 
ATOM     20  C   UNL     1       4.674   5.514  -7.016  1.00  0.00     0.113 A 
ATOM     21  C   UNL     1       5.252   6.200  -5.933  1.00  0.00     0.004 A 
ATOM     22  C   UNL     1       3.768   6.225  -7.803  1.00  0.00     0.141 A 
ATOM     23  C   UNL     1       4.738   7.442  -5.523  1.00  0.00     0.010 A 
ATOM     24  C   UNL     1       3.299   7.489  -7.450  1.00  0.00     0.048 A 
ATOM     25  C   UNL     1       3.741   8.071  -6.266  1.00  0.00     0.005 A 
BRANCH  22  26
ATOM     26  O   UNL     1       3.309   5.675  -8.976  1.00  0.00    -0.506 OA
ATOM     27  H   UNL     1       2.700   6.148  -9.509  1.00  0.00     0.293 HD
ENDBRANCH  22  26
ENDBRANCH  15  16
ENDBRANCH  13  14
ENDBRANCH   6   8
ENDBRANCH   3   4
ENDBRANCH   2   3
ENDBRANCH   1   2
BRANCH   1  28
ATOM     28  C   UNL     1       4.799  -2.208   3.724  1.00  0.00     0.002 C 
BRANCH  28  29
ATOM     29  C   UNL     1       6.316  -2.398   3.708  1.00  0.00     0.021 C 
BRANCH  29  30
ATOM     30  C   UNL     1       7.074  -1.667   4.812  1.00  0.00     0.116 C 
BRANCH  30  31
ATOM     31  N   UNL     1       6.715  -2.137   6.141  1.00  0.00    -0.352 N 
ATOM     32  C   UNL     1       7.530  -2.562   7.163  1.00  0.00     0.251 C 
ATOM     33  H   UNL     1       5.750  -2.153   6.336  1.00  0.00     0.163 HD
ATOM     34  O   UNL     1       7.041  -3.080   8.161  1.00  0.00    -0.269 OA
BRANCH  32  35
ATOM     35  C   UNL     1       8.998  -2.413   7.048  1.00  0.00     0.039 A 
ATOM     36  C   UNL     1       9.816  -3.487   7.411  1.00  0.00     0.014 A 
ATOM     37  C   UNL     1       9.568  -1.224   6.586  1.00  0.00     0.014 A 
ATOM     38  C   UNL     1      11.201  -3.388   7.252  1.00  0.00     0.010 A 
ATOM     39  C   UNL     1      10.940  -1.155   6.357  1.00  0.00     0.010 A 
ATOM     40  C   UNL     1      11.773  -2.233   6.693  1.00  0.00    -0.014 A 
BRANCH  40  41
ATOM     41  C   UNL     1      13.234  -2.141   6.439  1.00  0.00     0.031 A 
ATOM     42  C   UNL     1      14.064  -1.094   7.132  1.00  0.00     0.074 A 
ATOM     43  C   UNL     1      13.802  -2.946   5.519  1.00  0.00     0.049 A 
ATOM     44  N   UNL     1      15.336  -0.824   6.992  1.00  0.00    -0.248 NA
ATOM     45  C   UNL     1      13.368  -0.217   8.087  1.00  0.00     0.031 C 
ATOM     46  C   UNL     1      13.092  -3.944   4.717  1.00  0.00     0.029 A 
ATOM     47  N   UNL     1      15.100  -3.030   5.079  1.00  0.00    -0.354 N 
ATOM     48  C   UNL     1      15.587   0.267   7.815  1.00  0.00     0.074 A 
ATOM     49  C   UNL     1      14.325   0.637   8.418  1.00  0.00     0.031 C 
ATOM     50  C   UNL     1      13.960  -4.537   3.882  1.00  0.00     0.029 A 
ATOM     51  C   UNL     1      15.280  -3.941   4.065  1.00  0.00     0.049 A 
ATOM     52  H   UNL     1      15.832  -2.489   5.454  1.00  0.00     0.167 HD
ATOM     53  C   UNL     1      16.764   0.886   8.073  1.00  0.00     0.034 A 
ATOM     54  C   UNL     1      16.379  -4.254   3.351  1.00  0.00     0.034 A 
ATOM     55  C   UNL     1      18.023   0.499   7.494  1.00  0.00     0.049 A 
ATOM     56  C   UNL     1      17.682  -3.576   3.676  1.00  0.00     0.074 A 
ATOM     57  C   UNL     1      19.282   1.013   7.748  1.00  0.00     0.029 A 
ATOM     58  N   UNL     1      18.182  -0.491   6.537  1.00  0.00    -0.354 N 
ATOM     59  N   UNL     1      17.928  -2.649   4.570  1.00  0.00    -0.248 NA
ATOM     60  C   UNL     1      18.866  -4.013   2.923  1.00  0.00     0.031 C 
ATOM     61  C   UNL     1      20.199   0.352   6.923  1.00  0.00     0.029 A 
ATOM     62  C   UNL     1      19.516  -0.598   6.181  1.00  0.00     0.049 A 
ATOM     63  H   UNL     1      17.453  -1.039   6.164  1.00  0.00     0.167 HD
ATOM     64  C   UNL     1      19.297  -2.415   4.511  1.00  0.00     0.074 A 
ATOM     65  C   UNL     1      19.830  -3.314   3.508  1.00  0.00     0.031 C 
ATOM     66  C   UNL     1      20.043  -1.527   5.214  1.00  0.00     0.034 A 
BRANCH  53  67
ATOM     67  C   UNL     1      16.750   2.021   9.067  1.00  0.00     0.023 A 
ATOM     68  C   UNL     1      16.517   1.746  10.431  1.00  0.00     0.012 A 
ATOM     69  C   UNL     1      17.006   3.346   8.666  1.00  0.00     0.148 A 
ATOM     70  C   UNL     1      16.494   2.775  11.372  1.00  0.00     0.002 A 
ATOM     71  C   UNL     1      17.029   4.361   9.616  1.00  0.00     0.091 A 
ATOM     72  F   UNL     1      17.207   3.593   7.364  1.00  0.00    -0.205 F 
ATOM     73  C   UNL     1      16.759   4.080  10.966  1.00  0.00     0.022 A 
BRANCH  71  74
ATOM     74  S   UNL     1      17.441   6.061   9.209  1.00  0.00     0.127 S 
ATOM     75  O   UNL     1      16.142   6.719   9.345  1.00  0.00    -0.237 OA
ATOM     76  O   UNL     1      18.409   6.402  10.251  1.00  0.00    -0.237 OA
ATOM     77  O   UNL     1      17.987   6.029   7.859  1.00  0.00    -0.744 OA
ENDBRANCH  71  74
ENDBRANCH  53  67
BRANCH  54  78
ATOM     78  C   UNL     1      16.298  -5.297   2.290  1.00  0.00     0.023 A 
ATOM     79  C   UNL     1      16.919  -6.545   2.489  1.00  0.00     0.012 A 
ATOM     80  C   UNL     1      15.572  -5.072   1.104  1.00  0.00     0.148 A 
ATOM     81  C   UNL     1      16.844  -7.540   1.514  1.00  0.00     0.002 A 
ATOM     82  C   UNL     1      15.452  -6.087   0.163  1.00  0.00     0.091 A 
ATOM     83  F   UNL     1      14.996  -3.874   0.930  1.00  0.00    -0.205 F 
ATOM     84  C   UNL     1      16.102  -7.316   0.357  1.00  0.00     0.022 A 
BRANCH  82  85
ATOM     85  S   UNL     1      14.406  -5.936  -1.289  1.00  0.00     0.127 S 
ATOM     86  O   UNL     1      15.391  -5.902  -2.367  1.00  0.00    -0.237 OA
ATOM     87  O   UNL     1      13.612  -7.163  -1.217  1.00  0.00    -0.237 OA
ATOM     88  O   UNL     1      13.637  -4.713  -1.097  1.00  0.00    -0.744 OA
ENDBRANCH  82  85
ENDBRANCH  54  78
BRANCH  66  89
ATOM     89  C   UNL     1      21.527  -1.500   4.955  1.00  0.00     0.023 A 
ATOM     90  C   UNL     1      22.022  -0.970   3.747  1.00  0.00     0.012 A 
ATOM     91  C   UNL     1      22.435  -1.935   5.941  1.00  0.00     0.148 A 
ATOM     92  C   UNL     1      23.395  -0.904   3.511  1.00  0.00     0.002 A 
ATOM     93  C   UNL     1      23.802  -1.820   5.721  1.00  0.00     0.091 A 
ATOM     94  F   UNL     1      21.944  -2.454   7.077  1.00  0.00    -0.205 F 
ATOM     95  C   UNL     1      24.284  -1.317   4.501  1.00  0.00     0.022 A 
BRANCH  93  96
ATOM     96  S   UNL     1      25.020  -2.235   6.974  1.00  0.00     0.127 S 
ATOM     97  O   UNL     1      25.610  -3.453   6.423  1.00  0.00    -0.237 OA
ATOM     98  O   UNL     1      25.899  -1.065   6.950  1.00  0.00    -0.237 OA
ATOM     99  O   UNL     1      24.277  -2.407   8.215  1.00  0.00    -0.744 OA
ENDBRANCH  93  96
ENDBRANCH  66  89
ENDBRANCH  40  41
ENDBRANCH  32  35
ENDBRANCH  30  31
ENDBRANCH  29  30
ENDBRANCH  28  29
ENDBRANCH   1  28
TORSDOF 19
