REMARK SMILES Cc1coc2c(C)c3oc(=O)c(CC(=O)NCC(=O)N[C@H](C(=O)NCCCCCCNC(=O)c4ccc(-c5c6nc(c(-c7cccc(S(=O)(=O)[O-])c7F)c7ccc([nH]7)c(-c7cccc(S(=O)(=O)[O-])c7F)c7nc(c(-c8cccc(S(=O)(=O)[O-])c8F)c8ccc5[nH]8)C=C7)C=C6)cc4)C(C)C)c(C)c3cc12
REMARK SMILES IDX 26 1 25 2 24 3 22 4 23 5 21 7 20 8 18 9 19 10 17 12 16 13
REMARK SMILES IDX 14 14 15 15 13 17 12 18 1 19 2 20 3 21 104 22 4 23 5 24
REMARK SMILES IDX 103 25 6 26 102 27 7 28 8 29 100 30 9 31 101 32 10 33 11 34
REMARK SMILES IDX 97 35 98 36 99 37 27 38 28 39 29 40 30 41 31 42 32 43 33 45
REMARK SMILES IDX 34 46 35 47 96 48 36 49 95 50 37 51 38 52 39 53 89 54 40 55
REMARK SMILES IDX 94 56 88 57 90 58 41 59 93 60 87 61 86 62 42 64 74 65 54 66
REMARK SMILES IDX 73 67 55 68 58 69 72 70 91 71 56 72 57 73 71 75 92 76 59 77
REMARK SMILES IDX 43 78 44 79 52 80 45 81 47 82 53 83 46 84 48 85 49 86 50 87
REMARK SMILES IDX 51 88 75 89 76 90 84 91 77 92 79 93 85 94 78 95 80 96 81 97
REMARK SMILES IDX 82 98 83 99 60 100 61 101 69 102 62 103 64 104 70 105 63 106
REMARK SMILES IDX 65 107 66 108 67 109 68 110
REMARK H PARENT 24 6 20 11 16 16 31 44 90 63 58 74
REMARK Flexibility Score: inf
ROOT
ATOM      1  C   UNL     1       5.379   2.681   6.797  1.00  0.00     0.021 C 
ENDROOT
BRANCH   1   2
ATOM      2  C   UNL     1       4.415   2.388   5.659  1.00  0.00     0.116 C 
BRANCH   2   3
ATOM      3  N   UNL     1       3.725   3.598   5.295  1.00  0.00    -0.354 N 
ATOM      4  C   UNL     1       3.580   4.238   4.108  1.00  0.00     0.242 C 
ATOM      5  O   UNL     1       3.277   5.410   4.303  1.00  0.00    -0.273 OA
ATOM      6  H   UNL     1       3.275   4.044   6.048  1.00  0.00     0.163 HD
BRANCH   4   7
ATOM      7  C   UNL     1       3.867   3.517   2.728  1.00  0.00     0.173 C 
BRANCH   7   8
ATOM      8  N   UNL     1       3.240   2.188   3.066  1.00  0.00    -0.343 N 
ATOM      9  C   UNL     1       1.940   1.812   3.254  1.00  0.00     0.240 C 
ATOM     10  O   UNL     1       1.737   0.612   3.469  1.00  0.00    -0.273 OA
ATOM     11  H   UNL     1       3.888   1.455   3.171  1.00  0.00     0.164 HD
BRANCH   9  12
ATOM     12  C   UNL     1       0.744   2.771   3.047  1.00  0.00     0.216 C 
BRANCH  12  13
ATOM     13  N   UNL     1       0.729   4.010   3.808  1.00  0.00    -0.347 N 
ATOM     14  C   UNL     1       0.607   5.322   3.452  1.00  0.00     0.225 C 
ATOM     15  O   UNL     1       0.357   6.125   4.357  1.00  0.00    -0.275 OA
ATOM     16  H   UNL     1       0.827   3.875   4.778  1.00  0.00     0.164 HD
BRANCH  14  17
ATOM     17  C   UNL     1       0.709   5.807   2.002  1.00  0.00     0.143 C 
BRANCH  17  18
ATOM     18  C   UNL     1       2.050   5.556   1.371  1.00  0.00     0.051 A 
ATOM     19  C   UNL     1       9.423   6.615   1.831  1.00  0.00     0.048 C 
ATOM     20  C   UNL     1       8.793   5.631   0.914  1.00  0.00    -0.005 A 
ATOM     21  C   UNL     1       9.440   4.851  -0.018  1.00  0.00     0.199 A 
ATOM     22  C   UNL     1       7.397   5.300   0.816  1.00  0.00     0.024 A 
ATOM     23  O   UNL     1       8.559   4.103  -0.719  1.00  0.00    -0.464 OA
ATOM     24  C   UNL     1       7.299   4.372  -0.254  1.00  0.00     0.140 A 
ATOM     25  C   UNL     1       6.278   5.777   1.573  1.00  0.00     0.024 A 
ATOM     26  C   UNL     1       6.158   3.772  -0.842  1.00  0.00     0.036 A 
ATOM     27  C   UNL     1       5.045   5.342   1.161  1.00  0.00     0.022 A 
ATOM     28  C   UNL     1       6.173   2.716  -1.879  1.00  0.00     0.052 C 
ATOM     29  C   UNL     1       5.065   4.282  -0.190  1.00  0.00     0.145 A 
ATOM     30  C   UNL     1       3.454   6.014   1.857  1.00  0.00    -0.029 A 
ATOM     31  O   UNL     1       3.412   3.936  -0.900  1.00  0.00    -0.422 OA
ATOM     32  C   UNL     1       3.696   7.276   2.667  1.00  0.00     0.046 C 
ATOM     33  C   UNL     1       1.814   4.470  -0.237  1.00  0.00     0.340 A 
ATOM     34  O   UNL     1       0.756   4.125  -0.733  1.00  0.00    -0.246 OA
ENDBRANCH  17  18
ENDBRANCH  14  17
ENDBRANCH  12  13
ENDBRANCH   9  12
ENDBRANCH   7   8
BRANCH   7  35
ATOM     35  C   UNL     1       3.371   3.896   1.062  1.00  0.00     0.015 C 
ATOM     36  C   UNL     1       3.457   5.676  -0.215  1.00  0.00     0.010 C 
ATOM     37  C   UNL     1       3.611   2.215   0.436  1.00  0.00     0.010 C 
ENDBRANCH   7  35
ENDBRANCH   4   7
ENDBRANCH   2   3
ENDBRANCH   1   2
BRANCH   1  38
ATOM     38  C   UNL     1       4.755   3.366   8.023  1.00  0.00     0.002 C 
BRANCH  38  39
ATOM     39  C   UNL     1       3.452   2.760   8.566  1.00  0.00     0.002 C 
BRANCH  39  40
ATOM     40  C   UNL     1       3.446   1.245   8.800  1.00  0.00     0.021 C 
BRANCH  40  41
ATOM     41  C   UNL     1       4.592   0.758   9.666  1.00  0.00     0.116 C 
BRANCH  41  42
ATOM     42  N   UNL     1       4.483   1.240  11.034  1.00  0.00    -0.352 N 
ATOM     43  C   UNL     1       5.284   0.899  12.099  1.00  0.00     0.251 C 
ATOM     44  H   UNL     1       3.757   1.879  11.218  1.00  0.00     0.163 HD
ATOM     45  O   UNL     1       4.885   1.041  13.250  1.00  0.00    -0.269 OA
BRANCH  43  46
ATOM     46  C   UNL     1       6.634   0.373  11.831  1.00  0.00     0.039 A 
ATOM     47  C   UNL     1       7.149  -0.673  12.600  1.00  0.00     0.014 A 
ATOM     48  C   UNL     1       7.392   0.954  10.810  1.00  0.00     0.014 A 
ATOM     49  C   UNL     1       8.416  -1.159  12.303  1.00  0.00     0.010 A 
ATOM     50  C   UNL     1       8.594   0.401  10.443  1.00  0.00     0.010 A 
ATOM     51  C   UNL     1       9.127  -0.620  11.219  1.00  0.00    -0.014 A 
BRANCH  51  52
ATOM     52  C   UNL     1      10.375  -1.233  10.788  1.00  0.00     0.031 A 
ATOM     53  C   UNL     1      10.216  -2.657  10.390  1.00  0.00     0.074 A 
ATOM     54  C   UNL     1      11.510  -0.529  10.587  1.00  0.00     0.049 A 
ATOM     55  N   UNL     1      10.661  -3.694  11.016  1.00  0.00    -0.248 NA
ATOM     56  C   UNL     1       9.298  -2.980   9.284  1.00  0.00     0.031 C 
ATOM     57  C   UNL     1      11.687   0.927  10.648  1.00  0.00     0.029 A 
ATOM     58  N   UNL     1      12.726  -0.957  10.152  1.00  0.00    -0.354 N 
ATOM     59  C   UNL     1      10.301  -4.787  10.231  1.00  0.00     0.074 A 
ATOM     60  C   UNL     1       9.282  -4.313   9.336  1.00  0.00     0.031 C 
ATOM     61  C   UNL     1      12.838   1.267  10.027  1.00  0.00     0.029 A 
ATOM     62  C   UNL     1      13.552   0.057   9.667  1.00  0.00     0.049 A 
ATOM     63  H   UNL     1      13.001  -1.902  10.178  1.00  0.00     0.167 HD
ATOM     64  C   UNL     1      11.078  -5.905  10.203  1.00  0.00     0.034 A 
ATOM     65  C   UNL     1      14.709  -0.095   8.972  1.00  0.00     0.034 A 
ATOM     66  C   UNL     1      12.006  -5.906  11.310  1.00  0.00     0.049 A 
ATOM     67  C   UNL     1      15.203  -1.461   9.258  1.00  0.00     0.074 A 
ATOM     68  C   UNL     1      11.886  -5.869  12.684  1.00  0.00     0.029 A 
ATOM     69  N   UNL     1      13.296  -5.525  11.027  1.00  0.00    -0.354 N 
ATOM     70  N   UNL     1      15.591  -1.849  10.441  1.00  0.00    -0.248 NA
ATOM     71  C   UNL     1      14.822  -2.520   8.339  1.00  0.00     0.031 C 
ATOM     72  C   UNL     1      12.949  -5.026  13.120  1.00  0.00     0.029 A 
ATOM     73  C   UNL     1      13.710  -4.665  12.006  1.00  0.00     0.049 A 
ATOM     74  H   UNL     1      13.830  -5.820  10.254  1.00  0.00     0.167 HD
ATOM     75  C   UNL     1      15.049  -3.120  10.573  1.00  0.00     0.074 A 
ATOM     76  C   UNL     1      14.679  -3.519   9.214  1.00  0.00     0.031 C 
ATOM     77  C   UNL     1      14.669  -3.600  11.793  1.00  0.00     0.034 A 
BRANCH  64  78
ATOM     78  C   UNL     1      11.305  -6.791   8.993  1.00  0.00     0.023 A 
ATOM     79  C   UNL     1      12.140  -7.918   9.181  1.00  0.00     0.012 A 
ATOM     80  C   UNL     1      10.992  -6.453   7.657  1.00  0.00     0.148 A 
ATOM     81  C   UNL     1      12.696  -8.616   8.104  1.00  0.00     0.002 A 
ATOM     82  C   UNL     1      11.484  -7.197   6.588  1.00  0.00     0.091 A 
ATOM     83  F   UNL     1      10.312  -5.339   7.383  1.00  0.00    -0.205 F 
ATOM     84  C   UNL     1      12.366  -8.256   6.805  1.00  0.00     0.022 A 
BRANCH  82  85
ATOM     85  S   UNL     1      11.050  -6.813   4.885  1.00  0.00     0.127 S 
ATOM     86  O   UNL     1      12.327  -6.342   4.356  1.00  0.00    -0.237 OA
ATOM     87  O   UNL     1      10.618  -8.121   4.390  1.00  0.00    -0.237 OA
ATOM     88  O   UNL     1       9.986  -5.820   4.957  1.00  0.00    -0.744 OA
ENDBRANCH  82  85
ENDBRANCH  64  78
BRANCH  65  89
ATOM     89  C   UNL     1      15.263   0.718   7.858  1.00  0.00     0.023 A 
ATOM     90  C   UNL     1      16.614   0.568   7.480  1.00  0.00     0.012 A 
ATOM     91  C   UNL     1      14.406   1.415   6.976  1.00  0.00     0.148 A 
ATOM     92  C   UNL     1      17.085   1.061   6.255  1.00  0.00     0.002 A 
ATOM     93  C   UNL     1      14.877   1.905   5.760  1.00  0.00     0.091 A 
ATOM     94  F   UNL     1      13.107   1.516   7.286  1.00  0.00    -0.205 F 
ATOM     95  C   UNL     1      16.215   1.720   5.390  1.00  0.00     0.022 A 
BRANCH  93  96
ATOM     96  S   UNL     1      13.800   2.723   4.573  1.00  0.00     0.127 S 
ATOM     97  O   UNL     1      14.528   3.964   4.309  1.00  0.00    -0.237 OA
ATOM     98  O   UNL     1      13.792   1.771   3.465  1.00  0.00    -0.237 OA
ATOM     99  O   UNL     1      12.522   2.908   5.249  1.00  0.00    -0.744 OA
ENDBRANCH  93  96
ENDBRANCH  65  89
BRANCH  77 100
ATOM    100  C   UNL     1      15.069  -2.833  13.032  1.00  0.00     0.023 A 
ATOM    101  C   UNL     1      14.565  -1.548  13.326  1.00  0.00     0.012 A 
ATOM    102  C   UNL     1      15.764  -3.534  14.031  1.00  0.00     0.148 A 
ATOM    103  C   UNL     1      14.744  -0.983  14.593  1.00  0.00     0.002 A 
ATOM    104  C   UNL     1      15.887  -2.996  15.305  1.00  0.00     0.091 A 
ATOM    105  F   UNL     1      16.239  -4.752  13.730  1.00  0.00    -0.205 F 
ATOM    106  C   UNL     1      15.385  -1.716  15.589  1.00  0.00     0.022 A 
BRANCH 104 107
ATOM    107  S   UNL     1      16.551  -3.954  16.668  1.00  0.00     0.127 S 
ATOM    108  O   UNL     1      17.809  -3.263  16.942  1.00  0.00    -0.237 OA
ATOM    109  O   UNL     1      15.523  -3.785  17.696  1.00  0.00    -0.237 OA
ATOM    110  O   UNL     1      16.685  -5.320  16.177  1.00  0.00    -0.744 OA
ENDBRANCH 104 107
ENDBRANCH  77 100
ENDBRANCH  51  52
ENDBRANCH  43  46
ENDBRANCH  41  42
ENDBRANCH  40  41
ENDBRANCH  39  40
ENDBRANCH  38  39
ENDBRANCH   1  38
TORSDOF 22
