REMARK SMILES O=C(NCCCCCCNC(=O)[C@H]1CC2=c3ccccc3=N[C@H]2[C@@H](c2ccccc2)[NH2+]1)c1ccc(-c2c3nc(c(-c4cccc(S(=O)(=O)[O-])c4F)c4ccc([nH]4)c(-c4cccc(S(=O)(=O)[O-])c4F)c4nc(c(-c5cccc(S(=O)(=O)[O-])c5F)c5ccc2[nH]5)C=C4)C=C3)cc1
REMARK SMILES IDX 5 1 4 2 3 3 1 4 2 5 32 7 33 8 94 9 34 10 93 11 35 12 36 13
REMARK SMILES IDX 37 14 87 15 38 16 92 17 86 18 88 19 39 20 91 21 85 22 84 23
REMARK SMILES IDX 40 25 72 26 52 27 71 28 53 29 56 30 70 31 89 32 54 33 55 34
REMARK SMILES IDX 69 36 90 37 57 38 41 39 42 40 50 41 43 42 45 43 51 44 44 45
REMARK SMILES IDX 46 46 47 47 48 48 49 49 73 50 74 51 82 52 75 53 77 54 83 55
REMARK SMILES IDX 76 56 78 57 79 58 80 59 81 60 58 61 59 62 67 63 60 64 62 65
REMARK SMILES IDX 68 66 61 67 63 68 64 69 65 70 66 71 6 72 7 73 8 74 9 75
REMARK SMILES IDX 10 76 11 77 12 79 13 80 14 81 31 82 15 83 24 84 16 87 23 88
REMARK SMILES IDX 17 89 21 90 22 91 18 92 20 93 19 94 25 95 26 96 30 97 27 98
REMARK SMILES IDX 29 99 28 100
REMARK H PARENT 3 6 88 24 56 35 10 78 31 85 31 86
REMARK Flexibility Score: inf
ROOT
ATOM      1  C   UNL     1       4.632   1.825  -1.944  1.00  0.00     0.021 C 
ENDROOT
BRANCH   1   2
ATOM      2  C   UNL     1       4.445   1.255  -0.540  1.00  0.00     0.116 C 
BRANCH   2   3
ATOM      3  N   UNL     1       3.044   1.157  -0.174  1.00  0.00    -0.352 N 
ATOM      4  O   UNL     1       1.087   0.160   0.280  1.00  0.00    -0.269 OA
ATOM      5  C   UNL     1       2.311   0.067   0.218  1.00  0.00     0.251 C 
ATOM      6  H   UNL     1       2.543   2.003  -0.214  1.00  0.00     0.163 HD
BRANCH   5   7
ATOM      7  C   UNL     1       2.970  -1.213   0.565  1.00  0.00     0.039 A 
ATOM      8  C   UNL     1       2.354  -2.406   0.176  1.00  0.00     0.014 A 
ATOM      9  C   UNL     1       4.140  -1.252   1.332  1.00  0.00     0.014 A 
ATOM     10  C   UNL     1       2.915  -3.631   0.541  1.00  0.00     0.010 A 
ATOM     11  C   UNL     1       4.735  -2.477   1.638  1.00  0.00     0.010 A 
ATOM     12  C   UNL     1       4.115  -3.679   1.270  1.00  0.00    -0.014 A 
BRANCH  12  13
ATOM     13  C   UNL     1       4.692  -4.983   1.692  1.00  0.00     0.031 A 
ATOM     14  C   UNL     1       4.775  -5.338   3.154  1.00  0.00     0.074 A 
ATOM     15  C   UNL     1       5.155  -5.844   0.764  1.00  0.00     0.049 A 
ATOM     16  N   UNL     1       5.238  -6.430   3.707  1.00  0.00    -0.248 NA
ATOM     17  C   UNL     1       4.295  -4.338   4.123  1.00  0.00     0.031 C 
ATOM     18  C   UNL     1       5.190  -5.593  -0.679  1.00  0.00     0.029 A 
ATOM     19  N   UNL     1       5.691  -7.101   0.895  1.00  0.00    -0.354 N 
ATOM     20  C   UNL     1       5.132  -6.236   5.078  1.00  0.00     0.074 A 
ATOM     21  C   UNL     1       4.589  -4.913   5.281  1.00  0.00     0.031 C 
ATOM     22  C   UNL     1       5.697  -6.671  -1.299  1.00  0.00     0.029 A 
ATOM     23  C   UNL     1       6.042  -7.681  -0.302  1.00  0.00     0.049 A 
ATOM     24  H   UNL     1       5.812  -7.546   1.765  1.00  0.00     0.167 HD
ATOM     25  C   UNL     1       5.424  -7.097   6.079  1.00  0.00     0.034 A 
ATOM     26  C   UNL     1       6.571  -8.891  -0.570  1.00  0.00     0.034 A 
ATOM     27  C   UNL     1       5.889  -8.441   5.881  1.00  0.00     0.049 A 
ATOM     28  C   UNL     1       6.833  -9.850   0.558  1.00  0.00     0.074 A 
ATOM     29  C   UNL     1       6.131  -9.411   6.837  1.00  0.00     0.029 A 
ATOM     30  N   UNL     1       6.168  -9.008   4.650  1.00  0.00    -0.354 N 
ATOM     31  N   UNL     1       6.614  -9.687   1.840  1.00  0.00    -0.248 NA
ATOM     32  C   UNL     1       7.385 -11.168   0.207  1.00  0.00     0.031 C 
ATOM     33  C   UNL     1       6.559 -10.568   6.183  1.00  0.00     0.029 A 
ATOM     34  C   UNL     1       6.577 -10.317   4.821  1.00  0.00     0.049 A 
ATOM     35  H   UNL     1       6.088  -8.548   3.783  1.00  0.00     0.167 HD
ATOM     36  C   UNL     1       6.977 -10.884   2.444  1.00  0.00     0.074 A 
ATOM     37  C   UNL     1       7.420 -11.771   1.390  1.00  0.00     0.031 C 
ATOM     38  C   UNL     1       6.958 -11.209   3.758  1.00  0.00     0.034 A 
BRANCH  25  39
ATOM     39  C   UNL     1       5.168  -6.660   7.494  1.00  0.00     0.023 A 
ATOM     40  C   UNL     1       3.852  -6.706   7.994  1.00  0.00     0.012 A 
ATOM     41  C   UNL     1       6.233  -6.340   8.359  1.00  0.00     0.148 A 
ATOM     42  C   UNL     1       3.596  -6.436   9.337  1.00  0.00     0.002 A 
ATOM     43  C   UNL     1       5.973  -6.101   9.703  1.00  0.00     0.091 A 
ATOM     44  F   UNL     1       7.474  -6.298   7.854  1.00  0.00    -0.205 F 
ATOM     45  C   UNL     1       4.657  -6.146  10.192  1.00  0.00     0.022 A 
BRANCH  43  46
ATOM     46  S   UNL     1       7.269  -5.774  10.903  1.00  0.00     0.127 S 
ATOM     47  O   UNL     1       6.916  -4.429  11.358  1.00  0.00    -0.237 OA
ATOM     48  O   UNL     1       7.044  -6.830  11.890  1.00  0.00    -0.237 OA
ATOM     49  O   UNL     1       8.527  -5.865  10.177  1.00  0.00    -0.744 OA
ENDBRANCH  43  46
ENDBRANCH  25  39
BRANCH  26  50
ATOM     50  C   UNL     1       6.813  -9.287  -1.984  1.00  0.00     0.023 A 
ATOM     51  C   UNL     1       5.939 -10.200  -2.603  1.00  0.00     0.012 A 
ATOM     52  C   UNL     1       7.861  -8.717  -2.732  1.00  0.00     0.148 A 
ATOM     53  C   UNL     1       6.112 -10.550  -3.943  1.00  0.00     0.002 A 
ATOM     54  C   UNL     1       8.003  -9.038  -4.077  1.00  0.00     0.091 A 
ATOM     55  F   UNL     1       8.684  -7.857  -2.116  1.00  0.00    -0.205 F 
ATOM     56  C   UNL     1       7.135  -9.962  -4.682  1.00  0.00     0.022 A 
BRANCH  54  57
ATOM     57  S   UNL     1       9.222  -8.248  -5.134  1.00  0.00     0.127 S 
ATOM     58  O   UNL     1      10.125  -9.360  -5.427  1.00  0.00    -0.237 OA
ATOM     59  O   UNL     1       8.399  -7.809  -6.263  1.00  0.00    -0.237 OA
ATOM     60  O   UNL     1       9.788  -7.167  -4.345  1.00  0.00    -0.744 OA
ENDBRANCH  54  57
ENDBRANCH  26  50
BRANCH  38  61
ATOM     61  C   UNL     1       7.407 -12.583   4.165  1.00  0.00     0.023 A 
ATOM     62  C   UNL     1       8.784 -12.844   4.293  1.00  0.00     0.012 A 
ATOM     63  C   UNL     1       6.470 -13.547   4.586  1.00  0.00     0.148 A 
ATOM     64  C   UNL     1       9.225 -14.048   4.839  1.00  0.00     0.002 A 
ATOM     65  C   UNL     1       6.916 -14.731   5.160  1.00  0.00     0.091 A 
ATOM     66  F   UNL     1       5.166 -13.268   4.451  1.00  0.00    -0.205 F 
ATOM     67  C   UNL     1       8.293 -14.984   5.284  1.00  0.00     0.022 A 
BRANCH  65  68
ATOM     68  S   UNL     1       5.798 -15.962   5.837  1.00  0.00     0.127 S 
ATOM     69  O   UNL     1       6.066 -17.113   4.975  1.00  0.00    -0.237 OA
ATOM     70  O   UNL     1       6.287 -16.100   7.209  1.00  0.00    -0.237 OA
ATOM     71  O   UNL     1       4.458 -15.403   5.719  1.00  0.00    -0.744 OA
ENDBRANCH  65  68
ENDBRANCH  38  61
ENDBRANCH  12  13
ENDBRANCH   5   7
ENDBRANCH   2   3
ENDBRANCH   1   2
BRANCH   1  72
ATOM     72  C   UNL     1       4.063   3.232  -2.163  1.00  0.00     0.002 C 
BRANCH  72  73
ATOM     73  C   UNL     1       4.565   4.312  -1.198  1.00  0.00     0.002 C 
BRANCH  73  74
ATOM     74  C   UNL     1       6.085   4.397  -1.054  1.00  0.00     0.021 C 
BRANCH  74  75
ATOM     75  C   UNL     1       6.829   4.705  -2.349  1.00  0.00     0.116 C 
BRANCH  75  76
ATOM     76  N   UNL     1       6.735   6.110  -2.696  1.00  0.00    -0.351 N 
ATOM     77  C   UNL     1       7.709   7.055  -2.862  1.00  0.00     0.278 C 
ATOM     78  H   UNL     1       5.817   6.438  -2.835  1.00  0.00     0.163 HD
ATOM     79  O   UNL     1       7.346   8.215  -3.082  1.00  0.00    -0.268 OA
BRANCH  77  80
ATOM     80  C   UNL     1       9.210   6.698  -2.756  1.00  0.00     0.277 C 
ATOM     81  C   UNL     1       9.600   6.340  -1.304  1.00  0.00     0.109 C 
ATOM     82  N   UNL     1       9.559   5.731  -3.823  1.00  0.00    -0.327 N 
ATOM     83  C   UNL     1      10.321   5.037  -1.250  1.00  0.00    -0.024 C 
ATOM     84  C   UNL     1      10.938   5.188  -3.727  1.00  0.00     0.243 C 
ATOM     85  H   UNL     1       9.461   6.200  -4.723  1.00  0.00     0.347 HD
ATOM     86  H   UNL     1       8.924   4.940  -3.718  1.00  0.00     0.347 HD
ATOM     87  C   UNL     1      10.062   3.947  -0.535  1.00  0.00     0.002 A 
ATOM     88  C   UNL     1      11.407   4.792  -2.265  1.00  0.00     0.196 C 
ATOM     89  C   UNL     1       9.117   3.591   0.471  1.00  0.00     0.010 A 
ATOM     90  C   UNL     1      10.962   2.956  -1.143  1.00  0.00     0.066 A 
ATOM     91  N   UNL     1      11.771   3.365  -2.071  1.00  0.00    -0.270 NA
ATOM     92  C   UNL     1       9.007   2.299   0.821  1.00  0.00     0.001 A 
ATOM     93  C   UNL     1      10.800   1.558  -0.689  1.00  0.00     0.028 A 
ATOM     94  C   UNL     1       9.845   1.277   0.215  1.00  0.00     0.002 A 
BRANCH  84  95
ATOM     95  C   UNL     1      11.106   4.196  -4.881  1.00  0.00     0.012 A 
ATOM     96  C   UNL     1      11.400   4.696  -6.165  1.00  0.00     0.010 A 
ATOM     97  C   UNL     1      10.862   2.819  -4.769  1.00  0.00     0.010 A 
ATOM     98  C   UNL     1      11.503   3.846  -7.271  1.00  0.00     0.001 A 
ATOM     99  C   UNL     1      10.993   1.963  -5.866  1.00  0.00     0.001 A 
ATOM    100  C   UNL     1      11.315   2.476  -7.117  1.00  0.00     0.000 A 
ENDBRANCH  84  95
ENDBRANCH  77  80
ENDBRANCH  75  76
ENDBRANCH  74  75
ENDBRANCH  73  74
ENDBRANCH  72  73
ENDBRANCH   1  72
TORSDOF 17
