REMARK SMILES Cc1[nH]cnc1C[NH+]1CCC(Oc2cccc(F)c2)(C(=O)NCCCCCCNC(=O)c2ccc(-c3c4nc(c(-c5cccc(S(=O)(=O)[O-])c5F)c5ccc([nH]5)c(-c5cccc(S(=O)(=O)[O-])c5F)c5nc(c(-c6cccc(S(=O)(=O)[O-])c6F)c6ccc3[nH]6)C=C5)C=C4)cc2)CC1
REMARK SMILES IDX 26 1 25 2 24 3 23 4 22 5 20 6 21 7 11 9 8 10 9 11 96 12
REMARK SMILES IDX 10 14 95 15 7 16 6 17 1 18 2 19 3 20 4 21 5 23 12 24 13 25
REMARK SMILES IDX 14 26 19 27 15 28 17 29 16 30 18 31 27 32 28 33 29 34 30 35
REMARK SMILES IDX 31 37 32 38 33 39 94 40 34 41 93 42 35 43 36 44 37 45 87 46
REMARK SMILES IDX 38 47 92 48 86 49 88 50 39 51 91 52 85 53 84 54 40 56 72 57
REMARK SMILES IDX 52 58 71 59 53 60 56 61 70 62 89 63 54 64 55 65 69 67 90 68
REMARK SMILES IDX 57 69 41 70 42 71 50 72 43 73 45 74 51 75 44 76 46 77 47 78
REMARK SMILES IDX 48 79 49 80 73 81 74 82 82 83 75 84 77 85 83 86 76 87 78 88
REMARK SMILES IDX 79 89 80 90 81 91 58 92 59 93 67 94 60 95 62 96 68 97 61 98
REMARK SMILES IDX 63 99 64 100 65 101 66 102
REMARK H PARENT 22 8 8 13 3 22 29 36 88 55 56 66
REMARK Flexibility Score: inf
ROOT
ATOM      1  C   UNL     1      -0.988   0.266   8.271  1.00  0.00     0.002 C 
ENDROOT
BRANCH   1   2
ATOM      2  C   UNL     1      -0.261   0.203   6.925  1.00  0.00     0.002 C 
BRANCH   2   3
ATOM      3  C   UNL     1       0.061  -1.208   6.420  1.00  0.00     0.021 C 
BRANCH   3   4
ATOM      4  C   UNL     1      -1.159  -2.116   6.269  1.00  0.00     0.116 C 
BRANCH   4   5
ATOM      5  N   UNL     1      -2.026  -1.646   5.205  1.00  0.00    -0.353 N 
ATOM      6  C   UNL     1      -2.396  -2.233   4.029  1.00  0.00     0.264 C 
ATOM      7  O   UNL     1      -3.248  -1.622   3.374  1.00  0.00    -0.270 OA
ATOM      8  H   UNL     1      -2.414  -0.754   5.357  1.00  0.00     0.163 HD
BRANCH   6   9
ATOM      9  C   UNL     1      -1.796  -3.595   3.565  1.00  0.00     0.197 C 
ATOM     10  N   UNL     1      -0.487  -3.131   0.981  1.00  0.00    -0.330 N 
ATOM     11  C   UNL     1       0.111  -2.609   2.209  1.00  0.00     0.267 C 
ATOM     12  C   UNL     1      -1.954  -3.137   1.052  1.00  0.00     0.267 C 
ATOM     13  H   UNL     1      -0.189  -4.104   0.903  1.00  0.00     0.348 HD
ATOM     14  C   UNL     1      -0.271  -3.510   3.380  1.00  0.00     0.120 C 
ATOM     15  C   UNL     1      -2.441  -4.005   2.221  1.00  0.00     0.120 C 
BRANCH  10  16
ATOM     16  C   UNL     1       0.020  -2.464  -0.236  1.00  0.00     0.321 C 
BRANCH  16  17
ATOM     17  C   UNL     1      -0.136  -0.970  -0.237  1.00  0.00     0.115 A 
ATOM     18  C   UNL     1       2.295  -0.025   0.095  1.00  0.00     0.066 C 
ATOM     19  C   UNL     1       0.827   0.017  -0.083  1.00  0.00     0.040 A 
ATOM     20  N   UNL     1       0.128   1.198  -0.112  1.00  0.00    -0.348 N 
ATOM     21  C   UNL     1      -1.188   0.902  -0.313  1.00  0.00     0.197 A 
ATOM     22  H   UNL     1       0.509   2.100  -0.005  1.00  0.00     0.167 HD
ATOM     23  N   UNL     1      -1.375  -0.390  -0.426  1.00  0.00    -0.236 NA
ENDBRANCH  16  17
ENDBRANCH  10  16
BRANCH   9  24
ATOM     24  O   UNL     1      -2.216  -4.450   4.663  1.00  0.00    -0.477 OA
BRANCH  24  25
ATOM     25  C   UNL     1      -2.007  -5.791   4.558  1.00  0.00     0.123 A 
ATOM     26  C   UNL     1      -0.764  -6.352   4.853  1.00  0.00     0.046 A 
ATOM     27  C   UNL     1      -3.105  -6.611   4.313  1.00  0.00     0.085 A 
ATOM     28  C   UNL     1      -0.596  -7.738   4.814  1.00  0.00     0.007 A 
ATOM     29  C   UNL     1      -2.930  -7.989   4.288  1.00  0.00     0.126 A 
ATOM     30  C   UNL     1      -1.683  -8.560   4.523  1.00  0.00     0.039 A 
ATOM     31  F   UNL     1      -3.982  -8.783   4.043  1.00  0.00    -0.207 F 
ENDBRANCH  24  25
ENDBRANCH   9  24
ENDBRANCH   6   9
ENDBRANCH   4   5
ENDBRANCH   3   4
ENDBRANCH   2   3
ENDBRANCH   1   2
BRANCH   1  32
ATOM     32  C   UNL     1      -0.311  -0.489   9.418  1.00  0.00     0.021 C 
BRANCH  32  33
ATOM     33  C   UNL     1       1.122  -0.061   9.720  1.00  0.00     0.116 C 
BRANCH  33  34
ATOM     34  N   UNL     1       1.209   1.335  10.115  1.00  0.00    -0.352 N 
ATOM     35  C   UNL     1       1.827   1.900  11.201  1.00  0.00     0.251 C 
ATOM     36  H   UNL     1       0.755   1.969   9.514  1.00  0.00     0.163 HD
ATOM     37  O   UNL     1       1.637   3.088  11.456  1.00  0.00    -0.269 OA
BRANCH  35  38
ATOM     38  C   UNL     1       2.706   1.089  12.074  1.00  0.00     0.039 A 
ATOM     39  C   UNL     1       2.610   1.254  13.458  1.00  0.00     0.014 A 
ATOM     40  C   UNL     1       3.641   0.196  11.540  1.00  0.00     0.014 A 
ATOM     41  C   UNL     1       3.415   0.490  14.306  1.00  0.00     0.010 A 
ATOM     42  C   UNL     1       4.397  -0.612  12.389  1.00  0.00     0.010 A 
ATOM     43  C   UNL     1       4.298  -0.469  13.780  1.00  0.00    -0.014 A 
BRANCH  43  44
ATOM     44  C   UNL     1       5.097  -1.338  14.682  1.00  0.00     0.031 A 
ATOM     45  C   UNL     1       6.598  -1.246  14.708  1.00  0.00     0.074 A 
ATOM     46  C   UNL     1       4.466  -2.251  15.447  1.00  0.00     0.049 A 
ATOM     47  N   UNL     1       7.447  -1.910  15.448  1.00  0.00    -0.248 NA
ATOM     48  C   UNL     1       7.232  -0.304  13.771  1.00  0.00     0.031 C 
ATOM     49  C   UNL     1       3.022  -2.492  15.449  1.00  0.00     0.029 A 
ATOM     50  N   UNL     1       4.954  -3.153  16.360  1.00  0.00    -0.354 N 
ATOM     51  C   UNL     1       8.710  -1.486  15.055  1.00  0.00     0.074 A 
ATOM     52  C   UNL     1       8.521  -0.533  13.983  1.00  0.00     0.031 C 
ATOM     53  C   UNL     1       2.739  -3.458  16.336  1.00  0.00     0.029 A 
ATOM     54  C   UNL     1       3.979  -3.923  16.950  1.00  0.00     0.049 A 
ATOM     55  H   UNL     1       5.912  -3.240  16.572  1.00  0.00     0.167 HD
ATOM     56  C   UNL     1       9.916  -1.831  15.565  1.00  0.00     0.034 A 
ATOM     57  C   UNL     1       4.069  -4.887  17.889  1.00  0.00     0.034 A 
ATOM     58  C   UNL     1      10.095  -2.740  16.664  1.00  0.00     0.049 A 
ATOM     59  C   UNL     1       5.415  -5.218  18.474  1.00  0.00     0.074 A 
ATOM     60  C   UNL     1      11.271  -3.086  17.306  1.00  0.00     0.029 A 
ATOM     61  N   UNL     1       9.076  -3.446  17.284  1.00  0.00    -0.354 N 
ATOM     62  N   UNL     1       6.582  -4.691  18.195  1.00  0.00    -0.248 NA
ATOM     63  C   UNL     1       5.457  -6.245  19.524  1.00  0.00     0.031 C 
ATOM     64  C   UNL     1      10.965  -4.015  18.303  1.00  0.00     0.029 A 
ATOM     65  C   UNL     1       9.597  -4.231  18.297  1.00  0.00     0.049 A 
ATOM     66  H   UNL     1       8.124  -3.397  17.039  1.00  0.00     0.167 HD
ATOM     67  C   UNL     1       7.491  -5.294  19.056  1.00  0.00     0.074 A 
ATOM     68  C   UNL     1       6.737  -6.221  19.876  1.00  0.00     0.031 C 
ATOM     69  C   UNL     1       8.829  -5.104  19.148  1.00  0.00     0.034 A 
BRANCH  56  70
ATOM     70  C   UNL     1      11.144  -1.167  14.998  1.00  0.00     0.023 A 
ATOM     71  C   UNL     1      11.399   0.185  15.306  1.00  0.00     0.012 A 
ATOM     72  C   UNL     1      12.093  -1.898  14.257  1.00  0.00     0.148 A 
ATOM     73  C   UNL     1      12.567   0.805  14.868  1.00  0.00     0.002 A 
ATOM     74  C   UNL     1      13.275  -1.284  13.859  1.00  0.00     0.091 A 
ATOM     75  F   UNL     1      11.824  -3.177  13.958  1.00  0.00    -0.205 F 
ATOM     76  C   UNL     1      13.510   0.068  14.157  1.00  0.00     0.022 A 
BRANCH  74  77
ATOM     77  S   UNL     1      14.590  -2.169  13.011  1.00  0.00     0.127 S 
ATOM     78  O   UNL     1      14.510  -1.596  11.668  1.00  0.00    -0.237 OA
ATOM     79  O   UNL     1      15.773  -1.769  13.774  1.00  0.00    -0.237 OA
ATOM     80  O   UNL     1      14.252  -3.581  13.109  1.00  0.00    -0.744 OA
ENDBRANCH  74  77
ENDBRANCH  56  70
BRANCH  57  81
ATOM     81  C   UNL     1       2.823  -5.526  18.399  1.00  0.00     0.023 A 
ATOM     82  C   UNL     1       2.367  -5.206  19.693  1.00  0.00     0.012 A 
ATOM     83  C   UNL     1       2.046  -6.374  17.587  1.00  0.00     0.148 A 
ATOM     84  C   UNL     1       1.166  -5.729  20.173  1.00  0.00     0.002 A 
ATOM     85  C   UNL     1       0.824  -6.848  18.050  1.00  0.00     0.091 A 
ATOM     86  F   UNL     1       2.505  -6.675  16.363  1.00  0.00    -0.205 F 
ATOM     87  C   UNL     1       0.388  -6.538  19.348  1.00  0.00     0.022 A 
BRANCH  85  88
ATOM     88  S   UNL     1      -0.309  -7.772  17.006  1.00  0.00     0.127 S 
ATOM     89  O   UNL     1      -0.255  -9.102  17.610  1.00  0.00    -0.237 OA
ATOM     90  O   UNL     1      -1.567  -7.051  17.216  1.00  0.00    -0.237 OA
ATOM     91  O   UNL     1       0.224  -7.668  15.657  1.00  0.00    -0.744 OA
ENDBRANCH  85  88
ENDBRANCH  57  81
BRANCH  69  92
ATOM     92  C   UNL     1       9.595  -5.883  20.185  1.00  0.00     0.023 A 
ATOM     93  C   UNL     1       9.884  -7.242  19.957  1.00  0.00     0.012 A 
ATOM     94  C   UNL     1      10.159  -5.228  21.298  1.00  0.00     0.148 A 
ATOM     95  C   UNL     1      10.720  -7.941  20.827  1.00  0.00     0.002 A 
ATOM     96  C   UNL     1      11.027  -5.919  22.134  1.00  0.00     0.091 A 
ATOM     97  F   UNL     1       9.858  -3.937  21.499  1.00  0.00    -0.205 F 
ATOM     98  C   UNL     1      11.303  -7.277  21.904  1.00  0.00     0.022 A 
BRANCH  96  99
ATOM     99  S   UNL     1      11.909  -5.125  23.484  1.00  0.00     0.127 S 
ATOM    100  O   UNL     1      11.307  -5.768  24.651  1.00  0.00    -0.237 OA
ATOM    101  O   UNL     1      13.293  -5.514  23.219  1.00  0.00    -0.237 OA
ATOM    102  O   UNL     1      11.643  -3.698  23.357  1.00  0.00    -0.744 OA
ENDBRANCH  96  99
ENDBRANCH  69  92
ENDBRANCH  43  44
ENDBRANCH  35  38
ENDBRANCH  33  34
ENDBRANCH  32  33
ENDBRANCH   1  32
TORSDOF 20
