REMARK SMILES C[C@H](CNc1cccc(F)c1C(=O)NCCCCCCNC(=O)c1ccc(-c2c3nc(c(-c4cccc(S(=O)(=O)[O-])c4F)c4ccc([nH]4)c(-c4cccc(S(=O)(=O)[O-])c4F)c4nc(c(-c5cccc(S(=O)(=O)[O-])c5F)c5ccc2[nH]5)C=C4)C=C3)cc1)C[NH+]1CCCC1
REMARK SMILES IDX 16 1 15 2 14 3 12 4 13 5 11 7 5 8 6 9 7 10 9 11 8 12 10 13
REMARK SMILES IDX 4 14 3 16 2 17 1 18 87 19 88 20 89 21 92 22 90 24 91 25
REMARK SMILES IDX 17 26 18 27 19 28 20 29 21 30 22 31 23 33 24 34 25 35 86 36
REMARK SMILES IDX 26 37 85 38 27 39 28 40 29 41 79 42 30 43 84 44 78 45 80 46
REMARK SMILES IDX 31 47 83 48 77 49 76 50 32 52 64 53 44 54 63 55 45 56 48 57
REMARK SMILES IDX 62 58 81 59 46 60 47 61 61 63 82 64 49 65 33 66 34 67 42 68
REMARK SMILES IDX 35 69 37 70 43 71 36 72 38 73 39 74 40 75 41 76 65 77 66 78
REMARK SMILES IDX 74 79 67 80 69 81 75 82 68 83 70 84 71 85 72 86 73 87 50 88
REMARK SMILES IDX 51 89 59 90 52 91 54 92 60 93 53 94 55 95 56 96 57 97 58 98
REMARK H PARENT 14 6 4 15 88 23 21 32 80 51 48 62
REMARK Flexibility Score: inf
ROOT
ATOM      1  C   UNL     1      -1.535   7.138  -0.905  1.00  0.00     0.021 C 
ENDROOT
BRANCH   1   2
ATOM      2  C   UNL     1      -0.285   6.387  -0.455  1.00  0.00     0.116 C 
BRANCH   2   3
ATOM      3  N   UNL     1      -0.596   5.154   0.236  1.00  0.00    -0.352 N 
ATOM      4  C   UNL     1      -0.031   3.905   0.193  1.00  0.00     0.256 C 
ATOM      5  O   UNL     1      -0.638   3.034   0.823  1.00  0.00    -0.269 OA
ATOM      6  H   UNL     1      -1.358   5.225   0.856  1.00  0.00     0.163 HD
BRANCH   4   7
ATOM      7  C   UNL     1       1.186   3.554  -0.606  1.00  0.00     0.098 A 
ATOM      8  C   UNL     1       1.355   2.226  -1.084  1.00  0.00     0.050 A 
ATOM      9  C   UNL     1       2.450   1.938  -1.922  1.00  0.00     0.027 A 
ATOM     10  C   UNL     1       3.399   2.906  -2.241  1.00  0.00     0.005 A 
ATOM     11  C   UNL     1       2.213   4.472  -0.847  1.00  0.00     0.138 A 
ATOM     12  C   UNL     1       3.295   4.167  -1.674  1.00  0.00     0.040 A 
ATOM     13  F   UNL     1       2.237   5.669  -0.244  1.00  0.00    -0.206 F 
BRANCH   8  14
ATOM     14  N   UNL     1       0.503   1.189  -0.699  1.00  0.00    -0.384 N 
ATOM     15  H   UNL     1      -0.471   1.312  -0.770  1.00  0.00     0.160 HD
BRANCH  14  16
ATOM     16  C   UNL     1       1.032  -0.076  -0.195  1.00  0.00     0.122 C 
BRANCH  16  17
ATOM     17  C   UNL     1       0.654  -0.348   1.280  1.00  0.00     0.060 C 
ATOM     18  C   UNL     1       1.291   0.667   2.237  1.00  0.00     0.015 C 
BRANCH  17  19
ATOM     19  C   UNL     1      -0.868  -0.434   1.528  1.00  0.00     0.267 C 
BRANCH  19  20
ATOM     20  N   UNL     1      -1.520  -1.433   0.662  1.00  0.00    -0.335 N 
ATOM     21  C   UNL     1      -2.971  -1.214   0.581  1.00  0.00     0.262 C 
ATOM     22  C   UNL     1      -1.357  -2.804   1.172  1.00  0.00     0.262 C 
ATOM     23  H   UNL     1      -1.070  -1.325  -0.247  1.00  0.00     0.348 HD
ATOM     24  C   UNL     1      -3.542  -1.956   1.771  1.00  0.00     0.067 C 
ATOM     25  C   UNL     1      -2.660  -3.187   1.868  1.00  0.00     0.067 C 
ENDBRANCH  19  20
ENDBRANCH  17  19
ENDBRANCH  16  17
ENDBRANCH  14  16
ENDBRANCH   8  14
ENDBRANCH   4   7
ENDBRANCH   2   3
ENDBRANCH   1   2
BRANCH   1  26
ATOM     26  C   UNL     1      -2.515   7.558   0.195  1.00  0.00     0.002 C 
BRANCH  26  27
ATOM     27  C   UNL     1      -1.938   8.356   1.366  1.00  0.00     0.002 C 
BRANCH  27  28
ATOM     28  C   UNL     1      -1.107   9.590   1.010  1.00  0.00     0.021 C 
BRANCH  28  29
ATOM     29  C   UNL     1      -1.751  10.584   0.049  1.00  0.00     0.116 C 
BRANCH  29  30
ATOM     30  N   UNL     1      -3.009  11.118   0.538  1.00  0.00    -0.352 N 
ATOM     31  C   UNL     1      -3.458  12.415   0.573  1.00  0.00     0.251 C 
ATOM     32  H   UNL     1      -3.634  10.449   0.900  1.00  0.00     0.163 HD
ATOM     33  O   UNL     1      -4.519  12.668   1.139  1.00  0.00    -0.269 OA
BRANCH  31  34
ATOM     34  C   UNL     1      -2.671  13.513  -0.038  1.00  0.00     0.039 A 
ATOM     35  C   UNL     1      -2.579  14.725   0.653  1.00  0.00     0.014 A 
ATOM     36  C   UNL     1      -2.053  13.379  -1.285  1.00  0.00     0.014 A 
ATOM     37  C   UNL     1      -1.833  15.779   0.119  1.00  0.00     0.010 A 
ATOM     38  C   UNL     1      -1.250  14.407  -1.784  1.00  0.00     0.010 A 
ATOM     39  C   UNL     1      -1.138  15.621  -1.092  1.00  0.00    -0.014 A 
BRANCH  39  40
ATOM     40  C   UNL     1      -0.281  16.717  -1.617  1.00  0.00     0.031 A 
ATOM     41  C   UNL     1      -0.620  17.414  -2.906  1.00  0.00     0.074 A 
ATOM     42  C   UNL     1       0.829  17.068  -0.937  1.00  0.00     0.049 A 
ATOM     43  N   UNL     1      -0.017  18.425  -3.475  1.00  0.00    -0.248 NA
ATOM     44  C   UNL     1      -1.772  16.902  -3.667  1.00  0.00     0.031 C 
ATOM     45  C   UNL     1       1.308  16.416   0.283  1.00  0.00     0.029 A 
ATOM     46  N   UNL     1       1.756  18.053  -1.172  1.00  0.00    -0.354 N 
ATOM     47  C   UNL     1      -0.702  18.662  -4.661  1.00  0.00     0.074 A 
ATOM     48  C   UNL     1      -1.741  17.660  -4.754  1.00  0.00     0.031 C 
ATOM     49  C   UNL     1       2.417  17.039   0.709  1.00  0.00     0.029 A 
ATOM     50  C   UNL     1       2.744  18.120  -0.216  1.00  0.00     0.049 A 
ATOM     51  H   UNL     1       1.718  18.654  -1.950  1.00  0.00     0.167 HD
ATOM     52  C   UNL     1      -0.510  19.647  -5.570  1.00  0.00     0.034 A 
ATOM     53  C   UNL     1       3.786  18.967  -0.086  1.00  0.00     0.034 A 
ATOM     54  C   UNL     1       0.499  20.665  -5.451  1.00  0.00     0.049 A 
ATOM     55  C   UNL     1       3.956  20.077  -1.087  1.00  0.00     0.074 A 
ATOM     56  C   UNL     1       0.729  21.745  -6.285  1.00  0.00     0.029 A 
ATOM     57  N   UNL     1       1.444  20.732  -4.439  1.00  0.00    -0.354 N 
ATOM     58  N   UNL     1       3.209  20.371  -2.123  1.00  0.00    -0.248 NA
ATOM     59  C   UNL     1       5.087  20.995  -0.884  1.00  0.00     0.031 C 
ATOM     60  C   UNL     1       1.824  22.456  -5.787  1.00  0.00     0.029 A 
ATOM     61  C   UNL     1       2.261  21.832  -4.628  1.00  0.00     0.049 A 
ATOM     62  H   UNL     1       1.522  20.091  -3.696  1.00  0.00     0.167 HD
ATOM     63  C   UNL     1       3.754  21.524  -2.674  1.00  0.00     0.074 A 
ATOM     64  C   UNL     1       4.891  21.884  -1.851  1.00  0.00     0.031 C 
ATOM     65  C   UNL     1       3.353  22.215  -3.769  1.00  0.00     0.034 A 
BRANCH  52  66
ATOM     66  C   UNL     1      -1.458  19.727  -6.739  1.00  0.00     0.023 A 
ATOM     67  C   UNL     1      -2.783  20.158  -6.519  1.00  0.00     0.012 A 
ATOM     68  C   UNL     1      -1.023  19.475  -8.055  1.00  0.00     0.148 A 
ATOM     69  C   UNL     1      -3.667  20.310  -7.586  1.00  0.00     0.002 A 
ATOM     70  C   UNL     1      -1.898  19.672  -9.118  1.00  0.00     0.091 A 
ATOM     71  F   UNL     1       0.234  19.050  -8.243  1.00  0.00    -0.205 F 
ATOM     72  C   UNL     1      -3.222  20.080  -8.884  1.00  0.00     0.022 A 
BRANCH  70  73
ATOM     73  S   UNL     1      -1.398  19.485 -10.834  1.00  0.00     0.127 S 
ATOM     74  O   UNL     1      -2.101  18.260 -11.213  1.00  0.00    -0.237 OA
ATOM     75  O   UNL     1      -1.927  20.705 -11.445  1.00  0.00    -0.237 OA
ATOM     76  O   UNL     1       0.055  19.393 -10.820  1.00  0.00    -0.744 OA
ENDBRANCH  70  73
ENDBRANCH  52  66
BRANCH  53  77
ATOM     77  C   UNL     1       4.672  18.855   1.107  1.00  0.00     0.023 A 
ATOM     78  C   UNL     1       4.582  19.828   2.122  1.00  0.00     0.012 A 
ATOM     79  C   UNL     1       5.532  17.754   1.286  1.00  0.00     0.148 A 
ATOM     80  C   UNL     1       5.340  19.714   3.287  1.00  0.00     0.002 A 
ATOM     81  C   UNL     1       6.244  17.617   2.473  1.00  0.00     0.091 A 
ATOM     82  F   UNL     1       5.611  16.845   0.304  1.00  0.00    -0.205 F 
ATOM     83  C   UNL     1       6.160  18.603   3.469  1.00  0.00     0.022 A 
BRANCH  81  84
ATOM     84  S   UNL     1       7.212  16.153   2.857  1.00  0.00     0.127 S 
ATOM     85  O   UNL     1       8.573  16.681   2.841  1.00  0.00    -0.237 OA
ATOM     86  O   UNL     1       6.703  15.795   4.181  1.00  0.00    -0.237 OA
ATOM     87  O   UNL     1       6.897  15.187   1.811  1.00  0.00    -0.744 OA
ENDBRANCH  81  84
ENDBRANCH  53  77
BRANCH  65  88
ATOM     88  C   UNL     1       4.114  23.455  -4.153  1.00  0.00     0.023 A 
ATOM     89  C   UNL     1       5.370  23.335  -4.779  1.00  0.00     0.012 A 
ATOM     90  C   UNL     1       3.517  24.727  -4.032  1.00  0.00     0.148 A 
ATOM     91  C   UNL     1       6.023  24.462  -5.274  1.00  0.00     0.002 A 
ATOM     92  C   UNL     1       4.153  25.839  -4.569  1.00  0.00     0.091 A 
ATOM     93  F   UNL     1       2.327  24.817  -3.421  1.00  0.00    -0.205 F 
ATOM     94  C   UNL     1       5.409  25.710  -5.184  1.00  0.00     0.022 A 
BRANCH  92  95
ATOM     95  S   UNL     1       3.396  27.469  -4.596  1.00  0.00     0.127 S 
ATOM     96  O   UNL     1       4.264  28.215  -3.686  1.00  0.00    -0.237 OA
ATOM     97  O   UNL     1       3.522  27.844  -6.004  1.00  0.00    -0.237 OA
ATOM     98  O   UNL     1       2.026  27.287  -4.135  1.00  0.00    -0.744 OA
ENDBRANCH  92  95
ENDBRANCH  65  88
ENDBRANCH  39  40
ENDBRANCH  31  34
ENDBRANCH  29  30
ENDBRANCH  28  29
ENDBRANCH  27  28
ENDBRANCH  26  27
ENDBRANCH   1  26
TORSDOF 21
