REMARK SMILES Cc1cccc([C@H]([NH3+])[C@H](O)C(=O)NCCCCCCNC(=O)c2ccc(-c3c4nc(c(-c5cccc(S(=O)(=O)[O-])c5F)c5ccc([nH]5)c(-c5cccc(S(=O)(=O)[O-])c5F)c5nc(c(-c6cccc(S(=O)(=O)[O-])c6F)c6ccc3[nH]6)C=C5)C=C4)cc2)c1
REMARK SMILES IDX 17 1 16 2 15 3 14 4 13 5 11 6 12 7 9 9 7 10 6 11 1 12 2 13
REMARK SMILES IDX 3 14 86 15 4 16 5 17 8 18 10 22 18 24 19 25 20 26 21 27
REMARK SMILES IDX 22 29 23 30 24 31 85 32 25 33 84 34 26 35 27 36 28 37 78 38
REMARK SMILES IDX 29 39 83 40 77 41 79 42 30 43 82 44 76 45 75 46 31 48 63 49
REMARK SMILES IDX 43 50 62 51 44 52 47 53 61 54 80 55 45 56 46 57 60 59 81 60
REMARK SMILES IDX 48 61 32 62 33 63 41 64 34 65 36 66 42 67 35 68 37 69 38 70
REMARK SMILES IDX 39 71 40 72 64 73 65 74 73 75 66 76 68 77 74 78 67 79 69 80
REMARK SMILES IDX 70 81 71 82 72 83 49 84 50 85 58 86 51 87 53 88 59 89 52 90
REMARK SMILES IDX 54 91 55 92 56 93 57 94
REMARK H PARENT 13 8 8 19 8 20 8 21 10 23 20 28 79 47 47 58
REMARK Flexibility Score: inf
ROOT
ATOM      1  C   UNL     1      -1.321   8.458   1.561  1.00  0.00     0.002 C 
ENDROOT
BRANCH   1   2
ATOM      2  C   UNL     1      -1.614   7.704   0.253  1.00  0.00     0.002 C 
BRANCH   2   3
ATOM      3  C   UNL     1      -1.213   6.227   0.209  1.00  0.00     0.021 C 
BRANCH   3   4
ATOM      4  C   UNL     1      -1.684   5.391   1.391  1.00  0.00     0.116 C 
BRANCH   4   5
ATOM      5  N   UNL     1      -3.079   5.035   1.340  1.00  0.00    -0.354 N 
ATOM      6  C   UNL     1      -3.664   3.814   1.458  1.00  0.00     0.255 C 
ATOM      7  O   UNL     1      -4.888   3.800   1.634  1.00  0.00    -0.272 OA
ATOM      8  H   UNL     1      -3.700   5.786   1.198  1.00  0.00     0.163 HD
BRANCH   6   9
ATOM      9  C   UNL     1      -2.890   2.478   1.273  1.00  0.00     0.266 C 
BRANCH   9  10
ATOM     10  C   UNL     1      -1.752   2.171   2.324  1.00  0.00     0.250 C 
BRANCH  10  11
ATOM     11  C   UNL     1      -0.261   2.223   1.939  1.00  0.00     0.013 A 
ATOM     12  C   UNL     1       3.078   1.785   3.788  1.00  0.00     0.044 C 
ATOM     13  C   UNL     1       2.079   2.078   2.709  1.00  0.00    -0.051 A 
ATOM     14  C   UNL     1       2.523   2.463   1.444  1.00  0.00     0.003 A 
ATOM     15  C   UNL     1       0.698   1.979   2.949  1.00  0.00     0.013 A 
ATOM     16  C   UNL     1       1.605   2.696   0.428  1.00  0.00     0.001 A 
ATOM     17  C   UNL     1       0.234   2.556   0.668  1.00  0.00     0.010 A 
ENDBRANCH  10  11
BRANCH  10  18
ATOM     18  N   UNL     1      -2.007   0.855   2.973  1.00  0.00    -0.349 N 
ATOM     19  H   UNL     1      -1.885   0.109   2.288  1.00  0.00     0.345 HD
ATOM     20  H   UNL     1      -2.961   0.833   3.333  1.00  0.00     0.345 HD
ATOM     21  H   UNL     1      -1.349   0.722   3.741  1.00  0.00     0.345 HD
ENDBRANCH  10  18
ENDBRANCH   9  10
BRANCH   9  22
ATOM     22  O   UNL     1      -2.564   2.184  -0.079  1.00  0.00    -0.378 OA
ATOM     23  H   UNL     1      -1.902   2.818  -0.398  1.00  0.00     0.211 HD
ENDBRANCH   9  22
ENDBRANCH   6   9
ENDBRANCH   4   5
ENDBRANCH   3   4
ENDBRANCH   2   3
ENDBRANCH   1   2
BRANCH   1  24
ATOM     24  C   UNL     1       0.042   8.206   2.209  1.00  0.00     0.021 C 
BRANCH  24  25
ATOM     25  C   UNL     1       1.229   8.700   1.398  1.00  0.00     0.116 C 
BRANCH  25  26
ATOM     26  N   UNL     1       1.776   9.952   1.895  1.00  0.00    -0.352 N 
ATOM     27  C   UNL     1       2.916  10.624   1.497  1.00  0.00     0.251 C 
ATOM     28  H   UNL     1       1.262  10.381   2.616  1.00  0.00     0.163 HD
ATOM     29  O   UNL     1       3.357  11.532   2.200  1.00  0.00    -0.269 OA
BRANCH  27  30
ATOM     30  C   UNL     1       3.494  10.335   0.166  1.00  0.00     0.039 A 
ATOM     31  C   UNL     1       3.655  11.419  -0.707  1.00  0.00     0.014 A 
ATOM     32  C   UNL     1       3.588   9.029  -0.307  1.00  0.00     0.014 A 
ATOM     33  C   UNL     1       3.629  11.203  -2.080  1.00  0.00     0.010 A 
ATOM     34  C   UNL     1       3.477   8.814  -1.661  1.00  0.00     0.010 A 
ATOM     35  C   UNL     1       3.420   9.906  -2.534  1.00  0.00    -0.014 A 
BRANCH  35  36
ATOM     36  C   UNL     1       3.074   9.565  -3.900  1.00  0.00     0.031 A 
ATOM     37  C   UNL     1       4.128   9.201  -4.855  1.00  0.00     0.074 A 
ATOM     38  C   UNL     1       1.771   9.389  -4.209  1.00  0.00     0.049 A 
ATOM     39  N   UNL     1       3.953   9.178  -6.130  1.00  0.00    -0.248 NA
ATOM     40  C   UNL     1       5.476   8.839  -4.438  1.00  0.00     0.031 C 
ATOM     41  C   UNL     1       1.223   8.656  -5.343  1.00  0.00     0.029 A 
ATOM     42  N   UNL     1       0.659  10.015  -3.637  1.00  0.00    -0.354 N 
ATOM     43  C   UNL     1       5.041   8.539  -6.676  1.00  0.00     0.074 A 
ATOM     44  C   UNL     1       5.995   8.419  -5.596  1.00  0.00     0.031 C 
ATOM     45  C   UNL     1      -0.034   9.073  -5.557  1.00  0.00     0.029 A 
ATOM     46  C   UNL     1      -0.263  10.208  -4.682  1.00  0.00     0.049 A 
ATOM     47  H   UNL     1       0.545  10.271  -2.693  1.00  0.00     0.167 HD
ATOM     48  C   UNL     1       4.945   8.038  -7.939  1.00  0.00     0.034 A 
ATOM     49  C   UNL     1      -0.708  11.438  -5.075  1.00  0.00     0.034 A 
ATOM     50  C   UNL     1       3.624   8.321  -8.522  1.00  0.00     0.049 A 
ATOM     51  C   UNL     1      -0.375  11.761  -6.527  1.00  0.00     0.074 A 
ATOM     52  C   UNL     1       2.459   7.584  -8.674  1.00  0.00     0.029 A 
ATOM     53  N   UNL     1       3.277   9.636  -8.783  1.00  0.00    -0.354 N 
ATOM     54  N   UNL     1       0.182  10.938  -7.375  1.00  0.00    -0.248 NA
ATOM     55  C   UNL     1      -0.559  13.092  -7.101  1.00  0.00     0.031 C 
ATOM     56  C   UNL     1       1.407   8.477  -9.033  1.00  0.00     0.029 A 
ATOM     57  C   UNL     1       1.935   9.751  -9.119  1.00  0.00     0.049 A 
ATOM     58  H   UNL     1       3.903  10.394  -8.736  1.00  0.00     0.167 HD
ATOM     59  C   UNL     1       0.598  11.630  -8.491  1.00  0.00     0.074 A 
ATOM     60  C   UNL     1       0.065  12.968  -8.284  1.00  0.00     0.031 C 
ATOM     61  C   UNL     1       1.415  11.074  -9.446  1.00  0.00     0.034 A 
BRANCH  48  62
ATOM     62  C   UNL     1       5.919   7.035  -8.524  1.00  0.00     0.023 A 
ATOM     63  C   UNL     1       5.418   6.122  -9.478  1.00  0.00     0.012 A 
ATOM     64  C   UNL     1       7.281   6.886  -8.174  1.00  0.00     0.148 A 
ATOM     65  C   UNL     1       6.176   5.058  -9.972  1.00  0.00     0.002 A 
ATOM     66  C   UNL     1       8.019   5.779  -8.609  1.00  0.00     0.091 A 
ATOM     67  F   UNL     1       7.896   7.851  -7.479  1.00  0.00    -0.205 F 
ATOM     68  C   UNL     1       7.466   4.861  -9.507  1.00  0.00     0.022 A 
BRANCH  66  69
ATOM     69  S   UNL     1       9.658   5.392  -7.968  1.00  0.00     0.127 S 
ATOM     70  O   UNL     1       9.525   3.976  -7.616  1.00  0.00    -0.237 OA
ATOM     71  O   UNL     1      10.520   5.650  -9.119  1.00  0.00    -0.237 OA
ATOM     72  O   UNL     1       9.855   6.268  -6.819  1.00  0.00    -0.744 OA
ENDBRANCH  66  69
ENDBRANCH  48  62
BRANCH  49  73
ATOM     73  C   UNL     1      -0.758  12.425  -3.953  1.00  0.00     0.023 A 
ATOM     74  C   UNL     1      -1.650  12.142  -2.890  1.00  0.00     0.012 A 
ATOM     75  C   UNL     1       0.284  13.342  -3.735  1.00  0.00     0.148 A 
ATOM     76  C   UNL     1      -1.421  12.645  -1.608  1.00  0.00     0.002 A 
ATOM     77  C   UNL     1       0.502  13.844  -2.454  1.00  0.00     0.091 A 
ATOM     78  F   UNL     1       1.099  13.644  -4.753  1.00  0.00    -0.205 F 
ATOM     79  C   UNL     1      -0.322  13.466  -1.383  1.00  0.00     0.022 A 
BRANCH  77  80
ATOM     80  S   UNL     1       1.928  14.877  -2.091  1.00  0.00     0.127 S 
ATOM     81  O   UNL     1       1.359  16.214  -2.225  1.00  0.00    -0.237 OA
ATOM     82  O   UNL     1       2.261  14.484  -0.723  1.00  0.00    -0.237 OA
ATOM     83  O   UNL     1       2.923  14.492  -3.081  1.00  0.00    -0.744 OA
ENDBRANCH  77  80
ENDBRANCH  49  73
BRANCH  61  84
ATOM     84  C   UNL     1       1.901  11.756 -10.729  1.00  0.00     0.023 A 
ATOM     85  C   UNL     1       1.270  12.893 -11.265  1.00  0.00     0.012 A 
ATOM     86  C   UNL     1       2.983  11.237 -11.497  1.00  0.00     0.148 A 
ATOM     87  C   UNL     1       1.774  13.571 -12.384  1.00  0.00     0.002 A 
ATOM     88  C   UNL     1       3.489  11.911 -12.605  1.00  0.00     0.091 A 
ATOM     89  F   UNL     1       3.493  10.034 -11.215  1.00  0.00    -0.205 F 
ATOM     90  C   UNL     1       2.904  13.099 -13.035  1.00  0.00     0.022 A 
BRANCH  88  91
ATOM     91  S   UNL     1       4.908  11.295 -13.525  1.00  0.00     0.127 S 
ATOM     92  O   UNL     1       4.266  10.731 -14.712  1.00  0.00    -0.237 OA
ATOM     93  O   UNL     1       5.669  12.521 -13.769  1.00  0.00    -0.237 OA
ATOM     94  O   UNL     1       5.568  10.341 -12.647  1.00  0.00    -0.744 OA
ENDBRANCH  88  91
ENDBRANCH  61  84
ENDBRANCH  35  36
ENDBRANCH  27  30
ENDBRANCH  25  26
ENDBRANCH  24  25
ENDBRANCH   1  24
TORSDOF 20
