REMARK SMILES CCCc1cc2c(cc1Cl)C=C(C(=O)NCCCCCCNC(=O)c1ccc(-c3c4nc(c(-c5cccc(S(=O)(=O)[O-])c5F)c5ccc([nH]5)c(-c5cccc(S(=O)(=O)[O-])c5F)c5nc(c(-c6cccc(S(=O)(=O)[O-])c6F)c6ccc3[nH]6)C=C5)C=C4)cc1)[C@@H](C(F)(F)F)O2
REMARK SMILES IDX 19 1 18 2 17 3 16 4 15 5 13 6 14 7 12 9 4 10 5 11 9 12 6 13
REMARK SMILES IDX 8 14 10 15 7 16 93 17 11 18 88 19 3 20 2 21 1 22 89 23 90 24
REMARK SMILES IDX 91 25 92 26 20 27 21 28 22 29 23 30 24 32 25 33 26 34 87 35
REMARK SMILES IDX 27 36 86 37 28 38 29 39 30 40 80 41 31 42 85 43 79 44 81 45
REMARK SMILES IDX 32 46 84 47 78 48 77 49 33 51 65 52 45 53 64 54 46 55 49 56
REMARK SMILES IDX 63 57 82 58 47 59 48 60 62 62 83 63 50 64 34 65 35 66 43 67
REMARK SMILES IDX 36 68 38 69 44 70 37 71 39 72 40 73 41 74 42 75 66 76 67 77
REMARK SMILES IDX 75 78 68 79 70 80 76 81 69 82 71 83 72 84 73 85 74 86 51 87
REMARK SMILES IDX 52 88 60 89 53 90 55 91 61 92 54 93 56 94 57 95 58 96 59 97
REMARK H PARENT 15 8 22 31 81 50 49 61
REMARK Flexibility Score: inf
ROOT
ATOM      1  C   UNL     1      -3.199  -4.126  12.033  1.00  0.00     0.002 C 
ENDROOT
BRANCH   1   2
ATOM      2  C   UNL     1      -1.750  -3.686  11.791  1.00  0.00     0.002 C 
BRANCH   2   3
ATOM      3  C   UNL     1      -1.188  -3.958  10.393  1.00  0.00     0.021 C 
BRANCH   3   4
ATOM      4  C   UNL     1      -2.018  -3.403   9.240  1.00  0.00     0.116 C 
BRANCH   4   5
ATOM      5  N   UNL     1      -1.877  -1.968   9.089  1.00  0.00    -0.352 N 
ATOM      6  C   UNL     1      -1.571  -1.123   8.075  1.00  0.00     0.251 C 
ATOM      7  O   UNL     1      -1.597   0.080   8.356  1.00  0.00    -0.270 OA
ATOM      8  H   UNL     1      -2.045  -1.488   9.932  1.00  0.00     0.163 HD
BRANCH   6   9
ATOM      9  C   UNL     1      -1.195  -1.547   6.691  1.00  0.00     0.067 C 
ATOM     10  C   UNL     1       0.918  -1.588   2.082  1.00  0.00    -0.026 A 
ATOM     11  C   UNL     1       0.086  -2.465   2.799  1.00  0.00     0.052 A 
ATOM     12  C   UNL     1       1.278  -0.376   2.692  1.00  0.00     0.045 A 
ATOM     13  C   UNL     1      -0.358  -2.152   4.085  1.00  0.00     0.128 A 
ATOM     14  C   UNL     1       0.804  -0.051   3.970  1.00  0.00     0.032 A 
ATOM     15  Cl  UNL     1       2.349   0.754   1.943  1.00  0.00    -0.084 Cl
ATOM     16  C   UNL     1      -0.006  -0.945   4.675  1.00  0.00     0.019 A 
ATOM     17  O   UNL     1      -1.115  -3.098   4.701  1.00  0.00    -0.475 OA
ATOM     18  C   UNL     1      -0.451  -0.646   6.026  1.00  0.00     0.025 C 
ATOM     19  C   UNL     1      -1.623  -2.839   6.041  1.00  0.00     0.314 C 
BRANCH  10  20
ATOM     20  C   UNL     1       1.388  -2.013   0.709  1.00  0.00     0.037 C 
BRANCH  20  21
ATOM     21  C   UNL     1       0.440  -1.628  -0.432  1.00  0.00     0.001 C 
ATOM     22  C   UNL     1       0.521  -0.162  -0.829  1.00  0.00     0.004 C 
ENDBRANCH  20  21
ENDBRANCH  10  20
BRANCH  19  23
ATOM     23  C   UNL     1      -3.148  -3.032   5.984  1.00  0.00     0.429 C 
ATOM     24  F   UNL     1      -3.448  -4.340   5.782  1.00  0.00    -0.167 F 
ATOM     25  F   UNL     1      -3.775  -2.671   7.125  1.00  0.00    -0.167 F 
ATOM     26  F   UNL     1      -3.714  -2.325   4.980  1.00  0.00    -0.167 F 
ENDBRANCH  19  23
ENDBRANCH   6   9
ENDBRANCH   4   5
ENDBRANCH   3   4
ENDBRANCH   2   3
ENDBRANCH   1   2
BRANCH   1  27
ATOM     27  C   UNL     1      -3.551  -5.550  11.598  1.00  0.00     0.021 C 
BRANCH  27  28
ATOM     28  C   UNL     1      -2.682  -6.649  12.195  1.00  0.00     0.116 C 
BRANCH  28  29
ATOM     29  N   UNL     1      -2.796  -6.737  13.640  1.00  0.00    -0.352 N 
ATOM     30  C   UNL     1      -3.063  -7.838  14.422  1.00  0.00     0.251 C 
ATOM     31  H   UNL     1      -2.666  -5.891  14.128  1.00  0.00     0.163 HD
ATOM     32  O   UNL     1      -3.261  -7.706  15.622  1.00  0.00    -0.269 OA
BRANCH  30  33
ATOM     33  C   UNL     1      -3.144  -9.172  13.787  1.00  0.00     0.039 A 
ATOM     34  C   UNL     1      -2.151  -9.600  12.901  1.00  0.00     0.014 A 
ATOM     35  C   UNL     1      -4.249  -9.983  14.052  1.00  0.00     0.014 A 
ATOM     36  C   UNL     1      -2.341 -10.765  12.164  1.00  0.00     0.010 A 
ATOM     37  C   UNL     1      -4.401 -11.189  13.363  1.00  0.00     0.010 A 
ATOM     38  C   UNL     1      -3.473 -11.567  12.380  1.00  0.00    -0.014 A 
BRANCH  38  39
ATOM     39  C   UNL     1      -3.675 -12.798  11.573  1.00  0.00     0.031 A 
ATOM     40  C   UNL     1      -4.848 -12.920  10.638  1.00  0.00     0.074 A 
ATOM     41  C   UNL     1      -2.791 -13.808  11.678  1.00  0.00     0.049 A 
ATOM     42  N   UNL     1      -5.205 -13.938   9.896  1.00  0.00    -0.248 NA
ATOM     43  C   UNL     1      -5.739 -11.754  10.518  1.00  0.00     0.031 C 
ATOM     44  C   UNL     1      -1.619 -13.814  12.555  1.00  0.00     0.029 A 
ATOM     45  N   UNL     1      -2.740 -15.024  11.045  1.00  0.00    -0.354 N 
ATOM     46  C   UNL     1      -6.381 -13.557   9.263  1.00  0.00     0.074 A 
ATOM     47  C   UNL     1      -6.679 -12.210   9.700  1.00  0.00     0.031 C 
ATOM     48  C   UNL     1      -0.952 -14.966  12.389  1.00  0.00     0.029 A 
ATOM     49  C   UNL     1      -1.677 -15.802  11.437  1.00  0.00     0.049 A 
ATOM     50  H   UNL     1      -3.402 -15.312  10.375  1.00  0.00     0.167 HD
ATOM     51  C   UNL     1      -7.135 -14.258   8.384  1.00  0.00     0.034 A 
ATOM     52  C   UNL     1      -1.333 -17.056  11.091  1.00  0.00     0.034 A 
ATOM     53  C   UNL     1      -6.809 -15.574   7.904  1.00  0.00     0.049 A 
ATOM     54  C   UNL     1      -2.186 -17.812  10.116  1.00  0.00     0.074 A 
ATOM     55  C   UNL     1      -7.484 -16.336   6.966  1.00  0.00     0.029 A 
ATOM     56  N   UNL     1      -5.720 -16.322   8.320  1.00  0.00    -0.354 N 
ATOM     57  N   UNL     1      -3.252 -17.405   9.472  1.00  0.00    -0.248 NA
ATOM     58  C   UNL     1      -1.787 -19.194   9.814  1.00  0.00     0.031 C 
ATOM     59  C   UNL     1      -6.805 -17.550   6.820  1.00  0.00     0.029 A 
ATOM     60  C   UNL     1      -5.707 -17.541   7.665  1.00  0.00     0.049 A 
ATOM     61  H   UNL     1      -5.054 -16.030   8.984  1.00  0.00     0.167 HD
ATOM     62  C   UNL     1      -3.655 -18.480   8.689  1.00  0.00     0.074 A 
ATOM     63  C   UNL     1      -2.699 -19.545   8.915  1.00  0.00     0.031 C 
ATOM     64  C   UNL     1      -4.734 -18.580   7.876  1.00  0.00     0.034 A 
BRANCH  51  65
ATOM     65  C   UNL     1      -8.373 -13.604   7.836  1.00  0.00     0.023 A 
ATOM     66  C   UNL     1      -8.253 -12.673   6.786  1.00  0.00     0.012 A 
ATOM     67  C   UNL     1      -9.652 -13.979   8.291  1.00  0.00     0.148 A 
ATOM     68  C   UNL     1      -9.389 -12.117   6.200  1.00  0.00     0.002 A 
ATOM     69  C   UNL     1     -10.781 -13.441   7.685  1.00  0.00     0.091 A 
ATOM     70  F   UNL     1      -9.738 -14.856   9.302  1.00  0.00    -0.205 F 
ATOM     71  C   UNL     1     -10.651 -12.507   6.642  1.00  0.00     0.022 A 
BRANCH  69  72
ATOM     72  S   UNL     1     -12.453 -13.913   8.142  1.00  0.00     0.127 S 
ATOM     73  O   UNL     1     -12.968 -12.663   8.701  1.00  0.00    -0.237 OA
ATOM     74  O   UNL     1     -13.030 -14.287   6.851  1.00  0.00    -0.237 OA
ATOM     75  O   UNL     1     -12.318 -15.007   9.093  1.00  0.00    -0.744 OA
ENDBRANCH  69  72
ENDBRANCH  51  65
BRANCH  52  76
ATOM     76  C   UNL     1      -0.097 -17.651  11.664  1.00  0.00     0.023 A 
ATOM     77  C   UNL     1       1.052 -17.759  10.858  1.00  0.00     0.012 A 
ATOM     78  C   UNL     1      -0.029 -18.023  13.021  1.00  0.00     0.148 A 
ATOM     79  C   UNL     1       2.250 -18.229  11.395  1.00  0.00     0.002 A 
ATOM     80  C   UNL     1       1.178 -18.447  13.560  1.00  0.00     0.091 A 
ATOM     81  F   UNL     1      -1.141 -17.913  13.762  1.00  0.00    -0.205 F 
ATOM     82  C   UNL     1       2.317 -18.560  12.747  1.00  0.00     0.022 A 
BRANCH  80  83
ATOM     83  S   UNL     1       1.394 -18.782  15.311  1.00  0.00     0.127 S 
ATOM     84  O   UNL     1       1.720 -20.206  15.304  1.00  0.00    -0.237 OA
ATOM     85  O   UNL     1       2.508 -17.896  15.648  1.00  0.00    -0.237 OA
ATOM     86  O   UNL     1       0.128 -18.433  15.942  1.00  0.00    -0.744 OA
ENDBRANCH  80  83
ENDBRANCH  52  76
BRANCH  64  87
ATOM     87  C   UNL     1      -4.959 -19.891   7.177  1.00  0.00     0.023 A 
ATOM     88  C   UNL     1      -5.527 -20.961   7.897  1.00  0.00     0.012 A 
ATOM     89  C   UNL     1      -4.702 -20.037   5.801  1.00  0.00     0.148 A 
ATOM     90  C   UNL     1      -5.823 -22.163   7.258  1.00  0.00     0.002 A 
ATOM     91  C   UNL     1      -5.030 -21.227   5.164  1.00  0.00     0.091 A 
ATOM     92  F   UNL     1      -4.148 -19.008   5.143  1.00  0.00    -0.205 F 
ATOM     93  C   UNL     1      -5.586 -22.293   5.892  1.00  0.00     0.022 A 
BRANCH  91  94
ATOM     94  S   UNL     1      -4.827 -21.463   3.395  1.00  0.00     0.127 S 
ATOM     95  O   UNL     1      -3.705 -22.401   3.347  1.00  0.00    -0.237 OA
ATOM     96  O   UNL     1      -6.117 -22.034   3.007  1.00  0.00    -0.237 OA
ATOM     97  O   UNL     1      -4.559 -20.142   2.842  1.00  0.00    -0.744 OA
ENDBRANCH  91  94
ENDBRANCH  64  87
ENDBRANCH  38  39
ENDBRANCH  30  33
ENDBRANCH  28  29
ENDBRANCH  27  28
ENDBRANCH   1  27
TORSDOF 19
