REMARK SMILES Cc1ccc(Cl)c(Nc2ccccc2C(=O)N[C@@H](C)C(=O)NCCCCCCNC(=O)c2ccc(-c3c4nc(c(-c5cccc(S(=O)(=O)[O-])c5F)c5ccc([nH]5)c(-c5cccc(S(=O)(=O)[O-])c5F)c5nc(c(-c6cccc(S(=O)(=O)[O-])c6F)c6ccc3[nH]6)C=C5)C=C4)cc2)c1Cl
REMARK SMILES IDX 25 1 24 2 23 3 22 4 20 5 21 6 18 8 19 9 17 10 15 11 16 12
REMARK SMILES IDX 14 14 9 15 10 16 11 17 13 18 12 19 8 20 7 22 1 23 2 24 3 25
REMARK SMILES IDX 95 26 4 27 96 28 5 29 6 30 26 31 27 32 28 33 29 34 30 35
REMARK SMILES IDX 31 37 32 38 33 39 94 40 34 41 93 42 35 43 36 44 37 45 87 46
REMARK SMILES IDX 38 47 92 48 86 49 88 50 39 51 91 52 85 53 84 54 40 56 72 57
REMARK SMILES IDX 52 58 71 59 53 60 56 61 70 62 89 63 54 64 55 65 69 67 90 68
REMARK SMILES IDX 57 69 41 70 42 71 50 72 43 73 45 74 51 75 44 76 46 77 47 78
REMARK SMILES IDX 48 79 49 80 73 81 74 82 82 83 75 84 77 85 83 86 76 87 78 88
REMARK SMILES IDX 79 89 80 90 81 91 58 92 59 93 67 94 60 95 62 96 68 97 61 98
REMARK SMILES IDX 63 99 64 100 65 101 66 102
REMARK H PARENT 22 7 17 13 8 21 29 36 88 55 56 66
REMARK Flexibility Score: inf
ROOT
ATOM      1  C   UNL     1      -0.329   3.782   2.466  1.00  0.00     0.002 C 
ENDROOT
BRANCH   1   2
ATOM      2  C   UNL     1      -0.385   2.561   3.394  1.00  0.00     0.021 C 
BRANCH   2   3
ATOM      3  C   UNL     1      -1.578   1.620   3.176  1.00  0.00     0.116 C 
BRANCH   3   4
ATOM      4  N   UNL     1      -1.605   1.054   1.845  1.00  0.00    -0.354 N 
ATOM      5  C   UNL     1      -0.666   0.097   1.589  1.00  0.00     0.242 C 
ATOM      6  O   UNL     1       0.457   0.480   1.266  1.00  0.00    -0.273 OA
ATOM      7  H   UNL     1      -2.258   1.340   1.167  1.00  0.00     0.163 HD
BRANCH   5   8
ATOM      8  C   UNL     1      -1.044  -1.392   1.754  1.00  0.00     0.168 C 
ATOM      9  C   UNL     1      -2.350  -1.668   2.483  1.00  0.00     0.041 C 
BRANCH   8  10
ATOM     10  N   UNL     1       0.111  -1.960   2.428  1.00  0.00    -0.340 N 
ATOM     11  C   UNL     1       1.311  -2.303   1.844  1.00  0.00     0.254 C 
ATOM     12  O   UNL     1       2.330  -2.037   2.489  1.00  0.00    -0.269 OA
ATOM     13  H   UNL     1       0.028  -2.115   3.397  1.00  0.00     0.164 HD
BRANCH  11  14
ATOM     14  C   UNL     1       1.428  -3.222   0.666  1.00  0.00     0.063 A 
ATOM     15  C   UNL     1       0.792  -3.211  -0.594  1.00  0.00     0.051 A 
ATOM     16  C   UNL     1       1.007  -4.317  -1.454  1.00  0.00     0.027 A 
ATOM     17  C   UNL     1       1.881  -5.355  -1.137  1.00  0.00     0.002 A 
ATOM     18  C   UNL     1       2.331  -4.279   0.952  1.00  0.00     0.016 A 
ATOM     19  C   UNL     1       2.568  -5.323   0.061  1.00  0.00     0.001 A 
BRANCH  15  20
ATOM     20  N   UNL     1       0.026  -2.184  -1.182  1.00  0.00    -0.352 N 
ATOM     21  H   UNL     1      -0.861  -2.490  -1.478  1.00  0.00     0.167 HD
BRANCH  20  22
ATOM     22  C   UNL     1       0.250  -0.806  -1.443  1.00  0.00     0.077 A 
ATOM     23  C   UNL     1       2.815   1.990  -0.913  1.00  0.00     0.046 C 
ATOM     24  C   UNL     1       1.556   1.273  -1.323  1.00  0.00    -0.030 A 
ATOM     25  C   UNL     1       0.398   2.028  -1.565  1.00  0.00     0.006 A 
ATOM     26  C   UNL     1       1.490  -0.143  -1.331  1.00  0.00     0.069 A 
ATOM     27  C   UNL     1      -0.817   1.393  -1.791  1.00  0.00     0.023 A 
ATOM     28  Cl  UNL     1       2.985  -1.028  -1.269  1.00  0.00    -0.082 Cl
ATOM     29  C   UNL     1      -0.889   0.001  -1.711  1.00  0.00     0.066 A 
ATOM     30  Cl  UNL     1      -2.460  -0.720  -1.888  1.00  0.00    -0.082 Cl
ENDBRANCH  20  22
ENDBRANCH  15  20
ENDBRANCH  11  14
ENDBRANCH   8  10
ENDBRANCH   5   8
ENDBRANCH   3   4
ENDBRANCH   2   3
ENDBRANCH   1   2
BRANCH   1  31
ATOM     31  C   UNL     1      -1.612   4.613   2.394  1.00  0.00     0.002 C 
BRANCH  31  32
ATOM     32  C   UNL     1      -2.253   4.940   3.742  1.00  0.00     0.021 C 
BRANCH  32  33
ATOM     33  C   UNL     1      -1.316   5.585   4.748  1.00  0.00     0.116 C 
BRANCH  33  34
ATOM     34  N   UNL     1      -0.992   6.951   4.393  1.00  0.00    -0.352 N 
ATOM     35  C   UNL     1      -1.088   8.069   5.187  1.00  0.00     0.251 C 
ATOM     36  H   UNL     1      -0.666   7.096   3.475  1.00  0.00     0.163 HD
ATOM     37  O   UNL     1      -0.969   9.186   4.704  1.00  0.00    -0.269 OA
BRANCH  35  38
ATOM     38  C   UNL     1      -1.368   7.895   6.630  1.00  0.00     0.039 A 
ATOM     39  C   UNL     1      -2.372   8.665   7.219  1.00  0.00     0.014 A 
ATOM     40  C   UNL     1      -0.668   6.949   7.386  1.00  0.00     0.014 A 
ATOM     41  C   UNL     1      -2.696   8.460   8.561  1.00  0.00     0.010 A 
ATOM     42  C   UNL     1      -1.056   6.684   8.696  1.00  0.00     0.010 A 
ATOM     43  C   UNL     1      -2.057   7.454   9.305  1.00  0.00    -0.014 A 
BRANCH  43  44
ATOM     44  C   UNL     1      -2.411   7.217  10.729  1.00  0.00     0.031 A 
ATOM     45  C   UNL     1      -1.377   7.410  11.807  1.00  0.00     0.074 A 
ATOM     46  C   UNL     1      -3.645   6.782  11.048  1.00  0.00     0.049 A 
ATOM     47  N   UNL     1      -1.497   7.257  13.100  1.00  0.00    -0.248 NA
ATOM     48  C   UNL     1      -0.024   7.802  11.377  1.00  0.00     0.031 C 
ATOM     49  C   UNL     1      -4.710   6.478  10.090  1.00  0.00     0.029 A 
ATOM     50  N   UNL     1      -4.209   6.503  12.268  1.00  0.00    -0.354 N 
ATOM     51  C   UNL     1      -0.236   7.499  13.631  1.00  0.00     0.074 A 
ATOM     52  C   UNL     1       0.647   7.767  12.518  1.00  0.00     0.031 C 
ATOM     53  C   UNL     1      -5.801   6.070  10.758  1.00  0.00     0.029 A 
ATOM     54  C   UNL     1      -5.506   6.053  12.187  1.00  0.00     0.049 A 
ATOM     55  H   UNL     1      -3.730   6.614  13.121  1.00  0.00     0.167 HD
ATOM     56  C   UNL     1       0.149   7.528  14.929  1.00  0.00     0.034 A 
ATOM     57  C   UNL     1      -6.361   5.667  13.155  1.00  0.00     0.034 A 
ATOM     58  C   UNL     1      -0.740   7.297  16.035  1.00  0.00     0.049 A 
ATOM     59  C   UNL     1      -5.920   5.743  14.592  1.00  0.00     0.074 A 
ATOM     60  C   UNL     1      -0.470   7.390  17.388  1.00  0.00     0.029 A 
ATOM     61  N   UNL     1      -2.067   6.914  15.916  1.00  0.00    -0.354 N 
ATOM     62  N   UNL     1      -4.768   6.133  15.082  1.00  0.00    -0.248 NA
ATOM     63  C   UNL     1      -6.908   5.364  15.611  1.00  0.00     0.031 C 
ATOM     64  C   UNL     1      -1.624   7.027  18.089  1.00  0.00     0.029 A 
ATOM     65  C   UNL     1      -2.626   6.751  17.172  1.00  0.00     0.049 A 
ATOM     66  H   UNL     1      -2.541   6.778  15.065  1.00  0.00     0.167 HD
ATOM     67  C   UNL     1      -4.905   6.082  16.465  1.00  0.00     0.074 A 
ATOM     68  C   UNL     1      -6.259   5.645  16.733  1.00  0.00     0.031 C 
ATOM     69  C   UNL     1      -3.989   6.361  17.425  1.00  0.00     0.034 A 
BRANCH  56  70
ATOM     70  C   UNL     1       1.589   7.862  15.225  1.00  0.00     0.023 A 
ATOM     71  C   UNL     1       2.067   9.169  14.995  1.00  0.00     0.012 A 
ATOM     72  C   UNL     1       2.454   6.900  15.782  1.00  0.00     0.148 A 
ATOM     73  C   UNL     1       3.392   9.502  15.275  1.00  0.00     0.002 A 
ATOM     74  C   UNL     1       3.759   7.253  16.106  1.00  0.00     0.091 A 
ATOM     75  F   UNL     1       1.989   5.658  15.976  1.00  0.00    -0.205 F 
ATOM     76  C   UNL     1       4.233   8.548  15.840  1.00  0.00     0.022 A 
BRANCH  74  77
ATOM     77  S   UNL     1       4.896   6.124  16.916  1.00  0.00     0.127 S 
ATOM     78  O   UNL     1       5.870   5.875  15.854  1.00  0.00    -0.237 OA
ATOM     79  O   UNL     1       5.397   6.938  18.024  1.00  0.00    -0.237 OA
ATOM     80  O   UNL     1       4.103   4.971  17.318  1.00  0.00    -0.744 OA
ENDBRANCH  74  77
ENDBRANCH  56  70
BRANCH  57  81
ATOM     81  C   UNL     1      -7.741   5.228  12.800  1.00  0.00     0.023 A 
ATOM     82  C   UNL     1      -8.841   6.035  13.153  1.00  0.00     0.012 A 
ATOM     83  C   UNL     1      -7.967   4.029  12.098  1.00  0.00     0.148 A 
ATOM     84  C   UNL     1     -10.143   5.637  12.846  1.00  0.00     0.002 A 
ATOM     85  C   UNL     1      -9.261   3.667  11.744  1.00  0.00     0.091 A 
ATOM     86  F   UNL     1      -6.908   3.271  11.780  1.00  0.00    -0.205 F 
ATOM     87  C   UNL     1     -10.352   4.459  12.134  1.00  0.00     0.022 A 
BRANCH  85  88
ATOM     88  S   UNL     1      -9.614   2.239  10.714  1.00  0.00     0.127 S 
ATOM     89  O   UNL     1     -10.286   1.348  11.657  1.00  0.00    -0.237 OA
ATOM     90  O   UNL     1     -10.480   2.816   9.686  1.00  0.00    -0.237 OA
ATOM     91  O   UNL     1      -8.323   1.779  10.220  1.00  0.00    -0.744 OA
ENDBRANCH  85  88
ENDBRANCH  57  81
BRANCH  69  92
ATOM     92  C   UNL     1      -4.427   6.248  18.863  1.00  0.00     0.023 A 
ATOM     93  C   UNL     1      -4.667   4.981  19.431  1.00  0.00     0.012 A 
ATOM     94  C   UNL     1      -4.533   7.399  19.669  1.00  0.00     0.148 A 
ATOM     95  C   UNL     1      -5.044   4.865  20.768  1.00  0.00     0.002 A 
ATOM     96  C   UNL     1      -4.856   7.271  21.014  1.00  0.00     0.091 A 
ATOM     97  F   UNL     1      -4.317   8.596  19.105  1.00  0.00    -0.205 F 
ATOM     98  C   UNL     1      -5.126   6.007  21.562  1.00  0.00     0.022 A 
BRANCH  96  99
ATOM     99  S   UNL     1      -4.886   8.675  22.134  1.00  0.00     0.127 S 
ATOM    100  O   UNL     1      -6.318   8.821  22.388  1.00  0.00    -0.237 OA
ATOM    101  O   UNL     1      -4.112   8.178  23.272  1.00  0.00    -0.237 OA
ATOM    102  O   UNL     1      -4.264   9.778  21.415  1.00  0.00    -0.744 OA
ENDBRANCH  96  99
ENDBRANCH  69  92
ENDBRANCH  43  44
ENDBRANCH  35  38
ENDBRANCH  33  34
ENDBRANCH  32  33
ENDBRANCH  31  32
ENDBRANCH   1  31
TORSDOF 20
