REMARK SMILES CC(C)(C)OC(=O)N1CCC2(CC1)C[C@@H](C(=O)NCCCCCCNC(=O)c1ccc(-c3c4nc(c(-c5cccc(S(=O)(=O)[O-])c5F)c5ccc([nH]5)c(-c5cccc(S(=O)(=O)[O-])c5F)c5nc(c(-c6cccc(S(=O)(=O)[O-])c6F)c6ccc3[nH]6)C=C5)C=C4)cc1)CO2
REMARK SMILES IDX 22 1 21 2 20 3 19 4 18 5 16 6 17 7 15 9 6 10 7 11 8 12 9 13
REMARK SMILES IDX 13 14 10 15 12 16 11 17 14 18 92 19 91 20 5 21 2 22 1 23
REMARK SMILES IDX 3 24 4 25 23 26 24 27 25 28 26 29 27 31 28 32 29 33 90 34
REMARK SMILES IDX 30 35 89 36 31 37 32 38 33 39 83 40 34 41 88 42 82 43 84 44
REMARK SMILES IDX 35 45 87 46 81 47 80 48 36 50 68 51 48 52 67 53 49 54 52 55
REMARK SMILES IDX 66 56 85 57 50 58 51 59 65 61 86 62 53 63 37 64 38 65 46 66
REMARK SMILES IDX 39 67 41 68 47 69 40 70 42 71 43 72 44 73 45 74 69 75 70 76
REMARK SMILES IDX 78 77 71 78 73 79 79 80 72 81 74 82 75 83 76 84 77 85 54 86
REMARK SMILES IDX 55 87 63 88 56 89 58 90 64 91 57 92 59 93 60 94 61 95 62 96
REMARK H PARENT 18 8 25 30 84 49 52 60
REMARK Flexibility Score: inf
ROOT
ATOM      1  C   UNL     1       7.513  -3.993  -3.714  1.00  0.00     0.002 C 
ENDROOT
BRANCH   1   2
ATOM      2  C   UNL     1       7.453  -5.238  -4.610  1.00  0.00     0.002 C 
BRANCH   2   3
ATOM      3  C   UNL     1       6.056  -5.790  -4.896  1.00  0.00     0.021 C 
BRANCH   3   4
ATOM      4  C   UNL     1       5.069  -4.765  -5.438  1.00  0.00     0.116 C 
BRANCH   4   5
ATOM      5  N   UNL     1       5.026  -4.662  -6.881  1.00  0.00    -0.356 N 
ATOM      6  C   UNL     1       3.995  -4.697  -7.766  1.00  0.00     0.225 C 
ATOM      7  O   UNL     1       4.270  -4.362  -8.927  1.00  0.00    -0.275 OA
ATOM      8  H   UNL     1       5.909  -4.546  -7.301  1.00  0.00     0.163 HD
BRANCH   6   9
ATOM      9  C   UNL     1       2.551  -5.096  -7.444  1.00  0.00     0.107 C 
ATOM     10  C   UNL     1       0.139  -3.447  -1.517  1.00  0.00     0.410 C 
ATOM     11  O   UNL     1      -0.917  -3.839  -1.040  1.00  0.00    -0.224 OA
ATOM     12  N   UNL     1       0.738  -4.043  -2.611  1.00  0.00    -0.308 N 
ATOM     13  C   UNL     1       0.010  -5.017  -3.414  1.00  0.00     0.126 C 
ATOM     14  C   UNL     1       2.110  -3.775  -3.010  1.00  0.00     0.126 C 
ATOM     15  C   UNL     1       0.036  -4.615  -4.902  1.00  0.00     0.057 C 
ATOM     16  C   UNL     1       2.133  -3.344  -4.464  1.00  0.00     0.057 C 
ATOM     17  C   UNL     1       1.490  -4.415  -5.369  1.00  0.00     0.072 C 
ATOM     18  C   UNL     1       1.664  -4.020  -6.840  1.00  0.00     0.051 C 
ATOM     19  O   UNL     1       2.119  -5.705  -5.221  1.00  0.00    -0.374 OA
ATOM     20  C   UNL     1       2.387  -6.262  -6.511  1.00  0.00     0.174 C 
BRANCH  10  21
ATOM     21  O   UNL     1       0.830  -2.354  -1.113  1.00  0.00    -0.444 OA
BRANCH  21  22
ATOM     22  C   UNL     1       0.438  -1.545   0.030  1.00  0.00     0.106 C 
ATOM     23  C   UNL     1       1.152  -0.203  -0.192  1.00  0.00     0.056 C 
ATOM     24  C   UNL     1       0.977  -2.205   1.297  1.00  0.00     0.056 C 
ATOM     25  C   UNL     1      -1.068  -1.277   0.113  1.00  0.00     0.056 C 
ENDBRANCH  21  22
ENDBRANCH  10  21
ENDBRANCH   6   9
ENDBRANCH   4   5
ENDBRANCH   3   4
ENDBRANCH   2   3
ENDBRANCH   1   2
BRANCH   1  26
ATOM     26  C   UNL     1       6.758  -4.077  -2.382  1.00  0.00     0.021 C 
BRANCH  26  27
ATOM     27  C   UNL     1       7.192  -5.209  -1.454  1.00  0.00     0.116 C 
BRANCH  27  28
ATOM     28  N   UNL     1       8.615  -5.164  -1.161  1.00  0.00    -0.352 N 
ATOM     29  C   UNL     1       9.270  -5.166   0.044  1.00  0.00     0.251 C 
ATOM     30  H   UNL     1       9.201  -5.126  -1.952  1.00  0.00     0.163 HD
ATOM     31  O   UNL     1      10.475  -4.929   0.076  1.00  0.00    -0.269 OA
BRANCH  29  32
ATOM     32  C   UNL     1       8.538  -5.442   1.299  1.00  0.00     0.039 A 
ATOM     33  C   UNL     1       8.842  -4.686   2.435  1.00  0.00     0.014 A 
ATOM     34  C   UNL     1       7.593  -6.469   1.376  1.00  0.00     0.014 A 
ATOM     35  C   UNL     1       8.170  -4.930   3.635  1.00  0.00     0.010 A 
ATOM     36  C   UNL     1       6.875  -6.667   2.554  1.00  0.00     0.010 A 
ATOM     37  C   UNL     1       7.165  -5.909   3.699  1.00  0.00    -0.014 A 
BRANCH  37  38
ATOM     38  C   UNL     1       6.411  -6.153   4.954  1.00  0.00     0.031 A 
ATOM     39  C   UNL     1       6.516  -7.479   5.659  1.00  0.00     0.074 A 
ATOM     40  C   UNL     1       5.570  -5.207   5.417  1.00  0.00     0.049 A 
ATOM     41  N   UNL     1       5.903  -7.890   6.739  1.00  0.00    -0.248 NA
ATOM     42  C   UNL     1       7.406  -8.487   5.057  1.00  0.00     0.031 C 
ATOM     43  C   UNL     1       5.319  -3.912   4.778  1.00  0.00     0.029 A 
ATOM     44  N   UNL     1       4.750  -5.197   6.517  1.00  0.00    -0.354 N 
ATOM     45  C   UNL     1       6.301  -9.209   6.925  1.00  0.00     0.074 A 
ATOM     46  C   UNL     1       7.184  -9.541   5.829  1.00  0.00     0.031 C 
ATOM     47  C   UNL     1       4.411  -3.234   5.498  1.00  0.00     0.029 A 
ATOM     48  C   UNL     1       3.997  -4.052   6.634  1.00  0.00     0.049 A 
ATOM     49  H   UNL     1       4.704  -5.940   7.162  1.00  0.00     0.167 HD
ATOM     50  C   UNL     1       5.984 -10.058   7.932  1.00  0.00     0.034 A 
ATOM     51  C   UNL     1       3.075  -3.702   7.551  1.00  0.00     0.034 A 
ATOM     52  C   UNL     1       5.145  -9.706   9.046  1.00  0.00     0.049 A 
ATOM     53  C   UNL     1       2.785  -4.643   8.690  1.00  0.00     0.074 A 
ATOM     54  C   UNL     1       4.840 -10.460  10.165  1.00  0.00     0.029 A 
ATOM     55  N   UNL     1       4.475  -8.501   9.182  1.00  0.00    -0.354 N 
ATOM     56  N   UNL     1       3.301  -5.823   8.939  1.00  0.00    -0.248 NA
ATOM     57  C   UNL     1       1.815  -4.188   9.698  1.00  0.00     0.031 C 
ATOM     58  C   UNL     1       3.970  -9.716  10.970  1.00  0.00     0.029 A 
ATOM     59  C   UNL     1       3.752  -8.490  10.362  1.00  0.00     0.049 A 
ATOM     60  H   UNL     1       4.508  -7.760   8.534  1.00  0.00     0.167 HD
ATOM     61  C   UNL     1       2.748  -6.234  10.146  1.00  0.00     0.074 A 
ATOM     62  C   UNL     1       1.875  -5.168  10.590  1.00  0.00     0.031 C 
ATOM     63  C   UNL     1       2.934  -7.397  10.819  1.00  0.00     0.034 A 
BRANCH  50  64
ATOM     64  C   UNL     1       6.595 -11.435   7.908  1.00  0.00     0.023 A 
ATOM     65  C   UNL     1       7.971 -11.588   8.175  1.00  0.00     0.012 A 
ATOM     66  C   UNL     1       5.805 -12.580   7.683  1.00  0.00     0.148 A 
ATOM     67  C   UNL     1       8.559 -12.852   8.184  1.00  0.00     0.002 A 
ATOM     68  C   UNL     1       6.390 -13.841   7.737  1.00  0.00     0.091 A 
ATOM     69  F   UNL     1       4.503 -12.416   7.410  1.00  0.00    -0.205 F 
ATOM     70  C   UNL     1       7.767 -13.978   7.976  1.00  0.00     0.022 A 
BRANCH  68  71
ATOM     71  S   UNL     1       5.442 -15.357   7.560  1.00  0.00     0.127 S 
ATOM     72  O   UNL     1       5.870 -15.820   6.240  1.00  0.00    -0.237 OA
ATOM     73  O   UNL     1       5.937 -16.163   8.677  1.00  0.00    -0.237 OA
ATOM     74  O   UNL     1       4.043 -14.970   7.664  1.00  0.00    -0.744 OA
ENDBRANCH  68  71
ENDBRANCH  50  64
BRANCH  51  75
ATOM     75  C   UNL     1       2.413  -2.368   7.475  1.00  0.00     0.023 A 
ATOM     76  C   UNL     1       2.733  -1.387   8.434  1.00  0.00     0.012 A 
ATOM     77  C   UNL     1       1.489  -2.060   6.459  1.00  0.00     0.148 A 
ATOM     78  C   UNL     1       2.114  -0.137   8.407  1.00  0.00     0.002 A 
ATOM     79  C   UNL     1       0.907  -0.797   6.412  1.00  0.00     0.091 A 
ATOM     80  F   UNL     1       1.228  -2.993   5.532  1.00  0.00    -0.205 F 
ATOM     81  C   UNL     1       1.202   0.158   7.397  1.00  0.00     0.022 A 
BRANCH  79  82
ATOM     82  S   UNL     1      -0.217  -0.305   5.101  1.00  0.00     0.127 S 
ATOM     83  O   UNL     1      -1.269   0.393   5.840  1.00  0.00    -0.237 OA
ATOM     84  O   UNL     1       0.639   0.556   4.287  1.00  0.00    -0.237 OA
ATOM     85  O   UNL     1      -0.645  -1.544   4.466  1.00  0.00    -0.744 OA
ENDBRANCH  79  82
ENDBRANCH  51  75
BRANCH  63  86
ATOM     86  C   UNL     1       2.210  -7.568  12.130  1.00  0.00     0.023 A 
ATOM     87  C   UNL     1       0.820  -7.793  12.138  1.00  0.00     0.012 A 
ATOM     88  C   UNL     1       2.921  -7.579  13.347  1.00  0.00     0.148 A 
ATOM     89  C   UNL     1       0.142  -7.993  13.340  1.00  0.00     0.002 A 
ATOM     90  C   UNL     1       2.246  -7.828  14.536  1.00  0.00     0.091 A 
ATOM     91  F   UNL     1       4.240  -7.343  13.320  1.00  0.00    -0.205 F 
ATOM     92  C   UNL     1       0.855  -8.023  14.536  1.00  0.00     0.022 A 
BRANCH  90  93
ATOM     93  S   UNL     1       3.100  -7.980  16.109  1.00  0.00     0.127 S 
ATOM     94  O   UNL     1       2.767  -6.710  16.753  1.00  0.00    -0.237 OA
ATOM     95  O   UNL     1       2.456  -9.152  16.703  1.00  0.00    -0.237 OA
ATOM     96  O   UNL     1       4.507  -8.168  15.783  1.00  0.00    -0.744 OA
ENDBRANCH  90  93
ENDBRANCH  63  86
ENDBRANCH  37  38
ENDBRANCH  29  32
ENDBRANCH  27  28
ENDBRANCH  26  27
ENDBRANCH   1  26
TORSDOF 18
