REMARK SMILES COCCCN1C(=O)CC[C@@H](C(=O)NCCCCCCNC(=O)c2ccc(-c3c4nc(c(-c5cccc(S(=O)(=O)[O-])c5F)c5ccc([nH]5)c(-c5cccc(S(=O)(=O)[O-])c5F)c5nc(c(-c6cccc(S(=O)(=O)[O-])c6F)c6ccc3[nH]6)C=C5)C=C4)cc2)[C@@H]1c1ccc(F)cc1
REMARK SMILES IDX 17 1 16 2 15 3 14 4 12 5 13 6 11 8 6 9 7 10 87 11 8 12 9 13
REMARK SMILES IDX 10 14 5 15 4 16 3 17 2 18 1 19 88 20 89 21 94 22 90 23 93 24
REMARK SMILES IDX 91 25 92 26 18 27 19 28 20 29 21 30 22 31 23 33 24 34 25 35
REMARK SMILES IDX 86 36 26 37 85 38 27 39 28 40 29 41 79 42 30 43 84 44 78 45
REMARK SMILES IDX 80 46 31 47 83 48 77 49 76 50 32 52 64 53 44 54 63 55 45 56
REMARK SMILES IDX 48 57 62 58 81 59 46 60 47 61 61 63 82 64 49 65 33 66 34 67
REMARK SMILES IDX 42 68 35 69 37 70 43 71 36 72 38 73 39 74 40 75 41 76 65 77
REMARK SMILES IDX 66 78 74 79 67 80 69 81 75 82 68 83 70 84 71 85 72 86 73 87
REMARK SMILES IDX 50 88 51 89 59 90 52 91 54 92 60 93 53 94 55 95 56 96 57 97
REMARK SMILES IDX 58 98
REMARK H PARENT 14 7 21 32 80 51 48 62
REMARK Flexibility Score: inf
ROOT
ATOM      1  C   UNL     1       4.792   2.019  -5.136  1.00  0.00     0.002 C 
ENDROOT
BRANCH   1   2
ATOM      2  C   UNL     1       4.974   1.988  -3.615  1.00  0.00     0.021 C 
BRANCH   2   3
ATOM      3  C   UNL     1       4.042   1.026  -2.882  1.00  0.00     0.116 C 
BRANCH   3   4
ATOM      4  N   UNL     1       4.244  -0.346  -3.308  1.00  0.00    -0.356 N 
ATOM      5  C   UNL     1       4.673  -1.432  -2.607  1.00  0.00     0.225 C 
ATOM      6  O   UNL     1       4.898  -2.464  -3.240  1.00  0.00    -0.275 OA
ATOM      7  H   UNL     1       4.037  -0.519  -4.255  1.00  0.00     0.163 HD
BRANCH   5   8
ATOM      8  C   UNL     1       4.848  -1.339  -1.094  1.00  0.00     0.106 C 
ATOM      9  N   UNL     1       2.719  -2.501  -0.507  1.00  0.00    -0.335 N 
ATOM     10  C   UNL     1       3.319  -3.749  -0.449  1.00  0.00     0.223 C 
ATOM     11  C   UNL     1       3.477  -1.246  -0.404  1.00  0.00     0.128 C 
ATOM     12  O   UNL     1       2.662  -4.790  -0.368  1.00  0.00    -0.275 OA
ATOM     13  C   UNL     1       4.830  -3.833  -0.562  1.00  0.00     0.101 C 
ATOM     14  C   UNL     1       5.617  -2.532  -0.528  1.00  0.00     0.026 C 
BRANCH   9  15
ATOM     15  C   UNL     1       1.272  -2.441  -0.765  1.00  0.00     0.122 C 
BRANCH  15  16
ATOM     16  C   UNL     1       0.370  -2.667   0.449  1.00  0.00     0.050 C 
BRANCH  16  17
ATOM     17  C   UNL     1       0.065  -1.440   1.303  1.00  0.00     0.161 C 
BRANCH  17  18
ATOM     18  O   UNL     1      -0.748  -0.490   0.620  1.00  0.00    -0.385 OA
ATOM     19  C   UNL     1      -0.040   0.617   0.081  1.00  0.00     0.194 C 
ENDBRANCH  17  18
ENDBRANCH  16  17
ENDBRANCH  15  16
ENDBRANCH   9  15
BRANCH  11  20
ATOM     20  C   UNL     1       3.598  -0.716   1.030  1.00  0.00    -0.024 A 
ATOM     21  C   UNL     1       3.485  -1.542   2.163  1.00  0.00     0.009 A 
ATOM     22  C   UNL     1       3.788   0.666   1.233  1.00  0.00     0.009 A 
ATOM     23  C   UNL     1       3.490  -0.993   3.449  1.00  0.00     0.039 A 
ATOM     24  C   UNL     1       3.804   1.211   2.518  1.00  0.00     0.039 A 
ATOM     25  C   UNL     1       3.639   0.378   3.614  1.00  0.00     0.123 A 
ATOM     26  F   UNL     1       3.614   0.902   4.846  1.00  0.00    -0.207 F 
ENDBRANCH  11  20
ENDBRANCH   5   8
ENDBRANCH   3   4
ENDBRANCH   2   3
ENDBRANCH   1   2
BRANCH   1  27
ATOM     27  C   UNL     1       3.371   2.321  -5.620  1.00  0.00     0.002 C 
BRANCH  27  28
ATOM     28  C   UNL     1       2.767   3.628  -5.102  1.00  0.00     0.021 C 
BRANCH  28  29
ATOM     29  C   UNL     1       3.578   4.881  -5.415  1.00  0.00     0.116 C 
BRANCH  29  30
ATOM     30  N   UNL     1       3.719   5.107  -6.843  1.00  0.00    -0.352 N 
ATOM     31  C   UNL     1       3.546   6.263  -7.559  1.00  0.00     0.251 C 
ATOM     32  H   UNL     1       3.975   4.317  -7.372  1.00  0.00     0.163 HD
ATOM     33  O   UNL     1       3.546   6.216  -8.792  1.00  0.00    -0.269 OA
BRANCH  31  34
ATOM     34  C   UNL     1       3.349   7.556  -6.869  1.00  0.00     0.039 A 
ATOM     35  C   UNL     1       2.418   8.461  -7.386  1.00  0.00     0.014 A 
ATOM     36  C   UNL     1       4.100   7.898  -5.740  1.00  0.00     0.014 A 
ATOM     37  C   UNL     1       2.226   9.695  -6.760  1.00  0.00     0.010 A 
ATOM     38  C   UNL     1       3.848   9.094  -5.071  1.00  0.00     0.010 A 
ATOM     39  C   UNL     1       2.932  10.019  -5.590  1.00  0.00    -0.014 A 
BRANCH  39  40
ATOM     40  C   UNL     1       2.753  11.338  -4.931  1.00  0.00     0.031 A 
ATOM     41  C   UNL     1       3.910  12.301  -4.838  1.00  0.00     0.074 A 
ATOM     42  C   UNL     1       1.569  11.655  -4.372  1.00  0.00     0.049 A 
ATOM     43  N   UNL     1       3.949  13.495  -4.303  1.00  0.00    -0.248 NA
ATOM     44  C   UNL     1       5.199  11.854  -5.391  1.00  0.00     0.031 C 
ATOM     45  C   UNL     1       0.397  10.780  -4.317  1.00  0.00     0.029 A 
ATOM     46  N   UNL     1       1.161  12.796  -3.726  1.00  0.00    -0.354 N 
ATOM     47  C   UNL     1       5.266  13.924  -4.424  1.00  0.00     0.074 A 
ATOM     48  C   UNL     1       6.005  12.845  -5.041  1.00  0.00     0.031 C 
ATOM     49  C   UNL     1      -0.601  11.419  -3.686  1.00  0.00     0.029 A 
ATOM     50  C   UNL     1      -0.136  12.740  -3.274  1.00  0.00     0.049 A 
ATOM     51  H   UNL     1       1.743  13.580  -3.599  1.00  0.00     0.167 HD
ATOM     52  C   UNL     1       5.808  15.119  -4.087  1.00  0.00     0.034 A 
ATOM     53  C   UNL     1      -0.870  13.654  -2.608  1.00  0.00     0.034 A 
ATOM     54  C   UNL     1       5.061  16.209  -3.520  1.00  0.00     0.049 A 
ATOM     55  C   UNL     1      -0.264  14.999  -2.307  1.00  0.00     0.074 A 
ATOM     56  C   UNL     1       5.496  17.487  -3.219  1.00  0.00     0.029 A 
ATOM     57  N   UNL     1       3.722  16.149  -3.166  1.00  0.00    -0.354 N 
ATOM     58  N   UNL     1       0.940  15.442  -2.574  1.00  0.00    -0.248 NA
ATOM     59  C   UNL     1      -1.137  15.987  -1.657  1.00  0.00     0.031 C 
ATOM     60  C   UNL     1       4.423  18.195  -2.665  1.00  0.00     0.029 A 
ATOM     61  C   UNL     1       3.313  17.366  -2.650  1.00  0.00     0.049 A 
ATOM     62  H   UNL     1       3.146  15.357  -3.267  1.00  0.00     0.167 HD
ATOM     63  C   UNL     1       0.958  16.770  -2.164  1.00  0.00     0.074 A 
ATOM     64  C   UNL     1      -0.366  17.065  -1.654  1.00  0.00     0.031 C 
ATOM     65  C   UNL     1       1.979  17.663  -2.195  1.00  0.00     0.034 A 
BRANCH  52  66
ATOM     66  C   UNL     1       7.272  15.328  -4.377  1.00  0.00     0.023 A 
ATOM     67  C   UNL     1       7.708  15.446  -5.714  1.00  0.00     0.012 A 
ATOM     68  C   UNL     1       8.210  15.454  -3.334  1.00  0.00     0.148 A 
ATOM     69  C   UNL     1       9.056  15.644  -6.009  1.00  0.00     0.002 A 
ATOM     70  C   UNL     1       9.545  15.700  -3.635  1.00  0.00     0.091 A 
ATOM     71  F   UNL     1       7.784  15.318  -2.070  1.00  0.00    -0.205 F 
ATOM     72  C   UNL     1       9.972  15.781  -4.970  1.00  0.00     0.022 A 
BRANCH  70  73
ATOM     73  S   UNL     1      10.790  15.973  -2.368  1.00  0.00     0.127 S 
ATOM     74  O   UNL     1      11.587  14.751  -2.470  1.00  0.00    -0.237 OA
ATOM     75  O   UNL     1      11.461  17.180  -2.851  1.00  0.00    -0.237 OA
ATOM     76  O   UNL     1      10.062  16.141  -1.119  1.00  0.00    -0.744 OA
ENDBRANCH  70  73
ENDBRANCH  52  66
BRANCH  53  77
ATOM     77  C   UNL     1      -2.288  13.359  -2.256  1.00  0.00     0.023 A 
ATOM     78  C   UNL     1      -3.324  14.041  -2.924  1.00  0.00     0.012 A 
ATOM     79  C   UNL     1      -2.615  12.398  -1.280  1.00  0.00     0.148 A 
ATOM     80  C   UNL     1      -4.659  13.801  -2.598  1.00  0.00     0.002 A 
ATOM     81  C   UNL     1      -3.948  12.123  -1.001  1.00  0.00     0.091 A 
ATOM     82  F   UNL     1      -1.614  11.767  -0.650  1.00  0.00    -0.205 F 
ATOM     83  C   UNL     1      -4.972  12.836  -1.644  1.00  0.00     0.022 A 
BRANCH  81  84
ATOM     84  S   UNL     1      -4.445  10.806   0.115  1.00  0.00     0.127 S 
ATOM     85  O   UNL     1      -4.965  11.559   1.254  1.00  0.00    -0.237 OA
ATOM     86  O   UNL     1      -5.457  10.106  -0.676  1.00  0.00    -0.237 OA
ATOM     87  O   UNL     1      -3.239  10.029   0.366  1.00  0.00    -0.744 OA
ENDBRANCH  81  84
ENDBRANCH  53  77
BRANCH  65  88
ATOM     88  C   UNL     1       1.696  19.060  -1.706  1.00  0.00     0.023 A 
ATOM     89  C   UNL     1       1.484  19.299  -0.334  1.00  0.00     0.012 A 
ATOM     90  C   UNL     1       1.685  20.145  -2.605  1.00  0.00     0.148 A 
ATOM     91  C   UNL     1       1.219  20.587   0.129  1.00  0.00     0.002 A 
ATOM     92  C   UNL     1       1.473  21.433  -2.129  1.00  0.00     0.091 A 
ATOM     93  F   UNL     1       1.868  19.899  -3.911  1.00  0.00    -0.205 F 
ATOM     94  C   UNL     1       1.224  21.655  -0.765  1.00  0.00     0.022 A 
BRANCH  92  95
ATOM     95  S   UNL     1       1.564  22.873  -3.200  1.00  0.00     0.127 S 
ATOM     96  O   UNL     1       0.150  23.180  -3.408  1.00  0.00    -0.237 OA
ATOM     97  O   UNL     1       2.282  23.838  -2.367  1.00  0.00    -0.237 OA
ATOM     98  O   UNL     1       2.296  22.440  -4.383  1.00  0.00    -0.744 OA
ENDBRANCH  92  95
ENDBRANCH  65  88
ENDBRANCH  39  40
ENDBRANCH  31  34
ENDBRANCH  29  30
ENDBRANCH  28  29
ENDBRANCH  27  28
ENDBRANCH   1  27
TORSDOF 21
