REMARK SMILES CN(CCS(C)(=O)=O)C(=O)Nc1cccc(C(=O)NCCCCCCNC(=O)c2ccc(-c3c4nc(c(-c5cccc(S(=O)(=O)[O-])c5F)c5ccc([nH]5)c(-c5cccc(S(=O)(=O)[O-])c5F)c5nc(c(-c6cccc(S(=O)(=O)[O-])c6F)c6ccc3[nH]6)C=C5)C=C4)cc2)c1
REMARK SMILES IDX 21 1 20 2 19 3 17 4 18 5 16 7 12 8 13 9 92 10 14 11 15 12
REMARK SMILES IDX 11 13 9 14 10 15 2 17 1 18 3 19 4 20 5 21 6 22 7 23 8 24
REMARK SMILES IDX 22 25 23 26 24 27 25 28 26 29 27 30 28 32 29 33 30 34 91 35
REMARK SMILES IDX 31 36 90 37 32 38 33 39 34 40 84 41 35 42 89 43 83 44 85 45
REMARK SMILES IDX 36 46 88 47 82 48 81 49 37 51 69 52 49 53 68 54 50 55 53 56
REMARK SMILES IDX 67 57 86 58 51 59 52 60 66 62 87 63 54 64 38 65 39 66 47 67
REMARK SMILES IDX 40 68 42 69 48 70 41 71 43 72 44 73 45 74 46 75 70 76 71 77
REMARK SMILES IDX 79 78 72 79 74 80 80 81 73 82 75 83 76 84 77 85 78 86 55 87
REMARK SMILES IDX 56 88 64 89 57 90 59 91 65 92 58 93 60 94 61 95 62 96 63 97
REMARK H PARENT 19 6 11 16 26 31 85 50 53 61
REMARK Flexibility Score: inf
ROOT
ATOM      1  C   UNL     1      -4.636   1.059  -1.018  1.00  0.00     0.021 C 
ENDROOT
BRANCH   1   2
ATOM      2  C   UNL     1      -3.739   0.069  -1.783  1.00  0.00     0.116 C 
BRANCH   2   3
ATOM      3  N   UNL     1      -4.369  -0.836  -2.724  1.00  0.00    -0.352 N 
ATOM      4  C   UNL     1      -3.913  -1.406  -3.904  1.00  0.00     0.251 C 
ATOM      5  O   UNL     1      -4.700  -2.151  -4.495  1.00  0.00    -0.269 OA
ATOM      6  H   UNL     1      -5.288  -1.093  -2.482  1.00  0.00     0.163 HD
BRANCH   4   7
ATOM      7  C   UNL     1      -2.555  -1.184  -4.536  1.00  0.00     0.041 A 
ATOM      8  C   UNL     1      -0.147  -0.586  -4.474  1.00  0.00     0.043 A 
ATOM      9  C   UNL     1      -0.103  -0.838  -5.858  1.00  0.00     0.026 A 
ATOM     10  C   UNL     1      -1.392  -0.784  -3.848  1.00  0.00     0.040 A 
ATOM     11  C   UNL     1      -1.224  -1.271  -6.566  1.00  0.00     0.003 A 
ATOM     12  C   UNL     1      -2.439  -1.446  -5.907  1.00  0.00     0.014 A 
BRANCH   8  13
ATOM     13  N   UNL     1       1.086  -0.110  -3.958  1.00  0.00    -0.308 N 
ATOM     14  C   UNL     1       1.810   0.309  -2.901  1.00  0.00     0.321 C 
ATOM     15  O   UNL     1       2.967   0.622  -3.216  1.00  0.00    -0.248 OA
ATOM     16  H   UNL     1       1.696  -0.064  -4.730  1.00  0.00     0.171 HD
BRANCH  14  17
ATOM     17  N   UNL     1       1.398   0.418  -1.619  1.00  0.00    -0.327 N 
ATOM     18  C   UNL     1       2.375   0.712  -0.563  1.00  0.00     0.148 C 
BRANCH  17  19
ATOM     19  C   UNL     1       0.075   0.256  -1.129  1.00  0.00     0.137 C 
BRANCH  19  20
ATOM     20  C   UNL     1      -0.759   1.507  -0.993  1.00  0.00     0.158 C 
BRANCH  20  21
ATOM     21  S   UNL     1      -0.891   2.881  -2.113  1.00  0.00     0.149 S 
ATOM     22  C   UNL     1      -0.768   2.497  -3.840  1.00  0.00     0.158 C 
ATOM     23  O   UNL     1      -2.258   3.352  -1.953  1.00  0.00    -0.229 OA
ATOM     24  O   UNL     1       0.207   3.783  -1.820  1.00  0.00    -0.229 OA
ENDBRANCH  20  21
ENDBRANCH  19  20
ENDBRANCH  17  19
ENDBRANCH  14  17
ENDBRANCH   8  13
ENDBRANCH   4   7
ENDBRANCH   2   3
ENDBRANCH   1   2
BRANCH   1  25
ATOM     25  C   UNL     1      -5.194   0.679   0.363  1.00  0.00     0.002 C 
BRANCH  25  26
ATOM     26  C   UNL     1      -4.222   0.274   1.482  1.00  0.00     0.002 C 
BRANCH  26  27
ATOM     27  C   UNL     1      -3.164   1.278   1.964  1.00  0.00     0.021 C 
BRANCH  27  28
ATOM     28  C   UNL     1      -3.621   2.646   2.474  1.00  0.00     0.116 C 
BRANCH  28  29
ATOM     29  N   UNL     1      -4.550   2.570   3.589  1.00  0.00    -0.352 N 
ATOM     30  C   UNL     1      -4.530   3.178   4.824  1.00  0.00     0.251 C 
ATOM     31  H   UNL     1      -5.325   1.984   3.435  1.00  0.00     0.163 HD
ATOM     32  O   UNL     1      -5.391   2.869   5.647  1.00  0.00    -0.269 OA
BRANCH  30  33
ATOM     33  C   UNL     1      -3.493   4.174   5.199  1.00  0.00     0.039 A 
ATOM     34  C   UNL     1      -2.984   4.150   6.505  1.00  0.00     0.014 A 
ATOM     35  C   UNL     1      -3.057   5.164   4.316  1.00  0.00     0.014 A 
ATOM     36  C   UNL     1      -2.005   5.070   6.901  1.00  0.00     0.010 A 
ATOM     37  C   UNL     1      -2.032   6.040   4.691  1.00  0.00     0.010 A 
ATOM     38  C   UNL     1      -1.495   6.007   5.988  1.00  0.00    -0.014 A 
BRANCH  38  39
ATOM     39  C   UNL     1      -0.399   6.943   6.368  1.00  0.00     0.031 A 
ATOM     40  C   UNL     1      -0.623   8.433   6.359  1.00  0.00     0.074 A 
ATOM     41  C   UNL     1       0.829   6.457   6.644  1.00  0.00     0.049 A 
ATOM     42  N   UNL     1       0.227   9.399   6.600  1.00  0.00    -0.248 NA
ATOM     43  C   UNL     1      -1.975   8.901   6.010  1.00  0.00     0.031 C 
ATOM     44  C   UNL     1       1.201   5.041   6.624  1.00  0.00     0.029 A 
ATOM     45  N   UNL     1       2.000   7.100   6.967  1.00  0.00    -0.354 N 
ATOM     46  C   UNL     1      -0.471  10.584   6.396  1.00  0.00     0.074 A 
ATOM     47  C   UNL     1      -1.809  10.216   5.984  1.00  0.00     0.031 C 
ATOM     48  C   UNL     1       2.505   4.923   6.920  1.00  0.00     0.029 A 
ATOM     49  C   UNL     1       3.074   6.252   7.117  1.00  0.00     0.049 A 
ATOM     50  H   UNL     1       2.065   8.076   7.080  1.00  0.00     0.167 HD
ATOM     51  C   UNL     1      -0.049  11.862   6.559  1.00  0.00     0.034 A 
ATOM     52  C   UNL     1       4.372   6.512   7.371  1.00  0.00     0.034 A 
ATOM     53  C   UNL     1       1.271  12.226   7.002  1.00  0.00     0.049 A 
ATOM     54  C   UNL     1       4.809   7.939   7.574  1.00  0.00     0.074 A 
ATOM     55  C   UNL     1       1.768  13.489   7.277  1.00  0.00     0.029 A 
ATOM     56  N   UNL     1       2.308  11.334   7.220  1.00  0.00    -0.354 N 
ATOM     57  N   UNL     1       4.094   9.036   7.526  1.00  0.00    -0.248 NA
ATOM     58  C   UNL     1       6.225   8.161   7.903  1.00  0.00     0.031 C 
ATOM     59  C   UNL     1       3.115  13.361   7.630  1.00  0.00     0.029 A 
ATOM     60  C   UNL     1       3.446  12.016   7.615  1.00  0.00     0.049 A 
ATOM     61  H   UNL     1       2.245  10.357   7.110  1.00  0.00     0.167 HD
ATOM     62  C   UNL     1       4.960  10.072   7.859  1.00  0.00     0.074 A 
ATOM     63  C   UNL     1       6.249   9.468   8.124  1.00  0.00     0.031 C 
ATOM     64  C   UNL     1       4.711  11.403   7.929  1.00  0.00     0.034 A 
BRANCH  51  65
ATOM     65  C   UNL     1      -1.040  12.970   6.298  1.00  0.00     0.023 A 
ATOM     66  C   UNL     1      -2.123  13.162   7.182  1.00  0.00     0.012 A 
ATOM     67  C   UNL     1      -0.869  13.858   5.217  1.00  0.00     0.148 A 
ATOM     68  C   UNL     1      -3.039  14.191   6.972  1.00  0.00     0.002 A 
ATOM     69  C   UNL     1      -1.759  14.912   5.043  1.00  0.00     0.091 A 
ATOM     70  F   UNL     1       0.157  13.653   4.378  1.00  0.00    -0.205 F 
ATOM     71  C   UNL     1      -2.852  15.071   5.910  1.00  0.00     0.022 A 
BRANCH  69  72
ATOM     72  S   UNL     1      -1.559  16.151   3.758  1.00  0.00     0.127 S 
ATOM     73  O   UNL     1      -2.682  15.844   2.874  1.00  0.00    -0.237 OA
ATOM     74  O   UNL     1      -1.699  17.398   4.510  1.00  0.00    -0.237 OA
ATOM     75  O   UNL     1      -0.237  15.930   3.187  1.00  0.00    -0.744 OA
ENDBRANCH  69  72
ENDBRANCH  51  65
BRANCH  52  76
ATOM     76  C   UNL     1       5.347   5.391   7.506  1.00  0.00     0.023 A 
ATOM     77  C   UNL     1       5.902   5.104   8.768  1.00  0.00     0.012 A 
ATOM     78  C   UNL     1       5.711   4.598   6.401  1.00  0.00     0.148 A 
ATOM     79  C   UNL     1       6.831   4.073   8.920  1.00  0.00     0.002 A 
ATOM     80  C   UNL     1       6.590   3.535   6.570  1.00  0.00     0.091 A 
ATOM     81  F   UNL     1       5.179   4.891   5.206  1.00  0.00    -0.205 F 
ATOM     82  C   UNL     1       7.167   3.283   7.825  1.00  0.00     0.022 A 
BRANCH  80  83
ATOM     83  S   UNL     1       6.977   2.380   5.249  1.00  0.00     0.127 S 
ATOM     84  O   UNL     1       8.373   2.699   4.971  1.00  0.00    -0.237 OA
ATOM     85  O   UNL     1       6.754   1.090   5.901  1.00  0.00    -0.237 OA
ATOM     86  O   UNL     1       6.033   2.678   4.177  1.00  0.00    -0.744 OA
ENDBRANCH  80  83
ENDBRANCH  52  76
BRANCH  64  87
ATOM     87  C   UNL     1       5.838  12.306   8.361  1.00  0.00     0.023 A 
ATOM     88  C   UNL     1       6.925  12.546   7.496  1.00  0.00     0.012 A 
ATOM     89  C   UNL     1       5.781  12.976   9.600  1.00  0.00     0.148 A 
ATOM     90  C   UNL     1       7.953  13.409   7.873  1.00  0.00     0.002 A 
ATOM     91  C   UNL     1       6.781  13.876   9.945  1.00  0.00     0.091 A 
ATOM     92  F   UNL     1       4.748  12.721  10.417  1.00  0.00    -0.205 F 
ATOM     93  C   UNL     1       7.875  14.083   9.090  1.00  0.00     0.022 A 
BRANCH  91  94
ATOM     94  S   UNL     1       6.714  14.863  11.444  1.00  0.00     0.127 S 
ATOM     95  O   UNL     1       7.774  14.256  12.248  1.00  0.00    -0.237 OA
ATOM     96  O   UNL     1       7.019  16.204  10.946  1.00  0.00    -0.237 OA
ATOM     97  O   UNL     1       5.365  14.706  11.971  1.00  0.00    -0.744 OA
ENDBRANCH  91  94
ENDBRANCH  64  87
ENDBRANCH  38  39
ENDBRANCH  30  33
ENDBRANCH  28  29
ENDBRANCH  27  28
ENDBRANCH  26  27
ENDBRANCH  25  26
ENDBRANCH   1  25
TORSDOF 21
