REMARK SMILES CC(=O)Nc1c(C)nn([C@H](C)C(=O)NCCCCCCNC(=O)c2ccc(-c3c4nc(c(-c5cccc(S(=O)(=O)[O-])c5F)c5ccc([nH]5)c(-c5cccc(S(=O)(=O)[O-])c5F)c5nc(c(-c6cccc(S(=O)(=O)[O-])c6F)c6ccc3[nH]6)C=C5)C=C4)cc2)c1C
REMARK SMILES IDX 18 1 17 2 16 3 15 4 14 5 12 6 13 7 10 9 11 10 9 11 5 12 6 13
REMARK SMILES IDX 87 14 7 15 8 16 88 17 4 18 1 19 2 20 3 21 19 23 20 24 21 25
REMARK SMILES IDX 22 26 23 28 24 29 25 30 86 31 26 32 85 33 27 34 28 35 29 36
REMARK SMILES IDX 79 37 30 38 84 39 78 40 80 41 31 42 83 43 77 44 76 45 32 47
REMARK SMILES IDX 64 48 44 49 63 50 45 51 48 52 62 53 81 54 46 55 47 56 61 58
REMARK SMILES IDX 82 59 49 60 33 61 34 62 42 63 35 64 37 65 43 66 36 67 38 68
REMARK SMILES IDX 39 69 40 70 41 71 65 72 66 73 74 74 67 75 69 76 75 77 68 78
REMARK SMILES IDX 70 79 71 80 72 81 73 82 50 83 51 84 59 85 52 86 54 87 60 88
REMARK SMILES IDX 53 89 55 90 56 91 57 92 58 93
REMARK H PARENT 14 8 4 22 21 27 80 46 48 57
REMARK Flexibility Score: inf
ROOT
ATOM      1  C   UNL     1       2.928   8.816  -1.270  1.00  0.00     0.002 C 
ENDROOT
BRANCH   1   2
ATOM      2  C   UNL     1       1.749   7.878  -0.977  1.00  0.00     0.002 C 
BRANCH   2   3
ATOM      3  C   UNL     1       1.612   6.612  -1.832  1.00  0.00     0.021 C 
BRANCH   3   4
ATOM      4  C   UNL     1       2.782   5.637  -1.764  1.00  0.00     0.116 C 
BRANCH   4   5
ATOM      5  N   UNL     1       2.946   5.055  -0.442  1.00  0.00    -0.354 N 
ATOM      6  C   UNL     1       3.847   4.116  -0.025  1.00  0.00     0.244 C 
ATOM      7  O   UNL     1       3.974   3.958   1.196  1.00  0.00    -0.273 OA
ATOM      8  H   UNL     1       2.323   5.382   0.246  1.00  0.00     0.163 HD
BRANCH   6   9
ATOM      9  C   UNL     1       4.670   3.296  -0.997  1.00  0.00     0.193 C 
ATOM     10  C   UNL     1       3.744   2.484  -1.920  1.00  0.00     0.044 C 
BRANCH   9  11
ATOM     11  N   UNL     1       5.761   3.988  -1.703  1.00  0.00    -0.255 N 
ATOM     12  C   UNL     1       7.275   5.347  -2.576  1.00  0.00     0.085 A 
ATOM     13  C   UNL     1       7.228   4.100  -3.250  1.00  0.00     0.083 A 
ATOM     14  C   UNL     1       6.376   5.222  -1.523  1.00  0.00     0.060 A 
ATOM     15  C   UNL     1       8.047   3.614  -4.391  1.00  0.00     0.071 C 
ATOM     16  N   UNL     1       6.366   3.265  -2.676  1.00  0.00    -0.175 NA
ATOM     17  C   UNL     1       6.031   6.205  -0.465  1.00  0.00     0.069 C 
BRANCH  12  18
ATOM     18  N   UNL     1       8.025   6.432  -2.999  1.00  0.00    -0.323 N 
ATOM     19  C   UNL     1       8.729   7.531  -0.877  1.00  0.00     0.114 C 
ATOM     20  C   UNL     1       8.498   7.536  -2.361  1.00  0.00     0.221 C 
ATOM     21  O   UNL     1       8.840   8.515  -3.032  1.00  0.00    -0.275 OA
ATOM     22  H   UNL     1       8.264   6.397  -3.954  1.00  0.00     0.170 HD
ENDBRANCH  12  18
ENDBRANCH   9  11
ENDBRANCH   6   9
ENDBRANCH   4   5
ENDBRANCH   3   4
ENDBRANCH   2   3
ENDBRANCH   1   2
BRANCH   1  23
ATOM     23  C   UNL     1       3.166   9.248  -2.722  1.00  0.00     0.021 C 
BRANCH  23  24
ATOM     24  C   UNL     1       1.964   9.835  -3.450  1.00  0.00     0.116 C 
BRANCH  24  25
ATOM     25  N   UNL     1       1.456  11.068  -2.854  1.00  0.00    -0.352 N 
ATOM     26  C   UNL     1       0.285  11.739  -3.171  1.00  0.00     0.251 C 
ATOM     27  H   UNL     1       2.010  11.469  -2.145  1.00  0.00     0.163 HD
ATOM     28  O   UNL     1       0.152  12.923  -2.913  1.00  0.00    -0.269 OA
BRANCH  26  29
ATOM     29  C   UNL     1      -0.801  10.986  -3.833  1.00  0.00     0.039 A 
ATOM     30  C   UNL     1      -1.512  11.534  -4.901  1.00  0.00     0.014 A 
ATOM     31  C   UNL     1      -1.063   9.690  -3.400  1.00  0.00     0.014 A 
ATOM     32  C   UNL     1      -2.415  10.724  -5.587  1.00  0.00     0.010 A 
ATOM     33  C   UNL     1      -1.828   8.848  -4.172  1.00  0.00     0.010 A 
ATOM     34  C   UNL     1      -2.542   9.364  -5.245  1.00  0.00    -0.014 A 
BRANCH  34  35
ATOM     35  C   UNL     1      -3.311   8.460  -6.103  1.00  0.00     0.031 A 
ATOM     36  C   UNL     1      -2.989   8.596  -7.549  1.00  0.00     0.074 A 
ATOM     37  C   UNL     1      -4.125   7.476  -5.658  1.00  0.00     0.049 A 
ATOM     38  N   UNL     1      -3.702   9.193  -8.446  1.00  0.00    -0.248 NA
ATOM     39  C   UNL     1      -1.653   8.201  -8.020  1.00  0.00     0.031 C 
ATOM     40  C   UNL     1      -4.304   7.013  -4.275  1.00  0.00     0.029 A 
ATOM     41  N   UNL     1      -4.887   6.591  -6.367  1.00  0.00    -0.354 N 
ATOM     42  C   UNL     1      -3.031   8.986  -9.649  1.00  0.00     0.074 A 
ATOM     43  C   UNL     1      -1.694   8.595  -9.296  1.00  0.00     0.031 C 
ATOM     44  C   UNL     1      -4.892   5.797  -4.275  1.00  0.00     0.029 A 
ATOM     45  C   UNL     1      -5.314   5.492  -5.627  1.00  0.00     0.049 A 
ATOM     46  H   UNL     1      -5.114   6.719  -7.316  1.00  0.00     0.167 HD
ATOM     47  C   UNL     1      -3.734   8.838 -10.806  1.00  0.00     0.034 A 
ATOM     48  C   UNL     1      -5.967   4.400  -6.089  1.00  0.00     0.034 A 
ATOM     49  C   UNL     1      -5.113   9.211 -10.613  1.00  0.00     0.049 A 
ATOM     50  C   UNL     1      -6.661   4.803  -7.327  1.00  0.00     0.074 A 
ATOM     51  C   UNL     1      -5.827  10.366 -10.386  1.00  0.00     0.029 A 
ATOM     52  N   UNL     1      -5.904   8.157 -10.239  1.00  0.00    -0.354 N 
ATOM     53  N   UNL     1      -7.637   5.667  -7.348  1.00  0.00    -0.248 NA
ATOM     54  C   UNL     1      -6.069   4.492  -8.620  1.00  0.00     0.031 C 
ATOM     55  C   UNL     1      -6.990   9.969  -9.660  1.00  0.00     0.029 A 
ATOM     56  C   UNL     1      -6.977   8.582  -9.508  1.00  0.00     0.049 A 
ATOM     57  H   UNL     1      -5.724   7.216 -10.467  1.00  0.00     0.167 HD
ATOM     58  C   UNL     1      -7.452   6.342  -8.540  1.00  0.00     0.074 A 
ATOM     59  C   UNL     1      -6.627   5.458  -9.353  1.00  0.00     0.031 C 
ATOM     60  C   UNL     1      -7.692   7.682  -8.626  1.00  0.00     0.034 A 
BRANCH  47  61
ATOM     61  C   UNL     1      -3.369   7.903 -11.949  1.00  0.00     0.023 A 
ATOM     62  C   UNL     1      -4.207   7.933 -13.091  1.00  0.00     0.012 A 
ATOM     63  C   UNL     1      -2.481   6.809 -11.847  1.00  0.00     0.148 A 
ATOM     64  C   UNL     1      -4.200   6.905 -14.042  1.00  0.00     0.002 A 
ATOM     65  C   UNL     1      -2.425   5.827 -12.832  1.00  0.00     0.091 A 
ATOM     66  F   UNL     1      -1.773   6.621 -10.732  1.00  0.00    -0.205 F 
ATOM     67  C   UNL     1      -3.305   5.853 -13.915  1.00  0.00     0.022 A 
BRANCH  65  68
ATOM     68  S   UNL     1      -1.264   4.457 -12.733  1.00  0.00     0.127 S 
ATOM     69  O   UNL     1      -2.158   3.338 -12.449  1.00  0.00    -0.237 OA
ATOM     70  O   UNL     1      -0.684   4.465 -14.076  1.00  0.00    -0.237 OA
ATOM     71  O   UNL     1      -0.327   4.812 -11.675  1.00  0.00    -0.744 OA
ENDBRANCH  65  68
ENDBRANCH  47  61
BRANCH  48  72
ATOM     72  C   UNL     1      -5.917   2.989  -5.649  1.00  0.00     0.023 A 
ATOM     73  C   UNL     1      -6.961   2.110  -6.004  1.00  0.00     0.012 A 
ATOM     74  C   UNL     1      -4.711   2.435  -5.168  1.00  0.00     0.148 A 
ATOM     75  C   UNL     1      -6.788   0.723  -5.943  1.00  0.00     0.002 A 
ATOM     76  C   UNL     1      -4.542   1.055  -5.111  1.00  0.00     0.091 A 
ATOM     77  F   UNL     1      -3.703   3.262  -4.859  1.00  0.00    -0.205 F 
ATOM     78  C   UNL     1      -5.573   0.195  -5.513  1.00  0.00     0.022 A 
BRANCH  76  79
ATOM     79  S   UNL     1      -2.992   0.298  -4.604  1.00  0.00     0.127 S 
ATOM     80  O   UNL     1      -3.442  -0.669  -3.603  1.00  0.00    -0.237 OA
ATOM     81  O   UNL     1      -2.520  -0.289  -5.855  1.00  0.00    -0.237 OA
ATOM     82  O   UNL     1      -2.176   1.381  -4.067  1.00  0.00    -0.744 OA
ENDBRANCH  76  79
ENDBRANCH  48  72
BRANCH  60  83
ATOM     83  C   UNL     1      -8.631   8.288  -7.623  1.00  0.00     0.023 A 
ATOM     84  C   UNL     1      -8.356   8.352  -6.242  1.00  0.00     0.012 A 
ATOM     85  C   UNL     1      -9.798   8.895  -8.115  1.00  0.00     0.148 A 
ATOM     86  C   UNL     1      -9.245   8.988  -5.370  1.00  0.00     0.002 A 
ATOM     87  C   UNL     1     -10.653   9.567  -7.253  1.00  0.00     0.091 A 
ATOM     88  F   UNL     1     -10.047   8.814  -9.431  1.00  0.00    -0.205 F 
ATOM     89  C   UNL     1     -10.387   9.607  -5.877  1.00  0.00     0.022 A 
BRANCH  87  90
ATOM     90  S   UNL     1     -12.073  10.472  -7.869  1.00  0.00     0.127 S 
ATOM     91  O   UNL     1     -13.180   9.595  -7.495  1.00  0.00    -0.237 OA
ATOM     92  O   UNL     1     -11.999  11.723  -7.113  1.00  0.00    -0.237 OA
ATOM     93  O   UNL     1     -11.855  10.632  -9.302  1.00  0.00    -0.744 OA
ENDBRANCH  87  90
ENDBRANCH  60  83
ENDBRANCH  34  35
ENDBRANCH  26  29
ENDBRANCH  24  25
ENDBRANCH  23  24
ENDBRANCH   1  23
TORSDOF 18
