REMARK SMILES COc1ccc(CC(=O)NCCCCCCNC(=O)c2ccc(-c3c4nc(c(-c5cccc(S(=O)(=O)[O-])c5F)c5ccc([nH]5)c(-c5cccc(S(=O)(=O)[O-])c5F)c5nc(c(-c6cccc(S(=O)(=O)[O-])c6F)c6ccc3[nH]6)C=C5)C=C4)cc2)cc1S(=O)(=O)Nc1ccccc1Br
REMARK SMILES IDX 13 1 12 2 11 3 10 4 8 5 9 6 7 8 6 9 3 10 4 11 84 12 5 13
REMARK SMILES IDX 83 14 2 15 1 16 85 17 86 18 87 19 88 20 89 22 90 23 94 24
REMARK SMILES IDX 91 25 93 26 95 27 92 28 14 29 15 30 16 31 17 32 18 33 19 35
REMARK SMILES IDX 20 36 21 37 82 38 22 39 81 40 23 41 24 42 25 43 75 44 26 45
REMARK SMILES IDX 80 46 74 47 76 48 27 49 79 50 73 51 72 52 28 54 60 55 40 56
REMARK SMILES IDX 59 57 41 58 44 59 58 60 77 61 42 62 43 63 57 65 78 66 45 67
REMARK SMILES IDX 29 68 30 69 38 70 31 71 33 72 39 73 32 74 34 75 35 76 36 77
REMARK SMILES IDX 37 78 61 79 62 80 70 81 63 82 65 83 71 84 64 85 66 86 67 87
REMARK SMILES IDX 68 88 69 89 46 90 47 91 55 92 48 93 50 94 56 95 49 96 51 97
REMARK SMILES IDX 52 98 53 99 54 100
REMARK H PARENT 10 7 88 21 17 34 76 53 44 64
REMARK Flexibility Score: inf
ROOT
ATOM      1  C   UNL     1       2.630  -6.843   3.815  1.00  0.00     0.002 C 
ENDROOT
BRANCH   1   2
ATOM      2  C   UNL     1       2.803  -5.975   2.562  1.00  0.00     0.021 C 
BRANCH   2   3
ATOM      3  C   UNL     1       3.296  -6.748   1.341  1.00  0.00     0.116 C 
BRANCH   3   4
ATOM      4  N   UNL     1       2.259  -7.633   0.843  1.00  0.00    -0.356 N 
ATOM      5  C   UNL     1       1.453  -7.466  -0.244  1.00  0.00     0.224 C 
ATOM      6  O   UNL     1       0.514  -8.246  -0.416  1.00  0.00    -0.275 OA
ATOM      7  H   UNL     1       2.119  -8.461   1.357  1.00  0.00     0.163 HD
BRANCH   5   8
ATOM      8  C   UNL     1       1.762  -6.368  -1.240  1.00  0.00     0.135 C 
BRANCH   8   9
ATOM      9  C   UNL     1       1.308  -4.985  -0.838  1.00  0.00    -0.037 A 
ATOM     10  C   UNL     1       0.507  -2.318  -0.452  1.00  0.00     0.139 A 
ATOM     11  C   UNL     1      -0.441  -3.350  -0.532  1.00  0.00     0.048 A 
ATOM     12  C   UNL     1       1.857  -2.627  -0.386  1.00  0.00     0.129 A 
ATOM     13  C   UNL     1      -0.046  -4.676  -0.716  1.00  0.00     0.008 A 
ATOM     14  C   UNL     1       2.245  -3.959  -0.641  1.00  0.00     0.030 A 
BRANCH  10  15
ATOM     15  O   UNL     1      -0.008  -1.058  -0.448  1.00  0.00    -0.495 OA
ATOM     16  C   UNL     1       0.114  -0.443  -1.731  1.00  0.00     0.278 C 
ENDBRANCH  10  15
BRANCH  12  17
ATOM     17  S   UNL     1       3.196  -1.503  -0.080  1.00  0.00     0.265 S 
ATOM     18  O   UNL     1       4.254  -2.296   0.514  1.00  0.00    -0.201 OA
ATOM     19  O   UNL     1       3.442  -0.832  -1.345  1.00  0.00    -0.201 OA
BRANCH  17  20
ATOM     20  N   UNL     1       2.912  -0.267   1.033  1.00  0.00    -0.278 N 
ATOM     21  H   UNL     1       3.679   0.276   1.325  1.00  0.00     0.180 HD
BRANCH  20  22
ATOM     22  C   UNL     1       1.629   0.042   1.578  1.00  0.00     0.063 A 
ATOM     23  C   UNL     1       1.014   1.232   1.154  1.00  0.00     0.028 A 
ATOM     24  C   UNL     1       0.979  -0.764   2.522  1.00  0.00     0.042 A 
ATOM     25  C   UNL     1      -0.260   1.575   1.612  1.00  0.00     0.002 A 
ATOM     26  C   UNL     1      -0.300  -0.419   2.974  1.00  0.00     0.018 A 
ATOM     27  Br  UNL     1       1.794  -2.299   3.282  1.00  0.00    -0.049 Br
ATOM     28  C   UNL     1      -0.922   0.741   2.509  1.00  0.00     0.001 A 
ENDBRANCH  20  22
ENDBRANCH  17  20
ENDBRANCH  12  17
ENDBRANCH   8   9
ENDBRANCH   5   8
ENDBRANCH   3   4
ENDBRANCH   2   3
ENDBRANCH   1   2
BRANCH   1  29
ATOM     29  C   UNL     1       3.892  -7.589   4.263  1.00  0.00     0.002 C 
BRANCH  29  30
ATOM     30  C   UNL     1       5.123  -6.706   4.479  1.00  0.00     0.021 C 
BRANCH  30  31
ATOM     31  C   UNL     1       4.949  -5.624   5.539  1.00  0.00     0.116 C 
BRANCH  31  32
ATOM     32  N   UNL     1       4.725  -6.192   6.861  1.00  0.00    -0.352 N 
ATOM     33  C   UNL     1       5.400  -5.957   8.032  1.00  0.00     0.251 C 
ATOM     34  H   UNL     1       3.983  -6.836   6.923  1.00  0.00     0.163 HD
ATOM     35  O   UNL     1       5.205  -6.677   9.008  1.00  0.00    -0.269 OA
BRANCH  33  36
ATOM     36  C   UNL     1       6.371  -4.845   8.112  1.00  0.00     0.039 A 
ATOM     37  C   UNL     1       7.608  -5.066   8.725  1.00  0.00     0.014 A 
ATOM     38  C   UNL     1       6.059  -3.585   7.593  1.00  0.00     0.014 A 
ATOM     39  C   UNL     1       8.551  -4.037   8.771  1.00  0.00     0.010 A 
ATOM     40  C   UNL     1       7.025  -2.583   7.579  1.00  0.00     0.010 A 
ATOM     41  C   UNL     1       8.277  -2.796   8.174  1.00  0.00    -0.014 A 
BRANCH  41  42
ATOM     42  C   UNL     1       9.287  -1.708   8.156  1.00  0.00     0.031 A 
ATOM     43  C   UNL     1       9.023  -0.417   8.882  1.00  0.00     0.074 A 
ATOM     44  C   UNL     1      10.402  -1.849   7.413  1.00  0.00     0.049 A 
ATOM     45  N   UNL     1       9.760   0.662   8.941  1.00  0.00    -0.248 NA
ATOM     46  C   UNL     1       7.752  -0.316   9.618  1.00  0.00     0.031 C 
ATOM     47  C   UNL     1      10.736  -3.023   6.605  1.00  0.00     0.029 A 
ATOM     48  N   UNL     1      11.450  -0.989   7.199  1.00  0.00    -0.354 N 
ATOM     49  C   UNL     1       9.031   1.579   9.688  1.00  0.00     0.074 A 
ATOM     50  C   UNL     1       7.778   0.943  10.030  1.00  0.00     0.031 C 
ATOM     51  C   UNL     1      11.913  -2.814   5.992  1.00  0.00     0.029 A 
ATOM     52  C   UNL     1      12.403  -1.485   6.341  1.00  0.00     0.049 A 
ATOM     53  H   UNL     1      11.513  -0.102   7.621  1.00  0.00     0.167 HD
ATOM     54  C   UNL     1       9.385   2.826  10.085  1.00  0.00     0.034 A 
ATOM     55  C   UNL     1      13.544  -0.930   5.887  1.00  0.00     0.034 A 
ATOM     56  C   UNL     1      10.649   3.438   9.777  1.00  0.00     0.049 A 
ATOM     57  C   UNL     1      13.929   0.444   6.364  1.00  0.00     0.074 A 
ATOM     58  C   UNL     1      11.140   4.661  10.200  1.00  0.00     0.029 A 
ATOM     59  N   UNL     1      11.623   2.877   8.965  1.00  0.00    -0.354 N 
ATOM     60  N   UNL     1      13.300   1.234   7.200  1.00  0.00    -0.248 NA
ATOM     61  C   UNL     1      15.199   0.988   5.863  1.00  0.00     0.031 C 
ATOM     62  C   UNL     1      12.405   4.845   9.629  1.00  0.00     0.029 A 
ATOM     63  C   UNL     1      12.710   3.729   8.866  1.00  0.00     0.049 A 
ATOM     64  H   UNL     1      11.553   2.000   8.524  1.00  0.00     0.167 HD
ATOM     65  C   UNL     1      14.112   2.352   7.354  1.00  0.00     0.074 A 
ATOM     66  C   UNL     1      15.288   2.127   6.538  1.00  0.00     0.031 C 
ATOM     67  C   UNL     1      13.897   3.470   8.091  1.00  0.00     0.034 A 
BRANCH  54  68
ATOM     68  C   UNL     1       8.408   3.581  10.949  1.00  0.00     0.023 A 
ATOM     69  C   UNL     1       8.196   3.163  12.279  1.00  0.00     0.012 A 
ATOM     70  C   UNL     1       7.725   4.714  10.465  1.00  0.00     0.148 A 
ATOM     71  C   UNL     1       7.288   3.831  13.100  1.00  0.00     0.002 A 
ATOM     72  C   UNL     1       6.854   5.402  11.304  1.00  0.00     0.091 A 
ATOM     73  F   UNL     1       7.919   5.086   9.192  1.00  0.00    -0.205 F 
ATOM     74  C   UNL     1       6.624   4.955  12.616  1.00  0.00     0.022 A 
BRANCH  72  75
ATOM     75  S   UNL     1       6.011   6.904  10.793  1.00  0.00     0.127 S 
ATOM     76  O   UNL     1       4.658   6.413  10.538  1.00  0.00    -0.237 OA
ATOM     77  O   UNL     1       6.137   7.751  11.980  1.00  0.00    -0.237 OA
ATOM     78  O   UNL     1       6.737   7.389   9.627  1.00  0.00    -0.744 OA
ENDBRANCH  72  75
ENDBRANCH  54  68
BRANCH  55  79
ATOM     79  C   UNL     1      14.449  -1.717   5.003  1.00  0.00     0.023 A 
ATOM     80  C   UNL     1      15.666  -2.196   5.525  1.00  0.00     0.012 A 
ATOM     81  C   UNL     1      14.100  -2.031   3.675  1.00  0.00     0.148 A 
ATOM     82  C   UNL     1      16.532  -2.953   4.735  1.00  0.00     0.002 A 
ATOM     83  C   UNL     1      14.943  -2.829   2.909  1.00  0.00     0.091 A 
ATOM     84  F   UNL     1      12.941  -1.558   3.195  1.00  0.00    -0.205 F 
ATOM     85  C   UNL     1      16.166  -3.278   3.432  1.00  0.00     0.022 A 
BRANCH  83  86
ATOM     86  S   UNL     1      14.503  -3.402   1.264  1.00  0.00     0.127 S 
ATOM     87  O   UNL     1      15.450  -2.668   0.428  1.00  0.00    -0.237 OA
ATOM     88  O   UNL     1      14.758  -4.839   1.368  1.00  0.00    -0.237 OA
ATOM     89  O   UNL     1      13.101  -3.052   1.086  1.00  0.00    -0.744 OA
ENDBRANCH  83  86
ENDBRANCH  55  79
BRANCH  67  90
ATOM     90  C   UNL     1      14.966   4.531   8.077  1.00  0.00     0.023 A 
ATOM     91  C   UNL     1      15.136   5.334   6.932  1.00  0.00     0.012 A 
ATOM     92  C   UNL     1      15.749   4.781   9.220  1.00  0.00     0.148 A 
ATOM     93  C   UNL     1      16.091   6.351   6.915  1.00  0.00     0.002 A 
ATOM     94  C   UNL     1      16.666   5.826   9.212  1.00  0.00     0.091 A 
ATOM     95  F   UNL     1      15.587   3.994  10.293  1.00  0.00    -0.205 F 
ATOM     96  C   UNL     1      16.846   6.604   8.057  1.00  0.00     0.022 A 
BRANCH  94  97
ATOM     97  S   UNL     1      17.614   6.285  10.668  1.00  0.00     0.127 S 
ATOM     98  O   UNL     1      18.946   5.790  10.325  1.00  0.00    -0.237 OA
ATOM     99  O   UNL     1      17.489   7.744  10.674  1.00  0.00    -0.237 OA
ATOM    100  O   UNL     1      16.967   5.622  11.792  1.00  0.00    -0.744 OA
ENDBRANCH  94  97
ENDBRANCH  67  90
ENDBRANCH  41  42
ENDBRANCH  33  36
ENDBRANCH  31  32
ENDBRANCH  30  31
ENDBRANCH  29  30
ENDBRANCH   1  29
TORSDOF 21
