REMARK SMILES CCOCCC[N@@H+]1[C@@H](C(=O)NCCCCCCNC(=O)c2ccc(-c3c4nc(c(-c5cccc(S(=O)(=O)[O-])c5F)c5ccc([nH]5)c(-c5cccc(S(=O)(=O)[O-])c5F)c5nc(c(-c6cccc(S(=O)(=O)[O-])c6F)c6ccc3[nH]6)C=C5)C=C4)cc2)CC[C@H]2CCCC[C@H]21
REMARK SMILES IDX 13 1 12 2 11 3 9 4 10 5 8 7 7 8 91 9 84 11 86 12 90 13 85 14
REMARK SMILES IDX 87 15 89 16 88 17 6 18 5 19 4 20 3 21 2 22 1 23 14 24 15 25
REMARK SMILES IDX 16 26 17 27 18 28 19 29 20 31 21 32 22 33 83 34 23 35 82 36
REMARK SMILES IDX 24 37 25 38 26 39 76 40 27 41 81 42 75 43 77 44 28 45 80 46
REMARK SMILES IDX 74 47 73 48 29 50 61 51 41 52 60 53 42 54 45 55 59 56 78 57
REMARK SMILES IDX 43 58 44 59 58 61 79 62 46 63 30 64 31 65 39 66 32 67 34 68
REMARK SMILES IDX 40 69 33 70 35 71 36 72 37 73 38 74 62 75 63 76 71 77 64 78
REMARK SMILES IDX 66 79 72 80 65 81 67 82 68 83 69 84 70 85 47 86 48 87 56 88
REMARK SMILES IDX 49 89 51 90 57 91 50 92 52 93 53 94 54 95 55 96
REMARK H PARENT 11 6 7 10 18 30 77 49 45 60
REMARK Flexibility Score: inf
ROOT
ATOM      1  C   UNL     1       6.907   1.949  -1.573  1.00  0.00     0.021 C 
ENDROOT
BRANCH   1   2
ATOM      2  C   UNL     1       5.760   1.074  -2.075  1.00  0.00     0.116 C 
BRANCH   2   3
ATOM      3  N   UNL     1       5.828  -0.230  -1.451  1.00  0.00    -0.351 N 
ATOM      4  C   UNL     1       5.032  -0.743  -0.471  1.00  0.00     0.278 C 
ATOM      5  O   UNL     1       5.401  -1.783   0.086  1.00  0.00    -0.268 OA
ATOM      6  H   UNL     1       6.543  -0.823  -1.777  1.00  0.00     0.163 HD
BRANCH   4   7
ATOM      7  C   UNL     1       3.702  -0.059  -0.073  1.00  0.00     0.274 C 
ATOM      8  N   UNL     1       2.829   0.136  -1.254  1.00  0.00    -0.322 N 
ATOM      9  C   UNL     1       1.709   1.088  -1.086  1.00  0.00     0.187 C 
ATOM     10  H   UNL     1       3.462   0.629  -1.884  1.00  0.00     0.349 HD
ATOM     11  C   UNL     1       3.993   1.181   0.782  1.00  0.00     0.076 C 
ATOM     12  C   UNL     1       2.046   2.368  -0.283  1.00  0.00     0.048 C 
ATOM     13  C   UNL     1       1.060   1.547  -2.412  1.00  0.00     0.065 C 
ATOM     14  C   UNL     1       2.737   2.002   1.033  1.00  0.00     0.016 C 
ATOM     15  C   UNL     1       2.838   3.439  -1.059  1.00  0.00     0.010 C 
ATOM     16  C   UNL     1       2.020   2.369  -3.255  1.00  0.00     0.006 C 
ATOM     17  C   UNL     1       2.458   3.631  -2.527  1.00  0.00     0.001 C 
BRANCH   8  18
ATOM     18  C   UNL     1       2.472  -1.094  -2.002  1.00  0.00     0.265 C 
BRANCH  18  19
ATOM     19  C   UNL     1       2.579  -2.534  -1.450  1.00  0.00     0.090 C 
BRANCH  19  20
ATOM     20  C   UNL     1       1.853  -2.944  -0.167  1.00  0.00     0.166 C 
BRANCH  20  21
ATOM     21  O   UNL     1       0.439  -3.071  -0.272  1.00  0.00    -0.382 OA
BRANCH  21  22
ATOM     22  C   UNL     1      -0.326  -1.877  -0.175  1.00  0.00     0.156 C 
ATOM     23  C   UNL     1      -0.176  -1.135   1.145  1.00  0.00     0.035 C 
ENDBRANCH  21  22
ENDBRANCH  20  21
ENDBRANCH  19  20
ENDBRANCH  18  19
ENDBRANCH   8  18
ENDBRANCH   4   7
ENDBRANCH   2   3
ENDBRANCH   1   2
BRANCH   1  24
ATOM     24  C   UNL     1       8.271   1.524  -2.127  1.00  0.00     0.002 C 
BRANCH  24  25
ATOM     25  C   UNL     1       8.363   1.548  -3.656  1.00  0.00     0.002 C 
BRANCH  25  26
ATOM     26  C   UNL     1       7.978   2.885  -4.293  1.00  0.00     0.021 C 
BRANCH  26  27
ATOM     27  C   UNL     1       8.793   4.072  -3.792  1.00  0.00     0.116 C 
BRANCH  27  28
ATOM     28  N   UNL     1      10.213   3.899  -4.064  1.00  0.00    -0.352 N 
ATOM     29  C   UNL     1      11.066   4.729  -4.740  1.00  0.00     0.251 C 
ATOM     30  H   UNL     1      10.615   3.071  -3.713  1.00  0.00     0.163 HD
ATOM     31  O   UNL     1      12.179   4.328  -5.082  1.00  0.00    -0.269 OA
BRANCH  29  32
ATOM     32  C   UNL     1      10.638   6.103  -5.065  1.00  0.00     0.039 A 
ATOM     33  C   UNL     1      10.853   6.594  -6.354  1.00  0.00     0.014 A 
ATOM     34  C   UNL     1      10.013   6.897  -4.098  1.00  0.00     0.014 A 
ATOM     35  C   UNL     1      10.390   7.867  -6.690  1.00  0.00     0.010 A 
ATOM     36  C   UNL     1       9.487   8.134  -4.457  1.00  0.00     0.010 A 
ATOM     37  C   UNL     1       9.675   8.633  -5.754  1.00  0.00    -0.014 A 
BRANCH  37  38
ATOM     38  C   UNL     1       9.086   9.943  -6.128  1.00  0.00     0.031 A 
ATOM     39  C   UNL     1       9.530  11.205  -5.444  1.00  0.00     0.074 A 
ATOM     40  C   UNL     1       8.079   9.979  -7.023  1.00  0.00     0.049 A 
ATOM     41  N   UNL     1       9.101  12.428  -5.615  1.00  0.00    -0.248 NA
ATOM     42  C   UNL     1      10.573  11.074  -4.413  1.00  0.00     0.031 C 
ATOM     43  C   UNL     1       7.496   8.809  -7.685  1.00  0.00     0.029 A 
ATOM     44  N   UNL     1       7.346  11.034  -7.506  1.00  0.00    -0.354 N 
ATOM     45  C   UNL     1       9.789  13.205  -4.691  1.00  0.00     0.074 A 
ATOM     46  C   UNL     1      10.643  12.310  -3.941  1.00  0.00     0.031 C 
ATOM     47  C   UNL     1       6.498   9.210  -8.487  1.00  0.00     0.029 A 
ATOM     48  C   UNL     1       6.347  10.658  -8.372  1.00  0.00     0.049 A 
ATOM     49  H   UNL     1       7.519  11.970  -7.256  1.00  0.00     0.167 HD
ATOM     50  C   UNL     1       9.732  14.545  -4.501  1.00  0.00     0.034 A 
ATOM     51  C   UNL     1       5.405  11.391  -8.995  1.00  0.00     0.034 A 
ATOM     52  C   UNL     1       8.905  15.433  -5.273  1.00  0.00     0.049 A 
ATOM     53  C   UNL     1       5.392  12.882  -8.802  1.00  0.00     0.074 A 
ATOM     54  C   UNL     1       8.859  16.815  -5.236  1.00  0.00     0.029 A 
ATOM     55  N   UNL     1       7.961  15.027  -6.205  1.00  0.00    -0.354 N 
ATOM     56  N   UNL     1       6.178  13.623  -8.059  1.00  0.00    -0.248 NA
ATOM     57  C   UNL     1       4.386  13.641  -9.557  1.00  0.00     0.031 C 
ATOM     58  C   UNL     1       7.859  17.243  -6.116  1.00  0.00     0.029 A 
ATOM     59  C   UNL     1       7.309  16.130  -6.731  1.00  0.00     0.049 A 
ATOM     60  H   UNL     1       7.782  14.092  -6.456  1.00  0.00     0.167 HD
ATOM     61  C   UNL     1       5.779  14.937  -8.274  1.00  0.00     0.074 A 
ATOM     62  C   UNL     1       4.699  14.891  -9.239  1.00  0.00     0.031 C 
ATOM     63  C   UNL     1       6.255  16.076  -7.713  1.00  0.00     0.034 A 
BRANCH  50  64
ATOM     64  C   UNL     1      10.617  15.137  -3.434  1.00  0.00     0.023 A 
ATOM     65  C   UNL     1      12.015  15.167  -3.620  1.00  0.00     0.012 A 
ATOM     66  C   UNL     1      10.064  15.705  -2.270  1.00  0.00     0.148 A 
ATOM     67  C   UNL     1      12.851  15.713  -2.646  1.00  0.00     0.002 A 
ATOM     68  C   UNL     1      10.900  16.291  -1.326  1.00  0.00     0.091 A 
ATOM     69  F   UNL     1       8.736  15.649  -2.099  1.00  0.00    -0.205 F 
ATOM     70  C   UNL     1      12.293  16.283  -1.505  1.00  0.00     0.022 A 
BRANCH  68  71
ATOM     71  S   UNL     1      10.272  17.124   0.136  1.00  0.00     0.127 S 
ATOM     72  O   UNL     1      10.638  16.182   1.192  1.00  0.00    -0.237 OA
ATOM     73  O   UNL     1      11.042  18.369   0.136  1.00  0.00    -0.237 OA
ATOM     74  O   UNL     1       8.843  17.296  -0.083  1.00  0.00    -0.744 OA
ENDBRANCH  68  71
ENDBRANCH  50  64
BRANCH  51  75
ATOM     75  C   UNL     1       4.431  10.719  -9.899  1.00  0.00     0.023 A 
ATOM     76  C   UNL     1       4.529  10.906 -11.291  1.00  0.00     0.012 A 
ATOM     77  C   UNL     1       3.446   9.850  -9.389  1.00  0.00     0.148 A 
ATOM     78  C   UNL     1       3.649  10.258 -12.158  1.00  0.00     0.002 A 
ATOM     79  C   UNL     1       2.611   9.163 -10.261  1.00  0.00     0.091 A 
ATOM     80  F   UNL     1       3.367   9.693  -8.060  1.00  0.00    -0.205 F 
ATOM     81  C   UNL     1       2.699   9.378 -11.645  1.00  0.00     0.022 A 
BRANCH  79  82
ATOM     82  S   UNL     1       1.455   7.908  -9.701  1.00  0.00     0.127 S 
ATOM     83  O   UNL     1       0.168   8.532  -9.996  1.00  0.00    -0.237 OA
ATOM     84  O   UNL     1       1.803   6.776 -10.560  1.00  0.00    -0.237 OA
ATOM     85  O   UNL     1       1.746   7.702  -8.288  1.00  0.00    -0.744 OA
ENDBRANCH  79  82
ENDBRANCH  51  75
BRANCH  63  86
ATOM     86  C   UNL     1       5.624  17.378  -8.136  1.00  0.00     0.023 A 
ATOM     87  C   UNL     1       4.317  17.693  -7.714  1.00  0.00     0.012 A 
ATOM     88  C   UNL     1       6.351  18.317  -8.895  1.00  0.00     0.148 A 
ATOM     89  C   UNL     1       3.731  18.907  -8.069  1.00  0.00     0.002 A 
ATOM     90  C   UNL     1       5.779  19.547  -9.200  1.00  0.00     0.091 A 
ATOM     91  F   UNL     1       7.586  17.992  -9.302  1.00  0.00    -0.205 F 
ATOM     92  C   UNL     1       4.465  19.838  -8.800  1.00  0.00     0.022 A 
BRANCH  90  93
ATOM     93  S   UNL     1       6.681  20.844 -10.055  1.00  0.00     0.127 S 
ATOM     94  O   UNL     1       6.019  20.859 -11.358  1.00  0.00    -0.237 OA
ATOM     95  O   UNL     1       6.408  22.013  -9.218  1.00  0.00    -0.237 OA
ATOM     96  O   UNL     1       8.075  20.423 -10.068  1.00  0.00    -0.744 OA
ENDBRANCH  90  93
ENDBRANCH  63  86
ENDBRANCH  37  38
ENDBRANCH  29  32
ENDBRANCH  27  28
ENDBRANCH  26  27
ENDBRANCH  25  26
ENDBRANCH  24  25
ENDBRANCH   1  24
TORSDOF 21
