REMARK SMILES O=C(CCC(=O)Nc1ccc2nc(-c3ccccc3)oc2c1)NCCCCCCNC(=O)c1ccc(-c2c3nc(c(-c4cccc(S(=O)(=O)[O-])c4F)c4ccc([nH]4)c(-c4cccc(S(=O)(=O)[O-])c4F)c4nc(c(-c5cccc(S(=O)(=O)[O-])c5F)c5ccc2[nH]5)C=C4)C=C3)cc1
REMARK SMILES IDX 26 1 25 2 24 3 23 4 1 5 2 6 3 8 4 9 5 10 6 11 7 12 8 14 9 15
REMARK SMILES IDX 22 16 10 17 21 18 11 19 20 20 12 21 13 22 14 23 15 24 19 25
REMARK SMILES IDX 16 26 18 27 17 28 27 29 28 30 29 31 30 32 31 33 32 35 33 36
REMARK SMILES IDX 34 37 95 38 35 39 94 40 36 41 37 42 38 43 88 44 39 45 93 46
REMARK SMILES IDX 87 47 89 48 40 49 92 50 86 51 85 52 41 54 73 55 53 56 72 57
REMARK SMILES IDX 54 58 57 59 71 60 90 61 55 62 56 63 70 65 91 66 58 67 42 68
REMARK SMILES IDX 43 69 51 70 44 71 46 72 52 73 45 74 47 75 48 76 49 77 50 78
REMARK SMILES IDX 74 79 75 80 83 81 76 82 78 83 84 84 77 85 79 86 80 87 81 88
REMARK SMILES IDX 82 89 59 90 60 91 68 92 61 93 63 94 69 95 62 96 64 97 65 98
REMARK SMILES IDX 66 99 67 100
REMARK H PARENT 23 7 7 13 30 34 89 53 57 64
REMARK Flexibility Score: inf
ROOT
ATOM      1  C   UNL     1       4.597   4.019  -0.081  1.00  0.00     0.002 C 
ENDROOT
BRANCH   1   2
ATOM      2  C   UNL     1       3.205   3.799   0.522  1.00  0.00     0.021 C 
BRANCH   2   3
ATOM      3  C   UNL     1       2.583   2.438   0.230  1.00  0.00     0.116 C 
BRANCH   3   4
ATOM      4  N   UNL     1       3.437   1.325   0.609  1.00  0.00    -0.356 N 
ATOM      5  O   UNL     1       1.815   0.062   1.644  1.00  0.00    -0.275 OA
ATOM      6  C   UNL     1       2.949   0.180   1.192  1.00  0.00     0.220 C 
ATOM      7  H   UNL     1       4.404   1.394   0.441  1.00  0.00     0.163 HD
BRANCH   6   8
ATOM      8  C   UNL     1       3.919  -0.985   1.184  1.00  0.00     0.110 C 
BRANCH   8   9
ATOM      9  C   UNL     1       4.099  -1.670  -0.172  1.00  0.00     0.110 C 
BRANCH   9  10
ATOM     10  C   UNL     1       4.601  -0.761  -1.270  1.00  0.00     0.224 C 
ATOM     11  O   UNL     1       5.805  -0.475  -1.295  1.00  0.00    -0.275 OA
ATOM     12  N   UNL     1       3.811  -0.202  -2.230  1.00  0.00    -0.326 N 
ATOM     13  H   UNL     1       4.326   0.143  -2.995  1.00  0.00     0.169 HD
BRANCH  12  14
ATOM     14  C   UNL     1       2.420  -0.005  -2.374  1.00  0.00     0.045 A 
ATOM     15  C   UNL     1       1.463  -0.475  -1.468  1.00  0.00     0.028 A 
ATOM     16  C   UNL     1       2.015   0.838  -3.433  1.00  0.00     0.075 A 
ATOM     17  C   UNL     1       0.144  -0.008  -1.461  1.00  0.00     0.034 A 
ATOM     18  C   UNL     1       0.679   1.241  -3.428  1.00  0.00     0.157 A 
ATOM     19  C   UNL     1      -0.234   0.885  -2.452  1.00  0.00     0.110 A 
ATOM     20  O   UNL     1       0.017   2.025  -4.337  1.00  0.00    -0.436 OA
ATOM     21  N   UNL     1      -1.428   1.492  -2.665  1.00  0.00    -0.209 NA
ATOM     22  C   UNL     1      -1.254   2.107  -3.817  1.00  0.00     0.227 A 
BRANCH  22  23
ATOM     23  C   UNL     1      -2.306   2.659  -4.646  1.00  0.00     0.037 A 
ATOM     24  C   UNL     1      -3.156   3.646  -4.131  1.00  0.00     0.014 A 
ATOM     25  C   UNL     1      -2.618   2.045  -5.865  1.00  0.00     0.014 A 
ATOM     26  C   UNL     1      -4.319   3.996  -4.817  1.00  0.00     0.001 A 
ATOM     27  C   UNL     1      -3.790   2.385  -6.540  1.00  0.00     0.001 A 
ATOM     28  C   UNL     1      -4.643   3.353  -6.011  1.00  0.00     0.000 A 
ENDBRANCH  22  23
ENDBRANCH  12  14
ENDBRANCH   9  10
ENDBRANCH   8   9
ENDBRANCH   6   8
ENDBRANCH   3   4
ENDBRANCH   2   3
ENDBRANCH   1   2
BRANCH   1  29
ATOM     29  C   UNL     1       4.682   3.960  -1.610  1.00  0.00     0.002 C 
BRANCH  29  30
ATOM     30  C   UNL     1       3.881   5.023  -2.365  1.00  0.00     0.021 C 
BRANCH  30  31
ATOM     31  C   UNL     1       4.078   6.463  -1.895  1.00  0.00     0.116 C 
BRANCH  31  32
ATOM     32  N   UNL     1       5.473   6.878  -1.886  1.00  0.00    -0.352 N 
ATOM     33  C   UNL     1       6.037   8.059  -2.302  1.00  0.00     0.251 C 
ATOM     34  H   UNL     1       6.106   6.214  -1.529  1.00  0.00     0.163 HD
ATOM     35  O   UNL     1       7.261   8.183  -2.308  1.00  0.00    -0.269 OA
BRANCH  33  36
ATOM     36  C   UNL     1       5.181   9.167  -2.778  1.00  0.00     0.039 A 
ATOM     37  C   UNL     1       5.534   9.828  -3.957  1.00  0.00     0.014 A 
ATOM     38  C   UNL     1       4.031   9.545  -2.080  1.00  0.00     0.014 A 
ATOM     39  C   UNL     1       4.694  10.815  -4.477  1.00  0.00     0.010 A 
ATOM     40  C   UNL     1       3.158  10.477  -2.638  1.00  0.00     0.010 A 
ATOM     41  C   UNL     1       3.476  11.116  -3.845  1.00  0.00    -0.014 A 
BRANCH  41  42
ATOM     42  C   UNL     1       2.504  12.055  -4.465  1.00  0.00     0.031 A 
ATOM     43  C   UNL     1       2.105  13.323  -3.766  1.00  0.00     0.074 A 
ATOM     44  C   UNL     1       1.908  11.712  -5.624  1.00  0.00     0.049 A 
ATOM     45  N   UNL     1       1.237  14.230  -4.136  1.00  0.00    -0.248 NA
ATOM     46  C   UNL     1       2.743  13.598  -2.469  1.00  0.00     0.031 C 
ATOM     47  C   UNL     1       2.141  10.465  -6.356  1.00  0.00     0.029 A 
ATOM     48  N   UNL     1       0.959  12.364  -6.373  1.00  0.00    -0.354 N 
ATOM     49  C   UNL     1       1.204  15.167  -3.110  1.00  0.00     0.074 A 
ATOM     50  C   UNL     1       2.110  14.696  -2.084  1.00  0.00     0.031 C 
ATOM     51  C   UNL     1       1.357  10.440  -7.444  1.00  0.00     0.029 A 
ATOM     52  C   UNL     1       0.539  11.649  -7.470  1.00  0.00     0.049 A 
ATOM     53  H   UNL     1       0.613  13.257  -6.146  1.00  0.00     0.167 HD
ATOM     54  C   UNL     1       0.506  16.326  -3.039  1.00  0.00     0.034 A 
ATOM     55  C   UNL     1      -0.411  11.921  -8.385  1.00  0.00     0.034 A 
ATOM     56  C   UNL     1      -0.383  16.797  -4.069  1.00  0.00     0.049 A 
ATOM     57  C   UNL     1      -1.161  13.220  -8.299  1.00  0.00     0.074 A 
ATOM     58  C   UNL     1      -1.070  17.996  -4.131  1.00  0.00     0.029 A 
ATOM     59  N   UNL     1      -0.729  16.081  -5.206  1.00  0.00    -0.354 N 
ATOM     60  N   UNL     1      -1.054  14.175  -7.407  1.00  0.00    -0.248 NA
ATOM     61  C   UNL     1      -2.137  13.497  -9.362  1.00  0.00     0.031 C 
ATOM     62  C   UNL     1      -1.860  17.990  -5.286  1.00  0.00     0.029 A 
ATOM     63  C   UNL     1      -1.636  16.803  -5.965  1.00  0.00     0.049 A 
ATOM     64  H   UNL     1      -0.380  15.191  -5.439  1.00  0.00     0.167 HD
ATOM     65  C   UNL     1      -1.932  15.175  -7.811  1.00  0.00     0.074 A 
ATOM     66  C   UNL     1      -2.541  14.720  -9.045  1.00  0.00     0.031 C 
ATOM     67  C   UNL     1      -2.217  16.355  -7.206  1.00  0.00     0.034 A 
BRANCH  54  68
ATOM     68  C   UNL     1       0.711  17.184  -1.815  1.00  0.00     0.023 A 
ATOM     69  C   UNL     1       1.953  17.820  -1.609  1.00  0.00     0.012 A 
ATOM     70  C   UNL     1      -0.328  17.388  -0.885  1.00  0.00     0.148 A 
ATOM     71  C   UNL     1       2.177  18.599  -0.475  1.00  0.00     0.002 A 
ATOM     72  C   UNL     1      -0.113  18.207   0.218  1.00  0.00     0.091 A 
ATOM     73  F   UNL     1      -1.497  16.763  -1.084  1.00  0.00    -0.205 F 
ATOM     74  C   UNL     1       1.142  18.799   0.433  1.00  0.00     0.022 A 
BRANCH  72  75
ATOM     75  S   UNL     1      -1.408  18.593   1.402  1.00  0.00     0.127 S 
ATOM     76  O   UNL     1      -0.983  17.817   2.567  1.00  0.00    -0.237 OA
ATOM     77  O   UNL     1      -1.266  20.042   1.552  1.00  0.00    -0.237 OA
ATOM     78  O   UNL     1      -2.655  18.168   0.785  1.00  0.00    -0.744 OA
ENDBRANCH  72  75
ENDBRANCH  54  68
BRANCH  55  79
ATOM     79  C   UNL     1      -0.671  10.947  -9.482  1.00  0.00     0.023 A 
ATOM     80  C   UNL     1      -0.278  11.256 -10.798  1.00  0.00     0.012 A 
ATOM     81  C   UNL     1      -1.252   9.692  -9.213  1.00  0.00     0.148 A 
ATOM     82  C   UNL     1      -0.477  10.339 -11.832  1.00  0.00     0.002 A 
ATOM     83  C   UNL     1      -1.393   8.762 -10.236  1.00  0.00     0.091 A 
ATOM     84  F   UNL     1      -1.625   9.424  -7.954  1.00  0.00    -0.205 F 
ATOM     85  C   UNL     1      -1.022   9.089 -11.549  1.00  0.00     0.022 A 
BRANCH  83  86
ATOM     86  S   UNL     1      -1.952   7.081  -9.940  1.00  0.00     0.127 S 
ATOM     87  O   UNL     1      -3.225   7.058 -10.656  1.00  0.00    -0.237 OA
ATOM     88  O   UNL     1      -0.882   6.297 -10.558  1.00  0.00    -0.237 OA
ATOM     89  O   UNL     1      -2.042   6.943  -8.493  1.00  0.00    -0.744 OA
ENDBRANCH  83  86
ENDBRANCH  55  79
BRANCH  67  90
ATOM     90  C   UNL     1      -3.227  17.254  -7.874  1.00  0.00     0.023 A 
ATOM     91  C   UNL     1      -4.591  16.900  -7.873  1.00  0.00     0.012 A 
ATOM     92  C   UNL     1      -2.833  18.481  -8.444  1.00  0.00     0.148 A 
ATOM     93  C   UNL     1      -5.542  17.737  -8.458  1.00  0.00     0.002 A 
ATOM     94  C   UNL     1      -3.792  19.333  -8.979  1.00  0.00     0.091 A 
ATOM     95  F   UNL     1      -1.528  18.793  -8.451  1.00  0.00    -0.205 F 
ATOM     96  C   UNL     1      -5.144  18.957  -8.999  1.00  0.00     0.022 A 
BRANCH  94  97
ATOM     97  S   UNL     1      -3.390  20.965  -9.614  1.00  0.00     0.127 S 
ATOM     98  O   UNL     1      -3.619  20.791 -11.048  1.00  0.00    -0.237 OA
ATOM     99  O   UNL     1      -4.373  21.810  -8.937  1.00  0.00    -0.237 OA
ATOM    100  O   UNL     1      -2.007  21.218  -9.232  1.00  0.00    -0.744 OA
ENDBRANCH  94  97
ENDBRANCH  67  90
ENDBRANCH  41  42
ENDBRANCH  33  36
ENDBRANCH  31  32
ENDBRANCH  30  31
ENDBRANCH  29  30
ENDBRANCH   1  29
TORSDOF 20
