REMARK SMILES Cc1cc2n(n1)[C@H](C(F)(F)F)CCN2C(=O)c1cnn([C@@H](C)C(=O)NCCCCCCNC(=O)c2ccc(-c3c4nc(c(-c5cccc(S(=O)(=O)[O-])c5F)c5ccc([nH]5)c(-c5cccc(S(=O)(=O)[O-])c5F)c5nc(c(-c6cccc(S(=O)(=O)[O-])c6F)c6ccc3[nH]6)C=C5)C=C4)cc2)c1
REMARK SMILES IDX 28 1 27 2 26 3 25 4 23 5 24 6 21 8 22 9 20 10 17 11 18 12
REMARK SMILES IDX 98 13 19 14 15 15 16 16 14 17 1 18 2 19 3 20 6 21 4 22 5 23
REMARK SMILES IDX 7 24 13 25 12 26 8 27 9 28 10 29 11 30 29 31 30 32 31 33
REMARK SMILES IDX 32 34 33 35 34 37 35 38 36 39 97 40 37 41 96 42 38 43 39 44
REMARK SMILES IDX 40 45 90 46 41 47 95 48 89 49 91 50 42 51 94 52 88 53 87 54
REMARK SMILES IDX 43 56 75 57 55 58 74 59 56 60 59 61 73 62 92 63 57 64 58 65
REMARK SMILES IDX 72 67 93 68 60 69 44 70 45 71 53 72 46 73 48 74 54 75 47 76
REMARK SMILES IDX 49 77 50 78 51 79 52 80 76 81 77 82 85 83 78 84 80 85 86 86
REMARK SMILES IDX 79 87 81 88 82 89 83 90 84 91 61 92 62 93 70 94 63 95 65 96
REMARK SMILES IDX 71 97 64 98 66 99 67 100 68 101 69 102
REMARK H PARENT 25 7 32 36 91 55 59 66
REMARK Flexibility Score: inf
ROOT
ATOM      1  C   UNL     1      -8.666   6.648   4.686  1.00  0.00     0.002 C 
ENDROOT
BRANCH   1   2
ATOM      2  C   UNL     1      -7.136   6.617   4.711  1.00  0.00     0.021 C 
BRANCH   2   3
ATOM      3  C   UNL     1      -6.527   6.939   6.076  1.00  0.00     0.116 C 
BRANCH   3   4
ATOM      4  N   UNL     1      -6.649   5.824   6.998  1.00  0.00    -0.354 N 
ATOM      5  C   UNL     1      -5.703   4.979   7.492  1.00  0.00     0.244 C 
ATOM      6  O   UNL     1      -6.107   4.048   8.201  1.00  0.00    -0.273 OA
ATOM      7  H   UNL     1      -7.564   5.650   7.316  1.00  0.00     0.163 HD
BRANCH   5   8
ATOM      8  C   UNL     1      -4.204   5.176   7.285  1.00  0.00     0.193 C 
ATOM      9  C   UNL     1      -3.671   6.483   7.867  1.00  0.00     0.044 C 
BRANCH   8  10
ATOM     10  N   UNL     1      -3.772   4.882   5.923  1.00  0.00    -0.260 N 
ATOM     11  C   UNL     1      -2.847   3.930   4.150  1.00  0.00     0.078 A 
ATOM     12  C   UNL     1      -3.681   5.012   3.816  1.00  0.00     0.149 A 
ATOM     13  C   UNL     1      -2.974   3.845   5.530  1.00  0.00     0.123 A 
ATOM     14  N   UNL     1      -4.099   5.680   4.893  1.00  0.00    -0.180 NA
BRANCH  11  15
ATOM     15  C   UNL     1      -2.080   3.001   3.338  1.00  0.00     0.262 C 
ATOM     16  O   UNL     1      -1.996   1.823   3.630  1.00  0.00    -0.269 OA
BRANCH  15  17
ATOM     17  N   UNL     1      -1.175   3.635   2.377  1.00  0.00    -0.293 N 
ATOM     18  C   UNL     1       1.119  -0.107  -0.034  1.00  0.00     0.069 C 
ATOM     19  C   UNL     1       0.707   1.202   0.516  1.00  0.00     0.062 A 
ATOM     20  C   UNL     1      -0.332   1.458   1.439  1.00  0.00     0.072 A 
ATOM     21  N   UNL     1       1.330   2.327   0.144  1.00  0.00    -0.176 NA
ATOM     22  C   UNL     1      -0.358   2.824   1.589  1.00  0.00     0.134 A 
ATOM     23  N   UNL     1       0.604   3.291   0.739  1.00  0.00    -0.237 N 
ATOM     24  C   UNL     1       0.907   4.685   0.522  1.00  0.00     0.216 C 
ATOM     25  C   UNL     1      -1.042   5.097   2.255  1.00  0.00     0.130 C 
ATOM     26  C   UNL     1      -0.128   5.624   1.152  1.00  0.00     0.059 C 
BRANCH  24  27
ATOM     27  C   UNL     1       2.302   4.992   1.024  1.00  0.00     0.410 C 
ATOM     28  F   UNL     1       2.430   4.701   2.343  1.00  0.00    -0.169 F 
ATOM     29  F   UNL     1       3.281   4.340   0.361  1.00  0.00    -0.169 F 
ATOM     30  F   UNL     1       2.582   6.314   0.903  1.00  0.00    -0.169 F 
ENDBRANCH  24  27
ENDBRANCH  15  17
ENDBRANCH  11  15
ENDBRANCH   8  10
ENDBRANCH   5   8
ENDBRANCH   3   4
ENDBRANCH   2   3
ENDBRANCH   1   2
BRANCH   1  31
ATOM     31  C   UNL     1      -9.312   7.928   5.237  1.00  0.00     0.002 C 
BRANCH  31  32
ATOM     32  C   UNL     1      -8.780   9.255   4.673  1.00  0.00     0.021 C 
BRANCH  32  33
ATOM     33  C   UNL     1      -9.113   9.465   3.205  1.00  0.00     0.116 C 
BRANCH  33  34
ATOM     34  N   UNL     1     -10.552   9.626   2.990  1.00  0.00    -0.352 N 
ATOM     35  C   UNL     1     -11.223   9.755   1.792  1.00  0.00     0.251 C 
ATOM     36  H   UNL     1     -11.110   9.645   3.801  1.00  0.00     0.163 HD
ATOM     37  O   UNL     1     -12.351  10.230   1.743  1.00  0.00    -0.269 OA
BRANCH  35  38
ATOM     38  C   UNL     1     -10.550   9.289   0.572  1.00  0.00     0.039 A 
ATOM     39  C   UNL     1     -10.563  10.038  -0.608  1.00  0.00     0.014 A 
ATOM     40  C   UNL     1      -9.849   8.089   0.658  1.00  0.00     0.014 A 
ATOM     41  C   UNL     1      -9.798   9.597  -1.683  1.00  0.00     0.010 A 
ATOM     42  C   UNL     1      -8.964   7.756  -0.329  1.00  0.00     0.010 A 
ATOM     43  C   UNL     1      -8.991   8.460  -1.526  1.00  0.00    -0.014 A 
BRANCH  43  44
ATOM     44  C   UNL     1      -8.087   8.027  -2.580  1.00  0.00     0.031 A 
ATOM     45  C   UNL     1      -7.063   9.034  -2.966  1.00  0.00     0.074 A 
ATOM     46  C   UNL     1      -8.033   6.737  -2.978  1.00  0.00     0.049 A 
ATOM     47  N   UNL     1      -6.959   9.673  -4.084  1.00  0.00    -0.248 NA
ATOM     48  C   UNL     1      -6.131   9.501  -1.927  1.00  0.00     0.031 C 
ATOM     49  C   UNL     1      -8.741   5.584  -2.397  1.00  0.00     0.029 A 
ATOM     50  N   UNL     1      -7.210   6.150  -3.886  1.00  0.00    -0.354 N 
ATOM     51  C   UNL     1      -5.795  10.433  -3.972  1.00  0.00     0.074 A 
ATOM     52  C   UNL     1      -5.473  10.466  -2.572  1.00  0.00     0.031 C 
ATOM     53  C   UNL     1      -8.127   4.442  -2.771  1.00  0.00     0.029 A 
ATOM     54  C   UNL     1      -7.123   4.768  -3.762  1.00  0.00     0.049 A 
ATOM     55  H   UNL     1      -6.720   6.659  -4.572  1.00  0.00     0.167 HD
ATOM     56  C   UNL     1      -5.038  10.726  -5.066  1.00  0.00     0.034 A 
ATOM     57  C   UNL     1      -6.246   3.952  -4.393  1.00  0.00     0.034 A 
ATOM     58  C   UNL     1      -5.768  10.463  -6.282  1.00  0.00     0.049 A 
ATOM     59  C   UNL     1      -5.726   4.691  -5.561  1.00  0.00     0.074 A 
ATOM     60  C   UNL     1      -6.934  10.926  -6.855  1.00  0.00     0.029 A 
ATOM     61  N   UNL     1      -5.475   9.279  -6.913  1.00  0.00    -0.354 N 
ATOM     62  N   UNL     1      -6.470   5.057  -6.567  1.00  0.00    -0.248 NA
ATOM     63  C   UNL     1      -4.467   5.400  -5.420  1.00  0.00     0.031 C 
ATOM     64  C   UNL     1      -7.517   9.783  -7.480  1.00  0.00     0.029 A 
ATOM     65  C   UNL     1      -6.648   8.701  -7.315  1.00  0.00     0.049 A 
ATOM     66  H   UNL     1      -4.574   8.908  -7.052  1.00  0.00     0.167 HD
ATOM     67  C   UNL     1      -6.005   6.323  -6.893  1.00  0.00     0.074 A 
ATOM     68  C   UNL     1      -4.696   6.420  -6.252  1.00  0.00     0.031 C 
ATOM     69  C   UNL     1      -6.852   7.269  -7.395  1.00  0.00     0.034 A 
BRANCH  56  70
ATOM     70  C   UNL     1      -3.524  10.846  -5.080  1.00  0.00     0.023 A 
ATOM     71  C   UNL     1      -2.924  11.237  -6.300  1.00  0.00     0.012 A 
ATOM     72  C   UNL     1      -2.658  10.333  -4.085  1.00  0.00     0.148 A 
ATOM     73  C   UNL     1      -1.555  11.066  -6.539  1.00  0.00     0.002 A 
ATOM     74  C   UNL     1      -1.286  10.230  -4.299  1.00  0.00     0.091 A 
ATOM     75  F   UNL     1      -3.154   9.813  -2.962  1.00  0.00    -0.205 F 
ATOM     76  C   UNL     1      -0.734  10.566  -5.536  1.00  0.00     0.022 A 
BRANCH  74  77
ATOM     77  S   UNL     1      -0.177   9.618  -3.019  1.00  0.00     0.127 S 
ATOM     78  O   UNL     1       0.198   8.310  -3.547  1.00  0.00    -0.237 OA
ATOM     79  O   UNL     1       0.884  10.624  -3.035  1.00  0.00    -0.237 OA
ATOM     80  O   UNL     1      -0.956   9.592  -1.785  1.00  0.00    -0.744 OA
ENDBRANCH  74  77
ENDBRANCH  56  70
BRANCH  57  81
ATOM     81  C   UNL     1      -5.592   2.730  -3.879  1.00  0.00     0.023 A 
ATOM     82  C   UNL     1      -5.074   1.778  -4.777  1.00  0.00     0.012 A 
ATOM     83  C   UNL     1      -5.202   2.657  -2.524  1.00  0.00     0.148 A 
ATOM     84  C   UNL     1      -4.176   0.796  -4.341  1.00  0.00     0.002 A 
ATOM     85  C   UNL     1      -4.298   1.691  -2.100  1.00  0.00     0.091 A 
ATOM     86  F   UNL     1      -5.615   3.608  -1.675  1.00  0.00    -0.205 F 
ATOM     87  C   UNL     1      -3.780   0.755  -3.005  1.00  0.00     0.022 A 
BRANCH  85  88
ATOM     88  S   UNL     1      -3.642   1.724  -0.430  1.00  0.00     0.127 S 
ATOM     89  O   UNL     1      -3.432   0.308  -0.131  1.00  0.00    -0.237 OA
ATOM     90  O   UNL     1      -2.424   2.507  -0.609  1.00  0.00    -0.237 OA
ATOM     91  O   UNL     1      -4.657   2.363   0.402  1.00  0.00    -0.744 OA
ENDBRANCH  85  88
ENDBRANCH  57  81
BRANCH  69  92
ATOM     92  C   UNL     1      -8.211   6.815  -7.871  1.00  0.00     0.023 A 
ATOM     93  C   UNL     1      -9.195   6.295  -7.004  1.00  0.00     0.012 A 
ATOM     94  C   UNL     1      -8.553   7.074  -9.207  1.00  0.00     0.148 A 
ATOM     95  C   UNL     1     -10.486   6.023  -7.468  1.00  0.00     0.002 A 
ATOM     96  C   UNL     1      -9.849   6.849  -9.652  1.00  0.00     0.091 A 
ATOM     97  F   UNL     1      -7.604   7.567 -10.017  1.00  0.00    -0.205 F 
ATOM     98  C   UNL     1     -10.818   6.314  -8.789  1.00  0.00     0.022 A 
BRANCH  96  99
ATOM     99  S   UNL     1     -10.363   7.324 -11.303  1.00  0.00     0.127 S 
ATOM    100  O   UNL     1     -10.451   6.032 -11.977  1.00  0.00    -0.237 OA
ATOM    101  O   UNL     1     -11.650   7.976 -11.053  1.00  0.00    -0.237 OA
ATOM    102  O   UNL     1      -9.329   8.224 -11.799  1.00  0.00    -0.744 OA
ENDBRANCH  96  99
ENDBRANCH  69  92
ENDBRANCH  43  44
ENDBRANCH  35  38
ENDBRANCH  33  34
ENDBRANCH  32  33
ENDBRANCH  31  32
ENDBRANCH   1  31
TORSDOF 20
