REMARK SMILES Cc1ccc(S(=O)(=O)n2cc(C(=O)C(=O)NCC(=O)NCC(=O)NCCCCCCNC(=O)c3ccc(-c4c5nc(c(-c6cccc(S(=O)(=O)[O-])c6F)c6ccc([nH]6)c(-c6cccc(S(=O)(=O)[O-])c6F)c6nc(c(-c7cccc(S(=O)(=O)[O-])c7F)c7ccc4[nH]7)C=C6)C=C5)cc3)c3ccccc32)cc1
REMARK SMILES IDX 25 1 24 2 22 3 23 4 21 6 20 7 18 8 19 9 17 11 16 12 14 13
REMARK SMILES IDX 15 14 12 16 13 17 11 18 9 19 10 20 102 21 97 22 101 23 98 24
REMARK SMILES IDX 100 25 99 26 6 27 7 28 8 29 5 30 1 31 2 32 3 33 104 34 4 35
REMARK SMILES IDX 103 36 26 37 27 38 28 39 29 40 30 41 31 42 32 43 33 45 34 46
REMARK SMILES IDX 35 47 96 48 36 49 95 50 37 51 38 52 39 53 89 54 40 55 94 56
REMARK SMILES IDX 88 57 90 58 41 59 93 60 87 61 86 62 42 64 74 65 54 66 73 67
REMARK SMILES IDX 55 68 58 69 72 70 91 71 56 72 57 73 71 75 92 76 59 77 43 78
REMARK SMILES IDX 44 79 52 80 45 81 47 82 53 83 46 84 48 85 49 86 50 87 51 88
REMARK SMILES IDX 75 89 76 90 84 91 77 92 79 93 85 94 78 95 80 96 81 97 82 98
REMARK SMILES IDX 83 99 60 100 61 101 69 102 62 103 64 104 70 105 63 106
REMARK SMILES IDX 65 107 66 108 67 109 68 110
REMARK H PARENT 24 5 20 10 16 15 31 44 90 63 58 74
REMARK Flexibility Score: inf
ROOT
ATOM      1  C   UNL     1      -9.764   3.373   3.562  1.00  0.00     0.116 C 
ENDROOT
BRANCH   1   2
ATOM      2  N   UNL     1     -10.274   2.916   2.292  1.00  0.00    -0.355 N 
ATOM      3  C   UNL     1     -10.106   3.470   1.057  1.00  0.00     0.239 C 
ATOM      4  O   UNL     1     -10.388   2.778   0.074  1.00  0.00    -0.273 OA
ATOM      5  H   UNL     1     -10.815   2.094   2.321  1.00  0.00     0.163 HD
BRANCH   3   6
ATOM      6  C   UNL     1      -9.413   4.833   0.879  1.00  0.00     0.216 C 
BRANCH   6   7
ATOM      7  N   UNL     1      -9.876   5.893   1.758  1.00  0.00    -0.346 N 
ATOM      8  C   UNL     1      -9.202   6.698   2.626  1.00  0.00     0.239 C 
ATOM      9  O   UNL     1      -9.855   7.558   3.222  1.00  0.00    -0.273 OA
ATOM     10  H   UNL     1     -10.846   6.059   1.719  1.00  0.00     0.164 HD
BRANCH   8  11
ATOM     11  C   UNL     1      -7.677   6.615   2.813  1.00  0.00     0.216 C 
BRANCH  11  12
ATOM     12  N   UNL     1      -7.150   5.340   3.306  1.00  0.00    -0.340 N 
ATOM     13  C   UNL     1      -6.316   4.401   2.732  1.00  0.00     0.292 C 
ATOM     14  O   UNL     1      -6.052   3.380   3.358  1.00  0.00    -0.265 OA
ATOM     15  H   UNL     1      -7.446   5.109   4.216  1.00  0.00     0.164 HD
BRANCH  13  16
ATOM     16  C   UNL     1      -5.725   4.627   1.325  1.00  0.00     0.252 C 
ATOM     17  O   UNL     1      -5.829   5.751   0.841  1.00  0.00    -0.283 OA
BRANCH  16  18
ATOM     18  C   UNL     1      -5.054   3.571   0.553  1.00  0.00     0.054 A 
ATOM     19  N   UNL     1      -4.155   1.647  -0.140  1.00  0.00    -0.240 N 
ATOM     20  C   UNL     1      -4.848   2.244   0.886  1.00  0.00     0.117 A 
ATOM     21  C   UNL     1      -3.897   2.541  -1.158  1.00  0.00     0.065 A 
ATOM     22  C   UNL     1      -4.450   3.759  -0.743  1.00  0.00     0.012 A 
ATOM     23  C   UNL     1      -3.209   2.421  -2.380  1.00  0.00     0.028 A 
ATOM     24  C   UNL     1      -4.314   4.881  -1.591  1.00  0.00     0.011 A 
ATOM     25  C   UNL     1      -3.071   3.559  -3.181  1.00  0.00     0.002 A 
ATOM     26  C   UNL     1      -3.620   4.774  -2.796  1.00  0.00     0.001 A 
BRANCH  19  27
ATOM     27  S   UNL     1      -3.588   0.039  -0.102  1.00  0.00     0.268 S 
ATOM     28  O   UNL     1      -3.919  -0.514  -1.398  1.00  0.00    -0.201 OA
ATOM     29  O   UNL     1      -4.095  -0.534   1.134  1.00  0.00    -0.201 OA
BRANCH  27  30
ATOM     30  C   UNL     1      -1.817   0.083   0.025  1.00  0.00     0.088 A 
ATOM     31  C   UNL     1       2.485  -0.045   0.025  1.00  0.00     0.044 C 
ATOM     32  C   UNL     1       0.985   0.004   0.044  1.00  0.00    -0.051 A 
ATOM     33  C   UNL     1       0.246  -1.182  -0.035  1.00  0.00     0.005 A 
ATOM     34  C   UNL     1       0.307   1.225   0.144  1.00  0.00     0.005 A 
ATOM     35  C   UNL     1      -1.149  -1.145  -0.051  1.00  0.00     0.022 A 
ATOM     36  C   UNL     1      -1.091   1.268   0.147  1.00  0.00     0.022 A 
ENDBRANCH  27  30
ENDBRANCH  19  27
ENDBRANCH  16  18
ENDBRANCH  13  16
ENDBRANCH  11  12
ENDBRANCH   8  11
ENDBRANCH   6   7
ENDBRANCH   3   6
ENDBRANCH   1   2
BRANCH   1  37
ATOM     37  C   UNL     1     -10.813   3.427   4.661  1.00  0.00     0.021 C 
BRANCH  37  38
ATOM     38  C   UNL     1     -11.199   2.063   5.231  1.00  0.00     0.002 C 
BRANCH  38  39
ATOM     39  C   UNL     1     -10.031   1.165   5.669  1.00  0.00     0.002 C 
BRANCH  39  40
ATOM     40  C   UNL     1      -8.931   1.835   6.493  1.00  0.00     0.021 C 
BRANCH  40  41
ATOM     41  C   UNL     1      -9.409   2.424   7.804  1.00  0.00     0.116 C 
BRANCH  41  42
ATOM     42  N   UNL     1      -9.464   1.452   8.872  1.00  0.00    -0.352 N 
ATOM     43  C   UNL     1      -9.542   1.658  10.235  1.00  0.00     0.251 C 
ATOM     44  H   UNL     1      -9.441   0.509   8.587  1.00  0.00     0.163 HD
ATOM     45  O   UNL     1      -9.191   0.748  10.980  1.00  0.00    -0.269 OA
BRANCH  43  46
ATOM     46  C   UNL     1     -10.231   2.868  10.766  1.00  0.00     0.039 A 
ATOM     47  C   UNL     1     -11.113   2.642  11.831  1.00  0.00     0.014 A 
ATOM     48  C   UNL     1     -10.351   4.025  10.007  1.00  0.00     0.014 A 
ATOM     49  C   UNL     1     -12.302   3.354  11.889  1.00  0.00     0.010 A 
ATOM     50  C   UNL     1     -11.567   4.651   9.977  1.00  0.00     0.010 A 
ATOM     51  C   UNL     1     -12.568   4.237  10.857  1.00  0.00    -0.014 A 
BRANCH  51  52
ATOM     52  C   UNL     1     -13.838   4.878  10.618  1.00  0.00     0.031 A 
ATOM     53  C   UNL     1     -14.094   6.139  11.329  1.00  0.00     0.074 A 
ATOM     54  C   UNL     1     -14.549   4.448   9.551  1.00  0.00     0.049 A 
ATOM     55  N   UNL     1     -15.249   6.681  11.457  1.00  0.00    -0.248 NA
ATOM     56  C   UNL     1     -13.023   6.888  11.984  1.00  0.00     0.031 C 
ATOM     57  C   UNL     1     -15.550   5.188   8.799  1.00  0.00     0.029 A 
ATOM     58  N   UNL     1     -14.589   3.166   8.983  1.00  0.00    -0.354 N 
ATOM     59  C   UNL     1     -15.037   7.970  11.907  1.00  0.00     0.074 A 
ATOM     60  C   UNL     1     -13.665   8.003  12.343  1.00  0.00     0.031 C 
ATOM     61  C   UNL     1     -16.285   4.318   8.083  1.00  0.00     0.029 A 
ATOM     62  C   UNL     1     -15.908   2.986   8.531  1.00  0.00     0.049 A 
ATOM     63  H   UNL     1     -13.846   2.523   8.915  1.00  0.00     0.167 HD
ATOM     64  C   UNL     1     -15.994   8.908  11.661  1.00  0.00     0.034 A 
ATOM     65  C   UNL     1     -16.773   2.070   9.070  1.00  0.00     0.034 A 
ATOM     66  C   UNL     1     -17.123   8.284  10.953  1.00  0.00     0.049 A 
ATOM     67  C   UNL     1     -17.999   2.728   9.690  1.00  0.00     0.074 A 
ATOM     68  C   UNL     1     -17.427   8.191   9.604  1.00  0.00     0.029 A 
ATOM     69  N   UNL     1     -17.907   7.338  11.601  1.00  0.00    -0.354 N 
ATOM     70  N   UNL     1     -18.093   4.006   9.933  1.00  0.00    -0.248 NA
ATOM     71  C   UNL     1     -19.203   2.006  10.092  1.00  0.00     0.031 C 
ATOM     72  C   UNL     1     -18.349   7.125   9.438  1.00  0.00     0.029 A 
ATOM     73  C   UNL     1     -18.632   6.591  10.684  1.00  0.00     0.049 A 
ATOM     74  H   UNL     1     -17.942   7.214  12.577  1.00  0.00     0.167 HD
ATOM     75  C   UNL     1     -19.256   4.277  10.604  1.00  0.00     0.074 A 
ATOM     76  C   UNL     1     -19.948   2.998  10.612  1.00  0.00     0.031 C 
ATOM     77  C   UNL     1     -19.514   5.516  11.134  1.00  0.00     0.034 A 
BRANCH  64  78
ATOM     78  C   UNL     1     -15.803  10.418  11.718  1.00  0.00     0.023 A 
ATOM     79  C   UNL     1     -16.721  11.196  10.973  1.00  0.00     0.012 A 
ATOM     80  C   UNL     1     -14.792  11.142  12.394  1.00  0.00     0.148 A 
ATOM     81  C   UNL     1     -16.600  12.580  10.824  1.00  0.00     0.002 A 
ATOM     82  C   UNL     1     -14.641  12.524  12.211  1.00  0.00     0.091 A 
ATOM     83  F   UNL     1     -14.006  10.525  13.279  1.00  0.00    -0.205 F 
ATOM     84  C   UNL     1     -15.542  13.243  11.421  1.00  0.00     0.022 A 
BRANCH  82  85
ATOM     85  S   UNL     1     -13.273  13.465  12.917  1.00  0.00     0.127 S 
ATOM     86  O   UNL     1     -12.740  14.162  11.744  1.00  0.00    -0.237 OA
ATOM     87  O   UNL     1     -13.951  14.332  13.879  1.00  0.00    -0.237 OA
ATOM     88  O   UNL     1     -12.359  12.486  13.492  1.00  0.00    -0.744 OA
ENDBRANCH  82  85
ENDBRANCH  64  78
BRANCH  65  89
ATOM     89  C   UNL     1     -16.089   0.856   9.613  1.00  0.00     0.023 A 
ATOM     90  C   UNL     1     -15.372   0.060   8.687  1.00  0.00     0.012 A 
ATOM     91  C   UNL     1     -15.766   0.765  10.978  1.00  0.00     0.148 A 
ATOM     92  C   UNL     1     -14.228  -0.634   9.083  1.00  0.00     0.002 A 
ATOM     93  C   UNL     1     -14.624   0.066  11.365  1.00  0.00     0.091 A 
ATOM     94  F   UNL     1     -16.526   1.420  11.864  1.00  0.00    -0.205 F 
ATOM     95  C   UNL     1     -13.822  -0.583  10.413  1.00  0.00     0.022 A 
BRANCH  93  96
ATOM     96  S   UNL     1     -14.065   0.087  13.074  1.00  0.00     0.127 S 
ATOM     97  O   UNL     1     -14.725  -1.097  13.614  1.00  0.00    -0.237 OA
ATOM     98  O   UNL     1     -12.614  -0.029  12.939  1.00  0.00    -0.237 OA
ATOM     99  O   UNL     1     -14.514   1.372  13.591  1.00  0.00    -0.744 OA
ENDBRANCH  93  96
ENDBRANCH  65  89
BRANCH  77 100
ATOM    100  C   UNL     1     -20.626   5.844  12.118  1.00  0.00     0.023 A 
ATOM    101  C   UNL     1     -21.295   4.852  12.857  1.00  0.00     0.012 A 
ATOM    102  C   UNL     1     -20.945   7.192  12.442  1.00  0.00     0.148 A 
ATOM    103  C   UNL     1     -22.281   5.164  13.800  1.00  0.00     0.002 A 
ATOM    104  C   UNL     1     -21.827   7.498  13.474  1.00  0.00     0.091 A 
ATOM    105  F   UNL     1     -20.416   8.199  11.734  1.00  0.00    -0.205 F 
ATOM    106  C   UNL     1     -22.531   6.487  14.127  1.00  0.00     0.022 A 
BRANCH 104 107
ATOM    107  S   UNL     1     -21.974   9.174  14.112  1.00  0.00     0.127 S 
ATOM    108  O   UNL     1     -23.170   9.655  13.425  1.00  0.00    -0.237 OA
ATOM    109  O   UNL     1     -22.147   8.946  15.548  1.00  0.00    -0.237 OA
ATOM    110  O   UNL     1     -20.722   9.830  13.761  1.00  0.00    -0.744 OA
ENDBRANCH 104 107
ENDBRANCH  77 100
ENDBRANCH  51  52
ENDBRANCH  43  46
ENDBRANCH  41  42
ENDBRANCH  40  41
ENDBRANCH  39  40
ENDBRANCH  38  39
ENDBRANCH  37  38
ENDBRANCH   1  37
TORSDOF 23
