REMARK SMILES CC[C@](O)(C(=O)NCCCCCCNC(=O)c1ccc(-c2c3nc(c(-c4cccc(S(=O)(=O)[O-])c4F)c4ccc([nH]4)c(-c4cccc(S(=O)(=O)[O-])c4F)c4nc(c(-c5cccc(S(=O)(=O)[O-])c5F)c5ccc2[nH]5)C=C4)C=C3)cc1)[C@@H](C)c1ccc2c(c1)OCCO2
REMARK SMILES IDX 11 1 10 2 9 3 8 4 7 5 5 6 6 7 3 9 2 10 1 11 80 12 81 13
REMARK SMILES IDX 82 14 83 15 87 16 84 17 86 18 85 19 88 20 91 21 89 22 90 23
REMARK SMILES IDX 4 24 12 26 13 27 14 28 15 29 16 31 17 32 18 33 79 34 19 35
REMARK SMILES IDX 78 36 20 37 21 38 22 39 72 40 23 41 77 42 71 43 73 44 24 45
REMARK SMILES IDX 76 46 70 47 69 48 25 50 57 51 37 52 56 53 38 54 41 55 55 56
REMARK SMILES IDX 74 57 39 58 40 59 54 61 75 62 42 63 26 64 27 65 35 66 28 67
REMARK SMILES IDX 30 68 36 69 29 70 31 71 32 72 33 73 34 74 58 75 59 76 67 77
REMARK SMILES IDX 60 78 62 79 68 80 61 81 63 82 64 83 65 84 66 85 43 86 44 87
REMARK SMILES IDX 52 88 45 89 47 90 53 91 46 92 48 93 49 94 50 95 51 96
REMARK H PARENT 7 8 4 25 14 30 73 49 41 60
REMARK Flexibility Score: inf
ROOT
ATOM      1  C   UNL     1      -4.616  -4.737  -1.180  1.00  0.00     0.002 C 
ENDROOT
BRANCH   1   2
ATOM      2  C   UNL     1      -3.654  -4.091  -2.183  1.00  0.00     0.002 C 
BRANCH   2   3
ATOM      3  C   UNL     1      -2.805  -2.959  -1.604  1.00  0.00     0.021 C 
BRANCH   3   4
ATOM      4  C   UNL     1      -2.099  -3.342  -0.308  1.00  0.00     0.116 C 
BRANCH   4   5
ATOM      5  N   UNL     1      -0.991  -4.262  -0.529  1.00  0.00    -0.354 N 
ATOM      6  C   UNL     1       0.350  -4.101  -0.274  1.00  0.00     0.252 C 
ATOM      7  O   UNL     1       1.089  -5.072  -0.458  1.00  0.00    -0.272 OA
ATOM      8  H   UNL     1      -1.241  -5.130  -0.921  1.00  0.00     0.163 HD
BRANCH   6   9
ATOM      9  C   UNL     1       0.860  -2.758   0.325  1.00  0.00     0.149 C 
BRANCH   9  10
ATOM     10  C   UNL     1       0.445  -2.820   1.827  1.00  0.00     0.043 C 
ATOM     11  C   UNL     1       0.840  -1.663   2.729  1.00  0.00     0.007 C 
ENDBRANCH   9  10
BRANCH   9  12
ATOM     12  C   UNL     1       2.407  -2.538   0.117  1.00  0.00     0.058 C 
ATOM     13  C   UNL     1       2.889  -2.765  -1.334  1.00  0.00     0.016 C 
BRANCH  12  14
ATOM     14  C   UNL     1       2.875  -1.119   0.470  1.00  0.00    -0.038 A 
ATOM     15  C   UNL     1       4.003  -0.871   1.271  1.00  0.00     0.008 A 
ATOM     16  C   UNL     1       2.224  -0.020  -0.106  1.00  0.00     0.054 A 
ATOM     17  C   UNL     1       4.494   0.437   1.418  1.00  0.00     0.051 A 
ATOM     18  C   UNL     1       2.671   1.264   0.073  1.00  0.00     0.161 A 
ATOM     19  C   UNL     1       3.856   1.484   0.757  1.00  0.00     0.161 A 
ATOM     20  O   UNL     1       1.967   2.232  -0.578  1.00  0.00    -0.486 OA
ATOM     21  O   UNL     1       4.491   2.695   0.611  1.00  0.00    -0.486 OA
ATOM     22  C   UNL     1       2.809   3.266  -1.078  1.00  0.00     0.271 C 
ATOM     23  C   UNL     1       4.292   3.064  -0.770  1.00  0.00     0.271 C 
ENDBRANCH  12  14
ENDBRANCH   9  12
BRANCH   9  24
ATOM     24  O   UNL     1       0.138  -1.742  -0.383  1.00  0.00    -0.379 OA
ATOM     25  H   UNL     1       0.420  -1.732  -1.311  1.00  0.00     0.212 HD
ENDBRANCH   9  24
ENDBRANCH   6   9
ENDBRANCH   4   5
ENDBRANCH   3   4
ENDBRANCH   2   3
ENDBRANCH   1   2
BRANCH   1  26
ATOM     26  C   UNL     1      -5.551  -3.760  -0.457  1.00  0.00     0.021 C 
BRANCH  26  27
ATOM     27  C   UNL     1      -6.444  -2.939  -1.380  1.00  0.00     0.116 C 
BRANCH  27  28
ATOM     28  N   UNL     1      -7.255  -3.792  -2.235  1.00  0.00    -0.352 N 
ATOM     29  C   UNL     1      -8.611  -3.826  -2.397  1.00  0.00     0.251 C 
ATOM     30  H   UNL     1      -6.752  -4.441  -2.777  1.00  0.00     0.163 HD
ATOM     31  O   UNL     1      -9.127  -4.780  -2.989  1.00  0.00    -0.269 OA
BRANCH  29  32
ATOM     32  C   UNL     1      -9.459  -2.742  -1.864  1.00  0.00     0.039 A 
ATOM     33  C   UNL     1     -10.670  -3.075  -1.254  1.00  0.00     0.014 A 
ATOM     34  C   UNL     1      -9.082  -1.400  -1.988  1.00  0.00     0.014 A 
ATOM     35  C   UNL     1     -11.480  -2.068  -0.730  1.00  0.00     0.010 A 
ATOM     36  C   UNL     1      -9.857  -0.403  -1.400  1.00  0.00     0.010 A 
ATOM     37  C   UNL     1     -11.068  -0.725  -0.771  1.00  0.00    -0.014 A 
BRANCH  37  38
ATOM     38  C   UNL     1     -11.887   0.336  -0.132  1.00  0.00     0.031 A 
ATOM     39  C   UNL     1     -12.499   1.439  -0.953  1.00  0.00     0.074 A 
ATOM     40  C   UNL     1     -12.038   0.329   1.208  1.00  0.00     0.049 A 
ATOM     41  N   UNL     1     -13.245   2.439  -0.559  1.00  0.00    -0.248 NA
ATOM     42  C   UNL     1     -12.223   1.433  -2.400  1.00  0.00     0.031 C 
ATOM     43  C   UNL     1     -11.422  -0.636   2.122  1.00  0.00     0.029 A 
ATOM     44  N   UNL     1     -12.739   1.167   2.037  1.00  0.00    -0.354 N 
ATOM     45  C   UNL     1     -13.514   3.188  -1.698  1.00  0.00     0.074 A 
ATOM     46  C   UNL     1     -12.817   2.551  -2.795  1.00  0.00     0.031 C 
ATOM     47  C   UNL     1     -11.779  -0.340   3.382  1.00  0.00     0.029 A 
ATOM     48  C   UNL     1     -12.624   0.849   3.370  1.00  0.00     0.049 A 
ATOM     49  H   UNL     1     -13.274   1.926   1.708  1.00  0.00     0.167 HD
ATOM     50  C   UNL     1     -14.297   4.285  -1.828  1.00  0.00     0.034 A 
ATOM     51  C   UNL     1     -13.136   1.450   4.461  1.00  0.00     0.034 A 
ATOM     52  C   UNL     1     -15.013   4.900  -0.741  1.00  0.00     0.049 A 
ATOM     53  C   UNL     1     -14.029   2.647   4.282  1.00  0.00     0.074 A 
ATOM     54  C   UNL     1     -15.885   5.974  -0.783  1.00  0.00     0.029 A 
ATOM     55  N   UNL     1     -14.937   4.501   0.585  1.00  0.00    -0.354 N 
ATOM     56  N   UNL     1     -14.400   3.243   3.174  1.00  0.00    -0.248 NA
ATOM     57  C   UNL     1     -14.609   3.231   5.500  1.00  0.00     0.031 C 
ATOM     58  C   UNL     1     -16.319   6.238   0.520  1.00  0.00     0.029 A 
ATOM     59  C   UNL     1     -15.741   5.310   1.370  1.00  0.00     0.049 A 
ATOM     60  H   UNL     1     -14.392   3.752   0.918  1.00  0.00     0.167 HD
ATOM     61  C   UNL     1     -15.278   4.249   3.559  1.00  0.00     0.074 A 
ATOM     62  C   UNL     1     -15.412   4.158   4.998  1.00  0.00     0.031 C 
ATOM     63  C   UNL     1     -15.902   5.179   2.795  1.00  0.00     0.034 A 
BRANCH  50  64
ATOM     64  C   UNL     1     -14.480   4.862  -3.208  1.00  0.00     0.023 A 
ATOM     65  C   UNL     1     -15.265   4.165  -4.149  1.00  0.00     0.012 A 
ATOM     66  C   UNL     1     -13.957   6.126  -3.547  1.00  0.00     0.148 A 
ATOM     67  C   UNL     1     -15.507   4.702  -5.413  1.00  0.00     0.002 A 
ATOM     68  C   UNL     1     -14.239   6.675  -4.793  1.00  0.00     0.091 A 
ATOM     69  F   UNL     1     -13.200   6.767  -2.645  1.00  0.00    -0.205 F 
ATOM     70  C   UNL     1     -15.005   5.960  -5.729  1.00  0.00     0.022 A 
BRANCH  68  71
ATOM     71  S   UNL     1     -13.707   8.322  -5.274  1.00  0.00     0.127 S 
ATOM     72  O   UNL     1     -12.762   8.024  -6.352  1.00  0.00    -0.237 OA
ATOM     73  O   UNL     1     -14.963   8.931  -5.717  1.00  0.00    -0.237 OA
ATOM     74  O   UNL     1     -13.122   8.922  -4.086  1.00  0.00    -0.744 OA
ENDBRANCH  68  71
ENDBRANCH  50  64
BRANCH  51  75
ATOM     75  C   UNL     1     -12.856   0.904   5.820  1.00  0.00     0.023 A 
ATOM     76  C   UNL     1     -13.901   0.328   6.569  1.00  0.00     0.012 A 
ATOM     77  C   UNL     1     -11.562   0.954   6.373  1.00  0.00     0.148 A 
ATOM     78  C   UNL     1     -13.672  -0.145   7.862  1.00  0.00     0.002 A 
ATOM     79  C   UNL     1     -11.328   0.424   7.637  1.00  0.00     0.091 A 
ATOM     80  F   UNL     1     -10.583   1.517   5.652  1.00  0.00    -0.205 F 
ATOM     81  C   UNL     1     -12.385  -0.105   8.392  1.00  0.00     0.022 A 
BRANCH  79  82
ATOM     82  S   UNL     1      -9.676   0.311   8.331  1.00  0.00     0.127 S 
ATOM     83  O   UNL     1      -9.696   1.379   9.328  1.00  0.00    -0.237 OA
ATOM     84  O   UNL     1      -9.670  -1.046   8.883  1.00  0.00    -0.237 OA
ATOM     85  O   UNL     1      -8.769   0.501   7.210  1.00  0.00    -0.744 OA
ENDBRANCH  79  82
ENDBRANCH  51  75
BRANCH  63  86
ATOM     86  C   UNL     1     -16.810   6.156   3.497  1.00  0.00     0.023 A 
ATOM     87  C   UNL     1     -16.259   7.151   4.330  1.00  0.00     0.012 A 
ATOM     88  C   UNL     1     -18.204   6.115   3.298  1.00  0.00     0.148 A 
ATOM     89  C   UNL     1     -17.085   8.059   4.991  1.00  0.00     0.002 A 
ATOM     90  C   UNL     1     -19.016   7.057   3.919  1.00  0.00     0.091 A 
ATOM     91  F   UNL     1     -18.712   5.151   2.517  1.00  0.00    -0.205 F 
ATOM     92  C   UNL     1     -18.460   8.019   4.778  1.00  0.00     0.022 A 
BRANCH  90  93
ATOM     93  S   UNL     1     -20.786   7.141   3.629  1.00  0.00     0.127 S 
ATOM     94  O   UNL     1     -21.320   6.619   4.886  1.00  0.00    -0.237 OA
ATOM     95  O   UNL     1     -21.000   8.575   3.425  1.00  0.00    -0.237 OA
ATOM     96  O   UNL     1     -21.039   6.321   2.452  1.00  0.00    -0.744 OA
ENDBRANCH  90  93
ENDBRANCH  63  86
ENDBRANCH  37  38
ENDBRANCH  29  32
ENDBRANCH  27  28
ENDBRANCH  26  27
ENDBRANCH   1  26
TORSDOF 20
