REMARK SMILES O=C(CSc1nc(-c2cccc(Br)c2)c[nH]1)NCCCCCCNC(=O)c1ccc(-c2c3nc(c(-c4cccc(S(=O)(=O)[O-])c4F)c4ccc([nH]4)c(-c4cccc(S(=O)(=O)[O-])c4F)c4nc(c(-c5cccc(S(=O)(=O)[O-])c5F)c5ccc2[nH]5)C=C4)C=C3)cc1
REMARK SMILES IDX 20 1 19 2 18 3 17 4 1 5 2 6 3 8 4 9 5 10 6 11 16 12 7 13
REMARK SMILES IDX 15 14 8 16 9 17 14 18 10 19 12 20 11 21 13 22 21 23 22 24
REMARK SMILES IDX 23 25 24 26 25 27 26 29 27 30 28 31 89 32 29 33 88 34 30 35
REMARK SMILES IDX 31 36 32 37 82 38 33 39 87 40 81 41 83 42 34 43 86 44 80 45
REMARK SMILES IDX 79 46 35 48 67 49 47 50 66 51 48 52 51 53 65 54 84 55 49 56
REMARK SMILES IDX 50 57 64 59 85 60 52 61 36 62 37 63 45 64 38 65 40 66 46 67
REMARK SMILES IDX 39 68 41 69 42 70 43 71 44 72 68 73 69 74 77 75 70 76 72 77
REMARK SMILES IDX 78 78 71 79 73 80 74 81 75 82 76 83 53 84 54 85 62 86 55 87
REMARK SMILES IDX 57 88 63 89 56 90 58 91 59 92 60 93 61 94
REMARK H PARENT 17 7 16 15 24 28 83 47 51 58
REMARK Flexibility Score: inf
ROOT
ATOM      1  C   UNL     1       4.135  -2.423   2.666  1.00  0.00     0.002 C 
ENDROOT
BRANCH   1   2
ATOM      2  C   UNL     1       2.634  -2.370   2.351  1.00  0.00     0.021 C 
BRANCH   2   3
ATOM      3  C   UNL     1       2.095  -0.971   2.066  1.00  0.00     0.116 C 
BRANCH   3   4
ATOM      4  N   UNL     1       2.735  -0.385   0.904  1.00  0.00    -0.355 N 
ATOM      5  O   UNL     1       0.818   0.382  -0.089  1.00  0.00    -0.274 OA
ATOM      6  C   UNL     1       2.036   0.229  -0.107  1.00  0.00     0.230 C 
ATOM      7  H   UNL     1       3.716  -0.430   0.837  1.00  0.00     0.163 HD
BRANCH   6   8
ATOM      8  C   UNL     1       2.890   0.789  -1.224  1.00  0.00     0.178 C 
BRANCH   8   9
ATOM      9  S   UNL     1       4.019   2.058  -0.603  1.00  0.00    -0.078 SA
BRANCH   9  10
ATOM     10  C   UNL     1       2.978   3.353  -0.127  1.00  0.00     0.166 A 
ATOM     11  N   UNL     1       3.249   4.625  -0.311  1.00  0.00    -0.223 NA
ATOM     12  N   UNL     1       1.845   3.183   0.622  1.00  0.00    -0.339 N 
ATOM     13  C   UNL     1       2.291   5.300   0.404  1.00  0.00     0.089 A 
ATOM     14  C   UNL     1       1.401   4.426   0.984  1.00  0.00     0.113 A 
ATOM     15  H   UNL     1       1.427   2.323   0.857  1.00  0.00     0.168 HD
BRANCH  13  16
ATOM     16  C   UNL     1       2.258   6.737   0.538  1.00  0.00     0.003 A 
ATOM     17  C   UNL     1       2.251   7.544  -0.606  1.00  0.00     0.010 A 
ATOM     18  C   UNL     1       2.252   7.330   1.806  1.00  0.00     0.026 A 
ATOM     19  C   UNL     1       2.216   8.934  -0.485  1.00  0.00     0.002 A 
ATOM     20  C   UNL     1       2.233   8.719   1.919  1.00  0.00     0.018 A 
ATOM     21  C   UNL     1       2.208   9.524   0.780  1.00  0.00     0.016 A 
ATOM     22  Br  UNL     1       2.255   9.521   3.631  1.00  0.00    -0.051 Br
ENDBRANCH  13  16
ENDBRANCH   9  10
ENDBRANCH   8   9
ENDBRANCH   6   8
ENDBRANCH   3   4
ENDBRANCH   2   3
ENDBRANCH   1   2
BRANCH   1  23
ATOM     23  C   UNL     1       4.580  -1.591   3.873  1.00  0.00     0.002 C 
BRANCH  23  24
ATOM     24  C   UNL     1       3.888  -1.940   5.193  1.00  0.00     0.021 C 
BRANCH  24  25
ATOM     25  C   UNL     1       4.030  -3.395   5.629  1.00  0.00     0.116 C 
BRANCH  25  26
ATOM     26  N   UNL     1       5.415  -3.768   5.875  1.00  0.00    -0.352 N 
ATOM     27  C   UNL     1       5.965  -4.392   6.967  1.00  0.00     0.251 C 
ATOM     28  H   UNL     1       6.048  -3.540   5.156  1.00  0.00     0.163 HD
ATOM     29  O   UNL     1       7.189  -4.473   7.072  1.00  0.00    -0.269 OA
BRANCH  27  30
ATOM     30  C   UNL     1       5.093  -4.950   8.024  1.00  0.00     0.039 A 
ATOM     31  C   UNL     1       5.437  -4.745   9.363  1.00  0.00     0.014 A 
ATOM     32  C   UNL     1       3.945  -5.680   7.701  1.00  0.00     0.014 A 
ATOM     33  C   UNL     1       4.604  -5.229  10.374  1.00  0.00     0.010 A 
ATOM     34  C   UNL     1       3.076  -6.091   8.709  1.00  0.00     0.010 A 
ATOM     35  C   UNL     1       3.401  -5.882  10.057  1.00  0.00    -0.014 A 
BRANCH  35  36
ATOM     36  C   UNL     1       2.479  -6.357  11.123  1.00  0.00     0.031 A 
ATOM     37  C   UNL     1       2.170  -7.825  11.261  1.00  0.00     0.074 A 
ATOM     38  C   UNL     1       1.870  -5.464  11.928  1.00  0.00     0.049 A 
ATOM     39  N   UNL     1       1.360  -8.423  12.098  1.00  0.00    -0.248 NA
ATOM     40  C   UNL     1       2.837  -8.741  10.321  1.00  0.00     0.031 C 
ATOM     41  C   UNL     1       2.024  -4.009  11.848  1.00  0.00     0.029 A 
ATOM     42  N   UNL     1       0.978  -5.645  12.956  1.00  0.00    -0.354 N 
ATOM     43  C   UNL     1       1.403  -9.774  11.772  1.00  0.00     0.074 A 
ATOM     44  C   UNL     1       2.280  -9.903  10.629  1.00  0.00     0.031 C 
ATOM     45  C   UNL     1       1.258  -3.432  12.787  1.00  0.00     0.029 A 
ATOM     46  C   UNL     1       0.534  -4.469  13.516  1.00  0.00     0.049 A 
ATOM     47  H   UNL     1       0.685  -6.533  13.264  1.00  0.00     0.167 HD
ATOM     48  C   UNL     1       0.798 -10.818  12.387  1.00  0.00     0.034 A 
ATOM     49  C   UNL     1      -0.363  -4.250  14.497  1.00  0.00     0.034 A 
ATOM     50  C   UNL     1      -0.052 -10.692  13.540  1.00  0.00     0.049 A 
ATOM     51  C   UNL     1      -1.003  -5.430  15.179  1.00  0.00     0.074 A 
ATOM     52  C   UNL     1      -0.667 -11.694  14.270  1.00  0.00     0.029 A 
ATOM     53  N   UNL     1      -0.410  -9.491  14.132  1.00  0.00    -0.354 N 
ATOM     54  N   UNL     1      -0.840  -6.709  14.944  1.00  0.00    -0.248 NA
ATOM     55  C   UNL     1      -1.919  -5.137  16.291  1.00  0.00     0.031 C 
ATOM     56  C   UNL     1      -1.416 -11.097  15.289  1.00  0.00     0.029 A 
ATOM     57  C   UNL     1      -1.236  -9.725  15.217  1.00  0.00     0.049 A 
ATOM     58  H   UNL     1      -0.119  -8.602  13.825  1.00  0.00     0.167 HD
ATOM     59  C   UNL     1      -1.595  -7.373  15.905  1.00  0.00     0.074 A 
ATOM     60  C   UNL     1      -2.198  -6.354  16.738  1.00  0.00     0.031 C 
ATOM     61  C   UNL     1      -1.782  -8.705  16.075  1.00  0.00     0.034 A 
BRANCH  48  62
ATOM     62  C   UNL     1       1.084 -12.202  11.858  1.00  0.00     0.023 A 
ATOM     63  C   UNL     1       2.367 -12.760  12.036  1.00  0.00     0.012 A 
ATOM     64  C   UNL     1       0.078 -12.970  11.241  1.00  0.00     0.148 A 
ATOM     65  C   UNL     1       2.655 -14.044  11.576  1.00  0.00     0.002 A 
ATOM     66  C   UNL     1       0.359 -14.268  10.828  1.00  0.00     0.091 A 
ATOM     67  F   UNL     1      -1.131 -12.418  11.064  1.00  0.00    -0.205 F 
ATOM     68  C   UNL     1       1.650 -14.801  10.982  1.00  0.00     0.022 A 
BRANCH  66  69
ATOM     69  S   UNL     1      -0.885 -15.356  10.124  1.00  0.00     0.127 S 
ATOM     70  O   UNL     1      -0.422 -15.479   8.742  1.00  0.00    -0.237 OA
ATOM     71  O   UNL     1      -0.723 -16.567  10.930  1.00  0.00    -0.237 OA
ATOM     72  O   UNL     1      -2.160 -14.675  10.295  1.00  0.00    -0.744 OA
ENDBRANCH  66  69
ENDBRANCH  48  62
BRANCH  49  73
ATOM     73  C   UNL     1      -0.677  -2.858  14.933  1.00  0.00     0.023 A 
ATOM     74  C   UNL     1      -0.282  -2.422  16.213  1.00  0.00     0.012 A 
ATOM     75  C   UNL     1      -1.365  -1.968  14.087  1.00  0.00     0.148 A 
ATOM     76  C   UNL     1      -0.610  -1.142  16.661  1.00  0.00     0.002 A 
ATOM     77  C   UNL     1      -1.636  -0.674  14.517  1.00  0.00     0.091 A 
ATOM     78  F   UNL     1      -1.742  -2.403  12.876  1.00  0.00    -0.205 F 
ATOM     79  C   UNL     1      -1.279  -0.266  15.811  1.00  0.00     0.022 A 
BRANCH  77  80
ATOM     80  S   UNL     1      -2.375   0.559  13.440  1.00  0.00     0.127 S 
ATOM     81  O   UNL     1      -3.716   0.685  14.005  1.00  0.00    -0.237 OA
ATOM     82  O   UNL     1      -1.502   1.713  13.659  1.00  0.00    -0.237 OA
ATOM     83  O   UNL     1      -2.302   0.001  12.097  1.00  0.00    -0.744 OA
ENDBRANCH  77  80
ENDBRANCH  49  73
BRANCH  61  84
ATOM     84  C   UNL     1      -2.625  -9.148  17.243  1.00  0.00     0.023 A 
ATOM     85  C   UNL     1      -4.017  -8.929  17.236  1.00  0.00     0.012 A 
ATOM     86  C   UNL     1      -2.039  -9.834  18.325  1.00  0.00     0.148 A 
ATOM     87  C   UNL     1      -4.805  -9.347  18.308  1.00  0.00     0.002 A 
ATOM     88  C   UNL     1      -2.837 -10.296  19.364  1.00  0.00     0.091 A 
ATOM     89  F   UNL     1      -0.710 -10.016  18.323  1.00  0.00    -0.205 F 
ATOM     90  C   UNL     1      -4.218 -10.040  19.365  1.00  0.00     0.022 A 
BRANCH  88  91
ATOM     91  S   UNL     1      -2.184 -11.282  20.715  1.00  0.00     0.127 S 
ATOM     92  O   UNL     1      -2.229 -10.333  21.826  1.00  0.00    -0.237 OA
ATOM     93  O   UNL     1      -3.158 -12.371  20.802  1.00  0.00    -0.237 OA
ATOM     94  O   UNL     1      -0.850 -11.697  20.300  1.00  0.00    -0.744 OA
ENDBRANCH  88  91
ENDBRANCH  61  84
ENDBRANCH  35  36
ENDBRANCH  27  30
ENDBRANCH  25  26
ENDBRANCH  24  25
ENDBRANCH  23  24
ENDBRANCH   1  23
TORSDOF 19
