REMARK SMILES [NH3+][C@@]1(C(=O)NCCCCCCNC(=O)c2ccc(-c3c4nc(c(-c5cccc(S(=O)(=O)[O-])c5F)c5ccc([nH]5)c(-c5cccc(S(=O)(=O)[O-])c5F)c5nc(c(-c6cccc(S(=O)(=O)[O-])c6F)c6ccc3[nH]6)C=C5)C=C4)cc2)CCC[C@@H](Oc2ccccc2[N+](=O)[O-])C1
REMARK SMILES IDX 8 1 7 2 6 3 5 4 3 5 4 6 2 8 78 9 92 10 79 11 81 12 80 13
REMARK SMILES IDX 1 14 82 18 83 19 84 20 88 21 85 22 87 23 86 24 89 25 90 26
REMARK SMILES IDX 91 27 9 28 10 29 11 30 12 31 13 32 14 34 15 35 16 36 77 37
REMARK SMILES IDX 17 38 76 39 18 40 19 41 20 42 70 43 21 44 75 45 69 46 71 47
REMARK SMILES IDX 22 48 74 49 68 50 67 51 23 53 55 54 35 55 54 56 36 57 39 58
REMARK SMILES IDX 53 59 72 60 37 61 38 62 52 64 73 65 40 66 24 67 25 68 33 69
REMARK SMILES IDX 26 70 28 71 34 72 27 73 29 74 30 75 31 76 32 77 56 78 57 79
REMARK SMILES IDX 65 80 58 81 60 82 66 83 59 84 61 85 62 86 63 87 64 88 41 89
REMARK SMILES IDX 42 90 50 91 43 92 45 93 51 94 44 95 46 96 47 97 48 98 49 99
REMARK H PARENT 5 7 1 15 1 16 1 17 12 33 71 52 39 63
REMARK Flexibility Score: inf
ROOT
ATOM      1  C   UNL     1      -5.785  -1.484  -2.375  1.00  0.00     0.002 C 
ENDROOT
BRANCH   1   2
ATOM      2  C   UNL     1      -4.270  -1.428  -2.130  1.00  0.00     0.021 C 
BRANCH   2   3
ATOM      3  C   UNL     1      -3.806  -0.130  -1.456  1.00  0.00     0.116 C 
BRANCH   3   4
ATOM      4  N   UNL     1      -3.542  -0.304  -0.038  1.00  0.00    -0.351 N 
ATOM      5  C   UNL     1      -2.402  -0.555   0.669  1.00  0.00     0.281 C 
ATOM      6  O   UNL     1      -2.537  -0.617   1.899  1.00  0.00    -0.268 OA
ATOM      7  H   UNL     1      -4.346  -0.225   0.525  1.00  0.00     0.163 HD
BRANCH   5   8
ATOM      8  C   UNL     1      -0.973  -0.637   0.017  1.00  0.00     0.177 C 
ATOM      9  C   UNL     1      -0.061  -1.490   0.928  1.00  0.00     0.079 C 
ATOM     10  C   UNL     1      -0.405   0.801  -0.033  1.00  0.00     0.124 C 
ATOM     11  C   UNL     1       1.396  -1.518   0.465  1.00  0.00     0.011 C 
ATOM     12  C   UNL     1       1.113   0.958  -0.258  1.00  0.00     0.180 C 
ATOM     13  C   UNL     1       2.006  -0.123   0.373  1.00  0.00     0.046 C 
BRANCH   8  14
ATOM     14  N   UNL     1      -1.048  -1.325  -1.283  1.00  0.00    -0.345 N 
ATOM     15  H   UNL     1      -0.117  -1.373  -1.697  1.00  0.00     0.345 HD
ATOM     16  H   UNL     1      -1.670  -0.809  -1.906  1.00  0.00     0.345 HD
ATOM     17  H   UNL     1      -1.409  -2.270  -1.148  1.00  0.00     0.345 HD
ENDBRANCH   8  14
BRANCH  12  18
ATOM     18  O   UNL     1       1.542   1.376  -1.573  1.00  0.00    -0.483 OA
BRANCH  18  19
ATOM     19  C   UNL     1       1.119   0.645  -2.638  1.00  0.00     0.197 A 
ATOM     20  C   UNL     1       1.820  -0.513  -2.978  1.00  0.00     0.054 A 
ATOM     21  C   UNL     1       0.055   1.053  -3.452  1.00  0.00     0.310 A 
ATOM     22  C   UNL     1       1.371  -1.325  -4.022  1.00  0.00     0.004 A 
ATOM     23  C   UNL     1      -0.416   0.232  -4.486  1.00  0.00     0.090 A 
ATOM     24  C   UNL     1       0.237  -0.970  -4.754  1.00  0.00     0.007 A 
BRANCH  21  25
ATOM     25  N   UNL     1      -0.638   2.309  -3.206  1.00  0.00     0.066 N 
ATOM     26  O   UNL     1      -1.878   2.268  -3.206  1.00  0.00    -0.258 OA
ATOM     27  O   UNL     1       0.039   3.324  -3.001  1.00  0.00    -0.258 OA
ENDBRANCH  21  25
ENDBRANCH  18  19
ENDBRANCH  12  18
ENDBRANCH   5   8
ENDBRANCH   3   4
ENDBRANCH   2   3
ENDBRANCH   1   2
BRANCH   1  28
ATOM     28  C   UNL     1      -6.329  -0.416  -3.333  1.00  0.00     0.002 C 
BRANCH  28  29
ATOM     29  C   UNL     1      -5.783  -0.465  -4.764  1.00  0.00     0.021 C 
BRANCH  29  30
ATOM     30  C   UNL     1      -6.051  -1.764  -5.525  1.00  0.00     0.116 C 
BRANCH  30  31
ATOM     31  N   UNL     1      -7.461  -2.121  -5.527  1.00  0.00    -0.352 N 
ATOM     32  C   UNL     1      -8.321  -2.382  -6.561  1.00  0.00     0.251 C 
ATOM     33  H   UNL     1      -7.866  -2.187  -4.632  1.00  0.00     0.163 HD
ATOM     34  O   UNL     1      -9.526  -2.460  -6.326  1.00  0.00    -0.269 OA
BRANCH  32  35
ATOM     35  C   UNL     1      -7.830  -2.573  -7.944  1.00  0.00     0.039 A 
ATOM     36  C   UNL     1      -8.612  -2.088  -8.998  1.00  0.00     0.014 A 
ATOM     37  C   UNL     1      -6.656  -3.279  -8.221  1.00  0.00     0.014 A 
ATOM     38  C   UNL     1      -8.200  -2.280 -10.318  1.00  0.00     0.010 A 
ATOM     39  C   UNL     1      -6.210  -3.408  -9.538  1.00  0.00     0.010 A 
ATOM     40  C   UNL     1      -6.983  -2.921 -10.601  1.00  0.00    -0.014 A 
BRANCH  40  41
ATOM     41  C   UNL     1      -6.515  -3.054 -12.005  1.00  0.00     0.031 A 
ATOM     42  C   UNL     1      -6.361  -4.404 -12.651  1.00  0.00     0.074 A 
ATOM     43  C   UNL     1      -6.188  -1.941 -12.692  1.00  0.00     0.049 A 
ATOM     44  N   UNL     1      -6.027  -4.693 -13.883  1.00  0.00    -0.248 NA
ATOM     45  C   UNL     1      -6.588  -5.586 -11.803  1.00  0.00     0.031 C 
ATOM     46  C   UNL     1      -6.199  -0.581 -12.148  1.00  0.00     0.029 A 
ATOM     47  N   UNL     1      -5.776  -1.776 -13.990  1.00  0.00    -0.354 N 
ATOM     48  C   UNL     1      -5.981  -6.080 -13.954  1.00  0.00     0.074 A 
ATOM     49  C   UNL     1      -6.283  -6.577 -12.629  1.00  0.00     0.031 C 
ATOM     50  C   UNL     1      -5.834   0.280 -13.110  1.00  0.00     0.029 A 
ATOM     51  C   UNL     1      -5.545  -0.464 -14.331  1.00  0.00     0.049 A 
ATOM     52  H   UNL     1      -5.657  -2.525 -14.618  1.00  0.00     0.167 HD
ATOM     53  C   UNL     1      -5.741  -6.870 -15.029  1.00  0.00     0.034 A 
ATOM     54  C   UNL     1      -5.156   0.082 -15.500  1.00  0.00     0.034 A 
ATOM     55  C   UNL     1      -5.477  -6.371 -16.353  1.00  0.00     0.049 A 
ATOM     56  C   UNL     1      -4.960  -0.812 -16.693  1.00  0.00     0.074 A 
ATOM     57  C   UNL     1      -5.314  -7.087 -17.527  1.00  0.00     0.029 A 
ATOM     58  N   UNL     1      -5.327  -5.032 -16.680  1.00  0.00    -0.354 N 
ATOM     59  N   UNL     1      -5.100  -2.112 -16.782  1.00  0.00    -0.248 NA
ATOM     60  C   UNL     1      -4.593  -0.158 -17.957  1.00  0.00     0.031 C 
ATOM     61  C   UNL     1      -5.042  -6.181 -18.559  1.00  0.00     0.029 A 
ATOM     62  C   UNL     1      -5.061  -4.899 -18.033  1.00  0.00     0.049 A 
ATOM     63  H   UNL     1      -5.399  -4.284 -16.044  1.00  0.00     0.167 HD
ATOM     64  C   UNL     1      -4.865  -2.430 -18.114  1.00  0.00     0.074 A 
ATOM     65  C   UNL     1      -4.609  -1.180 -18.801  1.00  0.00     0.031 C 
ATOM     66  C   UNL     1      -4.842  -3.647 -18.712  1.00  0.00     0.034 A 
BRANCH  53  67
ATOM     67  C   UNL     1      -5.811  -8.363 -14.832  1.00  0.00     0.023 A 
ATOM     68  C   UNL     1      -7.062  -8.976 -14.615  1.00  0.00     0.012 A 
ATOM     69  C   UNL     1      -4.657  -9.166 -14.923  1.00  0.00     0.148 A 
ATOM     70  C   UNL     1      -7.161 -10.358 -14.457  1.00  0.00     0.002 A 
ATOM     71  C   UNL     1      -4.769 -10.548 -14.809  1.00  0.00     0.091 A 
ATOM     72  F   UNL     1      -3.473  -8.567 -15.109  1.00  0.00    -0.205 F 
ATOM     73  C   UNL     1      -6.018 -11.144 -14.565  1.00  0.00     0.022 A 
BRANCH  71  74
ATOM     74  S   UNL     1      -3.368 -11.655 -15.008  1.00  0.00     0.127 S 
ATOM     75  O   UNL     1      -3.166 -12.124 -13.638  1.00  0.00    -0.237 OA
ATOM     76  O   UNL     1      -3.901 -12.664 -15.925  1.00  0.00    -0.237 OA
ATOM     77  O   UNL     1      -2.291 -10.845 -15.557  1.00  0.00    -0.744 OA
ENDBRANCH  71  74
ENDBRANCH  53  67
BRANCH  54  78
ATOM     78  C   UNL     1      -5.007   1.560 -15.614  1.00  0.00     0.023 A 
ATOM     79  C   UNL     1      -5.935   2.293 -16.379  1.00  0.00     0.012 A 
ATOM     80  C   UNL     1      -3.977   2.245 -14.941  1.00  0.00     0.148 A 
ATOM     81  C   UNL     1      -5.821   3.679 -16.499  1.00  0.00     0.002 A 
ATOM     82  C   UNL     1      -3.904   3.631 -15.018  1.00  0.00     0.091 A 
ATOM     83  F   UNL     1      -3.097   1.528 -14.229  1.00  0.00    -0.205 F 
ATOM     84  C   UNL     1      -4.813   4.348 -15.810  1.00  0.00     0.022 A 
BRANCH  82  85
ATOM     85  S   UNL     1      -2.725   4.580 -14.050  1.00  0.00     0.127 S 
ATOM     86  O   UNL     1      -1.783   5.022 -15.078  1.00  0.00    -0.237 OA
ATOM     87  O   UNL     1      -3.572   5.639 -13.496  1.00  0.00    -0.237 OA
ATOM     88  O   UNL     1      -2.197   3.657 -13.060  1.00  0.00    -0.744 OA
ENDBRANCH  82  85
ENDBRANCH  54  78
BRANCH  66  89
ATOM     89  C   UNL     1      -4.538  -3.685 -20.188  1.00  0.00     0.023 A 
ATOM     90  C   UNL     1      -3.235  -3.394 -20.640  1.00  0.00     0.012 A 
ATOM     91  C   UNL     1      -5.527  -4.046 -21.123  1.00  0.00     0.148 A 
ATOM     92  C   UNL     1      -2.933  -3.416 -22.000  1.00  0.00     0.002 A 
ATOM     93  C   UNL     1      -5.206  -4.116 -22.474  1.00  0.00     0.091 A 
ATOM     94  F   UNL     1      -6.767  -4.302 -20.680  1.00  0.00    -0.205 F 
ATOM     95  C   UNL     1      -3.914  -3.786 -22.916  1.00  0.00     0.022 A 
BRANCH  93  96
ATOM     96  S   UNL     1      -6.383  -4.675 -23.711  1.00  0.00     0.127 S 
ATOM     97  O   UNL     1      -6.776  -3.415 -24.340  1.00  0.00    -0.237 OA
ATOM     98  O   UNL     1      -5.561  -5.546 -24.553  1.00  0.00    -0.237 OA
ATOM     99  O   UNL     1      -7.433  -5.367 -22.976  1.00  0.00    -0.744 OA
ENDBRANCH  93  96
ENDBRANCH  66  89
ENDBRANCH  40  41
ENDBRANCH  32  35
ENDBRANCH  30  31
ENDBRANCH  29  30
ENDBRANCH  28  29
ENDBRANCH   1  28
TORSDOF 20
