REMARK SMILES CC(C)(C[NH2+]C[C@@H](O)C1CC1)C(=O)NCCCCCCNC(=O)c1ccc(-c2c3nc(c(-c4cccc(S(=O)(=O)[O-])c4F)c4ccc([nH]4)c(-c4cccc(S(=O)(=O)[O-])c4F)c4nc(c(-c5cccc(S(=O)(=O)[O-])c5F)c5ccc2[nH]5)C=C4)C=C3)cc1
REMARK SMILES IDX 16 1 15 2 14 3 12 4 13 5 2 7 1 8 3 9 4 10 5 11 6 14 7 15
REMARK SMILES IDX 8 16 9 18 10 19 11 20 17 21 18 22 19 23 20 24 21 25 22 26
REMARK SMILES IDX 23 28 24 29 25 30 86 31 26 32 85 33 27 34 28 35 29 36 79 37
REMARK SMILES IDX 30 38 84 39 78 40 80 41 31 42 83 43 77 44 76 45 32 47 64 48
REMARK SMILES IDX 44 49 63 50 45 51 48 52 62 53 81 54 46 55 47 56 61 58 82 59
REMARK SMILES IDX 49 60 33 61 34 62 42 63 35 64 37 65 43 66 36 67 38 68 39 69
REMARK SMILES IDX 40 70 41 71 65 72 66 73 74 74 67 75 69 76 75 77 68 78 70 79
REMARK SMILES IDX 71 80 72 81 73 82 50 83 51 84 59 85 52 86 54 87 60 88 53 89
REMARK SMILES IDX 55 90 56 91 57 92 58 93
REMARK H PARENT 14 6 5 12 5 13 8 17 21 27 80 46 48 57
REMARK Flexibility Score: inf
ROOT
ATOM      1  C   UNL     1      -1.353   4.867  -1.262  1.00  0.00     0.021 C 
ENDROOT
BRANCH   1   2
ATOM      2  C   UNL     1      -0.175   4.061  -1.803  1.00  0.00     0.116 C 
BRANCH   2   3
ATOM      3  N   UNL     1       0.735   3.681  -0.741  1.00  0.00    -0.355 N 
ATOM      4  C   UNL     1       1.073   2.477  -0.210  1.00  0.00     0.231 C 
ATOM      5  O   UNL     1       1.868   2.512   0.737  1.00  0.00    -0.274 OA
ATOM      6  H   UNL     1       1.198   4.443  -0.324  1.00  0.00     0.163 HD
BRANCH   4   7
ATOM      7  C   UNL     1       0.572   1.137  -0.783  1.00  0.00     0.092 C 
ATOM      8  C   UNL     1       1.180  -0.013   0.059  1.00  0.00     0.027 C 
ATOM      9  C   UNL     1       1.115   0.960  -2.216  1.00  0.00     0.027 C 
BRANCH   7  10
ATOM     10  C   UNL     1      -0.971   0.991  -0.772  1.00  0.00     0.276 C 
BRANCH  10  11
ATOM     11  N   UNL     1      -1.595   1.181   0.539  1.00  0.00    -0.343 N 
ATOM     12  H   UNL     1      -1.278   2.071   0.924  1.00  0.00     0.346 HD
ATOM     13  H   UNL     1      -1.320   0.391   1.124  1.00  0.00     0.346 HD
BRANCH  11  14
ATOM     14  C   UNL     1      -3.069   1.192   0.484  1.00  0.00     0.292 C 
BRANCH  14  15
ATOM     15  C   UNL     1      -3.722  -0.089  -0.087  1.00  0.00     0.172 C 
BRANCH  15  16
ATOM     16  O   UNL     1      -3.340  -1.217   0.701  1.00  0.00    -0.387 OA
ATOM     17  H   UNL     1      -3.657  -1.099   1.610  1.00  0.00     0.211 HD
ENDBRANCH  15  16
BRANCH  15  18
ATOM     18  C   UNL     1      -5.219  -0.002  -0.081  1.00  0.00     0.023 C 
ATOM     19  C   UNL     1      -5.960   0.491  -1.299  1.00  0.00     0.007 C 
ATOM     20  C   UNL     1      -6.026  -0.962  -0.919  1.00  0.00     0.007 C 
ENDBRANCH  15  18
ENDBRANCH  14  15
ENDBRANCH  11  14
ENDBRANCH  10  11
ENDBRANCH   7  10
ENDBRANCH   4   7
ENDBRANCH   2   3
ENDBRANCH   1   2
BRANCH   1  21
ATOM     21  C   UNL     1      -0.973   6.267  -0.763  1.00  0.00     0.002 C 
BRANCH  21  22
ATOM     22  C   UNL     1      -0.242   7.142  -1.788  1.00  0.00     0.002 C 
BRANCH  22  23
ATOM     23  C   UNL     1      -0.958   7.300  -3.131  1.00  0.00     0.021 C 
BRANCH  23  24
ATOM     24  C   UNL     1      -2.355   7.902  -3.035  1.00  0.00     0.116 C 
BRANCH  24  25
ATOM     25  N   UNL     1      -2.328   9.252  -2.492  1.00  0.00    -0.352 N 
ATOM     26  C   UNL     1      -2.834  10.410  -3.026  1.00  0.00     0.251 C 
ATOM     27  H   UNL     1      -1.883   9.348  -1.619  1.00  0.00     0.163 HD
ATOM     28  O   UNL     1      -2.535  11.497  -2.533  1.00  0.00    -0.269 OA
BRANCH  26  29
ATOM     29  C   UNL     1      -3.727  10.347  -4.201  1.00  0.00     0.039 A 
ATOM     30  C   UNL     1      -3.526  11.242  -5.254  1.00  0.00     0.014 A 
ATOM     31  C   UNL     1      -4.759   9.406  -4.262  1.00  0.00     0.014 A 
ATOM     32  C   UNL     1      -4.328  11.156  -6.394  1.00  0.00     0.010 A 
ATOM     33  C   UNL     1      -5.504   9.272  -5.429  1.00  0.00     0.010 A 
ATOM     34  C   UNL     1      -5.303  10.150  -6.505  1.00  0.00    -0.014 A 
BRANCH  34  35
ATOM     35  C   UNL     1      -6.114   9.996  -7.739  1.00  0.00     0.031 A 
ATOM     36  C   UNL     1      -7.609  10.156  -7.690  1.00  0.00     0.074 A 
ATOM     37  C   UNL     1      -5.512   9.629  -8.888  1.00  0.00     0.049 A 
ATOM     38  N   UNL     1      -8.486  10.004  -8.649  1.00  0.00    -0.248 NA
ATOM     39  C   UNL     1      -8.201  10.505  -6.388  1.00  0.00     0.031 C 
ATOM     40  C   UNL     1      -4.080   9.371  -9.048  1.00  0.00     0.029 A 
ATOM     41  N   UNL     1      -6.033   9.384 -10.134  1.00  0.00    -0.354 N 
ATOM     42  C   UNL     1      -9.730  10.205  -8.062  1.00  0.00     0.074 A 
ATOM     43  C   UNL     1      -9.498  10.452  -6.656  1.00  0.00     0.031 C 
ATOM     44  C   UNL     1      -3.836   9.011 -10.318  1.00  0.00     0.029 A 
ATOM     45  C   UNL     1      -5.095   8.976 -11.054  1.00  0.00     0.049 A 
ATOM     46  H   UNL     1      -6.988   9.490 -10.350  1.00  0.00     0.167 HD
ATOM     47  C   UNL     1     -10.953  10.210  -8.644  1.00  0.00     0.034 A 
ATOM     48  C   UNL     1      -5.234   8.604 -12.341  1.00  0.00     0.034 A 
ATOM     49  C   UNL     1     -11.176   9.995 -10.048  1.00  0.00     0.049 A 
ATOM     50  C   UNL     1      -6.601   8.640 -12.970  1.00  0.00     0.074 A 
ATOM     51  C   UNL     1     -12.367  10.064 -10.750  1.00  0.00     0.029 A 
ATOM     52  N   UNL     1     -10.192   9.656 -10.964  1.00  0.00    -0.354 N 
ATOM     53  N   UNL     1      -7.747   8.982 -12.433  1.00  0.00    -0.248 NA
ATOM     54  C   UNL     1      -6.689   8.273 -14.390  1.00  0.00     0.031 C 
ATOM     55  C   UNL     1     -12.108   9.730 -12.083  1.00  0.00     0.029 A 
ATOM     56  C   UNL     1     -10.750   9.496 -12.221  1.00  0.00     0.049 A 
ATOM     57  H   UNL     1      -9.237   9.546 -10.752  1.00  0.00     0.167 HD
ATOM     58  C   UNL     1      -8.684   8.909 -13.457  1.00  0.00     0.074 A 
ATOM     59  C   UNL     1      -7.967   8.508 -14.650  1.00  0.00     0.031 C 
ATOM     60  C   UNL     1     -10.019   9.143 -13.411  1.00  0.00     0.034 A 
BRANCH  47  61
ATOM     61  C   UNL     1     -12.145  10.495  -7.766  1.00  0.00     0.023 A 
ATOM     62  C   UNL     1     -12.331  11.789  -7.237  1.00  0.00     0.012 A 
ATOM     63  C   UNL     1     -13.109   9.501  -7.510  1.00  0.00     0.148 A 
ATOM     64  C   UNL     1     -13.433  12.078  -6.434  1.00  0.00     0.002 A 
ATOM     65  C   UNL     1     -14.231   9.810  -6.749  1.00  0.00     0.091 A 
ATOM     66  F   UNL     1     -12.908   8.271  -8.005  1.00  0.00    -0.205 F 
ATOM     67  C   UNL     1     -14.387  11.093  -6.199  1.00  0.00     0.022 A 
BRANCH  65  68
ATOM     68  S   UNL     1     -15.559   8.635  -6.458  1.00  0.00     0.127 S 
ATOM     69  O   UNL     1     -15.398   8.357  -5.032  1.00  0.00    -0.237 OA
ATOM     70  O   UNL     1     -16.744   9.423  -6.796  1.00  0.00    -0.237 OA
ATOM     71  O   UNL     1     -15.303   7.510  -7.346  1.00  0.00    -0.744 OA
ENDBRANCH  65  68
ENDBRANCH  47  61
BRANCH  48  72
ATOM     72  C   UNL     1      -4.035   8.217 -13.138  1.00  0.00     0.023 A 
ATOM     73  C   UNL     1      -3.589   9.059 -14.175  1.00  0.00     0.012 A 
ATOM     74  C   UNL     1      -3.323   7.035 -12.859  1.00  0.00     0.148 A 
ATOM     75  C   UNL     1      -2.477   8.714 -14.943  1.00  0.00     0.002 A 
ATOM     76  C   UNL     1      -2.182   6.725 -13.590  1.00  0.00     0.091 A 
ATOM     77  F   UNL     1      -3.768   6.243 -11.873  1.00  0.00    -0.205 F 
ATOM     78  C   UNL     1      -1.768   7.553 -14.645  1.00  0.00     0.022 A 
BRANCH  76  79
ATOM     79  S   UNL     1      -1.133   5.322 -13.192  1.00  0.00     0.127 S 
ATOM     80  O   UNL     1      -1.346   4.453 -14.346  1.00  0.00    -0.237 OA
ATOM     81  O   UNL     1       0.189   5.946 -13.124  1.00  0.00    -0.237 OA
ATOM     82  O   UNL     1      -1.622   4.812 -11.919  1.00  0.00    -0.744 OA
ENDBRANCH  76  79
ENDBRANCH  48  72
BRANCH  60  83
ATOM     83  C   UNL     1     -10.797   9.017 -14.696  1.00  0.00     0.023 A 
ATOM     84  C   UNL     1     -11.028   7.747 -15.261  1.00  0.00     0.012 A 
ATOM     85  C   UNL     1     -11.363  10.156 -15.302  1.00  0.00     0.148 A 
ATOM     86  C   UNL     1     -11.780   7.617 -16.428  1.00  0.00     0.002 A 
ATOM     87  C   UNL     1     -12.155  10.014 -16.434  1.00  0.00     0.091 A 
ATOM     88  F   UNL     1     -11.117  11.358 -14.759  1.00  0.00    -0.205 F 
ATOM     89  C   UNL     1     -12.354   8.747 -17.006  1.00  0.00     0.022 A 
BRANCH  87  90
ATOM     90  S   UNL     1     -13.016  11.398 -17.189  1.00  0.00     0.127 S 
ATOM     91  O   UNL     1     -12.283  11.555 -18.444  1.00  0.00    -0.237 OA
ATOM     92  O   UNL     1     -14.374  10.873 -17.337  1.00  0.00    -0.237 OA
ATOM     93  O   UNL     1     -12.895  12.508 -16.253  1.00  0.00    -0.744 OA
ENDBRANCH  87  90
ENDBRANCH  60  83
ENDBRANCH  34  35
ENDBRANCH  26  29
ENDBRANCH  24  25
ENDBRANCH  23  24
ENDBRANCH  22  23
ENDBRANCH  21  22
ENDBRANCH   1  21
TORSDOF 22
