REMARK SMILES C[C@H]1CCN(C(=O)NC[C@@H]2CC[C@H](C(=O)NCCCCCCNC(=O)c3ccc(-c4c5nc(c(-c6cccc(S(=O)(=O)[O-])c6F)c6ccc([nH]6)c(-c6cccc(S(=O)(=O)[O-])c6F)c6nc(c(-c7cccc(S(=O)(=O)[O-])c7F)c7ccc4[nH]7)C=C6)C=C5)cc3)O2)C1
REMARK SMILES IDX 19 1 18 2 17 3 16 4 14 5 15 6 13 8 10 9 11 10 89 11 12 12
REMARK SMILES IDX 9 13 8 14 6 15 7 16 5 18 1 19 2 20 3 21 90 22 4 23 20 24
REMARK SMILES IDX 21 25 22 26 23 27 24 28 25 30 26 31 27 32 88 33 28 34 87 35
REMARK SMILES IDX 29 36 30 37 31 38 81 39 32 40 86 41 80 42 82 43 33 44 85 45
REMARK SMILES IDX 79 46 78 47 34 49 66 50 46 51 65 52 47 53 50 54 64 55 83 56
REMARK SMILES IDX 48 57 49 58 63 60 84 61 51 62 35 63 36 64 44 65 37 66 39 67
REMARK SMILES IDX 45 68 38 69 40 70 41 71 42 72 43 73 67 74 68 75 76 76 69 77
REMARK SMILES IDX 71 78 77 79 70 80 72 81 73 82 74 83 75 84 52 85 53 86 61 87
REMARK SMILES IDX 54 88 56 89 62 90 55 91 57 92 58 93 59 94 60 95
REMARK H PARENT 16 7 8 17 23 29 82 48 50 59
REMARK Flexibility Score: inf
ROOT
ATOM      1  C   UNL     1       5.072  -7.365  -0.145  1.00  0.00     0.002 C 
ENDROOT
BRANCH   1   2
ATOM      2  C   UNL     1       3.898  -6.978  -1.040  1.00  0.00     0.021 C 
BRANCH   2   3
ATOM      3  C   UNL     1       4.018  -5.581  -1.630  1.00  0.00     0.116 C 
BRANCH   3   4
ATOM      4  N   UNL     1       4.630  -5.560  -2.936  1.00  0.00    -0.354 N 
ATOM      5  C   UNL     1       4.117  -5.058  -4.102  1.00  0.00     0.249 C 
ATOM      6  O   UNL     1       4.823  -5.111  -5.114  1.00  0.00    -0.272 OA
ATOM      7  H   UNL     1       5.530  -5.955  -2.997  1.00  0.00     0.163 HD
BRANCH   5   8
ATOM      8  C   UNL     1       2.683  -4.476  -4.163  1.00  0.00     0.207 C 
ATOM      9  C   UNL     1       1.157  -3.669  -2.560  1.00  0.00     0.138 C 
ATOM     10  C   UNL     1       0.711  -5.086  -2.894  1.00  0.00     0.037 C 
ATOM     11  O   UNL     1       2.451  -3.485  -3.168  1.00  0.00    -0.363 OA
ATOM     12  C   UNL     1       1.579  -5.516  -4.059  1.00  0.00     0.045 C 
BRANCH   9  13
ATOM     13  C   UNL     1       1.269  -3.406  -1.042  1.00  0.00     0.149 C 
BRANCH  13  14
ATOM     14  N   UNL     1       2.251  -2.370  -0.760  1.00  0.00    -0.335 N 
ATOM     15  C   UNL     1       2.226  -1.088  -0.365  1.00  0.00     0.317 C 
ATOM     16  O   UNL     1       3.324  -0.545  -0.219  1.00  0.00    -0.249 OA
ATOM     17  H   UNL     1       3.171  -2.692  -0.894  1.00  0.00     0.165 HD
BRANCH  15  18
ATOM     18  N   UNL     1       1.061  -0.429  -0.158  1.00  0.00    -0.325 N 
ATOM     19  C   UNL     1      -2.239   0.358   0.702  1.00  0.00     0.009 C 
ATOM     20  C   UNL     1      -1.166   0.393  -0.377  1.00  0.00     0.007 C 
ATOM     21  C   UNL     1      -0.179   1.552  -0.210  1.00  0.00     0.027 C 
ATOM     22  C   UNL     1      -0.301  -0.868  -0.366  1.00  0.00     0.124 C 
ATOM     23  C   UNL     1       1.071   0.919   0.370  1.00  0.00     0.121 C 
ENDBRANCH  15  18
ENDBRANCH  13  14
ENDBRANCH   9  13
ENDBRANCH   5   8
ENDBRANCH   3   4
ENDBRANCH   2   3
ENDBRANCH   1   2
BRANCH   1  24
ATOM     24  C   UNL     1       5.271  -6.469   1.085  1.00  0.00     0.002 C 
BRANCH  24  25
ATOM     25  C   UNL     1       4.061  -6.338   2.018  1.00  0.00     0.021 C 
BRANCH  25  26
ATOM     26  C   UNL     1       3.525  -7.657   2.568  1.00  0.00     0.116 C 
BRANCH  26  27
ATOM     27  N   UNL     1       4.553  -8.418   3.261  1.00  0.00    -0.352 N 
ATOM     28  C   UNL     1       4.568  -8.916   4.539  1.00  0.00     0.251 C 
ATOM     29  H   UNL     1       5.362  -8.604   2.732  1.00  0.00     0.163 HD
ATOM     30  O   UNL     1       5.612  -9.352   5.012  1.00  0.00    -0.269 OA
BRANCH  28  31
ATOM     31  C   UNL     1       3.329  -8.923   5.346  1.00  0.00     0.039 A 
ATOM     32  C   UNL     1       3.395  -8.544   6.689  1.00  0.00     0.014 A 
ATOM     33  C   UNL     1       2.114  -9.330   4.789  1.00  0.00     0.014 A 
ATOM     34  C   UNL     1       2.231  -8.526   7.461  1.00  0.00     0.010 A 
ATOM     35  C   UNL     1       0.944  -9.243   5.539  1.00  0.00     0.010 A 
ATOM     36  C   UNL     1       0.992  -8.849   6.884  1.00  0.00    -0.014 A 
BRANCH  36  37
ATOM     37  C   UNL     1      -0.266  -8.772   7.670  1.00  0.00     0.031 A 
ATOM     38  C   UNL     1      -1.084 -10.011   7.919  1.00  0.00     0.074 A 
ATOM     39  C   UNL     1      -0.716  -7.571   8.085  1.00  0.00     0.049 A 
ATOM     40  N   UNL     1      -2.235 -10.129   8.527  1.00  0.00    -0.248 NA
ATOM     41  C   UNL     1      -0.552 -11.278   7.392  1.00  0.00     0.031 C 
ATOM     42  C   UNL     1      -0.053  -6.289   7.838  1.00  0.00     0.029 A 
ATOM     43  N   UNL     1      -1.851  -7.230   8.778  1.00  0.00    -0.354 N 
ATOM     44  C   UNL     1      -2.582 -11.472   8.428  1.00  0.00     0.074 A 
ATOM     45  C   UNL     1      -1.536 -12.122   7.669  1.00  0.00     0.031 C 
ATOM     46  C   UNL     1      -0.790  -5.303   8.372  1.00  0.00     0.029 A 
ATOM     47  C   UNL     1      -1.991  -5.876   8.972  1.00  0.00     0.049 A 
ATOM     48  H   UNL     1      -2.502  -7.892   9.104  1.00  0.00     0.167 HD
ATOM     49  C   UNL     1      -3.657 -12.112   8.947  1.00  0.00     0.034 A 
ATOM     50  C   UNL     1      -2.980  -5.173   9.558  1.00  0.00     0.034 A 
ATOM     51  C   UNL     1      -4.674 -11.468   9.735  1.00  0.00     0.049 A 
ATOM     52  C   UNL     1      -4.144  -5.912  10.159  1.00  0.00     0.074 A 
ATOM     53  C   UNL     1      -5.758 -12.042  10.374  1.00  0.00     0.029 A 
ATOM     54  N   UNL     1      -4.737 -10.106   9.985  1.00  0.00    -0.354 N 
ATOM     55  N   UNL     1      -4.377  -7.202  10.186  1.00  0.00    -0.248 NA
ATOM     56  C   UNL     1      -5.164  -5.103  10.842  1.00  0.00     0.031 C 
ATOM     57  C   UNL     1      -6.491 -11.023  10.991  1.00  0.00     0.029 A 
ATOM     58  C   UNL     1      -5.846  -9.818  10.762  1.00  0.00     0.049 A 
ATOM     59  H   UNL     1      -4.088  -9.441   9.659  1.00  0.00     0.167 HD
ATOM     60  C   UNL     1      -5.547  -7.363  10.919  1.00  0.00     0.074 A 
ATOM     61  C   UNL     1      -5.964  -6.039  11.335  1.00  0.00     0.031 C 
ATOM     62  C   UNL     1      -6.223  -8.502  11.210  1.00  0.00     0.034 A 
BRANCH  49  63
ATOM     63  C   UNL     1      -3.762 -13.599   8.722  1.00  0.00     0.023 A 
ATOM     64  C   UNL     1      -2.871 -14.467   9.386  1.00  0.00     0.012 A 
ATOM     65  C   UNL     1      -4.773 -14.141   7.905  1.00  0.00     0.148 A 
ATOM     66  C   UNL     1      -2.959 -15.847   9.211  1.00  0.00     0.002 A 
ATOM     67  C   UNL     1      -4.884 -15.520   7.772  1.00  0.00     0.091 A 
ATOM     68  F   UNL     1      -5.599 -13.300   7.266  1.00  0.00    -0.205 F 
ATOM     69  C   UNL     1      -3.971 -16.374   8.413  1.00  0.00     0.022 A 
BRANCH  67  70
ATOM     70  S   UNL     1      -6.201 -16.301   6.832  1.00  0.00     0.127 S 
ATOM     71  O   UNL     1      -5.468 -16.827   5.680  1.00  0.00    -0.237 OA
ATOM     72  O   UNL     1      -6.683 -17.320   7.764  1.00  0.00    -0.237 OA
ATOM     73  O   UNL     1      -7.160 -15.248   6.532  1.00  0.00    -0.744 OA
ENDBRANCH  67  70
ENDBRANCH  49  63
BRANCH  50  74
ATOM     74  C   UNL     1      -2.877  -3.690   9.659  1.00  0.00     0.023 A 
ATOM     75  C   UNL     1      -2.655  -3.096  10.917  1.00  0.00     0.012 A 
ATOM     76  C   UNL     1      -2.967  -2.869   8.518  1.00  0.00     0.148 A 
ATOM     77  C   UNL     1      -2.556  -1.709  11.041  1.00  0.00     0.002 A 
ATOM     78  C   UNL     1      -2.812  -1.494   8.640  1.00  0.00     0.091 A 
ATOM     79  F   UNL     1      -3.188  -3.454   7.332  1.00  0.00    -0.205 F 
ATOM     80  C   UNL     1      -2.624  -0.910   9.903  1.00  0.00     0.022 A 
BRANCH  78  81
ATOM     81  S   UNL     1      -2.757  -0.401   7.216  1.00  0.00     0.127 S 
ATOM     82  O   UNL     1      -4.020   0.322   7.344  1.00  0.00    -0.237 OA
ATOM     83  O   UNL     1      -1.560   0.395   7.490  1.00  0.00    -0.237 OA
ATOM     84  O   UNL     1      -2.644  -1.272   6.053  1.00  0.00    -0.744 OA
ENDBRANCH  78  81
ENDBRANCH  50  74
BRANCH  62  85
ATOM     85  C   UNL     1      -7.468  -8.381  12.050  1.00  0.00     0.023 A 
ATOM     86  C   UNL     1      -8.638  -7.826  11.495  1.00  0.00     0.012 A 
ATOM     87  C   UNL     1      -7.498  -8.887  13.365  1.00  0.00     0.148 A 
ATOM     88  C   UNL     1      -9.809  -7.746  12.248  1.00  0.00     0.002 A 
ATOM     89  C   UNL     1      -8.682  -8.850  14.090  1.00  0.00     0.091 A 
ATOM     90  F   UNL     1      -6.369  -9.394  13.880  1.00  0.00    -0.205 F 
ATOM     91  C   UNL     1      -9.835  -8.269  13.539  1.00  0.00     0.022 A 
BRANCH  89  92
ATOM     92  S   UNL     1      -8.835  -9.586  15.722  1.00  0.00     0.127 S 
ATOM     93  O   UNL     1      -8.924  -8.403  16.575  1.00  0.00    -0.237 OA
ATOM     94  O   UNL     1     -10.079 -10.347  15.602  1.00  0.00    -0.237 OA
ATOM     95  O   UNL     1      -7.643 -10.403  15.908  1.00  0.00    -0.744 OA
ENDBRANCH  89  92
ENDBRANCH  62  85
ENDBRANCH  36  37
ENDBRANCH  28  31
ENDBRANCH  26  27
ENDBRANCH  25  26
ENDBRANCH  24  25
ENDBRANCH   1  24
TORSDOF 19
