REMARK SMILES Cc1onc2c(=O)n(C)nc(C(=O)NCCCCCCNC(=O)c3ccc(-c4c5nc(c(-c6cccc(S(=O)(=O)[O-])c6F)c6ccc([nH]6)c(-c6cccc(S(=O)(=O)[O-])c6F)c6nc(c(-c7cccc(S(=O)(=O)[O-])c7F)c7ccc4[nH]7)C=C6)C=C5)cc3)c12
REMARK SMILES IDX 19 1 18 2 17 3 16 4 15 5 14 6 12 7 13 8 11 10 1 11 2 12 3 13
REMARK SMILES IDX 87 14 4 15 5 16 6 17 10 18 7 19 8 20 9 21 20 22 21 23 22 24
REMARK SMILES IDX 23 26 24 27 25 28 86 29 26 30 85 31 27 32 28 33 29 34 79 35
REMARK SMILES IDX 30 36 84 37 78 38 80 39 31 40 83 41 77 42 76 43 32 45 64 46
REMARK SMILES IDX 44 47 63 48 45 49 48 50 62 51 81 52 46 53 47 54 61 56 82 57
REMARK SMILES IDX 49 58 33 59 34 60 42 61 35 62 37 63 43 64 36 65 38 66 39 67
REMARK SMILES IDX 40 68 41 69 65 70 66 71 74 72 67 73 69 74 75 75 68 76 70 77
REMARK SMILES IDX 71 78 72 79 73 80 50 81 51 82 59 83 52 84 54 85 60 86 53 87
REMARK SMILES IDX 55 88 56 89 57 90 58 91
REMARK H PARENT 14 9 21 25 80 44 48 55
REMARK Flexibility Score: inf
ROOT
ATOM      1  C   UNL     1      -1.576   8.038   3.396  1.00  0.00     0.021 C 
ENDROOT
BRANCH   1   2
ATOM      2  C   UNL     1      -0.955   7.468   2.107  1.00  0.00     0.002 C 
BRANCH   2   3
ATOM      3  C   UNL     1       0.322   6.637   2.286  1.00  0.00     0.002 C 
BRANCH   3   4
ATOM      4  C   UNL     1       0.191   5.411   3.198  1.00  0.00     0.021 C 
BRANCH   4   5
ATOM      5  C   UNL     1      -0.865   4.394   2.759  1.00  0.00     0.116 C 
BRANCH   5   6
ATOM      6  N   UNL     1      -0.452   3.670   1.563  1.00  0.00    -0.351 N 
ATOM      7  C   UNL     1      -0.132   2.350   1.331  1.00  0.00     0.272 C 
ATOM      8  O   UNL     1       0.234   2.043   0.200  1.00  0.00    -0.267 OA
ATOM      9  H   UNL     1      -0.389   4.238   0.761  1.00  0.00     0.163 HD
BRANCH   7  10
ATOM     10  C   UNL     1      -0.247   1.254   2.406  1.00  0.00     0.161 A 
ATOM     11  C   UNL     1       1.201  -0.665  -0.172  1.00  0.00     0.091 C 
ATOM     12  C   UNL     1       0.673  -0.885   1.189  1.00  0.00     0.144 A 
ATOM     13  O   UNL     1       0.764  -2.185   1.604  1.00  0.00    -0.360 OA
ATOM     14  C   UNL     1       0.117  -0.135   2.204  1.00  0.00     0.083 A 
ATOM     15  N   UNL     1       0.277  -2.309   2.888  1.00  0.00    -0.074 NA
ATOM     16  C   UNL     1      -0.095  -1.075   3.240  1.00  0.00     0.183 A 
ATOM     17  C   UNL     1      -0.647  -0.699   4.523  1.00  0.00     0.296 A 
ATOM     18  N   UNL     1      -0.739   1.586   3.569  1.00  0.00    -0.164 NA
ATOM     19  O   UNL     1      -0.857  -1.498   5.440  1.00  0.00    -0.265 OA
ATOM     20  N   UNL     1      -0.918   0.674   4.605  1.00  0.00    -0.230 N 
ATOM     21  C   UNL     1      -1.433   1.212   5.850  1.00  0.00     0.178 C 
ENDBRANCH   7  10
ENDBRANCH   5   6
ENDBRANCH   4   5
ENDBRANCH   3   4
ENDBRANCH   2   3
ENDBRANCH   1   2
BRANCH   1  22
ATOM     22  C   UNL     1      -0.769   9.152   4.088  1.00  0.00     0.116 C 
BRANCH  22  23
ATOM     23  N   UNL     1      -0.674  10.315   3.222  1.00  0.00    -0.352 N 
ATOM     24  C   UNL     1      -0.997  11.630   3.426  1.00  0.00     0.251 C 
ATOM     25  H   UNL     1      -0.313  10.123   2.326  1.00  0.00     0.163 HD
ATOM     26  O   UNL     1      -1.235  12.317   2.431  1.00  0.00    -0.269 OA
BRANCH  24  27
ATOM     27  C   UNL     1      -1.049  12.260   4.768  1.00  0.00     0.039 A 
ATOM     28  C   UNL     1      -1.944  13.326   4.947  1.00  0.00     0.014 A 
ATOM     29  C   UNL     1      -0.139  11.958   5.782  1.00  0.00     0.014 A 
ATOM     30  C   UNL     1      -1.952  14.063   6.135  1.00  0.00     0.010 A 
ATOM     31  C   UNL     1      -0.147  12.702   6.974  1.00  0.00     0.010 A 
ATOM     32  C   UNL     1      -1.061  13.751   7.169  1.00  0.00    -0.014 A 
BRANCH  32  33
ATOM     33  C   UNL     1      -1.234  14.431   8.477  1.00  0.00     0.031 A 
ATOM     34  C   UNL     1      -1.197  13.527   9.665  1.00  0.00     0.074 A 
ATOM     35  C   UNL     1      -0.983  15.743   8.690  1.00  0.00     0.049 A 
ATOM     36  N   UNL     1      -0.081  13.135  10.205  1.00  0.00    -0.248 NA
ATOM     37  C   UNL     1      -2.374  12.810  10.152  1.00  0.00     0.031 C 
ATOM     38  C   UNL     1       0.062  16.491   7.983  1.00  0.00     0.029 A 
ATOM     39  N   UNL     1      -1.376  16.590   9.709  1.00  0.00    -0.354 N 
ATOM     40  C   UNL     1      -0.378  12.078  11.043  1.00  0.00     0.074 A 
ATOM     41  C   UNL     1      -1.817  11.926  10.996  1.00  0.00     0.031 C 
ATOM     42  C   UNL     1       0.352  17.603   8.694  1.00  0.00     0.029 A 
ATOM     43  C   UNL     1      -0.588  17.739   9.807  1.00  0.00     0.049 A 
ATOM     44  H   UNL     1      -2.136  16.402  10.306  1.00  0.00     0.167 HD
ATOM     45  C   UNL     1       0.578  11.382  11.716  1.00  0.00     0.034 A 
ATOM     46  C   UNL     1      -0.323  18.415  10.963  1.00  0.00     0.034 A 
ATOM     47  C   UNL     1       1.925  11.838  11.523  1.00  0.00     0.049 A 
ATOM     48  C   UNL     1       0.559  17.430  11.685  1.00  0.00     0.074 A 
ATOM     49  C   UNL     1       2.995  11.513  10.716  1.00  0.00     0.029 A 
ATOM     50  N   UNL     1       2.345  12.949  12.215  1.00  0.00    -0.354 N 
ATOM     51  N   UNL     1       1.825  17.212  11.440  1.00  0.00    -0.248 NA
ATOM     52  C   UNL     1      -0.104  16.381  12.459  1.00  0.00     0.031 C 
ATOM     53  C   UNL     1       3.792  12.701  10.636  1.00  0.00     0.029 A 
ATOM     54  C   UNL     1       3.133  13.688  11.366  1.00  0.00     0.049 A 
ATOM     55  H   UNL     1       2.123  13.174  13.147  1.00  0.00     0.167 HD
ATOM     56  C   UNL     1       2.032  15.867  11.756  1.00  0.00     0.074 A 
ATOM     57  C   UNL     1       0.809  15.424  12.396  1.00  0.00     0.031 C 
ATOM     58  C   UNL     1       3.108  15.136  11.334  1.00  0.00     0.034 A 
BRANCH  45  59
ATOM     59  C   UNL     1       0.288  10.340  12.725  1.00  0.00     0.023 A 
ATOM     60  C   UNL     1       0.315  10.745  14.074  1.00  0.00     0.012 A 
ATOM     61  C   UNL     1       0.168   8.975  12.412  1.00  0.00     0.148 A 
ATOM     62  C   UNL     1       0.271   9.809  15.102  1.00  0.00     0.002 A 
ATOM     63  C   UNL     1       0.116   8.043  13.447  1.00  0.00     0.091 A 
ATOM     64  F   UNL     1       0.144   8.612  11.122  1.00  0.00    -0.205 F 
ATOM     65  C   UNL     1       0.181   8.459  14.789  1.00  0.00     0.022 A 
BRANCH  63  66
ATOM     66  S   UNL     1      -0.002   6.271  13.172  1.00  0.00     0.127 S 
ATOM     67  O   UNL     1       1.267   5.792  13.717  1.00  0.00    -0.237 OA
ATOM     68  O   UNL     1      -1.179   5.921  13.967  1.00  0.00    -0.237 OA
ATOM     69  O   UNL     1      -0.169   6.097  11.735  1.00  0.00    -0.744 OA
ENDBRANCH  63  66
ENDBRANCH  45  59
BRANCH  46  70
ATOM     70  C   UNL     1      -1.491  19.111  11.608  1.00  0.00     0.023 A 
ATOM     71  C   UNL     1      -2.268  19.955  10.778  1.00  0.00     0.012 A 
ATOM     72  C   UNL     1      -1.877  19.009  12.960  1.00  0.00     0.148 A 
ATOM     73  C   UNL     1      -3.434  20.575  11.237  1.00  0.00     0.002 A 
ATOM     74  C   UNL     1      -3.083  19.563  13.395  1.00  0.00     0.091 A 
ATOM     75  F   UNL     1      -1.072  18.383  13.825  1.00  0.00    -0.205 F 
ATOM     76  C   UNL     1      -3.862  20.349  12.537  1.00  0.00     0.022 A 
BRANCH  74  77
ATOM     77  S   UNL     1      -3.770  19.226  15.024  1.00  0.00     0.127 S 
ATOM     78  O   UNL     1      -4.058  20.570  15.520  1.00  0.00    -0.237 OA
ATOM     79  O   UNL     1      -4.948  18.430  14.678  1.00  0.00    -0.237 OA
ATOM     80  O   UNL     1      -2.733  18.508  15.751  1.00  0.00    -0.744 OA
ENDBRANCH  74  77
ENDBRANCH  46  70
BRANCH  58  81
ATOM     81  C   UNL     1       4.209  15.895  10.651  1.00  0.00     0.023 A 
ATOM     82  C   UNL     1       4.952  16.823  11.407  1.00  0.00     0.012 A 
ATOM     83  C   UNL     1       4.574  15.661   9.309  1.00  0.00     0.148 A 
ATOM     84  C   UNL     1       6.049  17.483  10.855  1.00  0.00     0.002 A 
ATOM     85  C   UNL     1       5.698  16.287   8.777  1.00  0.00     0.091 A 
ATOM     86  F   UNL     1       3.833  14.821   8.572  1.00  0.00    -0.205 F 
ATOM     87  C   UNL     1       6.433  17.202   9.548  1.00  0.00     0.022 A 
BRANCH  85  88
ATOM     88  S   UNL     1       6.328  15.937   7.130  1.00  0.00     0.127 S 
ATOM     89  O   UNL     1       6.361  17.268   6.524  1.00  0.00    -0.237 OA
ATOM     90  O   UNL     1       7.646  15.373   7.427  1.00  0.00    -0.237 OA
ATOM     91  O   UNL     1       5.388  15.008   6.518  1.00  0.00    -0.744 OA
ENDBRANCH  85  88
ENDBRANCH  58  81
ENDBRANCH  32  33
ENDBRANCH  24  27
ENDBRANCH  22  23
ENDBRANCH   1  22
TORSDOF 16
