REMARK SMILES COc1ccc(OCc2nc(N)cc(SCC(=O)NCCCCCCNC(=O)c3ccc(-c4c5nc(c(-c6cccc(S(=O)(=O)[O-])c6F)c6ccc([nH]6)c(-c6cccc(S(=O)(=O)[O-])c6F)c6nc(c(-c7cccc(S(=O)(=O)[O-])c7F)c7ccc4[nH]7)C=C6)C=C5)cc3)n2)cc1
REMARK SMILES IDX 21 1 20 2 19 3 17 4 18 5 16 7 15 8 14 9 9 10 10 11 92 12
REMARK SMILES IDX 11 13 13 14 8 15 7 16 6 17 3 18 4 19 94 20 5 21 93 22 2 23
REMARK SMILES IDX 1 24 12 25 22 28 23 29 24 30 25 31 26 32 27 33 28 35 29 36
REMARK SMILES IDX 30 37 91 38 31 39 90 40 32 41 33 42 34 43 84 44 35 45 89 46
REMARK SMILES IDX 83 47 85 48 36 49 88 50 82 51 81 52 37 54 69 55 49 56 68 57
REMARK SMILES IDX 50 58 53 59 67 60 86 61 51 62 52 63 66 65 87 66 54 67 38 68
REMARK SMILES IDX 39 69 47 70 40 71 42 72 48 73 41 74 43 75 44 76 45 77 46 78
REMARK SMILES IDX 70 79 71 80 79 81 72 82 74 83 80 84 73 85 75 86 76 87 77 88
REMARK SMILES IDX 78 89 55 90 56 91 64 92 57 93 59 94 65 95 58 96 60 97 61 98
REMARK SMILES IDX 62 99 63 100
REMARK H PARENT 19 6 12 26 12 27 26 34 85 53 53 64
REMARK Flexibility Score: inf
ROOT
ATOM      1  C   UNL     1       7.319  -0.938   9.650  1.00  0.00     0.021 C 
ENDROOT
BRANCH   1   2
ATOM      2  C   UNL     1       7.873  -2.138   8.881  1.00  0.00     0.116 C 
BRANCH   2   3
ATOM      3  N   UNL     1       6.810  -3.072   8.558  1.00  0.00    -0.355 N 
ATOM      4  C   UNL     1       6.245  -3.356   7.355  1.00  0.00     0.230 C 
ATOM      5  O   UNL     1       5.261  -4.103   7.338  1.00  0.00    -0.274 OA
ATOM      6  H   UNL     1       6.445  -3.573   9.323  1.00  0.00     0.163 HD
BRANCH   4   7
ATOM      7  C   UNL     1       6.852  -2.846   6.063  1.00  0.00     0.176 C 
BRANCH   7   8
ATOM      8  S   UNL     1       6.723  -1.054   5.806  1.00  0.00    -0.096 SA
BRANCH   8   9
ATOM      9  C   UNL     1       4.995  -0.676   5.970  1.00  0.00     0.102 A 
ATOM     10  C   UNL     1       3.483   1.039   6.206  1.00  0.00     0.169 A 
ATOM     11  N   UNL     1       2.434   0.199   6.211  1.00  0.00    -0.213 NA
ATOM     12  N   UNL     1       4.764   0.640   6.129  1.00  0.00    -0.223 NA
ATOM     13  C   UNL     1       2.695  -1.097   6.032  1.00  0.00     0.128 A 
ATOM     14  C   UNL     1       3.970  -1.585   5.873  1.00  0.00     0.082 A 
BRANCH  10  15
ATOM     15  C   UNL     1       3.230   2.536   6.141  1.00  0.00     0.306 C 
BRANCH  15  16
ATOM     16  O   UNL     1       1.980   2.942   5.559  1.00  0.00    -0.486 OA
BRANCH  16  17
ATOM     17  C   UNL     1       1.699   2.545   4.280  1.00  0.00     0.120 A 
ATOM     18  C   UNL     1       0.816   1.650   1.768  1.00  0.00     0.119 A 
ATOM     19  C   UNL     1      -0.075   2.257   2.652  1.00  0.00     0.050 A 
ATOM     20  C   UNL     1       2.160   1.540   2.121  1.00  0.00     0.050 A 
ATOM     21  C   UNL     1       0.363   2.695   3.904  1.00  0.00     0.050 A 
ATOM     22  C   UNL     1       2.603   2.001   3.367  1.00  0.00     0.050 A 
BRANCH  18  23
ATOM     23  O   UNL     1       0.281   1.246   0.575  1.00  0.00    -0.497 OA
ATOM     24  C   UNL     1       0.898   0.105  -0.011  1.00  0.00     0.278 C 
ENDBRANCH  18  23
ENDBRANCH  16  17
ENDBRANCH  15  16
ENDBRANCH  10  15
BRANCH  13  25
ATOM     25  N   UNL     1       1.599  -1.931   5.912  1.00  0.00    -0.384 N 
ATOM     26  H   UNL     1       0.691  -1.570   6.029  1.00  0.00     0.158 HD
ATOM     27  H   UNL     1       1.727  -2.886   5.711  1.00  0.00     0.158 HD
ENDBRANCH  13  25
ENDBRANCH   8   9
ENDBRANCH   7   8
ENDBRANCH   4   7
ENDBRANCH   2   3
ENDBRANCH   1   2
BRANCH   1  28
ATOM     28  C   UNL     1       6.755  -1.289  11.035  1.00  0.00     0.002 C 
BRANCH  28  29
ATOM     29  C   UNL     1       7.739  -1.984  11.981  1.00  0.00     0.002 C 
BRANCH  29  30
ATOM     30  C   UNL     1       9.050  -1.230  12.213  1.00  0.00     0.021 C 
BRANCH  30  31
ATOM     31  C   UNL     1       8.882   0.167  12.800  1.00  0.00     0.116 C 
BRANCH  31  32
ATOM     32  N   UNL     1       8.296   0.133  14.132  1.00  0.00    -0.352 N 
ATOM     33  C   UNL     1       8.763   0.688  15.297  1.00  0.00     0.251 C 
ATOM     34  H   UNL     1       7.445  -0.357  14.208  1.00  0.00     0.163 HD
ATOM     35  O   UNL     1       8.241   0.391  16.371  1.00  0.00    -0.269 OA
BRANCH  33  36
ATOM     36  C   UNL     1       9.904   1.627  15.260  1.00  0.00     0.039 A 
ATOM     37  C   UNL     1      10.927   1.489  16.201  1.00  0.00     0.014 A 
ATOM     38  C   UNL     1       9.966   2.639  14.298  1.00  0.00     0.014 A 
ATOM     39  C   UNL     1      12.040   2.330  16.140  1.00  0.00     0.010 A 
ATOM     40  C   UNL     1      11.111   3.422  14.190  1.00  0.00     0.010 A 
ATOM     41  C   UNL     1      12.157   3.283  15.114  1.00  0.00    -0.014 A 
BRANCH  41  42
ATOM     42  C   UNL     1      13.369   4.134  14.987  1.00  0.00     0.031 A 
ATOM     43  C   UNL     1      13.262   5.631  15.103  1.00  0.00     0.074 A 
ATOM     44  C   UNL     1      14.553   3.565  14.686  1.00  0.00     0.049 A 
ATOM     45  N   UNL     1      14.197   6.536  14.972  1.00  0.00    -0.248 NA
ATOM     46  C   UNL     1      11.927   6.186  15.379  1.00  0.00     0.031 C 
ATOM     47  C   UNL     1      14.774   2.132  14.475  1.00  0.00     0.029 A 
ATOM     48  N   UNL     1      15.790   4.124  14.481  1.00  0.00    -0.354 N 
ATOM     49  C   UNL     1      13.561   7.764  15.114  1.00  0.00     0.074 A 
ATOM     50  C   UNL     1      12.153   7.489  15.305  1.00  0.00     0.031 C 
ATOM     51  C   UNL     1      16.067   1.925  14.179  1.00  0.00     0.029 A 
ATOM     52  C   UNL     1      16.760   3.208  14.143  1.00  0.00     0.049 A 
ATOM     53  H   UNL     1      15.967   5.088  14.569  1.00  0.00     0.167 HD
ATOM     54  C   UNL     1      14.100   9.006  15.115  1.00  0.00     0.034 A 
ATOM     55  C   UNL     1      18.059   3.383  13.827  1.00  0.00     0.034 A 
ATOM     56  C   UNL     1      15.505   9.274  14.956  1.00  0.00     0.049 A 
ATOM     57  C   UNL     1      18.637   4.772  13.854  1.00  0.00     0.074 A 
ATOM     58  C   UNL     1      16.161  10.491  15.023  1.00  0.00     0.029 A 
ATOM     59  N   UNL     1      16.468   8.315  14.685  1.00  0.00    -0.354 N 
ATOM     60  N   UNL     1      18.048   5.907  14.143  1.00  0.00    -0.248 NA
ATOM     61  C   UNL     1      20.069   4.901  13.547  1.00  0.00     0.031 C 
ATOM     62  C   UNL     1      17.516  10.271  14.757  1.00  0.00     0.029 A 
ATOM     63  C   UNL     1      17.711   8.913  14.566  1.00  0.00     0.049 A 
ATOM     64  H   UNL     1      16.294   7.351  14.590  1.00  0.00     0.167 HD
ATOM     65  C   UNL     1      19.042   6.878  14.091  1.00  0.00     0.074 A 
ATOM     66  C   UNL     1      20.276   6.193  13.762  1.00  0.00     0.031 C 
ATOM     67  C   UNL     1      18.941   8.215  14.287  1.00  0.00     0.034 A 
BRANCH  54  68
ATOM     68  C   UNL     1      13.171  10.173  15.337  1.00  0.00     0.023 A 
ATOM     69  C   UNL     1      12.582  10.366  16.604  1.00  0.00     0.012 A 
ATOM     70  C   UNL     1      12.925  11.108  14.312  1.00  0.00     0.148 A 
ATOM     71  C   UNL     1      11.730  11.445  16.836  1.00  0.00     0.002 A 
ATOM     72  C   UNL     1      12.114  12.209  14.566  1.00  0.00     0.091 A 
ATOM     73  F   UNL     1      13.478  10.900  13.110  1.00  0.00    -0.205 F 
ATOM     74  C   UNL     1      11.505  12.371  15.821  1.00  0.00     0.022 A 
BRANCH  72  75
ATOM     75  S   UNL     1      11.828  13.503  13.353  1.00  0.00     0.127 S 
ATOM     76  O   UNL     1      10.419  13.292  13.024  1.00  0.00    -0.237 OA
ATOM     77  O   UNL     1      12.099  14.714  14.128  1.00  0.00    -0.237 OA
ATOM     78  O   UNL     1      12.766  13.252  12.268  1.00  0.00    -0.744 OA
ENDBRANCH  72  75
ENDBRANCH  54  68
BRANCH  55  79
ATOM     79  C   UNL     1      18.916   2.205  13.512  1.00  0.00     0.023 A 
ATOM     80  C   UNL     1      19.932   1.827  14.412  1.00  0.00     0.012 A 
ATOM     81  C   UNL     1      18.721   1.449  12.340  1.00  0.00     0.148 A 
ATOM     82  C   UNL     1      20.762   0.741  14.133  1.00  0.00     0.002 A 
ATOM     83  C   UNL     1      19.513   0.334  12.096  1.00  0.00     0.091 A 
ATOM     84  F   UNL     1      17.755   1.830  11.493  1.00  0.00    -0.205 F 
ATOM     85  C   UNL     1      20.547  -0.011  12.980  1.00  0.00     0.022 A 
BRANCH  83  86
ATOM     86  S   UNL     1      19.226  -0.768  10.707  1.00  0.00     0.127 S 
ATOM     87  O   UNL     1      20.405  -0.522   9.880  1.00  0.00    -0.237 OA
ATOM     88  O   UNL     1      19.194  -2.076  11.362  1.00  0.00    -0.237 OA
ATOM     89  O   UNL     1      17.953  -0.354  10.131  1.00  0.00    -0.744 OA
ENDBRANCH  83  86
ENDBRANCH  55  79
BRANCH  67  90
ATOM     90  C   UNL     1      20.203   9.034  14.198  1.00  0.00     0.023 A 
ATOM     91  C   UNL     1      20.821   9.248  12.950  1.00  0.00     0.012 A 
ATOM     92  C   UNL     1      20.737   9.649  15.348  1.00  0.00     0.148 A 
ATOM     93  C   UNL     1      21.971  10.032  12.854  1.00  0.00     0.002 A 
ATOM     94  C   UNL     1      21.851  10.472  15.236  1.00  0.00     0.091 A 
ATOM     95  F   UNL     1      20.145   9.419  16.529  1.00  0.00    -0.205 F 
ATOM     96  C   UNL     1      22.477  10.653  13.993  1.00  0.00     0.022 A 
BRANCH  94  97
ATOM     97  S   UNL     1      22.514  11.393  16.629  1.00  0.00     0.127 S 
ATOM     98  O   UNL     1      23.778  10.698  16.869  1.00  0.00    -0.237 OA
ATOM     99  O   UNL     1      22.653  12.738  16.072  1.00  0.00    -0.237 OA
ATOM    100  O   UNL     1      21.528  11.278  17.695  1.00  0.00    -0.744 OA
ENDBRANCH  94  97
ENDBRANCH  67  90
ENDBRANCH  41  42
ENDBRANCH  33  36
ENDBRANCH  31  32
ENDBRANCH  30  31
ENDBRANCH  29  30
ENDBRANCH  28  29
ENDBRANCH   1  28
TORSDOF 23
