REMARK SMILES CC1(C)C(C(=O)Nc2ccc(CC(=O)NCCCCCCNC(=O)c3ccc(-c4c5nc(c(-c6cccc(S(=O)(=O)[O-])c6F)c6ccc([nH]6)c(-c6cccc(S(=O)(=O)[O-])c6F)c6nc(c(-c7cccc(S(=O)(=O)[O-])c7F)c7ccc4[nH]7)C=C6)C=C5)cc3)cc2)C1(C)C
REMARK SMILES IDX 18 1 17 2 16 3 15 4 13 5 14 6 12 8 11 9 8 10 9 11 89 12
REMARK SMILES IDX 10 13 88 14 7 15 5 16 6 17 4 19 1 20 2 21 3 22 90 23 91 24
REMARK SMILES IDX 92 25 19 26 20 27 21 28 22 29 23 30 24 32 25 33 26 34 87 35
REMARK SMILES IDX 27 36 86 37 28 38 29 39 30 40 80 41 31 42 85 43 79 44 81 45
REMARK SMILES IDX 32 46 84 47 78 48 77 49 33 51 65 52 45 53 64 54 46 55 49 56
REMARK SMILES IDX 63 57 82 58 47 59 48 60 62 62 83 63 50 64 34 65 35 66 43 67
REMARK SMILES IDX 36 68 38 69 44 70 37 71 39 72 40 73 41 74 42 75 66 76 67 77
REMARK SMILES IDX 75 78 68 79 70 80 76 81 69 82 71 83 72 84 73 85 74 86 51 87
REMARK SMILES IDX 52 88 60 89 53 90 55 91 61 92 54 93 56 94 57 95 58 96 59 97
REMARK H PARENT 15 7 7 18 22 31 81 50 49 61
REMARK Flexibility Score: inf
ROOT
ATOM      1  C   UNL     1      -4.997  -0.317  -6.422  1.00  0.00     0.002 C 
ENDROOT
BRANCH   1   2
ATOM      2  C   UNL     1      -4.333  -0.468  -5.053  1.00  0.00     0.021 C 
BRANCH   2   3
ATOM      3  C   UNL     1      -5.223  -0.007  -3.893  1.00  0.00     0.116 C 
BRANCH   3   4
ATOM      4  N   UNL     1      -6.272  -0.972  -3.631  1.00  0.00    -0.356 N 
ATOM      5  C   UNL     1      -6.271  -2.031  -2.771  1.00  0.00     0.224 C 
ATOM      6  O   UNL     1      -7.240  -2.794  -2.780  1.00  0.00    -0.275 OA
ATOM      7  H   UNL     1      -7.102  -0.845  -4.146  1.00  0.00     0.163 HD
BRANCH   5   8
ATOM      8  C   UNL     1      -5.144  -2.211  -1.775  1.00  0.00     0.135 C 
BRANCH   8   9
ATOM      9  C   UNL     1      -3.830  -2.691  -2.340  1.00  0.00    -0.039 A 
ATOM     10  C   UNL     1      -1.215  -3.495  -2.891  1.00  0.00     0.041 A 
ATOM     11  C   UNL     1      -2.227  -4.454  -2.814  1.00  0.00     0.026 A 
ATOM     12  C   UNL     1      -1.552  -2.164  -2.986  1.00  0.00     0.026 A 
ATOM     13  C   UNL     1      -3.545  -4.046  -2.545  1.00  0.00     0.006 A 
ATOM     14  C   UNL     1      -2.822  -1.764  -2.606  1.00  0.00     0.006 A 
BRANCH  10  15
ATOM     15  N   UNL     1       0.134  -3.853  -2.760  1.00  0.00    -0.326 N 
ATOM     16  C   UNL     1       1.160  -2.985  -2.422  1.00  0.00     0.228 C 
ATOM     17  O   UNL     1       2.108  -2.878  -3.200  1.00  0.00    -0.274 OA
ATOM     18  H   UNL     1       0.371  -4.795  -2.919  1.00  0.00     0.169 HD
BRANCH  16  19
ATOM     19  C   UNL     1       1.371  -2.481  -1.010  1.00  0.00     0.091 C 
ATOM     20  C   UNL     1       1.991  -0.388   0.446  1.00  0.00     0.012 C 
ATOM     21  C   UNL     1       0.938  -1.169  -0.332  1.00  0.00    -0.017 C 
ATOM     22  C   UNL     1      -0.068  -0.189  -0.871  1.00  0.00     0.012 C 
ATOM     23  C   UNL     1       0.502  -2.550   0.237  1.00  0.00    -0.017 C 
ATOM     24  C   UNL     1       1.186  -3.060   1.494  1.00  0.00     0.012 C 
ATOM     25  C   UNL     1      -0.933  -3.006   0.215  1.00  0.00     0.012 C 
ENDBRANCH  16  19
ENDBRANCH  10  15
ENDBRANCH   8   9
ENDBRANCH   5   8
ENDBRANCH   3   4
ENDBRANCH   2   3
ENDBRANCH   1   2
BRANCH   1  26
ATOM     26  C   UNL     1      -5.385   1.120  -6.772  1.00  0.00     0.002 C 
BRANCH  26  27
ATOM     27  C   UNL     1      -4.219   2.112  -6.761  1.00  0.00     0.021 C 
BRANCH  27  28
ATOM     28  C   UNL     1      -3.127   1.798  -7.779  1.00  0.00     0.116 C 
BRANCH  28  29
ATOM     29  N   UNL     1      -3.648   1.819  -9.139  1.00  0.00    -0.352 N 
ATOM     30  C   UNL     1      -3.264   2.593 -10.205  1.00  0.00     0.251 C 
ATOM     31  H   UNL     1      -4.381   1.187  -9.319  1.00  0.00     0.163 HD
ATOM     32  O   UNL     1      -3.973   2.663 -11.200  1.00  0.00    -0.269 OA
BRANCH  30  33
ATOM     33  C   UNL     1      -1.992   3.343 -10.139  1.00  0.00     0.039 A 
ATOM     34  C   UNL     1      -1.959   4.663 -10.592  1.00  0.00     0.014 A 
ATOM     35  C   UNL     1      -0.835   2.740  -9.638  1.00  0.00     0.014 A 
ATOM     36  C   UNL     1      -0.774   5.396 -10.494  1.00  0.00     0.010 A 
ATOM     37  C   UNL     1       0.321   3.494  -9.469  1.00  0.00     0.010 A 
ATOM     38  C   UNL     1       0.367   4.827  -9.903  1.00  0.00    -0.014 A 
BRANCH  38  39
ATOM     39  C   UNL     1       1.616   5.612  -9.730  1.00  0.00     0.031 A 
ATOM     40  C   UNL     1       2.883   5.180 -10.421  1.00  0.00     0.074 A 
ATOM     41  C   UNL     1       1.626   6.672  -8.897  1.00  0.00     0.049 A 
ATOM     42  N   UNL     1       4.081   5.698 -10.342  1.00  0.00    -0.248 NA
ATOM     43  C   UNL     1       2.798   3.999 -11.298  1.00  0.00     0.031 C 
ATOM     44  C   UNL     1       0.479   7.151  -8.121  1.00  0.00     0.029 A 
ATOM     45  N   UNL     1       2.641   7.526  -8.544  1.00  0.00    -0.354 N 
ATOM     46  C   UNL     1       4.894   4.899 -11.139  1.00  0.00     0.074 A 
ATOM     47  C   UNL     1       4.064   3.834 -11.656  1.00  0.00     0.031 C 
ATOM     48  C   UNL     1       0.853   8.215  -7.392  1.00  0.00     0.029 A 
ATOM     49  C   UNL     1       2.271   8.472  -7.617  1.00  0.00     0.049 A 
ATOM     50  H   UNL     1       3.549   7.466  -8.920  1.00  0.00     0.167 HD
ATOM     51  C   UNL     1       6.204   5.057 -11.442  1.00  0.00     0.034 A 
ATOM     52  C   UNL     1       2.996   9.431  -7.008  1.00  0.00     0.034 A 
ATOM     53  C   UNL     1       7.021   6.133 -10.950  1.00  0.00     0.049 A 
ATOM     54  C   UNL     1       4.453   9.578  -7.364  1.00  0.00     0.074 A 
ATOM     55  C   UNL     1       8.346   6.408 -11.237  1.00  0.00     0.029 A 
ATOM     56  N   UNL     1       6.592   7.111 -10.066  1.00  0.00    -0.354 N 
ATOM     57  N   UNL     1       5.167   8.893  -8.224  1.00  0.00    -0.248 NA
ATOM     58  C   UNL     1       5.194  10.655  -6.692  1.00  0.00     0.031 C 
ATOM     59  C   UNL     1       8.725   7.541 -10.511  1.00  0.00     0.029 A 
ATOM     60  C   UNL     1       7.626   7.991  -9.797  1.00  0.00     0.049 A 
ATOM     61  H   UNL     1       5.686   7.171  -9.686  1.00  0.00     0.167 HD
ATOM     62  C   UNL     1       6.425   9.486  -8.231  1.00  0.00     0.074 A 
ATOM     63  C   UNL     1       6.367  10.598  -7.306  1.00  0.00     0.031 C 
ATOM     64  C   UNL     1       7.533   9.133  -8.927  1.00  0.00     0.034 A 
BRANCH  51  65
ATOM     65  C   UNL     1       6.827   4.078 -12.405  1.00  0.00     0.023 A 
ATOM     66  C   UNL     1       6.468   4.128 -13.768  1.00  0.00     0.012 A 
ATOM     67  C   UNL     1       7.819   3.171 -11.985  1.00  0.00     0.148 A 
ATOM     68  C   UNL     1       7.064   3.274 -14.693  1.00  0.00     0.002 A 
ATOM     69  C   UNL     1       8.443   2.354 -12.921  1.00  0.00     0.091 A 
ATOM     70  F   UNL     1       8.137   3.129 -10.684  1.00  0.00    -0.205 F 
ATOM     71  C   UNL     1       8.059   2.396 -14.272  1.00  0.00     0.022 A 
BRANCH  69  72
ATOM     72  S   UNL     1       9.793   1.245 -12.501  1.00  0.00     0.127 S 
ATOM     73  O   UNL     1       9.189  -0.063 -12.754  1.00  0.00    -0.237 OA
ATOM     74  O   UNL     1      10.821   1.638 -13.465  1.00  0.00    -0.237 OA
ATOM     75  O   UNL     1      10.122   1.518 -11.110  1.00  0.00    -0.744 OA
ENDBRANCH  69  72
ENDBRANCH  51  65
BRANCH  52  76
ATOM     76  C   UNL     1       2.360  10.363  -6.032  1.00  0.00     0.023 A 
ATOM     77  C   UNL     1       2.250  11.731  -6.352  1.00  0.00     0.012 A 
ATOM     78  C   UNL     1       1.888   9.911  -4.785  1.00  0.00     0.148 A 
ATOM     79  C   UNL     1       1.735  12.640  -5.427  1.00  0.00     0.002 A 
ATOM     80  C   UNL     1       1.321  10.813  -3.892  1.00  0.00     0.091 A 
ATOM     81  F   UNL     1       2.009   8.609  -4.492  1.00  0.00    -0.205 F 
ATOM     82  C   UNL     1       1.265  12.181  -4.200  1.00  0.00     0.022 A 
BRANCH  80  83
ATOM     83  S   UNL     1       0.574  10.288  -2.345  1.00  0.00     0.127 S 
ATOM     84  O   UNL     1       1.559  10.742  -1.367  1.00  0.00    -0.237 OA
ATOM     85  O   UNL     1      -0.684  11.035  -2.345  1.00  0.00    -0.237 OA
ATOM     86  O   UNL     1       0.410   8.844  -2.460  1.00  0.00    -0.744 OA
ENDBRANCH  80  83
ENDBRANCH  52  76
BRANCH  64  87
ATOM     87  C   UNL     1       8.761   9.993  -8.770  1.00  0.00     0.023 A 
ATOM     88  C   UNL     1       9.492   9.967  -7.566  1.00  0.00     0.012 A 
ATOM     89  C   UNL     1       9.225  10.775  -9.846  1.00  0.00     0.148 A 
ATOM     90  C   UNL     1      10.645  10.738  -7.422  1.00  0.00     0.002 A 
ATOM     91  C   UNL     1      10.404  11.498  -9.714  1.00  0.00     0.091 A 
ATOM     92  F   UNL     1       8.506  10.798 -10.977  1.00  0.00    -0.205 F 
ATOM     93  C   UNL     1      11.107  11.492  -8.498  1.00  0.00     0.022 A 
BRANCH  91  94
ATOM     94  S   UNL     1      11.130  12.418 -11.075  1.00  0.00     0.127 S 
ATOM     95  O   UNL     1      10.926  13.800 -10.641  1.00  0.00    -0.237 OA
ATOM     96  O   UNL     1      12.521  11.968 -11.044  1.00  0.00    -0.237 OA
ATOM     97  O   UNL     1      10.392  12.025 -12.267  1.00  0.00    -0.744 OA
ENDBRANCH  91  94
ENDBRANCH  64  87
ENDBRANCH  38  39
ENDBRANCH  30  33
ENDBRANCH  28  29
ENDBRANCH  27  28
ENDBRANCH  26  27
ENDBRANCH   1  26
TORSDOF 19
