REMARK SMILES CCOc1cc2c(cc1/C=C1/C(=O)N(c3cccc(C(=O)NCCCCCCNC(=O)c4ccc(-c5c6nc(c(-c7cccc(S(=O)(=O)[O-])c7F)c7ccc([nH]7)c(-c7cccc(S(=O)(=O)[O-])c7F)c7nc(c(-c8cccc(S(=O)(=O)[O-])c8F)c8ccc5[nH]8)C=C7)C=C6)cc4)c3)C(=S)N=C1O)OCO2
REMARK SMILES IDX 25 1 24 2 23 3 22 4 20 5 21 6 19 8 15 9 16 10 95 11 17 12
REMARK SMILES IDX 18 13 14 14 10 15 11 16 12 17 99 18 13 19 98 20 96 21 97 22
REMARK SMILES IDX 9 23 4 24 5 25 6 26 8 27 7 28 103 29 101 30 102 31 3 32 2 33
REMARK SMILES IDX 1 34 100 35 26 37 27 38 28 39 29 40 30 41 31 43 32 44 33 45
REMARK SMILES IDX 94 46 34 47 93 48 35 49 36 50 37 51 87 52 38 53 92 54 86 55
REMARK SMILES IDX 88 56 39 57 91 58 85 59 84 60 40 62 72 63 52 64 71 65 53 66
REMARK SMILES IDX 56 67 70 68 89 69 54 70 55 71 69 73 90 74 57 75 41 76 42 77
REMARK SMILES IDX 50 78 43 79 45 80 51 81 44 82 46 83 47 84 48 85 49 86 73 87
REMARK SMILES IDX 74 88 82 89 75 90 77 91 83 92 76 93 78 94 79 95 80 96 81 97
REMARK SMILES IDX 58 98 59 99 67 100 60 101 62 102 68 103 61 104 63 105 64 106
REMARK SMILES IDX 65 107 66 108
REMARK H PARENT 22 7 100 36 29 42 88 61 56 72
REMARK Flexibility Score: inf
ROOT
ATOM      1  C   UNL     1      -0.799  -9.441   2.424  1.00  0.00     0.002 C 
ENDROOT
BRANCH   1   2
ATOM      2  C   UNL     1       0.212  -8.889   3.425  1.00  0.00     0.021 C 
BRANCH   2   3
ATOM      3  C   UNL     1      -0.340  -7.995   4.527  1.00  0.00     0.116 C 
BRANCH   3   4
ATOM      4  N   UNL     1      -1.252  -8.656   5.448  1.00  0.00    -0.352 N 
ATOM      5  C   UNL     1      -1.423  -8.536   6.812  1.00  0.00     0.251 C 
ATOM      6  O   UNL     1      -2.277  -9.237   7.355  1.00  0.00    -0.269 OA
ATOM      7  H   UNL     1      -1.856  -9.305   5.021  1.00  0.00     0.163 HD
BRANCH   5   8
ATOM      8  C   UNL     1      -0.571  -7.650   7.660  1.00  0.00     0.041 A 
ATOM      9  C   UNL     1       1.115  -5.900   7.863  1.00  0.00     0.052 A 
ATOM     10  C   UNL     1       1.271  -6.228   9.212  1.00  0.00     0.027 A 
ATOM     11  C   UNL     1       0.068  -6.516   7.161  1.00  0.00     0.040 A 
ATOM     12  C   UNL     1       0.528  -7.266   9.783  1.00  0.00     0.003 A 
ATOM     13  C   UNL     1      -0.352  -8.008   8.994  1.00  0.00     0.014 A 
BRANCH   9  14
ATOM     14  N   UNL     1       2.087  -5.133   7.099  1.00  0.00    -0.251 N 
ATOM     15  C   UNL     1       2.180  -2.533   4.513  1.00  0.00     0.031 C 
ATOM     16  C   UNL     1       2.545  -3.627   5.216  1.00  0.00     0.103 C 
ATOM     17  C   UNL     1       1.561  -4.208   6.172  1.00  0.00     0.270 C 
ATOM     18  C   UNL     1       3.823  -4.318   5.186  1.00  0.00     0.226 C 
ATOM     19  O   UNL     1       0.377  -3.867   6.128  1.00  0.00    -0.268 OA
ATOM     20  N   UNL     1       4.264  -5.127   6.065  1.00  0.00    -0.184 NA
ATOM     21  C   UNL     1       3.471  -5.479   7.130  1.00  0.00     0.210 C 
ATOM     22  S   UNL     1       4.263  -6.448   8.286  1.00  0.00    -0.038 S 
BRANCH  15  23
ATOM     23  C   UNL     1       2.983  -1.705   3.582  1.00  0.00     0.021 A 
ATOM     24  C   UNL     1       2.391  -1.132   2.423  1.00  0.00     0.130 A 
ATOM     25  C   UNL     1       3.163  -0.364   1.543  1.00  0.00     0.097 A 
ATOM     26  C   UNL     1       4.511  -0.235   1.794  1.00  0.00     0.169 A 
ATOM     27  C   UNL     1       4.332  -1.424   3.865  1.00  0.00     0.062 A 
ATOM     28  C   UNL     1       5.077  -0.744   2.930  1.00  0.00     0.166 A 
ATOM     29  O   UNL     1       5.417   0.407   1.010  1.00  0.00    -0.453 OA
ATOM     30  O   UNL     1       6.413  -0.498   3.008  1.00  0.00    -0.454 OA
ATOM     31  C   UNL     1       6.635   0.131   1.725  1.00  0.00     0.468 C 
BRANCH  24  32
ATOM     32  O   UNL     1       1.029  -1.249   2.275  1.00  0.00    -0.493 OA
BRANCH  32  33
ATOM     33  C   UNL     1       0.568  -1.720   1.005  1.00  0.00     0.226 C 
ATOM     34  C   UNL     1       0.305  -0.617  -0.004  1.00  0.00     0.049 C 
ENDBRANCH  32  33
ENDBRANCH  24  32
ENDBRANCH  15  23
BRANCH  18  35
ATOM     35  O   UNL     1       4.584  -4.161   4.105  1.00  0.00    -0.493 OA
ATOM     36  H   UNL     1       4.314  -3.579   3.422  1.00  0.00     0.295 HD
ENDBRANCH  18  35
ENDBRANCH   9  14
ENDBRANCH   5   8
ENDBRANCH   3   4
ENDBRANCH   2   3
ENDBRANCH   1   2
BRANCH   1  37
ATOM     37  C   UNL     1      -1.683  -8.411   1.716  1.00  0.00     0.002 C 
BRANCH  37  38
ATOM     38  C   UNL     1      -0.958  -7.246   1.040  1.00  0.00     0.021 C 
BRANCH  38  39
ATOM     39  C   UNL     1       0.136  -7.633   0.052  1.00  0.00     0.116 C 
BRANCH  39  40
ATOM     40  N   UNL     1      -0.367  -8.413  -1.066  1.00  0.00    -0.352 N 
ATOM     41  C   UNL     1      -0.219  -8.197  -2.416  1.00  0.00     0.251 C 
ATOM     42  H   UNL     1      -0.889  -9.211  -0.822  1.00  0.00     0.163 HD
ATOM     43  O   UNL     1      -0.849  -8.875  -3.219  1.00  0.00    -0.269 OA
BRANCH  41  44
ATOM     44  C   UNL     1       0.688  -7.129  -2.896  1.00  0.00     0.039 A 
ATOM     45  C   UNL     1       0.252  -6.278  -3.915  1.00  0.00     0.014 A 
ATOM     46  C   UNL     1       1.963  -6.970  -2.349  1.00  0.00     0.014 A 
ATOM     47  C   UNL     1       1.075  -5.232  -4.346  1.00  0.00     0.010 A 
ATOM     48  C   UNL     1       2.746  -5.880  -2.722  1.00  0.00     0.010 A 
ATOM     49  C   UNL     1       2.317  -5.005  -3.733  1.00  0.00    -0.014 A 
BRANCH  49  50
ATOM     50  C   UNL     1       3.202  -3.884  -4.149  1.00  0.00     0.031 A 
ATOM     51  C   UNL     1       4.569  -4.181  -4.712  1.00  0.00     0.074 A 
ATOM     52  C   UNL     1       2.812  -2.606  -3.963  1.00  0.00     0.049 A 
ATOM     53  N   UNL     1       5.525  -3.352  -5.041  1.00  0.00    -0.248 NA
ATOM     54  C   UNL     1       4.914  -5.599  -4.915  1.00  0.00     0.031 C 
ATOM     55  C   UNL     1       1.522  -2.178  -3.416  1.00  0.00     0.029 A 
ATOM     56  N   UNL     1       3.473  -1.426  -4.201  1.00  0.00    -0.354 N 
ATOM     57  C   UNL     1       6.588  -4.143  -5.461  1.00  0.00     0.074 A 
ATOM     58  C   UNL     1       6.178  -5.521  -5.304  1.00  0.00     0.031 C 
ATOM     59  C   UNL     1       1.484  -0.836  -3.372  1.00  0.00     0.029 A 
ATOM     60  C   UNL     1       2.762  -0.308  -3.830  1.00  0.00     0.049 A 
ATOM     61  H   UNL     1       4.373  -1.384  -4.599  1.00  0.00     0.167 HD
ATOM     62  C   UNL     1       7.786  -3.760  -5.965  1.00  0.00     0.034 A 
ATOM     63  C   UNL     1       3.106   0.995  -3.841  1.00  0.00     0.034 A 
ATOM     64  C   UNL     1       8.175  -2.389  -6.156  1.00  0.00     0.049 A 
ATOM     65  C   UNL     1       4.456   1.389  -4.365  1.00  0.00     0.074 A 
ATOM     66  C   UNL     1       9.339  -1.897  -6.721  1.00  0.00     0.029 A 
ATOM     67  N   UNL     1       7.415  -1.292  -5.784  1.00  0.00    -0.354 N 
ATOM     68  N   UNL     1       5.408   0.628  -4.845  1.00  0.00    -0.248 NA
ATOM     69  C   UNL     1       4.759   2.826  -4.389  1.00  0.00     0.031 C 
ATOM     70  C   UNL     1       9.296  -0.501  -6.660  1.00  0.00     0.029 A 
ATOM     71  C   UNL     1       8.088  -0.123  -6.097  1.00  0.00     0.049 A 
ATOM     72  H   UNL     1       6.528  -1.337  -5.360  1.00  0.00     0.167 HD
ATOM     73  C   UNL     1       6.400   1.496  -5.280  1.00  0.00     0.074 A 
ATOM     74  C   UNL     1       5.932   2.840  -5.006  1.00  0.00     0.031 C 
ATOM     75  C   UNL     1       7.590   1.206  -5.860  1.00  0.00     0.034 A 
BRANCH  62  76
ATOM     76  C   UNL     1       8.749  -4.840  -6.389  1.00  0.00     0.023 A 
ATOM     77  C   UNL     1       8.466  -5.622  -7.529  1.00  0.00     0.012 A 
ATOM     78  C   UNL     1       9.963  -5.040  -5.702  1.00  0.00     0.148 A 
ATOM     79  C   UNL     1       9.356  -6.607  -7.955  1.00  0.00     0.002 A 
ATOM     80  C   UNL     1      10.867  -5.990  -6.162  1.00  0.00     0.091 A 
ATOM     81  F   UNL     1      10.207  -4.301  -4.610  1.00  0.00    -0.205 F 
ATOM     82  C   UNL     1      10.560  -6.783  -7.279  1.00  0.00     0.022 A 
BRANCH  80  83
ATOM     83  S   UNL     1      12.480  -6.238  -5.411  1.00  0.00     0.127 S 
ATOM     84  O   UNL     1      12.327  -7.566  -4.818  1.00  0.00    -0.237 OA
ATOM     85  O   UNL     1      13.369  -6.187  -6.571  1.00  0.00    -0.237 OA
ATOM     86  O   UNL     1      12.654  -5.149  -4.460  1.00  0.00    -0.744 OA
ENDBRANCH  80  83
ENDBRANCH  62  76
BRANCH  63  87
ATOM     87  C   UNL     1       2.149   2.041  -3.384  1.00  0.00     0.023 A 
ATOM     88  C   UNL     1       1.490   2.844  -4.332  1.00  0.00     0.012 A 
ATOM     89  C   UNL     1       1.915   2.261  -2.016  1.00  0.00     0.148 A 
ATOM     90  C   UNL     1       0.628   3.862  -3.921  1.00  0.00     0.002 A 
ATOM     91  C   UNL     1       1.016   3.241  -1.613  1.00  0.00     0.091 A 
ATOM     92  F   UNL     1       2.577   1.499  -1.138  1.00  0.00    -0.205 F 
ATOM     93  C   UNL     1       0.386   4.057  -2.563  1.00  0.00     0.022 A 
BRANCH  91  94
ATOM     94  S   UNL     1       0.581   3.506   0.109  1.00  0.00     0.127 S 
ATOM     95  O   UNL     1       0.690   4.958   0.236  1.00  0.00    -0.237 OA
ATOM     96  O   UNL     1      -0.784   2.985   0.144  1.00  0.00    -0.237 OA
ATOM     97  O   UNL     1       1.559   2.750   0.878  1.00  0.00    -0.744 OA
ENDBRANCH  91  94
ENDBRANCH  63  87
BRANCH  75  98
ATOM     98  C   UNL     1       8.447   2.361  -6.301  1.00  0.00     0.023 A 
ATOM     99  C   UNL     1       9.110   3.158  -5.349  1.00  0.00     0.012 A 
ATOM    100  C   UNL     1       8.645   2.610  -7.674  1.00  0.00     0.148 A 
ATOM    101  C   UNL     1       9.932   4.209  -5.756  1.00  0.00     0.002 A 
ATOM    102  C   UNL     1       9.508   3.622  -8.073  1.00  0.00     0.091 A 
ATOM    103  F   UNL     1       7.987   1.851  -8.562  1.00  0.00    -0.205 F 
ATOM    104  C   UNL     1      10.140   4.431  -7.116  1.00  0.00     0.022 A 
BRANCH 102 105
ATOM    105  S   UNL     1       9.915   3.916  -9.796  1.00  0.00     0.127 S 
ATOM    106  O   UNL     1       9.259   5.199 -10.043  1.00  0.00    -0.237 OA
ATOM    107  O   UNL     1      11.377   3.973  -9.761  1.00  0.00    -0.237 OA
ATOM    108  O   UNL     1       9.372   2.786 -10.538  1.00  0.00    -0.744 OA
ENDBRANCH 102 105
ENDBRANCH  75  98
ENDBRANCH  49  50
ENDBRANCH  41  44
ENDBRANCH  39  40
ENDBRANCH  38  39
ENDBRANCH  37  38
ENDBRANCH   1  37
TORSDOF 21
