REMARK SMILES Cc1ccccc1[C@@H]1[NH2+][C@@H](C(=O)NCCCCCCNC(=O)c2ccc(-c3c4nc(c(-c5cccc(S(=O)(=O)[O-])c5F)c5ccc([nH]5)c(-c5cccc(S(=O)(=O)[O-])c5F)c5nc(c(-c6cccc(S(=O)(=O)[O-])c6F)c6ccc3[nH]6)C=C5)C=C4)cc2)CC2=c3ccccc3=N[C@@H]21
REMARK SMILES IDX 17 1 16 2 15 3 14 4 13 5 11 6 12 7 10 9 8 10 9 11 95 12
REMARK SMILES IDX 87 15 94 16 86 17 88 18 93 19 89 20 92 21 90 22 91 23 7 24
REMARK SMILES IDX 1 25 2 26 3 27 4 28 6 29 5 30 18 31 19 32 20 33 21 34 22 36
REMARK SMILES IDX 23 37 24 38 85 39 25 40 84 41 26 42 27 43 28 44 78 45 29 46
REMARK SMILES IDX 83 47 77 48 79 49 30 50 82 51 76 52 75 53 31 55 63 56 43 57
REMARK SMILES IDX 62 58 44 59 47 60 61 61 80 62 45 63 46 64 60 66 81 67 48 68
REMARK SMILES IDX 32 69 33 70 41 71 34 72 36 73 42 74 35 75 37 76 38 77 39 78
REMARK SMILES IDX 40 79 64 80 65 81 73 82 66 83 68 84 74 85 67 86 69 87 70 88
REMARK SMILES IDX 71 89 72 90 49 91 50 92 58 93 51 94 53 95 59 96 52 97 54 98
REMARK SMILES IDX 55 99 56 100 57 101
REMARK H PARENT 13 8 9 13 9 14 20 35 79 54 47 65
REMARK Flexibility Score: inf
ROOT
ATOM      1  C   UNL     1       3.988   4.699  -4.316  1.00  0.00     0.002 C 
ENDROOT
BRANCH   1   2
ATOM      2  C   UNL     1       3.057   4.153  -3.225  1.00  0.00     0.002 C 
BRANCH   2   3
ATOM      3  C   UNL     1       3.289   4.647  -1.788  1.00  0.00     0.021 C 
BRANCH   3   4
ATOM      4  C   UNL     1       2.938   6.114  -1.452  1.00  0.00     0.116 C 
BRANCH   4   5
ATOM      5  N   UNL     1       1.565   6.511  -1.078  1.00  0.00    -0.351 N 
ATOM      6  C   UNL     1       1.002   6.499   0.223  1.00  0.00     0.278 C 
ATOM      7  O   UNL     1       0.201   7.354   0.584  1.00  0.00    -0.268 OA
ATOM      8  H   UNL     1       0.980   6.816  -1.809  1.00  0.00     0.163 HD
BRANCH   6   9
ATOM      9  C   UNL     1       1.284   5.187   0.961  1.00  0.00     0.277 C 
ATOM     10  C   UNL     1       0.362   2.851   0.628  1.00  0.00     0.243 C 
ATOM     11  N   UNL     1       0.458   4.257   0.200  1.00  0.00    -0.327 N 
ATOM     12  C   UNL     1       1.572   2.391   1.554  1.00  0.00     0.196 C 
ATOM     13  H   UNL     1      -0.490   4.633   0.202  1.00  0.00     0.347 HD
ATOM     14  H   UNL     1       0.933   4.199  -0.701  1.00  0.00     0.347 HD
ATOM     15  C   UNL     1       2.068   3.567   2.438  1.00  0.00    -0.024 C 
ATOM     16  N   UNL     1       2.789   1.993   0.796  1.00  0.00    -0.270 NA
ATOM     17  C   UNL     1       1.213   4.843   2.445  1.00  0.00     0.109 C 
ATOM     18  C   UNL     1       3.409   3.659   2.403  1.00  0.00     0.002 A 
ATOM     19  C   UNL     1       3.746   2.696   1.327  1.00  0.00     0.066 A 
ATOM     20  C   UNL     1       4.273   4.788   2.658  1.00  0.00     0.010 A 
ATOM     21  C   UNL     1       5.134   2.764   0.806  1.00  0.00     0.028 A 
ATOM     22  C   UNL     1       5.443   4.883   2.005  1.00  0.00     0.001 A 
ATOM     23  C   UNL     1       5.897   3.827   1.120  1.00  0.00     0.002 A 
BRANCH  10  24
ATOM     24  C   UNL     1      -0.215   2.083  -0.604  1.00  0.00     0.015 A 
ATOM     25  C   UNL     1      -1.693   0.533   0.791  1.00  0.00     0.045 C 
ATOM     26  C   UNL     1      -1.258   1.142  -0.508  1.00  0.00    -0.042 A 
ATOM     27  C   UNL     1      -2.028   0.825  -1.658  1.00  0.00     0.004 A 
ATOM     28  C   UNL     1      -1.792   1.415  -2.899  1.00  0.00     0.000 A 
ATOM     29  C   UNL     1       0.058   2.557  -1.918  1.00  0.00     0.010 A 
ATOM     30  C   UNL     1      -0.733   2.281  -3.032  1.00  0.00     0.001 A 
ENDBRANCH  10  24
ENDBRANCH   6   9
ENDBRANCH   4   5
ENDBRANCH   3   4
ENDBRANCH   2   3
ENDBRANCH   1   2
BRANCH   1  31
ATOM     31  C   UNL     1       5.476   4.802  -3.970  1.00  0.00     0.021 C 
BRANCH  31  32
ATOM     32  C   UNL     1       6.148   3.482  -3.628  1.00  0.00     0.116 C 
BRANCH  32  33
ATOM     33  N   UNL     1       6.569   2.722  -4.790  1.00  0.00    -0.352 N 
ATOM     34  C   UNL     1       7.732   1.950  -4.753  1.00  0.00     0.251 C 
ATOM     35  H   UNL     1       6.030   2.751  -5.613  1.00  0.00     0.163 HD
ATOM     36  O   UNL     1       8.763   2.263  -5.308  1.00  0.00    -0.269 OA
BRANCH  34  37
ATOM     37  C   UNL     1       7.572   0.662  -4.029  1.00  0.00     0.039 A 
ATOM     38  C   UNL     1       7.753  -0.555  -4.691  1.00  0.00     0.014 A 
ATOM     39  C   UNL     1       7.083   0.694  -2.723  1.00  0.00     0.014 A 
ATOM     40  C   UNL     1       7.281  -1.732  -4.102  1.00  0.00     0.010 A 
ATOM     41  C   UNL     1       6.569  -0.452  -2.165  1.00  0.00     0.010 A 
ATOM     42  C   UNL     1       6.622  -1.655  -2.876  1.00  0.00    -0.014 A 
BRANCH  42  43
ATOM     43  C   UNL     1       5.934  -2.749  -2.211  1.00  0.00     0.031 A 
ATOM     44  C   UNL     1       6.634  -3.577  -1.216  1.00  0.00     0.074 A 
ATOM     45  C   UNL     1       4.589  -2.803  -2.315  1.00  0.00     0.049 A 
ATOM     46  N   UNL     1       6.140  -4.645  -0.691  1.00  0.00    -0.248 NA
ATOM     47  C   UNL     1       7.976  -3.267  -0.752  1.00  0.00     0.031 C 
ATOM     48  C   UNL     1       3.655  -3.459  -1.410  1.00  0.00     0.029 A 
ATOM     49  N   UNL     1       3.805  -2.431  -3.408  1.00  0.00    -0.354 N 
ATOM     50  C   UNL     1       6.950  -5.006   0.363  1.00  0.00     0.074 A 
ATOM     51  C   UNL     1       8.125  -4.180   0.212  1.00  0.00     0.031 C 
ATOM     52  C   UNL     1       2.519  -3.707  -2.076  1.00  0.00     0.029 A 
ATOM     53  C   UNL     1       2.756  -3.366  -3.467  1.00  0.00     0.049 A 
ATOM     54  H   UNL     1       3.955  -1.669  -4.014  1.00  0.00     0.167 HD
ATOM     55  C   UNL     1       6.455  -5.868   1.299  1.00  0.00     0.034 A 
ATOM     56  C   UNL     1       2.568  -4.198  -4.533  1.00  0.00     0.034 A 
ATOM     57  C   UNL     1       5.149  -6.410   0.877  1.00  0.00     0.049 A 
ATOM     58  C   UNL     1       2.708  -5.672  -4.176  1.00  0.00     0.074 A 
ATOM     59  C   UNL     1       3.824  -6.163   1.201  1.00  0.00     0.029 A 
ATOM     60  N   UNL     1       5.116  -7.212  -0.247  1.00  0.00    -0.354 N 
ATOM     61  N   UNL     1       2.835  -6.141  -2.963  1.00  0.00    -0.248 NA
ATOM     62  C   UNL     1       2.811  -6.729  -5.185  1.00  0.00     0.031 C 
ATOM     63  C   UNL     1       3.002  -6.787   0.209  1.00  0.00     0.029 A 
ATOM     64  C   UNL     1       3.827  -7.432  -0.697  1.00  0.00     0.049 A 
ATOM     65  H   UNL     1       5.919  -7.585  -0.679  1.00  0.00     0.167 HD
ATOM     66  C   UNL     1       3.212  -7.459  -3.023  1.00  0.00     0.074 A 
ATOM     67  C   UNL     1       3.122  -7.798  -4.433  1.00  0.00     0.031 C 
ATOM     68  C   UNL     1       3.652  -8.171  -1.942  1.00  0.00     0.034 A 
BRANCH  55  69
ATOM     69  C   UNL     1       7.016  -6.095   2.697  1.00  0.00     0.023 A 
ATOM     70  C   UNL     1       6.176  -6.746   3.631  1.00  0.00     0.012 A 
ATOM     71  C   UNL     1       8.267  -5.670   3.200  1.00  0.00     0.148 A 
ATOM     72  C   UNL     1       6.511  -6.885   4.984  1.00  0.00     0.002 A 
ATOM     73  C   UNL     1       8.585  -5.758   4.559  1.00  0.00     0.091 A 
ATOM     74  F   UNL     1       9.210  -5.233   2.370  1.00  0.00    -0.205 F 
ATOM     75  C   UNL     1       7.705  -6.363   5.457  1.00  0.00     0.022 A 
BRANCH  73  76
ATOM     76  S   UNL     1      10.093  -5.048   5.249  1.00  0.00     0.127 S 
ATOM     77  O   UNL     1       9.563  -4.146   6.274  1.00  0.00    -0.237 OA
ATOM     78  O   UNL     1      10.783  -6.225   5.773  1.00  0.00    -0.237 OA
ATOM     79  O   UNL     1      10.771  -4.368   4.151  1.00  0.00    -0.744 OA
ENDBRANCH  73  76
ENDBRANCH  55  69
BRANCH  56  80
ATOM     80  C   UNL     1       2.949  -3.570  -5.832  1.00  0.00     0.023 A 
ATOM     81  C   UNL     1       2.171  -2.463  -6.250  1.00  0.00     0.012 A 
ATOM     82  C   UNL     1       4.221  -3.760  -6.401  1.00  0.00     0.148 A 
ATOM     83  C   UNL     1       2.692  -1.506  -7.121  1.00  0.00     0.002 A 
ATOM     84  C   UNL     1       4.736  -2.796  -7.266  1.00  0.00     0.091 A 
ATOM     85  F   UNL     1       4.945  -4.817  -6.013  1.00  0.00    -0.205 F 
ATOM     86  C   UNL     1       3.986  -1.657  -7.603  1.00  0.00     0.022 A 
BRANCH  84  87
ATOM     87  S   UNL     1       6.429  -2.859  -7.864  1.00  0.00     0.127 S 
ATOM     88  O   UNL     1       6.237  -3.330  -9.232  1.00  0.00    -0.237 OA
ATOM     89  O   UNL     1       6.845  -1.462  -7.745  1.00  0.00    -0.237 OA
ATOM     90  O   UNL     1       7.118  -3.768  -6.961  1.00  0.00    -0.744 OA
ENDBRANCH  84  87
ENDBRANCH  56  80
BRANCH  68  91
ATOM     91  C   UNL     1       3.970  -9.652  -1.999  1.00  0.00     0.023 A 
ATOM     92  C   UNL     1       3.126 -10.527  -2.713  1.00  0.00     0.012 A 
ATOM     93  C   UNL     1       5.000 -10.241  -1.225  1.00  0.00     0.148 A 
ATOM     94  C   UNL     1       3.318 -11.913  -2.693  1.00  0.00     0.002 A 
ATOM     95  C   UNL     1       5.121 -11.623  -1.124  1.00  0.00     0.091 A 
ATOM     96  F   UNL     1       5.907  -9.464  -0.622  1.00  0.00    -0.205 F 
ATOM     97  C   UNL     1       4.299 -12.463  -1.879  1.00  0.00     0.022 A 
BRANCH  95  98
ATOM     98  S   UNL     1       6.224 -12.403   0.065  1.00  0.00     0.127 S 
ATOM     99  O   UNL     1       5.337 -13.382   0.699  1.00  0.00    -0.237 OA
ATOM    100  O   UNL     1       7.244 -12.981  -0.807  1.00  0.00    -0.237 OA
ATOM    101  O   UNL     1       6.671 -11.339   0.951  1.00  0.00    -0.744 OA
ENDBRANCH  95  98
ENDBRANCH  68  91
ENDBRANCH  42  43
ENDBRANCH  34  37
ENDBRANCH  32  33
ENDBRANCH  31  32
ENDBRANCH   1  31
TORSDOF 17
