REMARK SMILES C[C@]([NH3+])(C(=O)N[C@H]1CCCCC[C@@H]1C(=O)NCCCCCCNC(=O)c1ccc(-c2c3nc(c(-c4cccc(S(=O)(=O)[O-])c4F)c4ccc([nH]4)c(-c4cccc(S(=O)(=O)[O-])c4F)c4nc(c(-c5cccc(S(=O)(=O)[O-])c5F)c5ccc2[nH]5)C=C4)C=C3)cc1)C(F)(F)F
REMARK SMILES IDX 19 1 18 2 17 3 16 4 14 5 15 6 13 8 7 9 6 10 4 11 5 12 2 14
REMARK SMILES IDX 1 15 89 16 90 17 91 18 92 19 3 20 8 24 12 26 11 27 10 28
REMARK SMILES IDX 9 29 20 31 21 32 22 33 23 34 24 35 25 37 26 38 27 39 88 40
REMARK SMILES IDX 28 41 87 42 29 43 30 44 31 45 81 46 32 47 86 48 80 49 82 50
REMARK SMILES IDX 33 51 85 52 79 53 78 54 34 56 66 57 46 58 65 59 47 60 50 61
REMARK SMILES IDX 64 62 83 63 48 64 49 65 63 67 84 68 51 69 35 70 36 71 44 72
REMARK SMILES IDX 37 73 39 74 45 75 38 76 40 77 41 78 42 79 43 80 67 81 68 82
REMARK SMILES IDX 76 83 69 84 71 85 77 86 70 87 72 88 73 89 74 90 75 91 52 92
REMARK SMILES IDX 53 93 61 94 54 95 56 96 62 97 55 98 57 99 58 100 59 101
REMARK SMILES IDX 60 102
REMARK H PARENT 16 7 6 13 3 21 3 22 3 23 23 36 82 55 50 66
REMARK Flexibility Score: 100.00
ROOT
ATOM      1  C   UNL     1      -6.590   1.350   0.269  1.00  0.00     0.002 C 
ENDROOT
BRANCH   1   2
ATOM      2  C   UNL     1      -5.538   2.016   1.163  1.00  0.00     0.021 C 
BRANCH   2   3
ATOM      3  C   UNL     1      -4.167   1.355   1.058  1.00  0.00     0.116 C 
BRANCH   3   4
ATOM      4  N   UNL     1      -3.627   1.564  -0.265  1.00  0.00    -0.356 N 
ATOM      5  C   UNL     1      -2.715   2.467  -0.701  1.00  0.00     0.225 C 
ATOM      6  O   UNL     1      -2.591   2.598  -1.921  1.00  0.00    -0.275 OA
ATOM      7  H   UNL     1      -3.974   0.956  -0.957  1.00  0.00     0.163 HD
BRANCH   5   8
ATOM      8  C   UNL     1      -1.818   3.239   0.273  1.00  0.00     0.101 C 
BRANCH   8   9
ATOM      9  C   UNL     1      -0.833   2.274   0.944  1.00  0.00     0.094 C 
BRANCH   9  10
ATOM     10  N   UNL     1       0.465   2.073   0.254  1.00  0.00    -0.347 N 
ATOM     11  C   UNL     1       1.428   2.714  -0.454  1.00  0.00     0.290 C 
ATOM     12  O   UNL     1       2.221   1.913  -0.977  1.00  0.00    -0.267 OA
ATOM     13  H   UNL     1       0.722   1.127   0.343  1.00  0.00     0.164 HD
BRANCH  11  14
ATOM     14  C   UNL     1       1.683   4.237  -0.590  1.00  0.00     0.266 C 
ATOM     15  C   UNL     1       2.019   4.854   0.768  1.00  0.00     0.100 C 
BRANCH  14  16
ATOM     16  C   UNL     1       2.957   4.390  -1.481  1.00  0.00     0.453 C 
ATOM     17  F   UNL     1       2.811   3.886  -2.725  1.00  0.00    -0.164 F 
ATOM     18  F   UNL     1       3.209   5.724  -1.653  1.00  0.00    -0.164 F 
ATOM     19  F   UNL     1       4.071   3.870  -0.922  1.00  0.00    -0.164 F 
ENDBRANCH  14  16
BRANCH  14  20
ATOM     20  N   UNL     1       0.535   4.978  -1.205  1.00  0.00    -0.337 N 
ATOM     21  H   UNL     1       0.311   4.566  -2.111  1.00  0.00     0.345 HD
ATOM     22  H   UNL     1       0.790   5.957  -1.331  1.00  0.00     0.345 HD
ATOM     23  H   UNL     1      -0.278   4.914  -0.593  1.00  0.00     0.345 HD
ENDBRANCH  14  20
ENDBRANCH  11  14
ENDBRANCH   9  10
BRANCH   9  24
ATOM     24  C   UNL     1      -0.745   2.249   2.478  1.00  0.00     0.026 CG0
ATOM     25  G   UNL     1      -0.183   3.466   3.178  1.00  0.00     0.000 G0
ENDBRANCH   9  24
ENDBRANCH   8   9
BRANCH   8  26
ATOM     26  C   UNL     1      -2.584   4.224   1.163  1.00  0.00     0.015 C 
BRANCH  26  27
ATOM     27  C   UNL     1      -1.705   5.208   1.931  1.00  0.00     0.001 C 
BRANCH  27  28
ATOM     28  C   UNL     1      -1.097   4.686   3.231  1.00  0.00     0.000 C 
BRANCH  28  29
ATOM     29  C   UNL     1      -0.183   3.466   3.178  1.00  0.00     0.002 CG0
ATOM     30  G   UNL     1      -0.745   2.249   2.478  1.00  0.00     0.000 G0
ENDBRANCH  28  29
ENDBRANCH  27  28
ENDBRANCH  26  27
ENDBRANCH   8  26
ENDBRANCH   5   8
ENDBRANCH   3   4
ENDBRANCH   2   3
ENDBRANCH   1   2
BRANCH   1  31
ATOM     31  C   UNL     1      -6.707  -0.166   0.456  1.00  0.00     0.002 C 
BRANCH  31  32
ATOM     32  C   UNL     1      -6.900  -0.611   1.907  1.00  0.00     0.021 C 
BRANCH  32  33
ATOM     33  C   UNL     1      -8.105   0.021   2.589  1.00  0.00     0.116 C 
BRANCH  33  34
ATOM     34  N   UNL     1      -9.343  -0.331   1.913  1.00  0.00    -0.352 N 
ATOM     35  C   UNL     1     -10.467  -0.906   2.443  1.00  0.00     0.251 C 
ATOM     36  H   UNL     1      -9.377  -0.132   0.950  1.00  0.00     0.163 HD
ATOM     37  O   UNL     1     -11.338  -1.362   1.705  1.00  0.00    -0.269 OA
BRANCH  35  38
ATOM     38  C   UNL     1     -10.611  -0.980   3.909  1.00  0.00     0.039 A 
ATOM     39  C   UNL     1     -11.024  -2.178   4.491  1.00  0.00     0.014 A 
ATOM     40  C   UNL     1     -10.315   0.133   4.704  1.00  0.00     0.014 A 
ATOM     41  C   UNL     1     -11.100  -2.274   5.881  1.00  0.00     0.010 A 
ATOM     42  C   UNL     1     -10.310   0.008   6.088  1.00  0.00     0.010 A 
ATOM     43  C   UNL     1     -10.718  -1.190   6.690  1.00  0.00    -0.014 A 
BRANCH  43  44
ATOM     44  C   UNL     1     -10.745  -1.292   8.170  1.00  0.00     0.031 A 
ATOM     45  C   UNL     1     -11.647  -0.395   8.973  1.00  0.00     0.074 A 
ATOM     46  C   UNL     1      -9.904  -2.142   8.793  1.00  0.00     0.049 A 
ATOM     47  N   UNL     1     -11.779  -0.308  10.270  1.00  0.00    -0.248 NA
ATOM     48  C   UNL     1     -12.492   0.549   8.221  1.00  0.00     0.031 C 
ATOM     49  C   UNL     1      -8.930  -3.009   8.126  1.00  0.00     0.029 A 
ATOM     50  N   UNL     1      -9.718  -2.399  10.127  1.00  0.00    -0.354 N 
ATOM     51  C   UNL     1     -12.693   0.714  10.492  1.00  0.00     0.074 A 
ATOM     52  C   UNL     1     -13.052   1.248   9.197  1.00  0.00     0.031 C 
ATOM     53  C   UNL     1      -8.259  -3.711   9.053  1.00  0.00     0.029 A 
ATOM     54  C   UNL     1      -8.727  -3.319  10.378  1.00  0.00     0.049 A 
ATOM     55  H   UNL     1     -10.244  -1.966  10.838  1.00  0.00     0.167 HD
ATOM     56  C   UNL     1     -13.212   1.150  11.664  1.00  0.00     0.034 A 
ATOM     57  C   UNL     1      -8.245  -3.788  11.545  1.00  0.00     0.034 A 
ATOM     58  C   UNL     1     -12.875   0.594  12.946  1.00  0.00     0.049 A 
ATOM     59  C   UNL     1      -8.852  -3.301  12.833  1.00  0.00     0.074 A 
ATOM     60  C   UNL     1     -13.402   0.909  14.186  1.00  0.00     0.029 A 
ATOM     61  N   UNL     1     -11.916  -0.385  13.157  1.00  0.00    -0.354 N 
ATOM     62  N   UNL     1      -9.824  -2.440  13.014  1.00  0.00    -0.248 NA
ATOM     63  C   UNL     1      -8.321  -3.877  14.076  1.00  0.00     0.031 C 
ATOM     64  C   UNL     1     -12.736   0.146  15.150  1.00  0.00     0.029 A 
ATOM     65  C   UNL     1     -11.825  -0.676  14.507  1.00  0.00     0.049 A 
ATOM     66  H   UNL     1     -11.380  -0.811  12.450  1.00  0.00     0.167 HD
ATOM     67  C   UNL     1     -10.048  -2.400  14.385  1.00  0.00     0.074 A 
ATOM     68  C   UNL     1      -9.122  -3.338  14.986  1.00  0.00     0.031 C 
ATOM     69  C   UNL     1     -10.932  -1.647  15.085  1.00  0.00     0.034 A 
BRANCH  56  70
ATOM     70  C   UNL     1     -14.231   2.259  11.609  1.00  0.00     0.023 A 
ATOM     71  C   UNL     1     -15.509   2.009  11.069  1.00  0.00     0.012 A 
ATOM     72  C   UNL     1     -13.943   3.534  12.136  1.00  0.00     0.148 A 
ATOM     73  C   UNL     1     -16.470   3.017  11.016  1.00  0.00     0.002 A 
ATOM     74  C   UNL     1     -14.923   4.519  12.126  1.00  0.00     0.091 A 
ATOM     75  F   UNL     1     -12.717   3.761  12.627  1.00  0.00    -0.205 F 
ATOM     76  C   UNL     1     -16.181   4.268  11.554  1.00  0.00     0.022 A 
BRANCH  74  77
ATOM     77  S   UNL     1     -14.678   6.137  12.866  1.00  0.00     0.127 S 
ATOM     78  O   UNL     1     -14.640   6.999  11.685  1.00  0.00    -0.237 OA
ATOM     79  O   UNL     1     -15.878   6.283  13.689  1.00  0.00    -0.237 OA
ATOM     80  O   UNL     1     -13.432   6.053  13.615  1.00  0.00    -0.744 OA
ENDBRANCH  74  77
ENDBRANCH  56  70
BRANCH  57  81
ATOM     81  C   UNL     1      -7.165  -4.815  11.548  1.00  0.00     0.023 A 
ATOM     82  C   UNL     1      -7.456  -6.126  11.972  1.00  0.00     0.012 A 
ATOM     83  C   UNL     1      -5.861  -4.506  11.116  1.00  0.00     0.148 A 
ATOM     84  C   UNL     1      -6.459  -7.102  12.001  1.00  0.00     0.002 A 
ATOM     85  C   UNL     1      -4.887  -5.497  11.092  1.00  0.00     0.091 A 
ATOM     86  F   UNL     1      -5.603  -3.250  10.723  1.00  0.00    -0.205 F 
ATOM     87  C   UNL     1      -5.178  -6.790  11.553  1.00  0.00     0.022 A 
BRANCH  85  88
ATOM     88  S   UNL     1      -3.249  -5.221  10.410  1.00  0.00     0.127 S 
ATOM     89  O   UNL     1      -2.411  -5.291  11.604  1.00  0.00    -0.237 OA
ATOM     90  O   UNL     1      -3.111  -6.351   9.491  1.00  0.00    -0.237 OA
ATOM     91  O   UNL     1      -3.307  -3.920   9.756  1.00  0.00    -0.744 OA
ENDBRANCH  85  88
ENDBRANCH  57  81
BRANCH  69  92
ATOM     92  C   UNL     1     -10.979  -1.835  16.580  1.00  0.00     0.023 A 
ATOM     93  C   UNL     1      -9.922  -1.369  17.385  1.00  0.00     0.012 A 
ATOM     94  C   UNL     1     -12.111  -2.412  17.190  1.00  0.00     0.148 A 
ATOM     95  C   UNL     1      -9.973  -1.508  18.772  1.00  0.00     0.002 A 
ATOM     96  C   UNL     1     -12.179  -2.497  18.575  1.00  0.00     0.091 A 
ATOM     97  F   UNL     1     -13.100  -2.865  16.405  1.00  0.00    -0.205 F 
ATOM     98  C   UNL     1     -11.105  -2.060  19.366  1.00  0.00     0.022 A 
BRANCH  96  99
ATOM     99  S   UNL     1     -13.638  -3.100  19.433  1.00  0.00     0.127 S 
ATOM    100  O   UNL     1     -13.165  -4.377  19.962  1.00  0.00    -0.237 OA
ATOM    101  O   UNL     1     -13.852  -2.062  20.442  1.00  0.00    -0.237 OA
ATOM    102  O   UNL     1     -14.688  -3.192  18.427  1.00  0.00    -0.744 OA
ENDBRANCH  96  99
ENDBRANCH  69  92
ENDBRANCH  43  44
ENDBRANCH  35  38
ENDBRANCH  33  34
ENDBRANCH  32  33
ENDBRANCH  31  32
ENDBRANCH   1  31
TORSDOF 20
