REMARK SMILES CC(C)C[C@H](CNC(=O)[C@H]1CCCCC[C@H]1[NH3+])CC(=O)NCCCCCCNC(=O)c1ccc(-c2c3nc(c(-c4cccc(S(=O)(=O)[O-])c4F)c4ccc([nH]4)c(-c4cccc(S(=O)(=O)[O-])c4F)c4nc(c(-c5cccc(S(=O)(=O)[O-])c5F)c5ccc2[nH]5)C=C4)C=C3)cc1
REMARK SMILES IDX 22 1 21 2 19 3 20 4 18 6 5 7 4 8 2 9 1 10 3 11 6 12 7 13
REMARK SMILES IDX 8 14 9 16 10 17 11 18 12 19 13 20 14 21 16 23 15 24 17 26
REMARK SMILES IDX 23 30 24 31 25 32 26 33 27 34 28 35 29 36 30 38 31 39 32 40
REMARK SMILES IDX 93 41 33 42 92 43 34 44 35 45 36 46 86 47 37 48 91 49 85 50
REMARK SMILES IDX 87 51 38 52 90 53 84 54 83 55 39 57 71 58 51 59 70 60 52 61
REMARK SMILES IDX 55 62 69 63 88 64 53 65 54 66 68 68 89 69 56 70 40 71 41 72
REMARK SMILES IDX 49 73 42 74 44 75 50 76 43 77 45 78 46 79 47 80 48 81 72 82
REMARK SMILES IDX 73 83 81 84 74 85 76 86 82 87 75 88 77 89 78 90 79 91 80 92
REMARK SMILES IDX 57 93 58 94 66 95 59 96 61 97 67 98 60 99 62 100 63 101
REMARK SMILES IDX 64 102 65 103
REMARK H PARENT 21 5 7 15 17 27 17 28 17 29 28 37 87 56 55 67
REMARK Flexibility Score: 90.00
ROOT
ATOM      1  C   UNL     1       2.682   1.655   0.910  1.00  0.00     0.116 C 
ENDROOT
BRANCH   1   2
ATOM      2  N   UNL     1       1.837   1.597   2.094  1.00  0.00    -0.356 N 
ATOM      3  C   UNL     1       0.537   1.253   2.292  1.00  0.00     0.220 C 
ATOM      4  O   UNL     1       0.108   1.339   3.448  1.00  0.00    -0.275 OA
ATOM      5  H   UNL     1       2.303   1.861   2.920  1.00  0.00     0.163 HD
BRANCH   3   6
ATOM      6  C   UNL     1      -0.384   0.768   1.175  1.00  0.00     0.105 C 
BRANCH   6   7
ATOM      7  C   UNL     1      -1.140   1.908   0.455  1.00  0.00     0.018 C 
BRANCH   7   8
ATOM      8  C   UNL     1      -2.574   1.531  -0.035  1.00  0.00     0.009 C 
BRANCH   8   9
ATOM      9  C   UNL     1      -2.709   0.901  -1.441  1.00  0.00    -0.017 C 
ATOM     10  C   UNL     1      -2.760  -0.620  -1.393  1.00  0.00     0.007 C 
ATOM     11  C   UNL     1      -3.908   1.474  -2.202  1.00  0.00     0.007 C 
ENDBRANCH   8   9
ENDBRANCH   7   8
BRANCH   7  12
ATOM     12  C   UNL     1      -0.349   2.601  -0.666  1.00  0.00     0.120 C 
BRANCH  12  13
ATOM     13  N   UNL     1       0.352   1.675  -1.535  1.00  0.00    -0.355 N 
ATOM     14  C   UNL     1       0.582   1.628  -2.868  1.00  0.00     0.229 C 
ATOM     15  H   UNL     1       0.747   0.915  -1.050  1.00  0.00     0.163 HD
ATOM     16  O   UNL     1       1.292   0.681  -3.220  1.00  0.00    -0.275 OA
BRANCH  14  17
ATOM     17  C   UNL     1      -0.039   2.637  -3.844  1.00  0.00     0.136 C 
BRANCH  17  18
ATOM     18  C   UNL     1       0.271   4.106  -3.511  1.00  0.00     0.020 C 
BRANCH  18  19
ATOM     19  C   UNL     1       1.738   4.369  -3.213  1.00  0.00     0.001 C 
BRANCH  19  20
ATOM     20  C   UNL     1       2.603   4.623  -4.435  1.00  0.00     0.000 C 
BRANCH  20  21
ATOM     21  C   UNL     1       2.200   3.985  -5.755  1.00  0.00     0.006 CG0
ATOM     22  G   UNL     1       1.812   2.510  -5.673  1.00  0.00     0.000 G0
ENDBRANCH  20  21
ENDBRANCH  19  20
ENDBRANCH  18  19
ENDBRANCH  17  18
BRANCH  17  23
ATOM     23  C   UNL     1       0.325   2.303  -5.317  1.00  0.00     0.193 C 
BRANCH  23  24
ATOM     24  C   UNL     1       1.812   2.510  -5.673  1.00  0.00     0.066 CG0
ATOM     25  G   UNL     1       2.200   3.985  -5.755  1.00  0.00     0.000 G0
ENDBRANCH  23  24
BRANCH  23  26
ATOM     26  N   UNL     1      -0.103   0.938  -5.664  1.00  0.00    -0.354 N 
ATOM     27  H   UNL     1       0.414   0.265  -5.098  1.00  0.00     0.344 HD
ATOM     28  H   UNL     1       0.083   0.764  -6.652  1.00  0.00     0.344 HD
ATOM     29  H   UNL     1      -1.102   0.838  -5.484  1.00  0.00     0.344 HD
ENDBRANCH  23  26
ENDBRANCH  17  23
ENDBRANCH  14  17
ENDBRANCH  12  13
ENDBRANCH   7  12
ENDBRANCH   6   7
ENDBRANCH   3   6
ENDBRANCH   1   2
BRANCH   1  30
ATOM     30  C   UNL     1       2.956   3.106   0.491  1.00  0.00     0.021 C 
BRANCH  30  31
ATOM     31  C   UNL     1       4.378   3.607   0.766  1.00  0.00     0.002 C 
BRANCH  31  32
ATOM     32  C   UNL     1       5.489   2.927  -0.042  1.00  0.00     0.002 C 
BRANCH  32  33
ATOM     33  C   UNL     1       5.394   3.055  -1.563  1.00  0.00     0.021 C 
BRANCH  33  34
ATOM     34  C   UNL     1       5.441   4.475  -2.120  1.00  0.00     0.116 C 
BRANCH  34  35
ATOM     35  N   UNL     1       6.684   5.176  -1.853  1.00  0.00    -0.352 N 
ATOM     36  C   UNL     1       7.517   5.802  -2.752  1.00  0.00     0.251 C 
ATOM     37  H   UNL     1       6.966   5.208  -0.911  1.00  0.00     0.163 HD
ATOM     38  O   UNL     1       8.613   6.224  -2.381  1.00  0.00    -0.269 OA
BRANCH  36  39
ATOM     39  C   UNL     1       7.111   5.955  -4.171  1.00  0.00     0.039 A 
ATOM     40  C   UNL     1       8.007   5.585  -5.179  1.00  0.00     0.014 A 
ATOM     41  C   UNL     1       5.858   6.471  -4.511  1.00  0.00     0.014 A 
ATOM     42  C   UNL     1       7.629   5.687  -6.524  1.00  0.00     0.010 A 
ATOM     43  C   UNL     1       5.463   6.516  -5.850  1.00  0.00     0.010 A 
ATOM     44  C   UNL     1       6.345   6.134  -6.874  1.00  0.00    -0.014 A 
BRANCH  44  45
ATOM     45  C   UNL     1       5.912   6.236  -8.296  1.00  0.00     0.031 A 
ATOM     46  C   UNL     1       5.555   7.579  -8.881  1.00  0.00     0.074 A 
ATOM     47  C   UNL     1       5.761   5.126  -9.047  1.00  0.00     0.049 A 
ATOM     48  N   UNL     1       5.065   7.865 -10.060  1.00  0.00    -0.248 NA
ATOM     49  C   UNL     1       5.755   8.753  -8.015  1.00  0.00     0.031 C 
ATOM     50  C   UNL     1       6.027   3.758  -8.599  1.00  0.00     0.029 A 
ATOM     51  N   UNL     1       5.318   4.970 -10.339  1.00  0.00    -0.354 N 
ATOM     52  C   UNL     1       4.860   9.241 -10.064  1.00  0.00     0.074 A 
ATOM     53  C   UNL     1       5.252   9.727  -8.759  1.00  0.00     0.031 C 
ATOM     54  C   UNL     1       5.740   2.905  -9.596  1.00  0.00     0.029 A 
ATOM     55  C   UNL     1       5.232   3.657 -10.741  1.00  0.00     0.049 A 
ATOM     56  H   UNL     1       5.084   5.728 -10.923  1.00  0.00     0.167 HD
ATOM     57  C   UNL     1       4.410  10.034 -11.067  1.00  0.00     0.034 A 
ATOM     58  C   UNL     1       4.778   3.115 -11.890  1.00  0.00     0.034 A 
ATOM     59  C   UNL     1       4.055   9.559 -12.377  1.00  0.00     0.049 A 
ATOM     60  C   UNL     1       4.284   4.017 -12.991  1.00  0.00     0.074 A 
ATOM     61  C   UNL     1       3.655  10.296 -13.478  1.00  0.00     0.029 A 
ATOM     62  N   UNL     1       4.046   8.228 -12.763  1.00  0.00    -0.354 N 
ATOM     63  N   UNL     1       4.215   5.326 -13.017  1.00  0.00    -0.248 NA
ATOM     64  C   UNL     1       3.833   3.370 -14.233  1.00  0.00     0.031 C 
ATOM     65  C   UNL     1       3.369   9.408 -14.519  1.00  0.00     0.029 A 
ATOM     66  C   UNL     1       3.637   8.121 -14.081  1.00  0.00     0.049 A 
ATOM     67  H   UNL     1       4.293   7.471 -12.185  1.00  0.00     0.167 HD
ATOM     68  C   UNL     1       3.764   5.659 -14.290  1.00  0.00     0.074 A 
ATOM     69  C   UNL     1       3.580   4.416 -15.008  1.00  0.00     0.031 C 
ATOM     70  C   UNL     1       3.519   6.886 -14.812  1.00  0.00     0.034 A 
BRANCH  57  71
ATOM     71  C   UNL     1       4.307  11.514 -10.797  1.00  0.00     0.023 A 
ATOM     72  C   UNL     1       5.480  12.283 -10.654  1.00  0.00     0.012 A 
ATOM     73  C   UNL     1       3.052  12.152 -10.743  1.00  0.00     0.148 A 
ATOM     74  C   UNL     1       5.405  13.655 -10.419  1.00  0.00     0.002 A 
ATOM     75  C   UNL     1       2.987  13.528 -10.558  1.00  0.00     0.091 A 
ATOM     76  F   UNL     1       1.947  11.402 -10.865  1.00  0.00    -0.205 F 
ATOM     77  C   UNL     1       4.161  14.278 -10.382  1.00  0.00     0.022 A 
BRANCH  75  78
ATOM     78  S   UNL     1       1.438  14.436 -10.579  1.00  0.00     0.127 S 
ATOM     79  O   UNL     1       1.310  14.831  -9.176  1.00  0.00    -0.237 OA
ATOM     80  O   UNL     1       1.738  15.536 -11.496  1.00  0.00    -0.237 OA
ATOM     81  O   UNL     1       0.429  13.502 -11.058  1.00  0.00    -0.744 OA
ENDBRANCH  75  78
ENDBRANCH  57  71
BRANCH  58  82
ATOM     82  C   UNL     1       4.805   1.636 -12.081  1.00  0.00     0.023 A 
ATOM     83  C   UNL     1       5.690   1.073 -13.021  1.00  0.00     0.012 A 
ATOM     84  C   UNL     1       3.965   0.788 -11.335  1.00  0.00     0.148 A 
ATOM     85  C   UNL     1       5.713  -0.305 -13.241  1.00  0.00     0.002 A 
ATOM     86  C   UNL     1       4.032  -0.588 -11.518  1.00  0.00     0.091 A 
ATOM     87  F   UNL     1       3.122   1.344 -10.454  1.00  0.00    -0.205 F 
ATOM     88  C   UNL     1       4.892  -1.136 -12.483  1.00  0.00     0.022 A 
BRANCH  86  89
ATOM     89  S   UNL     1       3.104  -1.742 -10.502  1.00  0.00     0.127 S 
ATOM     90  O   UNL     1       2.167  -2.305 -11.471  1.00  0.00    -0.237 OA
ATOM     91  O   UNL     1       4.154  -2.657 -10.054  1.00  0.00    -0.237 OA
ATOM     92  O   UNL     1       2.507  -0.942  -9.441  1.00  0.00    -0.744 OA
ENDBRANCH  86  89
ENDBRANCH  58  82
BRANCH  70  93
ATOM     93  C   UNL     1       3.095   6.974 -16.255  1.00  0.00     0.023 A 
ATOM     94  C   UNL     1       1.799   6.580 -16.642  1.00  0.00     0.012 A 
ATOM     95  C   UNL     1       3.958   7.547 -17.212  1.00  0.00     0.148 A 
ATOM     96  C   UNL     1       1.377   6.734 -17.963  1.00  0.00     0.002 A 
ATOM     97  C   UNL     1       3.513   7.746 -18.513  1.00  0.00     0.091 A 
ATOM     98  F   UNL     1       5.193   7.899 -16.827  1.00  0.00    -0.205 F 
ATOM     99  C   UNL     1       2.228   7.329 -18.893  1.00  0.00     0.022 A 
BRANCH  97 100
ATOM    100  S   UNL     1       4.498   8.596 -19.751  1.00  0.00     0.127 S 
ATOM    101  O   UNL     1       4.805   7.512 -20.683  1.00  0.00    -0.237 OA
ATOM    102  O   UNL     1       3.557   9.592 -20.263  1.00  0.00    -0.237 OA
ATOM    103  O   UNL     1       5.645   9.151 -19.045  1.00  0.00    -0.744 OA
ENDBRANCH  97 100
ENDBRANCH  70  93
ENDBRANCH  44  45
ENDBRANCH  36  39
ENDBRANCH  34  35
ENDBRANCH  33  34
ENDBRANCH  32  33
ENDBRANCH  31  32
ENDBRANCH  30  31
ENDBRANCH   1  30
TORSDOF 23
