REMARK SMILES COC(=O)c1cccc(-c2cnc(Cl)cc2C(=O)NCCCCCCNC(=O)c2ccc(-c3c4nc(c(-c5cccc(S(=O)(=O)[O-])c5F)c5ccc([nH]5)c(-c5cccc(S(=O)(=O)[O-])c5F)c5nc(c(-c6cccc(S(=O)(=O)[O-])c6F)c6ccc3[nH]6)C=C5)C=C4)cc2)c1
REMARK SMILES IDX 22 1 21 2 20 3 19 4 17 5 18 6 16 8 10 9 11 10 12 11 15 12
REMARK SMILES IDX 13 13 14 14 9 15 5 16 6 17 92 18 7 19 8 20 3 21 4 22 2 23
REMARK SMILES IDX 1 24 23 25 24 26 25 27 26 28 27 29 28 31 29 32 30 33 91 34
REMARK SMILES IDX 31 35 90 36 32 37 33 38 34 39 84 40 35 41 89 42 83 43 85 44
REMARK SMILES IDX 36 45 88 46 82 47 81 48 37 50 69 51 49 52 68 53 50 54 53 55
REMARK SMILES IDX 67 56 86 57 51 58 52 59 66 61 87 62 54 63 38 64 39 65 47 66
REMARK SMILES IDX 40 67 42 68 48 69 41 70 43 71 44 72 45 73 46 74 70 75 71 76
REMARK SMILES IDX 79 77 72 78 74 79 80 80 73 81 75 82 76 83 77 84 78 85 55 86
REMARK SMILES IDX 56 87 64 88 57 89 59 90 65 91 58 92 60 93 61 94 62 95 63 96
REMARK H PARENT 19 7 26 30 85 49 53 60
REMARK Flexibility Score: inf
ROOT
ATOM      1  C   UNL     1      -6.435   4.399   2.010  1.00  0.00     0.002 C 
ENDROOT
BRANCH   1   2
ATOM      2  C   UNL     1      -6.560   4.356   0.479  1.00  0.00     0.021 C 
BRANCH   2   3
ATOM      3  C   UNL     1      -5.941   5.570  -0.212  1.00  0.00     0.116 C 
BRANCH   3   4
ATOM      4  N   UNL     1      -4.498   5.451  -0.245  1.00  0.00    -0.352 N 
ATOM      5  C   UNL     1      -3.520   5.142  -1.147  1.00  0.00     0.252 C 
ATOM      6  O   UNL     1      -2.393   5.160  -0.647  1.00  0.00    -0.269 OA
ATOM      7  H   UNL     1      -4.110   5.649   0.638  1.00  0.00     0.163 HD
BRANCH   5   8
ATOM      8  C   UNL     1      -3.700   4.843  -2.615  1.00  0.00     0.052 A 
ATOM      9  C   UNL     1      -2.562   4.642  -3.446  1.00  0.00     0.013 A 
ATOM     10  C   UNL     1      -2.791   4.514  -4.824  1.00  0.00     0.122 A 
ATOM     11  N   UNL     1      -3.996   4.554  -5.423  1.00  0.00    -0.244 NA
ATOM     12  C   UNL     1      -4.957   4.805  -3.226  1.00  0.00     0.055 A 
ATOM     13  C   UNL     1      -5.045   4.688  -4.603  1.00  0.00     0.129 A 
ATOM     14  Cl  UNL     1      -6.567   4.724  -5.392  1.00  0.00    -0.062 Cl
BRANCH   9  15
ATOM     15  C   UNL     1      -1.163   4.558  -2.988  1.00  0.00    -0.015 A 
ATOM     16  C   UNL     1       0.593   3.467  -1.693  1.00  0.00     0.060 A 
ATOM     17  C   UNL     1       1.486   4.486  -2.042  1.00  0.00     0.016 A 
ATOM     18  C   UNL     1      -0.719   3.489  -2.187  1.00  0.00     0.024 A 
ATOM     19  C   UNL     1       1.075   5.520  -2.879  1.00  0.00     0.002 A 
ATOM     20  C   UNL     1      -0.241   5.559  -3.342  1.00  0.00     0.009 A 
BRANCH  16  21
ATOM     21  C   UNL     1       1.070   2.421  -0.754  1.00  0.00     0.337 C 
ATOM     22  O   UNL     1       2.001   2.584   0.016  1.00  0.00    -0.246 OA
BRANCH  21  23
ATOM     23  O   UNL     1       0.377   1.268  -0.936  1.00  0.00    -0.465 OA
ATOM     24  C   UNL     1       0.837   0.190  -0.119  1.00  0.00     0.282 C 
ENDBRANCH  21  23
ENDBRANCH  16  21
ENDBRANCH   9  15
ENDBRANCH   5   8
ENDBRANCH   3   4
ENDBRANCH   2   3
ENDBRANCH   1   2
BRANCH   1  25
ATOM     25  C   UNL     1      -7.020   5.654   2.673  1.00  0.00     0.002 C 
BRANCH  25  26
ATOM     26  C   UNL     1      -8.452   5.994   2.253  1.00  0.00     0.021 C 
BRANCH  26  27
ATOM     27  C   UNL     1      -9.468   4.905   2.576  1.00  0.00     0.116 C 
BRANCH  27  28
ATOM     28  N   UNL     1      -9.579   4.690   4.010  1.00  0.00    -0.352 N 
ATOM     29  C   UNL     1     -10.688   4.779   4.813  1.00  0.00     0.251 C 
ATOM     30  H   UNL     1      -8.743   4.446   4.469  1.00  0.00     0.163 HD
ATOM     31  O   UNL     1     -10.564   4.811   6.033  1.00  0.00    -0.269 OA
BRANCH  29  32
ATOM     32  C   UNL     1     -12.030   4.843   4.197  1.00  0.00     0.039 A 
ATOM     33  C   UNL     1     -12.962   5.756   4.694  1.00  0.00     0.014 A 
ATOM     34  C   UNL     1     -12.366   3.997   3.136  1.00  0.00     0.014 A 
ATOM     35  C   UNL     1     -14.219   5.852   4.094  1.00  0.00     0.010 A 
ATOM     36  C   UNL     1     -13.587   4.151   2.489  1.00  0.00     0.010 A 
ATOM     37  C   UNL     1     -14.532   5.069   2.970  1.00  0.00    -0.014 A 
BRANCH  37  38
ATOM     38  C   UNL     1     -15.841   5.203   2.283  1.00  0.00     0.031 A 
ATOM     39  C   UNL     1     -16.783   4.032   2.210  1.00  0.00     0.074 A 
ATOM     40  C   UNL     1     -16.145   6.354   1.651  1.00  0.00     0.049 A 
ATOM     41  N   UNL     1     -17.945   3.946   1.615  1.00  0.00    -0.248 NA
ATOM     42  C   UNL     1     -16.352   2.786   2.865  1.00  0.00     0.031 C 
ATOM     43  C   UNL     1     -15.275   7.530   1.576  1.00  0.00     0.029 A 
ATOM     44  N   UNL     1     -17.253   6.713   0.927  1.00  0.00    -0.354 N 
ATOM     45  C   UNL     1     -18.364   2.633   1.790  1.00  0.00     0.074 A 
ATOM     46  C   UNL     1     -17.316   1.948   2.515  1.00  0.00     0.031 C 
ATOM     47  C   UNL     1     -15.882   8.478   0.846  1.00  0.00     0.029 A 
ATOM     48  C   UNL     1     -17.164   7.968   0.372  1.00  0.00     0.049 A 
ATOM     49  H   UNL     1     -18.037   6.128   0.815  1.00  0.00     0.167 HD
ATOM     50  C   UNL     1     -19.527   2.054   1.405  1.00  0.00     0.034 A 
ATOM     51  C   UNL     1     -18.011   8.628  -0.442  1.00  0.00     0.034 A 
ATOM     52  C   UNL     1     -20.578   2.748   0.711  1.00  0.00     0.049 A 
ATOM     53  C   UNL     1     -19.313   7.980  -0.823  1.00  0.00     0.074 A 
ATOM     54  C   UNL     1     -21.833   2.282   0.364  1.00  0.00     0.029 A 
ATOM     55  N   UNL     1     -20.490   4.049   0.239  1.00  0.00    -0.354 N 
ATOM     56  N   UNL     1     -19.767   6.793  -0.503  1.00  0.00    -0.248 NA
ATOM     57  C   UNL     1     -20.236   8.775  -1.645  1.00  0.00     0.031 C 
ATOM     58  C   UNL     1     -22.489   3.287  -0.355  1.00  0.00     0.029 A 
ATOM     59  C   UNL     1     -21.660   4.396  -0.415  1.00  0.00     0.049 A 
ATOM     60  H   UNL     1     -19.710   4.640   0.353  1.00  0.00     0.167 HD
ATOM     61  C   UNL     1     -21.040   6.709  -1.056  1.00  0.00     0.074 A 
ATOM     62  C   UNL     1     -21.292   7.976  -1.713  1.00  0.00     0.031 C 
ATOM     63  C   UNL     1     -21.916   5.674  -1.031  1.00  0.00     0.034 A 
BRANCH  50  64
ATOM     64  C   UNL     1     -19.735   0.602   1.755  1.00  0.00     0.023 A 
ATOM     65  C   UNL     1     -19.910   0.222   3.102  1.00  0.00     0.012 A 
ATOM     66  C   UNL     1     -19.797  -0.381   0.749  1.00  0.00     0.148 A 
ATOM     67  C   UNL     1     -20.097  -1.116   3.446  1.00  0.00     0.002 A 
ATOM     68  C   UNL     1     -20.035  -1.706   1.094  1.00  0.00     0.091 A 
ATOM     69  F   UNL     1     -19.608  -0.007  -0.524  1.00  0.00    -0.205 F 
ATOM     70  C   UNL     1     -20.170  -2.078   2.442  1.00  0.00     0.022 A 
BRANCH  68  71
ATOM     71  S   UNL     1     -20.230  -3.005  -0.130  1.00  0.00     0.127 S 
ATOM     72  O   UNL     1     -18.997  -3.770   0.053  1.00  0.00    -0.237 OA
ATOM     73  O   UNL     1     -21.441  -3.684   0.332  1.00  0.00    -0.237 OA
ATOM     74  O   UNL     1     -20.363  -2.331  -1.414  1.00  0.00    -0.744 OA
ENDBRANCH  68  71
ENDBRANCH  50  64
BRANCH  51  75
ATOM     75  C   UNL     1     -17.664   9.998  -0.913  1.00  0.00     0.023 A 
ATOM     76  C   UNL     1     -18.380  11.108  -0.427  1.00  0.00     0.012 A 
ATOM     77  C   UNL     1     -16.598  10.206  -1.811  1.00  0.00     0.148 A 
ATOM     78  C   UNL     1     -18.060  12.399  -0.850  1.00  0.00     0.002 A 
ATOM     79  C   UNL     1     -16.247  11.497  -2.181  1.00  0.00     0.091 A 
ATOM     80  F   UNL     1     -15.935   9.133  -2.266  1.00  0.00    -0.205 F 
ATOM     81  C   UNL     1     -16.988  12.595  -1.717  1.00  0.00     0.022 A 
BRANCH  79  82
ATOM     82  S   UNL     1     -14.797  11.852  -3.180  1.00  0.00     0.127 S 
ATOM     83  O   UNL     1     -15.399  12.346  -4.416  1.00  0.00    -0.237 OA
ATOM     84  O   UNL     1     -14.120  12.868  -2.374  1.00  0.00    -0.237 OA
ATOM     85  O   UNL     1     -14.074  10.593  -3.290  1.00  0.00    -0.744 OA
ENDBRANCH  79  82
ENDBRANCH  51  75
BRANCH  63  86
ATOM     86  C   UNL     1     -23.252   5.872  -1.700  1.00  0.00     0.023 A 
ATOM     87  C   UNL     1     -23.337   5.931  -3.105  1.00  0.00     0.012 A 
ATOM     88  C   UNL     1     -24.432   5.926  -0.933  1.00  0.00     0.148 A 
ATOM     89  C   UNL     1     -24.573   6.078  -3.734  1.00  0.00     0.002 A 
ATOM     90  C   UNL     1     -25.664   6.017  -1.568  1.00  0.00     0.091 A 
ATOM     91  F   UNL     1     -24.329   5.886   0.404  1.00  0.00    -0.205 F 
ATOM     92  C   UNL     1     -25.736   6.108  -2.968  1.00  0.00     0.022 A 
BRANCH  90  93
ATOM     93  S   UNL     1     -27.219   5.962  -0.670  1.00  0.00     0.127 S 
ATOM     94  O   UNL     1     -27.698   7.335  -0.821  1.00  0.00    -0.237 OA
ATOM     95  O   UNL     1     -27.977   4.964  -1.425  1.00  0.00    -0.237 OA
ATOM     96  O   UNL     1     -26.884   5.566   0.691  1.00  0.00    -0.744 OA
ENDBRANCH  90  93
ENDBRANCH  63  86
ENDBRANCH  37  38
ENDBRANCH  29  32
ENDBRANCH  27  28
ENDBRANCH  26  27
ENDBRANCH  25  26
ENDBRANCH   1  25
TORSDOF 19
