REMARK SMILES O=C(COc1ccc(Cl)c2ccccc12)N[C@@H](Cc1c[nH]c2ccccc12)C(=O)NCCCCCCNC(=O)c1ccc(-c2c3nc(c(-c4cccc(S(=O)(=O)[O-])c4F)c4ccc([nH]4)c(-c4cccc(S(=O)(=O)[O-])c4F)c4nc(c(-c5cccc(S(=O)(=O)[O-])c5F)c5ccc2[nH]5)C=C4)C=C3)cc1
REMARK SMILES IDX 33 1 32 2 31 3 30 4 28 5 29 6 17 8 16 9 1 10 2 11 3 13 4 14
REMARK SMILES IDX 5 15 6 16 15 17 7 18 10 19 14 20 8 21 11 22 13 23 9 24 12 25
REMARK SMILES IDX 18 26 19 27 20 28 27 29 21 30 22 31 26 32 23 34 25 35 24 36
REMARK SMILES IDX 34 37 35 38 36 39 37 40 38 41 39 43 40 44 41 45 102 46 42 47
REMARK SMILES IDX 101 48 43 49 44 50 45 51 95 52 46 53 100 54 94 55 96 56
REMARK SMILES IDX 47 57 99 58 93 59 92 60 48 62 80 63 60 64 79 65 61 66 64 67
REMARK SMILES IDX 78 68 97 69 62 70 63 71 77 73 98 74 65 75 49 76 50 77 58 78
REMARK SMILES IDX 51 79 53 80 59 81 52 82 54 83 55 84 56 85 57 86 81 87 82 88
REMARK SMILES IDX 90 89 83 90 85 91 91 92 84 93 86 94 87 95 88 96 89 97 66 98
REMARK SMILES IDX 67 99 75 100 68 101 70 102 76 103 69 104 71 105 72 106
REMARK SMILES IDX 73 107 74 108
REMARK H PARENT 30 7 16 12 21 33 37 42 96 61 64 72
REMARK Flexibility Score: inf
ROOT
ATOM      1  C   UNL     1       6.855  -0.073   4.737  1.00  0.00     0.002 C 
ENDROOT
BRANCH   1   2
ATOM      2  C   UNL     1       6.110  -0.097   3.406  1.00  0.00     0.021 C 
BRANCH   2   3
ATOM      3  C   UNL     1       5.088  -1.212   3.249  1.00  0.00     0.116 C 
BRANCH   3   4
ATOM      4  N   UNL     1       3.770  -0.926   3.757  1.00  0.00    -0.354 N 
ATOM      5  C   UNL     1       2.567  -1.274   3.203  1.00  0.00     0.242 C 
ATOM      6  O   UNL     1       1.572  -1.178   3.931  1.00  0.00    -0.273 OA
ATOM      7  H   UNL     1       3.730  -0.421   4.601  1.00  0.00     0.163 HD
BRANCH   5   8
ATOM      8  C   UNL     1       2.419  -1.735   1.722  1.00  0.00     0.175 C 
BRANCH   8   9
ATOM      9  N   UNL     1       2.936  -0.719   0.805  1.00  0.00    -0.341 N 
ATOM     10  O   UNL     1       1.056  -0.523  -0.503  1.00  0.00    -0.271 OA
ATOM     11  C   UNL     1       2.182  -0.146  -0.193  1.00  0.00     0.258 C 
ATOM     12  H   UNL     1       3.871  -0.430   0.908  1.00  0.00     0.164 HD
BRANCH  11  13
ATOM     13  C   UNL     1       2.878   1.026  -0.892  1.00  0.00     0.329 C 
BRANCH  13  14
ATOM     14  O   UNL     1       3.834   1.724  -0.090  1.00  0.00    -0.483 OA
BRANCH  14  15
ATOM     15  C   UNL     1       3.315   2.748   0.671  1.00  0.00     0.128 A 
ATOM     16  C   UNL     1       2.297   2.508   1.596  1.00  0.00     0.048 A 
ATOM     17  C   UNL     1       3.929   4.023   0.590  1.00  0.00     0.025 A 
ATOM     18  C   UNL     1       1.870   3.521   2.446  1.00  0.00     0.025 A 
ATOM     19  C   UNL     1       3.499   5.062   1.461  1.00  0.00     0.004 A 
ATOM     20  C   UNL     1       4.958   4.302  -0.338  1.00  0.00     0.012 A 
ATOM     21  C   UNL     1       2.464   4.781   2.386  1.00  0.00     0.049 A 
ATOM     22  C   UNL     1       4.133   6.325   1.367  1.00  0.00     0.010 A 
ATOM     23  C   UNL     1       5.556   5.561  -0.415  1.00  0.00     0.001 A 
ATOM     24  Cl  UNL     1       1.875   5.967   3.507  1.00  0.00    -0.084 Cl
ATOM     25  C   UNL     1       5.147   6.571   0.442  1.00  0.00     0.001 A 
ENDBRANCH  14  15
ENDBRANCH  13  14
ENDBRANCH  11  13
ENDBRANCH   8   9
BRANCH   8  26
ATOM     26  C   UNL     1       2.788  -3.196   1.381  1.00  0.00     0.072 C 
BRANCH  26  27
ATOM     27  C   UNL     1       4.234  -3.585   1.200  1.00  0.00    -0.020 A 
ATOM     28  C   UNL     1       5.223  -2.924   0.490  1.00  0.00     0.087 A 
ATOM     29  C   UNL     1       4.841  -4.810   1.650  1.00  0.00     0.003 A 
ATOM     30  N   UNL     1       6.422  -3.541   0.735  1.00  0.00    -0.361 N 
ATOM     31  C   UNL     1       6.214  -4.705   1.429  1.00  0.00     0.046 A 
ATOM     32  C   UNL     1       4.351  -6.006   2.216  1.00  0.00     0.010 A 
ATOM     33  H   UNL     1       7.301  -3.199   0.455  1.00  0.00     0.166 HD
ATOM     34  C   UNL     1       7.131  -5.684   1.825  1.00  0.00     0.026 A 
ATOM     35  C   UNL     1       5.247  -7.034   2.542  1.00  0.00     0.001 A 
ATOM     36  C   UNL     1       6.619  -6.862   2.372  1.00  0.00     0.002 A 
ENDBRANCH  26  27
ENDBRANCH   8  26
ENDBRANCH   5   8
ENDBRANCH   3   4
ENDBRANCH   2   3
ENDBRANCH   1   2
BRANCH   1  37
ATOM     37  C   UNL     1       7.578  -1.369   5.123  1.00  0.00     0.002 C 
BRANCH  37  38
ATOM     38  C   UNL     1       8.546  -1.946   4.084  1.00  0.00     0.021 C 
BRANCH  38  39
ATOM     39  C   UNL     1       9.650  -1.003   3.611  1.00  0.00     0.116 C 
BRANCH  39  40
ATOM     40  N   UNL     1      10.471  -0.510   4.706  1.00  0.00    -0.352 N 
ATOM     41  C   UNL     1      11.823  -0.616   4.913  1.00  0.00     0.251 C 
ATOM     42  H   UNL     1       9.980  -0.026   5.409  1.00  0.00     0.163 HD
ATOM     43  O   UNL     1      12.302  -0.283   5.998  1.00  0.00    -0.269 OA
BRANCH  41  44
ATOM     44  C   UNL     1      12.707  -1.143   3.851  1.00  0.00     0.039 A 
ATOM     45  C   UNL     1      13.690  -2.076   4.192  1.00  0.00     0.014 A 
ATOM     46  C   UNL     1      12.581  -0.713   2.527  1.00  0.00     0.014 A 
ATOM     47  C   UNL     1      14.497  -2.632   3.196  1.00  0.00     0.010 A 
ATOM     48  C   UNL     1      13.339  -1.319   1.527  1.00  0.00     0.010 A 
ATOM     49  C   UNL     1      14.301  -2.288   1.848  1.00  0.00    -0.014 A 
BRANCH  49  50
ATOM     50  C   UNL     1      15.059  -2.963   0.761  1.00  0.00     0.031 A 
ATOM     51  C   UNL     1      15.966  -2.174  -0.144  1.00  0.00     0.074 A 
ATOM     52  C   UNL     1      14.851  -4.274   0.525  1.00  0.00     0.049 A 
ATOM     53  N   UNL     1      16.639  -2.579  -1.190  1.00  0.00    -0.248 NA
ATOM     54  C   UNL     1      16.121  -0.740   0.149  1.00  0.00     0.031 C 
ATOM     55  C   UNL     1      13.941  -5.135   1.284  1.00  0.00     0.029 A 
ATOM     56  N   UNL     1      15.361  -5.106  -0.442  1.00  0.00    -0.354 N 
ATOM     57  C   UNL     1      17.262  -1.448  -1.704  1.00  0.00     0.074 A 
ATOM     58  C   UNL     1      16.870  -0.335  -0.866  1.00  0.00     0.031 C 
ATOM     59  C   UNL     1      13.953  -6.367   0.753  1.00  0.00     0.029 A 
ATOM     60  C   UNL     1      14.837  -6.377  -0.408  1.00  0.00     0.049 A 
ATOM     61  H   UNL     1      16.038  -4.819  -1.097  1.00  0.00     0.167 HD
ATOM     62  C   UNL     1      18.100  -1.348  -2.763  1.00  0.00     0.034 A 
ATOM     63  C   UNL     1      15.023  -7.428  -1.232  1.00  0.00     0.034 A 
ATOM     64  C   UNL     1      18.517  -2.463  -3.571  1.00  0.00     0.049 A 
ATOM     65  C   UNL     1      15.972  -7.293  -2.392  1.00  0.00     0.074 A 
ATOM     66  C   UNL     1      19.445  -2.478  -4.598  1.00  0.00     0.029 A 
ATOM     67  N   UNL     1      18.021  -3.752  -3.462  1.00  0.00    -0.354 N 
ATOM     68  N   UNL     1      16.686  -6.256  -2.755  1.00  0.00    -0.248 NA
ATOM     69  C   UNL     1      16.164  -8.480  -3.238  1.00  0.00     0.031 C 
ATOM     70  C   UNL     1      19.478  -3.768  -5.138  1.00  0.00     0.029 A 
ATOM     71  C   UNL     1      18.600  -4.565  -4.421  1.00  0.00     0.049 A 
ATOM     72  H   UNL     1      17.355  -4.047  -2.799  1.00  0.00     0.167 HD
ATOM     73  C   UNL     1      17.431  -6.672  -3.853  1.00  0.00     0.074 A 
ATOM     74  C   UNL     1      17.102  -8.063  -4.079  1.00  0.00     0.031 C 
ATOM     75  C   UNL     1      18.299  -5.960  -4.613  1.00  0.00     0.034 A 
BRANCH  62  76
ATOM     76  C   UNL     1      18.657   0.011  -3.098  1.00  0.00     0.023 A 
ATOM     77  C   UNL     1      19.618   0.603  -2.254  1.00  0.00     0.012 A 
ATOM     78  C   UNL     1      18.285   0.668  -4.288  1.00  0.00     0.148 A 
ATOM     79  C   UNL     1      20.177   1.840  -2.571  1.00  0.00     0.002 A 
ATOM     80  C   UNL     1      18.881   1.878  -4.622  1.00  0.00     0.091 A 
ATOM     81  F   UNL     1      17.356   0.098  -5.069  1.00  0.00    -0.205 F 
ATOM     82  C   UNL     1      19.818   2.471  -3.759  1.00  0.00     0.022 A 
BRANCH  80  83
ATOM     83  S   UNL     1      18.547   2.731  -6.167  1.00  0.00     0.127 S 
ATOM     84  O   UNL     1      17.820   3.911  -5.699  1.00  0.00    -0.237 OA
ATOM     85  O   UNL     1      19.895   3.002  -6.665  1.00  0.00    -0.237 OA
ATOM     86  O   UNL     1      17.771   1.804  -6.979  1.00  0.00    -0.744 OA
ENDBRANCH  80  83
ENDBRANCH  62  76
BRANCH  63  87
ATOM     87  C   UNL     1      14.310  -8.711  -0.975  1.00  0.00     0.023 A 
ATOM     88  C   UNL     1      15.038  -9.845  -0.565  1.00  0.00     0.012 A 
ATOM     89  C   UNL     1      12.912  -8.806  -1.113  1.00  0.00     0.148 A 
ATOM     90  C   UNL     1      14.390 -11.059  -0.332  1.00  0.00     0.002 A 
ATOM     91  C   UNL     1      12.266 -10.001  -0.819  1.00  0.00     0.091 A 
ATOM     92  F   UNL     1      12.239  -7.719  -1.516  1.00  0.00    -0.205 F 
ATOM     93  C   UNL     1      13.004 -11.134  -0.449  1.00  0.00     0.022 A 
BRANCH  91  94
ATOM     94  S   UNL     1      10.476 -10.144  -0.803  1.00  0.00     0.127 S 
ATOM     95  O   UNL     1      10.233 -10.993  -1.966  1.00  0.00    -0.237 OA
ATOM     96  O   UNL     1      10.237 -10.784   0.491  1.00  0.00    -0.237 OA
ATOM     97  O   UNL     1       9.973  -8.780  -0.897  1.00  0.00    -0.744 OA
ENDBRANCH  91  94
ENDBRANCH  63  87
BRANCH  75  98
ATOM     98  C   UNL     1      18.981  -6.671  -5.753  1.00  0.00     0.023 A 
ATOM     99  C   UNL     1      18.248  -7.009  -6.908  1.00  0.00     0.012 A 
ATOM    100  C   UNL     1      20.367  -6.923  -5.714  1.00  0.00     0.148 A 
ATOM    101  C   UNL     1      18.879  -7.612  -7.996  1.00  0.00     0.002 A 
ATOM    102  C   UNL     1      20.998  -7.476  -6.822  1.00  0.00     0.091 A 
ATOM    103  F   UNL     1      21.042  -6.606  -4.600  1.00  0.00    -0.205 F 
ATOM    104  C   UNL     1      20.254  -7.833  -7.958  1.00  0.00     0.022 A 
BRANCH 102 105
ATOM    105  S   UNL     1      22.777  -7.710  -6.905  1.00  0.00     0.127 S 
ATOM    106  O   UNL     1      22.886  -9.168  -6.918  1.00  0.00    -0.237 OA
ATOM    107  O   UNL     1      23.113  -7.062  -8.173  1.00  0.00    -0.237 OA
ATOM    108  O   UNL     1      23.327  -7.058  -5.725  1.00  0.00    -0.744 OA
ENDBRANCH 102 105
ENDBRANCH  75  98
ENDBRANCH  49  50
ENDBRANCH  41  44
ENDBRANCH  39  40
ENDBRANCH  38  39
ENDBRANCH  37  38
ENDBRANCH   1  37
TORSDOF 22
