REMARK SMILES CCN(CC(=O)NCCCCCCNC(=O)c1ccc(-c2c3nc(c(-c4cccc(S(=O)(=O)[O-])c4F)c4ccc([nH]4)c(-c4cccc(S(=O)(=O)[O-])c4F)c4nc(c(-c5cccc(S(=O)(=O)[O-])c5F)c5ccc2[nH]5)C=C4)C=C3)cc1)C(=O)[C@@H]1CC[NH2+][C@@H]1C
REMARK SMILES IDX 10 1 9 2 8 3 7 4 5 5 6 6 4 8 3 9 2 10 1 11 80 12 81 13 82 14
REMARK SMILES IDX 83 15 86 16 84 17 85 18 87 19 11 22 12 23 13 24 14 25 15 26
REMARK SMILES IDX 16 28 17 29 18 30 79 31 19 32 78 33 20 34 21 35 22 36 72 37
REMARK SMILES IDX 23 38 77 39 71 40 73 41 24 42 76 43 70 44 69 45 25 47 57 48
REMARK SMILES IDX 37 49 56 50 38 51 41 52 55 53 74 54 39 55 40 56 54 58 75 59
REMARK SMILES IDX 42 60 26 61 27 62 35 63 28 64 30 65 36 66 29 67 31 68 32 69
REMARK SMILES IDX 33 70 34 71 58 72 59 73 67 74 60 75 62 76 68 77 61 78 63 79
REMARK SMILES IDX 64 80 65 81 66 82 43 83 44 84 52 85 45 86 47 87 53 88 46 89
REMARK SMILES IDX 48 90 49 91 50 92 51 93
REMARK H PARENT 7 7 85 20 85 21 14 27 73 46 41 57
REMARK Flexibility Score: inf
ROOT
ATOM      1  C   UNL     1       4.433   6.509   6.655  1.00  0.00     0.002 C 
ENDROOT
BRANCH   1   2
ATOM      2  C   UNL     1       3.294   6.710   5.647  1.00  0.00     0.021 C 
BRANCH   2   3
ATOM      3  C   UNL     1       3.673   7.503   4.402  1.00  0.00     0.116 C 
BRANCH   3   4
ATOM      4  N   UNL     1       4.655   6.840   3.578  1.00  0.00    -0.355 N 
ATOM      5  C   UNL     1       4.566   6.527   2.258  1.00  0.00     0.239 C 
ATOM      6  O   UNL     1       5.620   6.565   1.613  1.00  0.00    -0.273 OA
ATOM      7  H   UNL     1       5.492   6.582   4.027  1.00  0.00     0.163 HD
BRANCH   5   8
ATOM      8  C   UNL     1       3.222   6.284   1.543  1.00  0.00     0.219 C 
BRANCH   8   9
ATOM      9  N   UNL     1       2.126   5.689   2.300  1.00  0.00    -0.333 N 
BRANCH   9  10
ATOM     10  C   UNL     1       0.966   6.565   2.562  1.00  0.00     0.116 C 
ATOM     11  C   UNL     1      -0.212   6.284   1.641  1.00  0.00     0.027 C 
ENDBRANCH   9  10
BRANCH   9  12
ATOM     12  C   UNL     1       2.002   4.375   2.692  1.00  0.00     0.232 C 
ATOM     13  O   UNL     1       1.025   4.074   3.405  1.00  0.00    -0.274 OA
BRANCH  12  14
ATOM     14  C   UNL     1       2.962   3.213   2.404  1.00  0.00     0.142 C 
ATOM     15  C   UNL     1       3.724   2.786   3.654  1.00  0.00     0.081 C 
ATOM     16  C   UNL     1       3.921   2.877   1.263  1.00  0.00     0.192 C 
ATOM     17  C   UNL     1       4.592   1.630   3.170  1.00  0.00     0.261 C 
ATOM     18  N   UNL     1       4.369   1.531   1.719  1.00  0.00    -0.343 N 
ATOM     19  C   UNL     1       5.196   3.679   1.028  1.00  0.00     0.076 C 
ATOM     20  H   UNL     1       3.649   0.835   1.521  1.00  0.00     0.346 HD
ATOM     21  H   UNL     1       5.219   1.243   1.235  1.00  0.00     0.346 HD
ENDBRANCH  12  14
ENDBRANCH   9  12
ENDBRANCH   8   9
ENDBRANCH   5   8
ENDBRANCH   3   4
ENDBRANCH   2   3
ENDBRANCH   1   2
BRANCH   1  22
ATOM     22  C   UNL     1       5.219   7.768   7.040  1.00  0.00     0.002 C 
BRANCH  22  23
ATOM     23  C   UNL     1       4.379   8.969   7.478  1.00  0.00     0.021 C 
BRANCH  23  24
ATOM     24  C   UNL     1       3.481   8.717   8.679  1.00  0.00     0.116 C 
BRANCH  24  25
ATOM     25  N   UNL     1       4.244   8.504   9.899  1.00  0.00    -0.352 N 
ATOM     26  C   UNL     1       4.106   9.136  11.111  1.00  0.00     0.251 C 
ATOM     27  H   UNL     1       4.949   7.818   9.850  1.00  0.00     0.163 HD
ATOM     28  O   UNL     1       4.942   8.979  11.995  1.00  0.00    -0.269 OA
BRANCH  26  29
ATOM     29  C   UNL     1       2.945  10.026  11.328  1.00  0.00     0.039 A 
ATOM     30  C   UNL     1       3.151  11.309  11.841  1.00  0.00     0.014 A 
ATOM     31  C   UNL     1       1.660   9.597  10.987  1.00  0.00     0.014 A 
ATOM     32  C   UNL     1       2.070  12.187  11.958  1.00  0.00     0.010 A 
ATOM     33  C   UNL     1       0.601  10.495  11.035  1.00  0.00     0.010 A 
ATOM     34  C   UNL     1       0.792  11.796  11.528  1.00  0.00    -0.014 A 
BRANCH  34  35
ATOM     35  C   UNL     1      -0.379  12.707  11.592  1.00  0.00     0.031 A 
ATOM     36  C   UNL     1      -1.558  12.331  12.448  1.00  0.00     0.074 A 
ATOM     37  C   UNL     1      -0.438  13.790  10.793  1.00  0.00     0.049 A 
ATOM     38  N   UNL     1      -2.743  12.879  12.511  1.00  0.00    -0.248 NA
ATOM     39  C   UNL     1      -1.393  11.157  13.323  1.00  0.00     0.031 C 
ATOM     40  C   UNL     1       0.618  14.228   9.879  1.00  0.00     0.029 A 
ATOM     41  N   UNL     1      -1.450  14.696  10.589  1.00  0.00    -0.354 N 
ATOM     42  C   UNL     1      -3.478  12.090  13.387  1.00  0.00     0.074 A 
ATOM     43  C   UNL     1      -2.615  11.010  13.812  1.00  0.00     0.031 C 
ATOM     44  C   UNL     1       0.195  15.309   9.203  1.00  0.00     0.029 A 
ATOM     45  C   UNL     1      -1.175  15.617   9.605  1.00  0.00     0.049 A 
ATOM     46  H   UNL     1      -2.292  14.688  11.099  1.00  0.00     0.167 HD
ATOM     47  C   UNL     1      -4.750  12.260  13.817  1.00  0.00     0.034 A 
ATOM     48  C   UNL     1      -1.946  16.585   9.070  1.00  0.00     0.034 A 
ATOM     49  C   UNL     1      -5.584  13.365  13.432  1.00  0.00     0.049 A 
ATOM     50  C   UNL     1      -3.345  16.777   9.593  1.00  0.00     0.074 A 
ATOM     51  C   UNL     1      -6.857  13.676  13.874  1.00  0.00     0.029 A 
ATOM     52  N   UNL     1      -5.229  14.340  12.513  1.00  0.00    -0.354 N 
ATOM     53  N   UNL     1      -3.980  16.099  10.518  1.00  0.00    -0.248 NA
ATOM     54  C   UNL     1      -4.125  17.887   9.024  1.00  0.00     0.031 C 
ATOM     55  C   UNL     1      -7.280  14.829  13.207  1.00  0.00     0.029 A 
ATOM     56  C   UNL     1      -6.258  15.253  12.373  1.00  0.00     0.049 A 
ATOM     57  H   UNL     1      -4.371  14.377  12.032  1.00  0.00     0.167 HD
ATOM     58  C   UNL     1      -5.210  16.727  10.677  1.00  0.00     0.074 A 
ATOM     59  C   UNL     1      -5.231  17.844   9.756  1.00  0.00     0.031 C 
ATOM     60  C   UNL     1      -6.232  16.403  11.505  1.00  0.00     0.034 A 
BRANCH  47  61
ATOM     61  C   UNL     1      -5.302  11.254  14.793  1.00  0.00     0.023 A 
ATOM     62  C   UNL     1      -4.819  11.229  16.117  1.00  0.00     0.012 A 
ATOM     63  C   UNL     1      -6.335  10.373  14.417  1.00  0.00     0.148 A 
ATOM     64  C   UNL     1      -5.327  10.318  17.041  1.00  0.00     0.002 A 
ATOM     65  C   UNL     1      -6.870   9.500  15.358  1.00  0.00     0.091 A 
ATOM     66  F   UNL     1      -6.768  10.397  13.149  1.00  0.00    -0.205 F 
ATOM     67  C   UNL     1      -6.358   9.462  16.665  1.00  0.00     0.022 A 
BRANCH  65  68
ATOM     68  S   UNL     1      -8.257   8.418  14.996  1.00  0.00     0.127 S 
ATOM     69  O   UNL     1      -7.609   7.108  14.968  1.00  0.00    -0.237 OA
ATOM     70  O   UNL     1      -9.131   8.642  16.148  1.00  0.00    -0.237 OA
ATOM     71  O   UNL     1      -8.801   8.874  13.724  1.00  0.00    -0.744 OA
ENDBRANCH  65  68
ENDBRANCH  47  61
BRANCH  48  72
ATOM     72  C   UNL     1      -1.392  17.485   8.019  1.00  0.00     0.023 A 
ATOM     73  C   UNL     1      -1.131  18.833   8.334  1.00  0.00     0.012 A 
ATOM     74  C   UNL     1      -1.099  17.014   6.724  1.00  0.00     0.148 A 
ATOM     75  C   UNL     1      -0.619  19.703   7.372  1.00  0.00     0.002 A 
ATOM     76  C   UNL     1      -0.537  17.873   5.786  1.00  0.00     0.091 A 
ATOM     77  F   UNL     1      -1.364  15.731   6.440  1.00  0.00    -0.205 F 
ATOM     78  C   UNL     1      -0.313  19.222   6.102  1.00  0.00     0.022 A 
BRANCH  76  79
ATOM     79  S   UNL     1       0.008  17.311   4.169  1.00  0.00     0.127 S 
ATOM     80  O   UNL     1      -0.978  17.931   3.288  1.00  0.00    -0.237 OA
ATOM     81  O   UNL     1       1.353  17.880   4.088  1.00  0.00    -0.237 OA
ATOM     82  O   UNL     1      -0.023  15.855   4.228  1.00  0.00    -0.744 OA
ENDBRANCH  76  79
ENDBRANCH  48  72
BRANCH  60  83
ATOM     83  C   UNL     1      -7.444  17.296  11.519  1.00  0.00     0.023 A 
ATOM     84  C   UNL     1      -8.366  17.250  10.456  1.00  0.00     0.012 A 
ATOM     85  C   UNL     1      -7.722  18.093  12.647  1.00  0.00     0.148 A 
ATOM     86  C   UNL     1      -9.541  18.001  10.509  1.00  0.00     0.002 A 
ATOM     87  C   UNL     1      -8.916  18.799  12.714  1.00  0.00     0.091 A 
ATOM     88  F   UNL     1      -6.820  18.133  13.639  1.00  0.00    -0.205 F 
ATOM     89  C   UNL     1      -9.822  18.762  11.642  1.00  0.00     0.022 A 
BRANCH  87  90
ATOM     90  S   UNL     1      -9.410  19.723  14.174  1.00  0.00     0.127 S 
ATOM     91  O   UNL     1      -9.318  21.102  13.698  1.00  0.00    -0.237 OA
ATOM     92  O   UNL     1     -10.775  19.244  14.395  1.00  0.00    -0.237 OA
ATOM     93  O   UNL     1      -8.464  19.361  15.220  1.00  0.00    -0.744 OA
ENDBRANCH  87  90
ENDBRANCH  60  83
ENDBRANCH  34  35
ENDBRANCH  26  29
ENDBRANCH  24  25
ENDBRANCH  23  24
ENDBRANCH  22  23
ENDBRANCH   1  22
TORSDOF 20
