REMARK SMILES O=C(CCCN1C(=O)/C(=C\c2ccc(O)c(O)c2)SC1=S)NCCCCCCNC(=O)c1ccc(-c2c3nc(c(-c4cccc(S(=O)(=O)[O-])c4F)c4ccc([nH]4)c(-c4cccc(S(=O)(=O)[O-])c4F)c4nc(c(-c5cccc(S(=O)(=O)[O-])c5F)c5ccc2[nH]5)C=C4)C=C3)cc1
REMARK SMILES IDX 24 1 23 2 22 3 1 4 2 5 3 7 4 8 5 9 6 10 7 11 20 12 8 13 9 14
REMARK SMILES IDX 19 15 21 16 10 17 11 18 12 19 18 20 13 21 16 22 14 23 17 24
REMARK SMILES IDX 15 26 25 28 26 29 27 30 28 31 29 32 30 33 31 35 32 36 33 37
REMARK SMILES IDX 94 38 34 39 93 40 35 41 36 42 37 43 87 44 38 45 92 46 86 47
REMARK SMILES IDX 88 48 39 49 91 50 85 51 84 52 40 54 72 55 52 56 71 57 53 58
REMARK SMILES IDX 56 59 70 60 89 61 54 62 55 63 69 65 90 66 57 67 41 68 42 69
REMARK SMILES IDX 50 70 43 71 45 72 51 73 44 74 46 75 47 76 48 77 49 78 73 79
REMARK SMILES IDX 74 80 82 81 75 82 77 83 83 84 76 85 78 86 79 87 80 88 81 89
REMARK SMILES IDX 58 90 59 91 67 92 60 93 62 94 68 95 61 96 63 97 64 98 65 99
REMARK SMILES IDX 66 100
REMARK H PARENT 22 6 17 25 15 27 29 34 88 53 56 64
REMARK Flexibility Score: inf
ROOT
ATOM      1  C   UNL     1       2.542  -1.286   3.262  1.00  0.00     0.021 C 
ENDROOT
BRANCH   1   2
ATOM      2  C   UNL     1       1.920  -0.166   2.422  1.00  0.00     0.116 C 
BRANCH   2   3
ATOM      3  N   UNL     1       2.377  -0.232   1.049  1.00  0.00    -0.356 N 
ATOM      4  O   UNL     1       0.869   1.230   0.130  1.00  0.00    -0.275 OA
ATOM      5  C   UNL     1       1.855   0.511   0.022  1.00  0.00     0.220 C 
ATOM      6  H   UNL     1       3.113  -0.851   0.839  1.00  0.00     0.163 HD
BRANCH   5   7
ATOM      7  C   UNL     1       2.627   0.384  -1.284  1.00  0.00     0.102 C 
BRANCH   7   8
ATOM      8  C   UNL     1       3.961   1.138  -1.291  1.00  0.00     0.032 C 
BRANCH   8   9
ATOM      9  C   UNL     1       5.028   0.756  -0.251  1.00  0.00     0.128 C 
BRANCH   9  10
ATOM     10  N   UNL     1       5.959  -0.336  -0.596  1.00  0.00    -0.293 N 
ATOM     11  C   UNL     1       7.270   0.028  -0.899  1.00  0.00     0.266 C 
ATOM     12  C   UNL     1       5.729  -1.695  -0.506  1.00  0.00     0.148 C 
ATOM     13  O   UNL     1       7.655   1.169  -1.100  1.00  0.00    -0.268 OA
ATOM     14  C   UNL     1       8.158  -1.172  -0.908  1.00  0.00     0.081 C 
ATOM     15  S   UNL     1       7.213  -2.596  -0.778  1.00  0.00    -0.054 SA
ATOM     16  S   UNL     1       4.335  -2.538  -0.172  1.00  0.00    -0.052 S 
ATOM     17  C   UNL     1       9.495  -1.221  -0.969  1.00  0.00     0.029 C 
BRANCH  17  18
ATOM     18  C   UNL     1      10.368  -0.059  -1.087  1.00  0.00    -0.020 A 
ATOM     19  C   UNL     1      10.521   0.850  -0.028  1.00  0.00     0.012 A 
ATOM     20  C   UNL     1      11.036   0.154  -2.296  1.00  0.00     0.058 A 
ATOM     21  C   UNL     1      11.303   1.996  -0.190  1.00  0.00     0.051 A 
ATOM     22  C   UNL     1      11.813   1.291  -2.444  1.00  0.00     0.157 A 
ATOM     23  C   UNL     1      11.938   2.212  -1.407  1.00  0.00     0.157 A 
BRANCH  22  24
ATOM     24  O   UNL     1      12.445   1.512  -3.635  1.00  0.00    -0.504 OA
ATOM     25  H   UNL     1      12.974   2.277  -3.749  1.00  0.00     0.293 HD
ENDBRANCH  22  24
BRANCH  23  26
ATOM     26  O   UNL     1      12.693   3.329  -1.637  1.00  0.00    -0.504 OA
ATOM     27  H   UNL     1      12.799   3.970  -0.962  1.00  0.00     0.293 HD
ENDBRANCH  23  26
ENDBRANCH  17  18
ENDBRANCH   9  10
ENDBRANCH   8   9
ENDBRANCH   7   8
ENDBRANCH   5   7
ENDBRANCH   2   3
ENDBRANCH   1   2
BRANCH   1  28
ATOM     28  C   UNL     1       4.062  -1.186   3.470  1.00  0.00     0.002 C 
BRANCH  28  29
ATOM     29  C   UNL     1       4.547  -0.009   4.317  1.00  0.00     0.002 C 
BRANCH  29  30
ATOM     30  C   UNL     1       3.950   0.072   5.721  1.00  0.00     0.021 C 
BRANCH  30  31
ATOM     31  C   UNL     1       4.133  -1.179   6.574  1.00  0.00     0.116 C 
BRANCH  31  32
ATOM     32  N   UNL     1       5.529  -1.442   6.895  1.00  0.00    -0.352 N 
ATOM     33  C   UNL     1       6.108  -1.656   8.124  1.00  0.00     0.251 C 
ATOM     34  H   UNL     1       6.143  -1.471   6.125  1.00  0.00     0.163 HD
ATOM     35  O   UNL     1       7.330  -1.703   8.227  1.00  0.00    -0.269 OA
BRANCH  33  36
ATOM     36  C   UNL     1       5.253  -1.802   9.323  1.00  0.00     0.039 A 
ATOM     37  C   UNL     1       5.582  -1.094  10.482  1.00  0.00     0.014 A 
ATOM     38  C   UNL     1       4.119  -2.618   9.298  1.00  0.00     0.014 A 
ATOM     39  C   UNL     1       4.734  -1.152  11.592  1.00  0.00     0.010 A 
ATOM     40  C   UNL     1       3.236  -2.610  10.375  1.00  0.00     0.010 A 
ATOM     41  C   UNL     1       3.534  -1.880  11.535  1.00  0.00    -0.014 A 
BRANCH  41  42
ATOM     42  C   UNL     1       2.572  -1.875  12.669  1.00  0.00     0.031 A 
ATOM     43  C   UNL     1       2.226  -3.157  13.379  1.00  0.00     0.074 A 
ATOM     44  C   UNL     1       1.943  -0.731  13.006  1.00  0.00     0.049 A 
ATOM     45  N   UNL     1       1.373  -3.357  14.351  1.00  0.00    -0.248 NA
ATOM     46  C   UNL     1       2.908  -4.379  12.921  1.00  0.00     0.031 C 
ATOM     47  C   UNL     1       2.129   0.563  12.346  1.00  0.00     0.029 A 
ATOM     48  N   UNL     1       0.999  -0.477  13.970  1.00  0.00    -0.354 N 
ATOM     49  C   UNL     1       1.388  -4.725  14.596  1.00  0.00     0.074 A 
ATOM     50  C   UNL     1       2.309  -5.313  13.647  1.00  0.00     0.031 C 
ATOM     51  C   UNL     1       1.332   1.473  12.927  1.00  0.00     0.029 A 
ATOM     52  C   UNL     1       0.552   0.825  13.976  1.00  0.00     0.049 A 
ATOM     53  H   UNL     1       0.672  -1.161  14.598  1.00  0.00     0.167 HD
ATOM     54  C   UNL     1       0.720  -5.428  15.541  1.00  0.00     0.034 A 
ATOM     55  C   UNL     1      -0.388   1.427  14.732  1.00  0.00     0.034 A 
ATOM     56  C   UNL     1      -0.168  -4.838  16.506  1.00  0.00     0.049 A 
ATOM     57  C   UNL     1      -1.096   0.629  15.793  1.00  0.00     0.074 A 
ATOM     58  C   UNL     1      -0.824  -5.451  17.559  1.00  0.00     0.029 A 
ATOM     59  N   UNL     1      -0.537  -3.502  16.531  1.00  0.00    -0.354 N 
ATOM     60  N   UNL     1      -0.948  -0.633  16.114  1.00  0.00    -0.248 NA
ATOM     61  C   UNL     1      -2.076   1.347  16.622  1.00  0.00     0.031 C 
ATOM     62  C   UNL     1      -1.616  -4.492  18.200  1.00  0.00     0.029 A 
ATOM     63  C   UNL     1      -1.423  -3.273  17.570  1.00  0.00     0.049 A 
ATOM     64  H   UNL     1      -0.217  -2.816  15.901  1.00  0.00     0.167 HD
ATOM     65  C   UNL     1      -1.784  -0.851  17.204  1.00  0.00     0.074 A 
ATOM     66  C   UNL     1      -2.421   0.416  17.500  1.00  0.00     0.031 C 
ATOM     67  C   UNL     1      -2.012  -1.998  17.889  1.00  0.00     0.034 A 
BRANCH  54  68
ATOM     68  C   UNL     1       0.957  -6.915  15.608  1.00  0.00     0.023 A 
ATOM     69  C   UNL     1       2.203  -7.404  16.053  1.00  0.00     0.012 A 
ATOM     70  C   UNL     1      -0.067  -7.828  15.289  1.00  0.00     0.148 A 
ATOM     71  C   UNL     1       2.440  -8.775  16.141  1.00  0.00     0.002 A 
ATOM     72  C   UNL     1       0.160  -9.193  15.425  1.00  0.00     0.091 A 
ATOM     73  F   UNL     1      -1.238  -7.347  14.850  1.00  0.00    -0.205 F 
ATOM     74  C   UNL     1       1.416  -9.668  15.838  1.00  0.00     0.022 A 
BRANCH  72  75
ATOM     75  S   UNL     1      -1.118 -10.422  15.140  1.00  0.00     0.127 S 
ATOM     76  O   UNL     1      -0.641 -11.064  13.916  1.00  0.00    -0.237 OA
ATOM     77  O   UNL     1      -1.019 -11.252  16.341  1.00  0.00    -0.237 OA
ATOM     78  O   UNL     1      -2.366  -9.684  15.012  1.00  0.00    -0.744 OA
ENDBRANCH  72  75
ENDBRANCH  54  68
BRANCH  55  79
ATOM     79  C   UNL     1      -0.674   2.879  14.551  1.00  0.00     0.023 A 
ATOM     80  C   UNL     1      -0.304   3.790  15.560  1.00  0.00     0.012 A 
ATOM     81  C   UNL     1      -1.292   3.364  13.382  1.00  0.00     0.148 A 
ATOM     82  C   UNL     1      -0.577   5.151  15.425  1.00  0.00     0.002 A 
ATOM     83  C   UNL     1      -1.508   4.728  13.228  1.00  0.00     0.091 A 
ATOM     84  F   UNL     1      -1.645   2.480  12.438  1.00  0.00    -0.205 F 
ATOM     85  C   UNL     1      -1.169   5.622  14.256  1.00  0.00     0.022 A 
BRANCH  83  86
ATOM     86  S   UNL     1      -2.143   5.438  11.705  1.00  0.00     0.127 S 
ATOM     87  O   UNL     1      -3.466   5.898  12.119  1.00  0.00    -0.237 OA
ATOM     88  O   UNL     1      -1.174   6.502  11.443  1.00  0.00    -0.237 OA
ATOM     89  O   UNL     1      -2.126   4.356  10.730  1.00  0.00    -0.744 OA
ENDBRANCH  83  86
ENDBRANCH  55  79
BRANCH  67  90
ATOM     90  C   UNL     1      -2.958  -1.938  19.061  1.00  0.00     0.023 A 
ATOM     91  C   UNL     1      -4.341  -1.779  18.846  1.00  0.00     0.012 A 
ATOM     92  C   UNL     1      -2.479  -2.114  20.375  1.00  0.00     0.148 A 
ATOM     93  C   UNL     1      -5.228  -1.759  19.921  1.00  0.00     0.002 A 
ATOM     94  C   UNL     1      -3.374  -2.146  21.437  1.00  0.00     0.091 A 
ATOM     95  F   UNL     1      -1.157  -2.246  20.561  1.00  0.00    -0.205 F 
ATOM     96  C   UNL     1      -4.747  -1.955  21.214  1.00  0.00     0.022 A 
BRANCH  94  97
ATOM     97  S   UNL     1      -2.858  -2.492  23.123  1.00  0.00     0.127 S 
ATOM     98  O   UNL     1      -3.037  -1.189  23.762  1.00  0.00    -0.237 OA
ATOM     99  O   UNL     1      -3.821  -3.513  23.538  1.00  0.00    -0.237 OA
ATOM    100  O   UNL     1      -1.481  -2.959  23.035  1.00  0.00    -0.744 OA
ENDBRANCH  94  97
ENDBRANCH  67  90
ENDBRANCH  41  42
ENDBRANCH  33  36
ENDBRANCH  31  32
ENDBRANCH  30  31
ENDBRANCH  29  30
ENDBRANCH  28  29
ENDBRANCH   1  28
TORSDOF 22
