REMARK SMILES O=C(CCN1C(=O)[C@@H]2[C@@H](C1=O)[C@H]1c3ccccc3[C@]2(Br)c2ccccc21)NCCCCCCNC(=O)c1ccc(-c2c3nc(c(-c4cccc(S(=O)(=O)[O-])c4F)c4ccc([nH]4)c(-c4cccc(S(=O)(=O)[O-])c4F)c4nc(c(-c5cccc(S(=O)(=O)[O-])c5F)c5ccc2[nH]5)C=C4)C=C3)cc1
REMARK SMILES IDX 31 1 30 2 29 3 28 4 27 5 1 6 2 7 3 9 4 10 5 11 6 12 10 13
REMARK SMILES IDX 7 14 8 15 9 16 11 17 19 18 12 19 21 20 20 21 18 22 26 23
REMARK SMILES IDX 13 24 22 25 17 26 25 27 14 28 23 29 16 30 24 31 15 32 32 33
REMARK SMILES IDX 33 34 34 35 35 36 36 38 37 39 38 40 99 41 39 42 98 43 40 44
REMARK SMILES IDX 41 45 42 46 92 47 43 48 97 49 91 50 93 51 44 52 96 53 90 54
REMARK SMILES IDX 89 55 45 57 77 58 57 59 76 60 58 61 61 62 75 63 94 64 59 65
REMARK SMILES IDX 60 66 74 68 95 69 62 70 46 71 47 72 55 73 48 74 50 75 56 76
REMARK SMILES IDX 49 77 51 78 52 79 53 80 54 81 78 82 79 83 87 84 80 85 82 86
REMARK SMILES IDX 88 87 81 88 83 89 84 90 85 91 86 92 63 93 64 94 72 95 65 96
REMARK SMILES IDX 67 97 73 98 66 99 68 100 69 101 70 102 71 103
REMARK H PARENT 27 8 34 37 93 56 61 67
REMARK Flexibility Score: inf
ROOT
ATOM      1  C   UNL     1       4.047  -2.310   3.492  1.00  0.00     0.002 C 
ENDROOT
BRANCH   1   2
ATOM      2  C   UNL     1       3.418  -3.190   2.415  1.00  0.00     0.002 C 
BRANCH   2   3
ATOM      3  C   UNL     1       1.941  -2.917   2.109  1.00  0.00     0.021 C 
BRANCH   3   4
ATOM      4  C   UNL     1       1.592  -1.473   1.748  1.00  0.00     0.116 C 
BRANCH   4   5
ATOM      5  N   UNL     1       2.423  -0.946   0.683  1.00  0.00    -0.356 N 
ATOM      6  O   UNL     1       0.856   0.508  -0.173  1.00  0.00    -0.275 OA
ATOM      7  C   UNL     1       2.002   0.073  -0.136  1.00  0.00     0.221 C 
ATOM      8  H   UNL     1       3.319  -1.330   0.543  1.00  0.00     0.163 HD
BRANCH   7   9
ATOM      9  C   UNL     1       3.103   0.662  -0.987  1.00  0.00     0.122 C 
BRANCH   9  10
ATOM     10  C   UNL     1       3.742   1.854  -0.279  1.00  0.00     0.138 C 
BRANCH  10  11
ATOM     11  N   UNL     1       4.794   1.474   0.655  1.00  0.00    -0.281 N 
ATOM     12  C   UNL     1       4.594   1.266   2.022  1.00  0.00     0.235 C 
ATOM     13  C   UNL     1       6.132   1.346   0.297  1.00  0.00     0.234 C 
ATOM     14  O   UNL     1       3.536   1.222   2.614  1.00  0.00    -0.274 OA
ATOM     15  C   UNL     1       5.972   1.322   2.613  1.00  0.00     0.118 C 
ATOM     16  C   UNL     1       6.747   0.662   1.470  1.00  0.00     0.105 C 
ATOM     17  O   UNL     1       6.659   1.579  -0.772  1.00  0.00    -0.274 OA
ATOM     18  C   UNL     1       6.597   0.859   3.952  1.00  0.00     0.088 C 
ATOM     19  C   UNL     1       8.223   0.576   1.853  1.00  0.00     0.063 C 
ATOM     20  C   UNL     1       7.816   1.827   3.993  1.00  0.00    -0.022 A 
ATOM     21  Br  UNL     1       5.363   1.092   5.406  1.00  0.00    -0.074 Br
ATOM     22  C   UNL     1       7.278  -0.533   3.880  1.00  0.00    -0.022 A 
ATOM     23  C   UNL     1       8.639   1.708   2.814  1.00  0.00    -0.035 A 
ATOM     24  C   UNL     1       8.172  -0.673   2.759  1.00  0.00    -0.035 A 
ATOM     25  C   UNL     1       8.163   2.719   5.001  1.00  0.00     0.006 A 
ATOM     26  C   UNL     1       7.276  -1.537   4.843  1.00  0.00     0.006 A 
ATOM     27  C   UNL     1       9.779   2.484   2.674  1.00  0.00     0.005 A 
ATOM     28  C   UNL     1       8.940  -1.814   2.561  1.00  0.00     0.005 A 
ATOM     29  C   UNL     1       9.310   3.495   4.843  1.00  0.00     0.000 A 
ATOM     30  C   UNL     1       8.075  -2.673   4.653  1.00  0.00     0.000 A 
ATOM     31  C   UNL     1      10.107   3.381   3.694  1.00  0.00     0.000 A 
ATOM     32  C   UNL     1       8.877  -2.823   3.516  1.00  0.00     0.000 A 
ENDBRANCH  10  11
ENDBRANCH   9  10
ENDBRANCH   7   9
ENDBRANCH   4   5
ENDBRANCH   3   4
ENDBRANCH   2   3
ENDBRANCH   1   2
BRANCH   1  33
ATOM     33  C   UNL     1       3.476  -2.466   4.899  1.00  0.00     0.021 C 
BRANCH  33  34
ATOM     34  C   UNL     1       3.654  -3.847   5.516  1.00  0.00     0.116 C 
BRANCH  34  35
ATOM     35  N   UNL     1       5.050  -4.230   5.697  1.00  0.00    -0.352 N 
ATOM     36  C   UNL     1       5.630  -4.902   6.751  1.00  0.00     0.251 C 
ATOM     37  H   UNL     1       5.660  -3.974   4.968  1.00  0.00     0.163 HD
ATOM     38  O   UNL     1       6.846  -5.061   6.799  1.00  0.00    -0.269 OA
BRANCH  36  39
ATOM     39  C   UNL     1       4.773  -5.402   7.844  1.00  0.00     0.039 A 
ATOM     40  C   UNL     1       3.586  -6.067   7.542  1.00  0.00     0.014 A 
ATOM     41  C   UNL     1       5.128  -5.154   9.173  1.00  0.00     0.014 A 
ATOM     42  C   UNL     1       2.665  -6.306   8.550  1.00  0.00     0.010 A 
ATOM     43  C   UNL     1       4.239  -5.487  10.198  1.00  0.00     0.010 A 
ATOM     44  C   UNL     1       2.976  -6.012   9.888  1.00  0.00    -0.014 A 
BRANCH  44  45
ATOM     45  C   UNL     1       1.946  -6.271  10.925  1.00  0.00     0.031 A 
ATOM     46  C   UNL     1       1.329  -5.143  11.705  1.00  0.00     0.074 A 
ATOM     47  C   UNL     1       1.503  -7.533  11.088  1.00  0.00     0.049 A 
ATOM     48  N   UNL     1       0.348  -5.189  12.569  1.00  0.00    -0.248 NA
ATOM     49  C   UNL     1       1.877  -3.791  11.499  1.00  0.00     0.031 C 
ATOM     50  C   UNL     1       2.045  -8.707  10.397  1.00  0.00     0.029 A 
ATOM     51  N   UNL     1       0.478  -8.037  11.844  1.00  0.00    -0.354 N 
ATOM     52  C   UNL     1       0.189  -3.891  13.038  1.00  0.00     0.074 A 
ATOM     53  C   UNL     1       1.175  -3.074  12.366  1.00  0.00     0.031 C 
ATOM     54  C   UNL     1       1.302  -9.779  10.704  1.00  0.00     0.029 A 
ATOM     55  C   UNL     1       0.268  -9.383  11.654  1.00  0.00     0.049 A 
ATOM     56  H   UNL     1      -0.057  -7.489  12.464  1.00  0.00     0.167 HD
ATOM     57  C   UNL     1      -0.712  -3.420  13.931  1.00  0.00     0.034 A 
ATOM     58  C   UNL     1      -0.657 -10.209  12.178  1.00  0.00     0.034 A 
ATOM     59  C   UNL     1      -1.733  -4.224  14.546  1.00  0.00     0.049 A 
ATOM     60  C   UNL     1      -1.670  -9.653  13.133  1.00  0.00     0.074 A 
ATOM     61  C   UNL     1      -2.717  -3.827  15.434  1.00  0.00     0.029 A 
ATOM     62  N   UNL     1      -1.910  -5.581  14.329  1.00  0.00    -0.354 N 
ATOM     63  N   UNL     1      -1.842  -8.410  13.511  1.00  0.00    -0.248 NA
ATOM     64  C   UNL     1      -2.619 -10.604  13.728  1.00  0.00     0.031 C 
ATOM     65  C   UNL     1      -3.492  -4.947  15.753  1.00  0.00     0.029 A 
ATOM     66  C   UNL     1      -2.989  -6.038  15.063  1.00  0.00     0.049 A 
ATOM     67  H   UNL     1      -1.351  -6.137  13.739  1.00  0.00     0.167 HD
ATOM     68  C   UNL     1      -2.916  -8.426  14.390  1.00  0.00     0.074 A 
ATOM     69  C   UNL     1      -3.375  -9.799  14.465  1.00  0.00     0.031 C 
ATOM     70  C   UNL     1      -3.454  -7.401  15.092  1.00  0.00     0.034 A 
BRANCH  57  71
ATOM     71  C   UNL     1      -0.682  -1.954  14.264  1.00  0.00     0.023 A 
ATOM     72  C   UNL     1      -1.290  -1.038  13.384  1.00  0.00     0.012 A 
ATOM     73  C   UNL     1      -0.147  -1.498  15.484  1.00  0.00     0.148 A 
ATOM     74  C   UNL     1      -1.358   0.316  13.710  1.00  0.00     0.002 A 
ATOM     75  C   UNL     1      -0.242  -0.150  15.814  1.00  0.00     0.091 A 
ATOM     76  F   UNL     1       0.437  -2.389  16.298  1.00  0.00    -0.205 F 
ATOM     77  C   UNL     1      -0.844   0.758  14.927  1.00  0.00     0.022 A 
BRANCH  75  78
ATOM     78  S   UNL     1       0.342   0.515  17.377  1.00  0.00     0.127 S 
ATOM     79  O   UNL     1       1.435   1.383  16.938  1.00  0.00    -0.237 OA
ATOM     80  O   UNL     1      -0.839   1.224  17.869  1.00  0.00    -0.237 OA
ATOM     81  O   UNL     1       0.747  -0.631  18.179  1.00  0.00    -0.744 OA
ENDBRANCH  75  78
ENDBRANCH  57  71
BRANCH  58  82
ATOM     82  C   UNL     1      -0.682 -11.632  11.747  1.00  0.00     0.023 A 
ATOM     83  C   UNL     1      -1.686 -12.067  10.862  1.00  0.00     0.012 A 
ATOM     84  C   UNL     1       0.342 -12.523  12.123  1.00  0.00     0.148 A 
ATOM     85  C   UNL     1      -1.667 -13.367  10.355  1.00  0.00     0.002 A 
ATOM     86  C   UNL     1       0.382 -13.799  11.576  1.00  0.00     0.091 A 
ATOM     87  F   UNL     1       1.280 -12.085  12.975  1.00  0.00    -0.205 F 
ATOM     88  C   UNL     1      -0.627 -14.227  10.700  1.00  0.00     0.022 A 
BRANCH  86  89
ATOM     89  S   UNL     1       1.754 -14.925  11.857  1.00  0.00     0.127 S 
ATOM     90  O   UNL     1       1.121 -15.972  12.654  1.00  0.00    -0.237 OA
ATOM     91  O   UNL     1       2.105 -15.316  10.491  1.00  0.00    -0.237 OA
ATOM     92  O   UNL     1       2.774 -14.142  12.540  1.00  0.00    -0.744 OA
ENDBRANCH  86  89
ENDBRANCH  58  82
BRANCH  70  93
ATOM     93  C   UNL     1      -4.594  -7.710  16.018  1.00  0.00     0.023 A 
ATOM     94  C   UNL     1      -4.313  -8.244  17.290  1.00  0.00     0.012 A 
ATOM     95  C   UNL     1      -5.915  -7.359  15.683  1.00  0.00     0.148 A 
ATOM     96  C   UNL     1      -5.335  -8.429  18.218  1.00  0.00     0.002 A 
ATOM     97  C   UNL     1      -6.924  -7.518  16.624  1.00  0.00     0.091 A 
ATOM     98  F   UNL     1      -6.152  -6.862  14.460  1.00  0.00    -0.205 F 
ATOM     99  C   UNL     1      -6.637  -8.056  17.890  1.00  0.00     0.022 A 
BRANCH  97 100
ATOM    100  S   UNL     1      -8.618  -7.003  16.323  1.00  0.00     0.127 S 
ATOM    101  O   UNL     1      -9.318  -8.286  16.291  1.00  0.00    -0.237 OA
ATOM    102  O   UNL     1      -8.904  -6.180  17.499  1.00  0.00    -0.237 OA
ATOM    103  O   UNL     1      -8.601  -6.274  15.062  1.00  0.00    -0.744 OA
ENDBRANCH  97 100
ENDBRANCH  70  93
ENDBRANCH  44  45
ENDBRANCH  36  39
ENDBRANCH  34  35
ENDBRANCH  33  34
ENDBRANCH   1  33
TORSDOF 18
