REMARK SMILES Cc1cc(C)n(CC(=O)N[C@H]2C=C[C@@H](C(=O)NCCCCCCNC(=O)c3ccc(-c4c5nc(c(-c6cccc(S(=O)(=O)[O-])c6F)c6ccc([nH]6)c(-c6cccc(S(=O)(=O)[O-])c6F)c6nc(c(-c7cccc(S(=O)(=O)[O-])c7F)c7ccc4[nH]7)C=C6)C=C5)cc3)C2)n1
REMARK SMILES IDX 20 1 19 2 18 3 17 4 15 5 16 6 14 8 11 9 12 10 90 11 13 12
REMARK SMILES IDX 10 13 8 14 9 15 7 17 6 18 1 19 2 20 3 21 91 22 4 23 5 24
REMARK SMILES IDX 21 25 22 26 23 27 24 28 25 29 26 31 27 32 28 33 89 34 29 35
REMARK SMILES IDX 88 36 30 37 31 38 32 39 82 40 33 41 87 42 81 43 83 44 34 45
REMARK SMILES IDX 86 46 80 47 79 48 35 50 67 51 47 52 66 53 48 54 51 55 65 56
REMARK SMILES IDX 84 57 49 58 50 59 64 61 85 62 52 63 36 64 37 65 45 66 38 67
REMARK SMILES IDX 40 68 46 69 39 70 41 71 42 72 43 73 44 74 68 75 69 76 77 77
REMARK SMILES IDX 70 78 72 79 78 80 71 81 73 82 74 83 75 84 76 85 53 86 54 87
REMARK SMILES IDX 62 88 55 89 57 90 63 91 56 92 58 93 59 94 60 95 61 96
REMARK H PARENT 17 7 10 16 24 30 83 49 51 60
REMARK Flexibility Score: inf
ROOT
ATOM      1  C   UNL     1       3.233   3.388   5.249  1.00  0.00     0.002 C 
ENDROOT
BRANCH   1   2
ATOM      2  C   UNL     1       1.904   3.233   4.517  1.00  0.00     0.021 C 
BRANCH   2   3
ATOM      3  C   UNL     1       1.615   4.214   3.366  1.00  0.00     0.116 C 
BRANCH   3   4
ATOM      4  N   UNL     1       1.899   3.630   2.064  1.00  0.00    -0.356 N 
ATOM      5  C   UNL     1       1.164   3.389   0.942  1.00  0.00     0.227 C 
ATOM      6  O   UNL     1       1.782   2.851   0.008  1.00  0.00    -0.274 OA
ATOM      7  H   UNL     1       2.837   3.343   1.973  1.00  0.00     0.163 HD
BRANCH   5   8
ATOM      8  C   UNL     1      -0.308   3.812   0.700  1.00  0.00     0.103 C 
ATOM      9  C   UNL     1      -2.512   3.445   1.773  1.00  0.00     0.106 C 
ATOM     10  C   UNL     1      -1.982   4.819   2.016  1.00  0.00    -0.006 C 
ATOM     11  C   UNL     1      -1.448   2.788   0.894  1.00  0.00     0.047 C 
ATOM     12  C   UNL     1      -0.808   5.029   1.410  1.00  0.00    -0.016 C 
BRANCH   9  13
ATOM     13  N   UNL     1      -2.950   2.812   3.006  1.00  0.00    -0.348 N 
ATOM     14  C   UNL     1      -2.384   2.135   4.043  1.00  0.00     0.242 C 
ATOM     15  O   UNL     1      -3.125   1.892   5.001  1.00  0.00    -0.273 OA
ATOM     16  H   UNL     1      -3.925   2.894   3.122  1.00  0.00     0.164 HD
BRANCH  14  17
ATOM     17  C   UNL     1      -0.917   1.866   4.147  1.00  0.00     0.244 C 
BRANCH  17  18
ATOM     18  N   UNL     1      -0.391   0.698   3.468  1.00  0.00    -0.260 N 
ATOM     19  C   UNL     1       1.029  -0.444   0.468  1.00  0.00     0.069 C 
ATOM     20  C   UNL     1       0.504  -0.319   1.846  1.00  0.00     0.060 A 
ATOM     21  C   UNL     1       0.099  -1.304   2.768  1.00  0.00     0.048 A 
ATOM     22  N   UNL     1       0.398   0.895   2.390  1.00  0.00    -0.178 NA
ATOM     23  C   UNL     1      -0.290  -0.598   3.894  1.00  0.00     0.036 A 
ATOM     24  C   UNL     1      -0.606  -1.040   5.269  1.00  0.00     0.066 C 
ENDBRANCH  17  18
ENDBRANCH  14  17
ENDBRANCH   9  13
ENDBRANCH   5   8
ENDBRANCH   3   4
ENDBRANCH   2   3
ENDBRANCH   1   2
BRANCH   1  25
ATOM     25  C   UNL     1       3.433   4.720   5.982  1.00  0.00     0.002 C 
BRANCH  25  26
ATOM     26  C   UNL     1       2.307   5.165   6.928  1.00  0.00     0.021 C 
BRANCH  26  27
ATOM     27  C   UNL     1       2.028   4.192   8.064  1.00  0.00     0.116 C 
BRANCH  27  28
ATOM     28  N   UNL     1       3.152   4.071   8.992  1.00  0.00    -0.352 N 
ATOM     29  C   UNL     1       3.173   3.489  10.240  1.00  0.00     0.251 C 
ATOM     30  H   UNL     1       4.004   4.456   8.685  1.00  0.00     0.163 HD
ATOM     31  O   UNL     1       4.092   3.740  11.026  1.00  0.00    -0.269 OA
BRANCH  29  32
ATOM     32  C   UNL     1       2.107   2.548  10.624  1.00  0.00     0.039 A 
ATOM     33  C   UNL     1       1.661   2.446  11.947  1.00  0.00     0.014 A 
ATOM     34  C   UNL     1       1.567   1.728   9.635  1.00  0.00     0.014 A 
ATOM     35  C   UNL     1       0.645   1.542  12.247  1.00  0.00     0.010 A 
ATOM     36  C   UNL     1       0.460   0.969   9.893  1.00  0.00     0.010 A 
ATOM     37  C   UNL     1       0.052   0.809  11.208  1.00  0.00    -0.014 A 
BRANCH  37  38
ATOM     38  C   UNL     1      -1.102  -0.047  11.435  1.00  0.00     0.031 A 
ATOM     39  C   UNL     1      -2.265   0.687  11.992  1.00  0.00     0.074 A 
ATOM     40  C   UNL     1      -1.177  -1.306  10.948  1.00  0.00     0.049 A 
ATOM     41  N   UNL     1      -2.733   0.606  13.193  1.00  0.00    -0.248 NA
ATOM     42  C   UNL     1      -2.850   1.782  11.200  1.00  0.00     0.031 C 
ATOM     43  C   UNL     1      -0.200  -2.014  10.107  1.00  0.00     0.029 A 
ATOM     44  N   UNL     1      -2.221  -2.175  10.972  1.00  0.00    -0.354 N 
ATOM     45  C   UNL     1      -3.856   1.427  13.203  1.00  0.00     0.074 A 
ATOM     46  C   UNL     1      -3.714   2.305  12.073  1.00  0.00     0.031 C 
ATOM     47  C   UNL     1      -0.802  -3.062   9.499  1.00  0.00     0.029 A 
ATOM     48  C   UNL     1      -2.147  -3.196  10.023  1.00  0.00     0.049 A 
ATOM     49  H   UNL     1      -2.969  -2.091  11.607  1.00  0.00     0.167 HD
ATOM     50  C   UNL     1      -4.950   1.094  13.943  1.00  0.00     0.034 A 
ATOM     51  C   UNL     1      -3.140  -4.054   9.672  1.00  0.00     0.034 A 
ATOM     52  C   UNL     1      -4.631   0.053  14.894  1.00  0.00     0.049 A 
ATOM     53  C   UNL     1      -4.128  -4.034  10.780  1.00  0.00     0.074 A 
ATOM     54  C   UNL     1      -3.692  -0.102  15.896  1.00  0.00     0.029 A 
ATOM     55  N   UNL     1      -5.071  -1.215  14.592  1.00  0.00    -0.354 N 
ATOM     56  N   UNL     1      -3.875  -4.503  11.970  1.00  0.00    -0.248 NA
ATOM     57  C   UNL     1      -5.218  -3.075  10.701  1.00  0.00     0.031 C 
ATOM     58  C   UNL     1      -3.265  -1.459  15.788  1.00  0.00     0.029 A 
ATOM     59  C   UNL     1      -4.029  -2.079  14.798  1.00  0.00     0.049 A 
ATOM     60  H   UNL     1      -5.973  -1.458  14.284  1.00  0.00     0.167 HD
ATOM     61  C   UNL     1      -4.415  -3.554  12.829  1.00  0.00     0.074 A 
ATOM     62  C   UNL     1      -5.323  -2.762  11.996  1.00  0.00     0.031 C 
ATOM     63  C   UNL     1      -3.846  -3.300  14.045  1.00  0.00     0.034 A 
BRANCH  50  64
ATOM     64  C   UNL     1      -6.388   1.367  13.545  1.00  0.00     0.023 A 
ATOM     65  C   UNL     1      -7.381   1.024  14.492  1.00  0.00     0.012 A 
ATOM     66  C   UNL     1      -6.831   1.649  12.232  1.00  0.00     0.148 A 
ATOM     67  C   UNL     1      -8.725   0.881  14.130  1.00  0.00     0.002 A 
ATOM     68  C   UNL     1      -8.178   1.580  11.895  1.00  0.00     0.091 A 
ATOM     69  F   UNL     1      -5.953   1.861  11.252  1.00  0.00    -0.205 F 
ATOM     70  C   UNL     1      -9.124   1.158  12.830  1.00  0.00     0.022 A 
BRANCH  68  71
ATOM     71  S   UNL     1      -8.759   1.972  10.239  1.00  0.00     0.127 S 
ATOM     72  O   UNL     1      -9.112   0.648   9.735  1.00  0.00    -0.237 OA
ATOM     73  O   UNL     1      -9.892   2.852  10.523  1.00  0.00    -0.237 OA
ATOM     74  O   UNL     1      -7.642   2.633   9.576  1.00  0.00    -0.744 OA
ENDBRANCH  68  71
ENDBRANCH  50  64
BRANCH  51  75
ATOM     75  C   UNL     1      -3.441  -4.746   8.392  1.00  0.00     0.023 A 
ATOM     76  C   UNL     1      -4.300  -5.866   8.396  1.00  0.00     0.012 A 
ATOM     77  C   UNL     1      -3.149  -4.145   7.147  1.00  0.00     0.148 A 
ATOM     78  C   UNL     1      -4.886  -6.340   7.214  1.00  0.00     0.002 A 
ATOM     79  C   UNL     1      -3.752  -4.608   5.976  1.00  0.00     0.091 A 
ATOM     80  F   UNL     1      -2.321  -3.092   7.117  1.00  0.00    -0.205 F 
ATOM     81  C   UNL     1      -4.629  -5.698   6.008  1.00  0.00     0.022 A 
BRANCH  79  82
ATOM     82  S   UNL     1      -3.566  -3.752   4.403  1.00  0.00     0.127 S 
ATOM     83  O   UNL     1      -2.549  -4.564   3.738  1.00  0.00    -0.237 OA
ATOM     84  O   UNL     1      -4.904  -3.848   3.821  1.00  0.00    -0.237 OA
ATOM     85  O   UNL     1      -3.167  -2.400   4.756  1.00  0.00    -0.744 OA
ENDBRANCH  79  82
ENDBRANCH  51  75
BRANCH  63  86
ATOM     86  C   UNL     1      -2.771  -4.239  14.537  1.00  0.00     0.023 A 
ATOM     87  C   UNL     1      -1.555  -4.439  13.848  1.00  0.00     0.012 A 
ATOM     88  C   UNL     1      -2.929  -4.820  15.806  1.00  0.00     0.148 A 
ATOM     89  C   UNL     1      -0.538  -5.227  14.395  1.00  0.00     0.002 A 
ATOM     90  C   UNL     1      -1.899  -5.566  16.367  1.00  0.00     0.091 A 
ATOM     91  F   UNL     1      -4.084  -4.617  16.457  1.00  0.00    -0.205 F 
ATOM     92  C   UNL     1      -0.706  -5.782  15.661  1.00  0.00     0.022 A 
BRANCH  90  93
ATOM     93  S   UNL     1      -2.018  -6.206  18.038  1.00  0.00     0.127 S 
ATOM     94  O   UNL     1      -2.312  -7.618  17.803  1.00  0.00    -0.237 OA
ATOM     95  O   UNL     1      -0.682  -5.940  18.575  1.00  0.00    -0.237 OA
ATOM     96  O   UNL     1      -3.078  -5.441  18.683  1.00  0.00    -0.744 OA
ENDBRANCH  90  93
ENDBRANCH  63  86
ENDBRANCH  37  38
ENDBRANCH  29  32
ENDBRANCH  27  28
ENDBRANCH  26  27
ENDBRANCH  25  26
ENDBRANCH   1  25
TORSDOF 19
