REMARK SMILES Nc1nonc1C(=O)N1[C@@H]2CC[C@H]1C[C@H](CC(=O)NCCCCCCNC(=O)c1ccc(-c3c4nc(c(-c5cccc(S(=O)(=O)[O-])c5F)c5ccc([nH]5)c(-c5cccc(S(=O)(=O)[O-])c5F)c5nc(c(-c6cccc(S(=O)(=O)[O-])c6F)c6ccc3[nH]6)C=C5)C=C4)cc1)C2
REMARK SMILES IDX 22 1 21 2 20 3 19 4 17 5 18 6 16 8 15 9 9 10 10 11 13 12
REMARK SMILES IDX 11 13 92 14 12 15 14 16 7 17 8 18 6 19 2 20 3 21 4 22 5 23
REMARK SMILES IDX 1 24 23 27 24 28 25 29 26 30 27 31 28 33 29 34 30 35 91 36
REMARK SMILES IDX 31 37 90 38 32 39 33 40 34 41 84 42 35 43 89 44 83 45 85 46
REMARK SMILES IDX 36 47 88 48 82 49 81 50 37 52 69 53 49 54 68 55 50 56 53 57
REMARK SMILES IDX 67 58 86 59 51 60 52 61 66 63 87 64 54 65 38 66 39 67 47 68
REMARK SMILES IDX 40 69 42 70 48 71 41 72 43 73 44 74 45 75 46 76 70 77 71 78
REMARK SMILES IDX 79 79 72 80 74 81 80 82 73 83 75 84 76 85 77 86 78 87 55 88
REMARK SMILES IDX 56 89 64 90 57 91 59 92 65 93 58 94 60 95 61 96 62 97 63 98
REMARK H PARENT 19 7 1 25 1 26 26 32 85 51 53 62
REMARK Flexibility Score: inf
ROOT
ATOM      1  C   UNL     1       6.216   0.427   2.863  1.00  0.00     0.002 C 
ENDROOT
BRANCH   1   2
ATOM      2  C   UNL     1       5.390  -0.214   1.750  1.00  0.00     0.021 C 
BRANCH   2   3
ATOM      3  C   UNL     1       5.478   0.494   0.390  1.00  0.00     0.116 C 
BRANCH   3   4
ATOM      4  N   UNL     1       6.423  -0.186  -0.486  1.00  0.00    -0.356 N 
ATOM      5  C   UNL     1       6.234  -1.035  -1.537  1.00  0.00     0.220 C 
ATOM      6  O   UNL     1       7.231  -1.540  -2.057  1.00  0.00    -0.275 OA
ATOM      7  H   UNL     1       7.368   0.001  -0.284  1.00  0.00     0.163 HD
BRANCH   5   8
ATOM      8  C   UNL     1       4.846  -1.355  -2.066  1.00  0.00     0.103 C 
BRANCH   8   9
ATOM      9  C   UNL     1       4.237  -2.662  -1.503  1.00  0.00     0.002 C 
ATOM     10  N   UNL     1       1.606  -2.982  -0.441  1.00  0.00    -0.331 N 
ATOM     11  C   UNL     1       1.946  -3.842  -1.563  1.00  0.00     0.086 C 
ATOM     12  C   UNL     1       2.661  -3.213   0.520  1.00  0.00     0.086 C 
ATOM     13  C   UNL     1       2.502  -5.127  -0.922  1.00  0.00     0.027 C 
ATOM     14  C   UNL     1       3.015  -3.085  -2.362  1.00  0.00     0.029 C 
ATOM     15  C   UNL     1       2.858  -4.724   0.510  1.00  0.00     0.027 C 
ATOM     16  C   UNL     1       3.907  -2.497  -0.002  1.00  0.00     0.029 C 
BRANCH  10  17
ATOM     17  C   UNL     1       0.275  -2.917  -0.033  1.00  0.00     0.280 C 
ATOM     18  O   UNL     1      -0.365  -3.948   0.168  1.00  0.00    -0.267 OA
BRANCH  17  19
ATOM     19  C   UNL     1      -0.323  -1.579  -0.028  1.00  0.00     0.216 A 
ATOM     20  C   UNL     1       0.228  -0.276   0.113  1.00  0.00     0.201 A 
ATOM     21  N   UNL     1      -0.721   0.633  -0.084  1.00  0.00    -0.032 NA
ATOM     22  O   UNL     1      -1.890  -0.086  -0.256  1.00  0.00    -0.242 OA
ATOM     23  N   UNL     1      -1.643  -1.449  -0.237  1.00  0.00    -0.042 NA
BRANCH  20  24
ATOM     24  N   UNL     1       1.488   0.078   0.427  1.00  0.00    -0.379 N 
ATOM     25  H   UNL     1       1.730   1.030   0.491  1.00  0.00     0.158 HD
ATOM     26  H   UNL     1       2.167  -0.615   0.594  1.00  0.00     0.158 HD
ENDBRANCH  20  24
ENDBRANCH  17  19
ENDBRANCH  10  17
ENDBRANCH   8   9
ENDBRANCH   5   8
ENDBRANCH   3   4
ENDBRANCH   2   3
ENDBRANCH   1   2
BRANCH   1  27
ATOM     27  C   UNL     1       5.647   1.741   3.400  1.00  0.00     0.002 C 
BRANCH  27  28
ATOM     28  C   UNL     1       4.239   1.661   4.002  1.00  0.00     0.021 C 
BRANCH  28  29
ATOM     29  C   UNL     1       4.055   0.626   5.111  1.00  0.00     0.116 C 
BRANCH  29  30
ATOM     30  N   UNL     1       4.958   0.851   6.228  1.00  0.00    -0.352 N 
ATOM     31  C   UNL     1       4.676   1.169   7.534  1.00  0.00     0.251 C 
ATOM     32  H   UNL     1       5.916   0.762   6.016  1.00  0.00     0.163 HD
ATOM     33  O   UNL     1       5.578   1.543   8.279  1.00  0.00    -0.269 OA
BRANCH  31  34
ATOM     34  C   UNL     1       3.291   1.067   8.040  1.00  0.00     0.039 A 
ATOM     35  C   UNL     1       2.776   2.101   8.828  1.00  0.00     0.014 A 
ATOM     36  C   UNL     1       2.511  -0.058   7.761  1.00  0.00     0.014 A 
ATOM     37  C   UNL     1       1.459   2.029   9.290  1.00  0.00     0.010 A 
ATOM     38  C   UNL     1       1.179  -0.095   8.162  1.00  0.00     0.010 A 
ATOM     39  C   UNL     1       0.641   0.942   8.939  1.00  0.00    -0.014 A 
BRANCH  39  40
ATOM     40  C   UNL     1      -0.779   0.873   9.368  1.00  0.00     0.031 A 
ATOM     41  C   UNL     1      -1.243  -0.229  10.283  1.00  0.00     0.074 A 
ATOM     42  C   UNL     1      -1.670   1.747   8.861  1.00  0.00     0.049 A 
ATOM     43  N   UNL     1      -2.446  -0.478  10.731  1.00  0.00    -0.248 NA
ATOM     44  C   UNL     1      -0.225  -1.194  10.731  1.00  0.00     0.031 C 
ATOM     45  C   UNL     1      -1.358   2.815   7.909  1.00  0.00     0.029 A 
ATOM     46  N   UNL     1      -3.023   1.863   9.058  1.00  0.00    -0.354 N 
ATOM     47  C   UNL     1      -2.341  -1.647  11.475  1.00  0.00     0.074 A 
ATOM     48  C   UNL     1      -0.961  -2.076  11.390  1.00  0.00     0.031 C 
ATOM     49  C   UNL     1      -2.483   3.487   7.619  1.00  0.00     0.029 A 
ATOM     50  C   UNL     1      -3.600   2.883   8.339  1.00  0.00     0.049 A 
ATOM     51  H   UNL     1      -3.533   1.272   9.658  1.00  0.00     0.167 HD
ATOM     52  C   UNL     1      -3.296  -2.291  12.188  1.00  0.00     0.034 A 
ATOM     53  C   UNL     1      -4.883   3.288   8.270  1.00  0.00     0.034 A 
ATOM     54  C   UNL     1      -4.654  -1.834  12.306  1.00  0.00     0.049 A 
ATOM     55  C   UNL     1      -5.920   2.575   9.095  1.00  0.00     0.074 A 
ATOM     56  C   UNL     1      -5.673  -2.351  13.086  1.00  0.00     0.029 A 
ATOM     57  N   UNL     1      -5.189  -0.759  11.613  1.00  0.00    -0.354 N 
ATOM     58  N   UNL     1      -5.768   1.575   9.928  1.00  0.00    -0.248 NA
ATOM     59  C   UNL     1      -7.301   3.069   8.994  1.00  0.00     0.031 C 
ATOM     60  C   UNL     1      -6.831  -1.604  12.845  1.00  0.00     0.029 A 
ATOM     61  C   UNL     1      -6.527  -0.605  11.933  1.00  0.00     0.049 A 
ATOM     62  H   UNL     1      -4.691  -0.188  10.985  1.00  0.00     0.167 HD
ATOM     63  C   UNL     1      -7.022   1.345  10.482  1.00  0.00     0.074 A 
ATOM     64  C   UNL     1      -7.920   2.321   9.899  1.00  0.00     0.031 C 
ATOM     65  C   UNL     1      -7.399   0.404  11.383  1.00  0.00     0.034 A 
BRANCH  52  66
ATOM     66  C   UNL     1      -2.885  -3.536  12.934  1.00  0.00     0.023 A 
ATOM     67  C   UNL     1      -2.034  -3.430  14.053  1.00  0.00     0.012 A 
ATOM     68  C   UNL     1      -3.358  -4.805  12.547  1.00  0.00     0.148 A 
ATOM     69  C   UNL     1      -1.619  -4.568  14.744  1.00  0.00     0.002 A 
ATOM     70  C   UNL     1      -2.978  -5.931  13.269  1.00  0.00     0.091 A 
ATOM     71  F   UNL     1      -4.148  -4.894  11.468  1.00  0.00    -0.205 F 
ATOM     72  C   UNL     1      -2.097  -5.816  14.357  1.00  0.00     0.022 A 
BRANCH  70  73
ATOM     73  S   UNL     1      -3.607  -7.572  12.895  1.00  0.00     0.127 S 
ATOM     74  O   UNL     1      -2.467  -8.175  12.207  1.00  0.00    -0.237 OA
ATOM     75  O   UNL     1      -3.871  -8.116  14.228  1.00  0.00    -0.237 OA
ATOM     76  O   UNL     1      -4.798  -7.363  12.083  1.00  0.00    -0.744 OA
ENDBRANCH  70  73
ENDBRANCH  52  66
BRANCH  53  77
ATOM     77  C   UNL     1      -5.239   4.491   7.465  1.00  0.00     0.023 A 
ATOM     78  C   UNL     1      -5.595   5.678   8.135  1.00  0.00     0.012 A 
ATOM     79  C   UNL     1      -5.183   4.486   6.058  1.00  0.00     0.148 A 
ATOM     80  C   UNL     1      -5.914   6.832   7.420  1.00  0.00     0.002 A 
ATOM     81  C   UNL     1      -5.452   5.654   5.353  1.00  0.00     0.091 A 
ATOM     82  F   UNL     1      -4.848   3.345   5.440  1.00  0.00    -0.205 F 
ATOM     83  C   UNL     1      -5.833   6.823   6.031  1.00  0.00     0.022 A 
BRANCH  81  84
ATOM     84  S   UNL     1      -5.252   5.781   3.572  1.00  0.00     0.127 S 
ATOM     85  O   UNL     1      -6.629   5.980   3.129  1.00  0.00    -0.237 OA
ATOM     86  O   UNL     1      -4.388   6.956   3.451  1.00  0.00    -0.237 OA
ATOM     87  O   UNL     1      -4.629   4.531   3.156  1.00  0.00    -0.744 OA
ENDBRANCH  81  84
ENDBRANCH  53  77
BRANCH  65  88
ATOM     88  C   UNL     1      -8.839   0.399  11.828  1.00  0.00     0.023 A 
ATOM     89  C   UNL     1      -9.844  -0.047  10.948  1.00  0.00     0.012 A 
ATOM     90  C   UNL     1      -9.185   0.767  13.144  1.00  0.00     0.148 A 
ATOM     91  C   UNL     1     -11.175  -0.097  11.359  1.00  0.00     0.002 A 
ATOM     92  C   UNL     1     -10.507   0.667  13.562  1.00  0.00     0.091 A 
ATOM     93  F   UNL     1      -8.218   1.209  13.961  1.00  0.00    -0.205 F 
ATOM     94  C   UNL     1     -11.505   0.247  12.668  1.00  0.00     0.022 A 
BRANCH  92  95
ATOM     95  S   UNL     1     -11.006   0.995  15.257  1.00  0.00     0.127 S 
ATOM     96  O   UNL     1     -11.700   2.274  15.121  1.00  0.00    -0.237 OA
ATOM     97  O   UNL     1     -11.878  -0.144  15.550  1.00  0.00    -0.237 OA
ATOM     98  O   UNL     1      -9.777   1.029  16.038  1.00  0.00    -0.744 OA
ENDBRANCH  92  95
ENDBRANCH  65  88
ENDBRANCH  39  40
ENDBRANCH  31  34
ENDBRANCH  29  30
ENDBRANCH  28  29
ENDBRANCH  27  28
ENDBRANCH   1  27
TORSDOF 20
