REMARK SMILES [NH3+][C@H](Cc1cc(F)c(F)c(F)c1)C(=O)NCCCCCCNC(=O)c1ccc(-c2c3nc(c(-c4cccc(S(=O)(=O)[O-])c4F)c4ccc([nH]4)c(-c4cccc(S(=O)(=O)[O-])c4F)c4nc(c(-c5cccc(S(=O)(=O)[O-])c5F)c5ccc2[nH]5)C=C4)C=C3)cc1
REMARK SMILES IDX 19 1 18 2 17 3 16 4 15 5 13 6 14 7 2 9 1 10 3 14 4 15 5 16
REMARK SMILES IDX 12 17 6 18 10 19 7 20 8 21 11 22 9 23 20 24 21 25 22 26
REMARK SMILES IDX 23 27 24 29 25 30 26 31 87 32 27 33 86 34 28 35 29 36 30 37
REMARK SMILES IDX 80 38 31 39 85 40 79 41 81 42 32 43 84 44 78 45 77 46 33 48
REMARK SMILES IDX 65 49 45 50 64 51 46 52 49 53 63 54 82 55 47 56 48 57 62 59
REMARK SMILES IDX 83 60 50 61 34 62 35 63 43 64 36 65 38 66 44 67 37 68 39 69
REMARK SMILES IDX 40 70 41 71 42 72 66 73 67 74 75 75 68 76 70 77 76 78 69 79
REMARK SMILES IDX 71 80 72 81 73 82 74 83 51 84 52 85 60 86 53 87 55 88 61 89
REMARK SMILES IDX 54 90 56 91 57 92 58 93 59 94
REMARK H PARENT 15 8 1 11 1 12 1 13 22 28 81 47 49 58
REMARK Flexibility Score: inf
ROOT
ATOM      1  C   UNL     1      -3.622   3.987  -1.963  1.00  0.00     0.002 C 
ENDROOT
BRANCH   1   2
ATOM      2  C   UNL     1      -3.013   2.596  -1.788  1.00  0.00     0.002 C 
BRANCH   2   3
ATOM      3  C   UNL     1      -1.490   2.580  -1.635  1.00  0.00     0.021 C 
BRANCH   3   4
ATOM      4  C   UNL     1      -0.951   2.904  -0.245  1.00  0.00     0.116 C 
BRANCH   4   5
ATOM      5  N   UNL     1      -1.475   2.012   0.774  1.00  0.00    -0.351 N 
ATOM      6  C   UNL     1      -0.936   0.980   1.475  1.00  0.00     0.278 C 
ATOM      7  O   UNL     1      -1.706   0.356   2.217  1.00  0.00    -0.268 OA
ATOM      8  H   UNL     1      -2.416   2.191   1.004  1.00  0.00     0.163 HD
BRANCH   6   9
ATOM      9  C   UNL     1       0.543   0.555   1.374  1.00  0.00     0.275 C 
BRANCH   9  10
ATOM     10  N   UNL     1       1.438   1.659   1.797  1.00  0.00    -0.347 N 
ATOM     11  H   UNL     1       1.052   2.112   2.625  1.00  0.00     0.345 HD
ATOM     12  H   UNL     1       1.517   2.341   1.042  1.00  0.00     0.345 HD
ATOM     13  H   UNL     1       2.362   1.284   2.014  1.00  0.00     0.345 HD
ENDBRANCH   9  10
BRANCH   9  14
ATOM     14  C   UNL     1       1.035  -0.209   0.117  1.00  0.00     0.111 C 
BRANCH  14  15
ATOM     15  C   UNL     1       0.114  -0.548  -1.032  1.00  0.00    -0.036 A 
ATOM     16  C   UNL     1      -1.187  -1.043  -0.856  1.00  0.00     0.046 A 
ATOM     17  C   UNL     1       0.591  -0.395  -2.350  1.00  0.00     0.046 A 
ATOM     18  C   UNL     1      -2.018  -1.251  -1.962  1.00  0.00     0.162 A 
ATOM     19  C   UNL     1      -0.245  -0.628  -3.443  1.00  0.00     0.162 A 
ATOM     20  F   UNL     1      -3.286  -1.637  -1.761  1.00  0.00    -0.204 F 
ATOM     21  C   UNL     1      -1.556  -1.032  -3.252  1.00  0.00     0.194 A 
ATOM     22  F   UNL     1       0.223  -0.417  -4.680  1.00  0.00    -0.204 F 
ATOM     23  F   UNL     1      -2.376  -1.192  -4.300  1.00  0.00    -0.200 F 
ENDBRANCH  14  15
ENDBRANCH   9  14
ENDBRANCH   6   9
ENDBRANCH   4   5
ENDBRANCH   3   4
ENDBRANCH   2   3
ENDBRANCH   1   2
BRANCH   1  24
ATOM     24  C   UNL     1      -3.046   4.805  -3.122  1.00  0.00     0.021 C 
BRANCH  24  25
ATOM     25  C   UNL     1      -3.025   4.087  -4.470  1.00  0.00     0.116 C 
BRANCH  25  26
ATOM     26  N   UNL     1      -4.364   3.907  -5.010  1.00  0.00    -0.352 N 
ATOM     27  C   UNL     1      -4.879   4.417  -6.178  1.00  0.00     0.251 C 
ATOM     28  H   UNL     1      -4.976   3.351  -4.475  1.00  0.00     0.163 HD
ATOM     29  O   UNL     1      -6.083   4.365  -6.415  1.00  0.00    -0.269 OA
BRANCH  27  30
ATOM     30  C   UNL     1      -3.954   5.049  -7.140  1.00  0.00     0.039 A 
ATOM     31  C   UNL     1      -4.186   6.361  -7.559  1.00  0.00     0.014 A 
ATOM     32  C   UNL     1      -2.823   4.351  -7.574  1.00  0.00     0.014 A 
ATOM     33  C   UNL     1      -3.246   6.998  -8.373  1.00  0.00     0.010 A 
ATOM     34  C   UNL     1      -1.859   5.010  -8.330  1.00  0.00     0.010 A 
ATOM     35  C   UNL     1      -2.061   6.338  -8.741  1.00  0.00    -0.014 A 
BRANCH  35  36
ATOM     36  C   UNL     1      -1.016   7.007  -9.558  1.00  0.00     0.031 A 
ATOM     37  C   UNL     1      -0.673   6.463 -10.920  1.00  0.00     0.074 A 
ATOM     38  C   UNL     1      -0.303   8.027  -9.038  1.00  0.00     0.049 A 
ATOM     39  N   UNL     1       0.273   6.835 -11.742  1.00  0.00    -0.248 NA
ATOM     40  C   UNL     1      -1.479   5.331 -11.410  1.00  0.00     0.031 C 
ATOM     41  C   UNL     1      -0.488   8.597  -7.701  1.00  0.00     0.029 A 
ATOM     42  N   UNL     1       0.748   8.743  -9.558  1.00  0.00    -0.354 N 
ATOM     43  C   UNL     1       0.212   5.954 -12.815  1.00  0.00     0.074 A 
ATOM     44  C   UNL     1      -0.853   5.017 -12.535  1.00  0.00     0.031 C 
ATOM     45  C   UNL     1       0.421   9.567  -7.505  1.00  0.00     0.029 A 
ATOM     46  C   UNL     1       1.273   9.670  -8.686  1.00  0.00     0.049 A 
ATOM     47  H   UNL     1       1.094   8.605 -10.470  1.00  0.00     0.167 HD
ATOM     48  C   UNL     1       0.960   5.940 -13.943  1.00  0.00     0.034 A 
ATOM     49  C   UNL     1       2.328  10.499  -8.819  1.00  0.00     0.034 A 
ATOM     50  C   UNL     1       1.968   6.916 -14.250  1.00  0.00     0.049 A 
ATOM     51  C   UNL     1       3.101  10.497 -10.113  1.00  0.00     0.074 A 
ATOM     52  C   UNL     1       2.695   7.058 -15.419  1.00  0.00     0.029 A 
ATOM     53  N   UNL     1       2.396   7.911 -13.387  1.00  0.00    -0.354 N 
ATOM     54  N   UNL     1       2.908   9.774 -11.189  1.00  0.00    -0.248 NA
ATOM     55  C   UNL     1       4.216  11.451 -10.226  1.00  0.00     0.031 C 
ATOM     56  C   UNL     1       3.581   8.126 -15.254  1.00  0.00     0.029 A 
ATOM     57  C   UNL     1       3.385   8.665 -13.992  1.00  0.00     0.049 A 
ATOM     58  H   UNL     1       2.047   8.060 -12.479  1.00  0.00     0.167 HD
ATOM     59  C   UNL     1       3.841  10.217 -12.119  1.00  0.00     0.074 A 
ATOM     60  C   UNL     1       4.591  11.282 -11.487  1.00  0.00     0.031 C 
ATOM     61  C   UNL     1       4.068   9.773 -13.379  1.00  0.00     0.034 A 
BRANCH  48  62
ATOM     62  C   UNL     1       0.688   4.870 -14.965  1.00  0.00     0.023 A 
ATOM     63  C   UNL     1      -0.474   4.942 -15.758  1.00  0.00     0.012 A 
ATOM     64  C   UNL     1       1.632   3.853 -15.208  1.00  0.00     0.148 A 
ATOM     65  C   UNL     1      -0.705   4.005 -16.764  1.00  0.00     0.002 A 
ATOM     66  C   UNL     1       1.418   2.950 -16.242  1.00  0.00     0.091 A 
ATOM     67  F   UNL     1       2.722   3.793 -14.430  1.00  0.00    -0.205 F 
ATOM     68  C   UNL     1       0.246   3.019 -17.015  1.00  0.00     0.022 A 
BRANCH  66  69
ATOM     69  S   UNL     1       2.618   1.695 -16.702  1.00  0.00     0.127 S 
ATOM     70  O   UNL     1       1.910   0.466 -16.347  1.00  0.00    -0.237 OA
ATOM     71  O   UNL     1       2.763   1.922 -18.140  1.00  0.00    -0.237 OA
ATOM     72  O   UNL     1       3.813   1.972 -15.916  1.00  0.00    -0.744 OA
ENDBRANCH  66  69
ENDBRANCH  48  62
BRANCH  49  73
ATOM     73  C   UNL     1       2.690  11.447  -7.726  1.00  0.00     0.023 A 
ATOM     74  C   UNL     1       2.515  12.830  -7.926  1.00  0.00     0.012 A 
ATOM     75  C   UNL     1       3.216  10.995  -6.500  1.00  0.00     0.148 A 
ATOM     76  C   UNL     1       2.900  13.748  -6.948  1.00  0.00     0.002 A 
ATOM     77  C   UNL     1       3.545  11.911  -5.507  1.00  0.00     0.091 A 
ATOM     78  F   UNL     1       3.392   9.677  -6.329  1.00  0.00    -0.205 F 
ATOM     79  C   UNL     1       3.407  13.289  -5.736  1.00  0.00     0.022 A 
BRANCH  77  80
ATOM     80  S   UNL     1       4.080  11.393  -3.872  1.00  0.00     0.127 S 
ATOM     81  O   UNL     1       5.521  11.622  -3.941  1.00  0.00    -0.237 OA
ATOM     82  O   UNL     1       3.350  12.316  -3.002  1.00  0.00    -0.237 OA
ATOM     83  O   UNL     1       3.659  10.004  -3.750  1.00  0.00    -0.744 OA
ENDBRANCH  77  80
ENDBRANCH  49  73
BRANCH  61  84
ATOM     84  C   UNL     1       5.127  10.467 -14.194  1.00  0.00     0.023 A 
ATOM     85  C   UNL     1       6.488  10.251 -13.908  1.00  0.00     0.012 A 
ATOM     86  C   UNL     1       4.768  11.251 -15.309  1.00  0.00     0.148 A 
ATOM     87  C   UNL     1       7.478  10.827 -14.704  1.00  0.00     0.002 A 
ATOM     88  C   UNL     1       5.758  11.779 -16.127  1.00  0.00     0.091 A 
ATOM     89  F   UNL     1       3.465  11.457 -15.553  1.00  0.00    -0.205 F 
ATOM     90  C   UNL     1       7.114  11.578 -15.819  1.00  0.00     0.022 A 
BRANCH  88  91
ATOM     91  S   UNL     1       5.382  12.671 -17.640  1.00  0.00     0.127 S 
ATOM     92  O   UNL     1       5.729  14.043 -17.271  1.00  0.00    -0.237 OA
ATOM     93  O   UNL     1       6.293  12.049 -18.602  1.00  0.00    -0.237 OA
ATOM     94  O   UNL     1       3.970  12.434 -17.906  1.00  0.00    -0.744 OA
ENDBRANCH  88  91
ENDBRANCH  61  84
ENDBRANCH  35  36
ENDBRANCH  27  30
ENDBRANCH  25  26
ENDBRANCH  24  25
ENDBRANCH   1  24
TORSDOF 19
