REMARK SMILES COc1ccc(CCNc2ncnc3sc(C(=O)NCCCCCCNC(=O)c4ccc(-c5c6nc(c(-c7cccc(S(=O)(=O)[O-])c7F)c7ccc([nH]7)c(-c7cccc(S(=O)(=O)[O-])c7F)c7nc(c(-c8cccc(S(=O)(=O)[O-])c8F)c8ccc5[nH]8)C=C7)C=C6)cc4)c(C)c23)cc1OC
REMARK SMILES IDX 21 1 20 2 19 3 17 4 18 5 16 7 10 8 11 9 94 10 12 11 14 12
REMARK SMILES IDX 92 13 13 14 15 15 93 16 9 17 8 19 7 20 6 21 3 22 4 23 96 24
REMARK SMILES IDX 5 25 95 26 2 27 1 28 97 29 98 30 22 31 23 32 24 33 25 34
REMARK SMILES IDX 26 35 27 36 28 38 29 39 30 40 91 41 31 42 90 43 32 44 33 45
REMARK SMILES IDX 34 46 84 47 35 48 89 49 83 50 85 51 36 52 88 53 82 54 81 55
REMARK SMILES IDX 37 57 69 58 49 59 68 60 50 61 53 62 67 63 86 64 51 65 52 66
REMARK SMILES IDX 66 68 87 69 54 70 38 71 39 72 47 73 40 74 42 75 48 76 41 77
REMARK SMILES IDX 43 78 44 79 45 80 46 81 70 82 71 83 79 84 72 85 74 86 80 87
REMARK SMILES IDX 73 88 75 89 76 90 77 91 78 92 55 93 56 94 64 95 57 96 59 97
REMARK SMILES IDX 65 98 58 99 60 100 61 101 62 102 63 103
REMARK H PARENT 19 6 9 18 26 37 85 56 53 67
REMARK Flexibility Score: inf
ROOT
ATOM      1  C   UNL     1      -7.592  -7.853   6.191  1.00  0.00     0.021 C 
ENDROOT
BRANCH   1   2
ATOM      2  C   UNL     1      -6.495  -8.481   5.340  1.00  0.00     0.116 C 
BRANCH   2   3
ATOM      3  N   UNL     1      -6.060  -7.556   4.325  1.00  0.00    -0.351 N 
ATOM      4  C   UNL     1      -4.965  -6.754   4.173  1.00  0.00     0.261 C 
ATOM      5  O   UNL     1      -5.049  -6.045   3.161  1.00  0.00    -0.268 OA
ATOM      6  H   UNL     1      -6.694  -7.485   3.574  1.00  0.00     0.163 HD
BRANCH   4   7
ATOM      7  C   UNL     1      -3.777  -6.774   5.035  1.00  0.00     0.098 A 
ATOM      8  C   UNL     1      -0.143  -6.212   5.854  1.00  0.00     0.138 A 
ATOM      9  N   UNL     1       0.583  -6.844   6.801  1.00  0.00    -0.219 NA
ATOM     10  C   UNL     1      -1.524  -6.499   5.745  1.00  0.00     0.057 A 
ATOM     11  C   UNL     1      -0.054  -7.649   7.665  1.00  0.00     0.225 A 
ATOM     12  C   UNL     1      -2.031  -7.352   6.702  1.00  0.00     0.129 A 
ATOM     13  C   UNL     1      -2.559  -6.139   4.778  1.00  0.00    -0.014 A 
ATOM     14  N   UNL     1      -1.349  -7.959   7.684  1.00  0.00    -0.225 NA
ATOM     15  S   UNL     1      -3.693  -7.573   6.542  1.00  0.00    -0.110 S 
ATOM     16  C   UNL     1      -2.287  -5.258   3.608  1.00  0.00     0.047 C 
BRANCH   8  17
ATOM     17  N   UNL     1       0.471  -5.304   5.020  1.00  0.00    -0.369 N 
ATOM     18  H   UNL     1      -0.072  -4.579   4.635  1.00  0.00     0.162 HD
BRANCH  17  19
ATOM     19  C   UNL     1       1.878  -5.370   4.686  1.00  0.00     0.119 C 
BRANCH  19  20
ATOM     20  C   UNL     1       2.062  -5.297   3.154  1.00  0.00     0.057 C 
BRANCH  20  21
ATOM     21  C   UNL     1       1.811  -3.936   2.534  1.00  0.00    -0.042 A 
ATOM     22  C   UNL     1       1.339  -1.361   1.469  1.00  0.00     0.160 A 
ATOM     23  C   UNL     1       0.291  -2.098   2.012  1.00  0.00     0.051 A 
ATOM     24  C   UNL     1       2.627  -1.915   1.424  1.00  0.00     0.160 A 
ATOM     25  C   UNL     1       0.534  -3.375   2.510  1.00  0.00     0.008 A 
ATOM     26  C   UNL     1       2.849  -3.196   1.962  1.00  0.00     0.054 A 
BRANCH  22  27
ATOM     27  O   UNL     1       1.106  -0.061   1.112  1.00  0.00    -0.493 OA
ATOM     28  C   UNL     1       0.246   0.057  -0.020  1.00  0.00     0.278 C 
ENDBRANCH  22  27
BRANCH  24  29
ATOM     29  O   UNL     1       3.766  -1.341   0.923  1.00  0.00    -0.493 OA
ATOM     30  C   UNL     1       3.602  -0.241   0.042  1.00  0.00     0.278 C 
ENDBRANCH  24  29
ENDBRANCH  20  21
ENDBRANCH  19  20
ENDBRANCH  17  19
ENDBRANCH   8  17
ENDBRANCH   4   7
ENDBRANCH   2   3
ENDBRANCH   1   2
BRANCH   1  31
ATOM     31  C   UNL     1      -8.949  -7.816   5.479  1.00  0.00     0.002 C 
BRANCH  31  32
ATOM     32  C   UNL     1      -9.397  -9.149   4.855  1.00  0.00     0.002 C 
BRANCH  32  33
ATOM     33  C   UNL     1      -9.264 -10.396   5.746  1.00  0.00     0.021 C 
BRANCH  33  34
ATOM     34  C   UNL     1     -10.184 -10.373   6.952  1.00  0.00     0.116 C 
BRANCH  34  35
ATOM     35  N   UNL     1     -11.591 -10.428   6.551  1.00  0.00    -0.352 N 
ATOM     36  C   UNL     1     -12.723 -10.324   7.337  1.00  0.00     0.251 C 
ATOM     37  H   UNL     1     -11.754 -10.558   5.589  1.00  0.00     0.163 HD
ATOM     38  O   UNL     1     -13.796 -10.753   6.949  1.00  0.00    -0.269 OA
BRANCH  36  39
ATOM     39  C   UNL     1     -12.603  -9.658   8.646  1.00  0.00     0.039 A 
ATOM     40  C   UNL     1     -13.320 -10.088   9.767  1.00  0.00     0.014 A 
ATOM     41  C   UNL     1     -11.728  -8.582   8.729  1.00  0.00     0.014 A 
ATOM     42  C   UNL     1     -13.101  -9.445  10.982  1.00  0.00     0.010 A 
ATOM     43  C   UNL     1     -11.346  -8.117   9.950  1.00  0.00     0.010 A 
ATOM     44  C   UNL     1     -12.106  -8.461  11.057  1.00  0.00    -0.014 A 
BRANCH  44  45
ATOM     45  C   UNL     1     -11.727  -7.824  12.309  1.00  0.00     0.031 A 
ATOM     46  C   UNL     1     -11.192  -8.784  13.306  1.00  0.00     0.074 A 
ATOM     47  C   UNL     1     -11.612  -6.478  12.400  1.00  0.00     0.049 A 
ATOM     48  N   UNL     1     -11.746  -9.161  14.410  1.00  0.00    -0.248 NA
ATOM     49  C   UNL     1     -10.005  -9.579  12.938  1.00  0.00     0.031 C 
ATOM     50  C   UNL     1     -11.797  -5.487  11.326  1.00  0.00     0.029 A 
ATOM     51  N   UNL     1     -11.136  -5.713  13.418  1.00  0.00    -0.354 N 
ATOM     52  C   UNL     1     -10.818 -10.014  15.004  1.00  0.00     0.074 A 
ATOM     53  C   UNL     1      -9.945 -10.447  13.949  1.00  0.00     0.031 C 
ATOM     54  C   UNL     1     -11.188  -4.330  11.667  1.00  0.00     0.029 A 
ATOM     55  C   UNL     1     -10.714  -4.439  13.032  1.00  0.00     0.049 A 
ATOM     56  H   UNL     1     -11.093  -6.031  14.349  1.00  0.00     0.167 HD
ATOM     57  C   UNL     1     -10.638 -10.012  16.354  1.00  0.00     0.034 A 
ATOM     58  C   UNL     1      -9.974  -3.567  13.764  1.00  0.00     0.034 A 
ATOM     59  C   UNL     1     -11.717  -9.312  17.012  1.00  0.00     0.049 A 
ATOM     60  C   UNL     1     -10.074  -4.000  15.176  1.00  0.00     0.074 A 
ATOM     61  C   UNL     1     -13.091  -9.439  17.046  1.00  0.00     0.029 A 
ATOM     62  N   UNL     1     -11.439  -8.035  17.439  1.00  0.00    -0.354 N 
ATOM     63  N   UNL     1     -11.184  -3.969  15.858  1.00  0.00    -0.248 NA
ATOM     64  C   UNL     1      -9.052  -4.904  15.677  1.00  0.00     0.031 C 
ATOM     65  C   UNL     1     -13.582  -8.101  17.043  1.00  0.00     0.029 A 
ATOM     66  C   UNL     1     -12.492  -7.230  17.101  1.00  0.00     0.049 A 
ATOM     67  H   UNL     1     -10.622  -7.749  17.908  1.00  0.00     0.167 HD
ATOM     68  C   UNL     1     -11.188  -5.174  16.547  1.00  0.00     0.074 A 
ATOM     69  C   UNL     1      -9.806  -5.650  16.490  1.00  0.00     0.031 C 
ATOM     70  C   UNL     1     -12.362  -5.817  16.819  1.00  0.00     0.034 A 
BRANCH  57  71
ATOM     71  C   UNL     1      -9.314 -10.236  17.062  1.00  0.00     0.023 A 
ATOM     72  C   UNL     1      -9.354 -10.281  18.475  1.00  0.00     0.012 A 
ATOM     73  C   UNL     1      -8.035 -10.121  16.468  1.00  0.00     0.148 A 
ATOM     74  C   UNL     1      -8.198 -10.139  19.251  1.00  0.00     0.002 A 
ATOM     75  C   UNL     1      -6.881 -10.059  17.242  1.00  0.00     0.091 A 
ATOM     76  F   UNL     1      -7.912  -9.938  15.154  1.00  0.00    -0.205 F 
ATOM     77  C   UNL     1      -6.960 -10.030  18.634  1.00  0.00     0.022 A 
BRANCH  75  78
ATOM     78  S   UNL     1      -5.247  -9.958  16.495  1.00  0.00     0.127 S 
ATOM     79  O   UNL     1      -4.869  -8.583  16.808  1.00  0.00    -0.237 OA
ATOM     80  O   UNL     1      -4.520 -10.988  17.236  1.00  0.00    -0.237 OA
ATOM     81  O   UNL     1      -5.439 -10.262  15.082  1.00  0.00    -0.744 OA
ENDBRANCH  75  78
ENDBRANCH  57  71
BRANCH  58  82
ATOM     82  C   UNL     1      -8.979  -2.550  13.339  1.00  0.00     0.023 A 
ATOM     83  C   UNL     1      -8.612  -1.514  14.225  1.00  0.00     0.012 A 
ATOM     84  C   UNL     1      -8.177  -2.756  12.195  1.00  0.00     0.148 A 
ATOM     85  C   UNL     1      -7.465  -0.740  14.000  1.00  0.00     0.002 A 
ATOM     86  C   UNL     1      -7.041  -1.981  11.973  1.00  0.00     0.091 A 
ATOM     87  F   UNL     1      -8.474  -3.774  11.377  1.00  0.00    -0.205 F 
ATOM     88  C   UNL     1      -6.674  -0.980  12.880  1.00  0.00     0.022 A 
BRANCH  86  89
ATOM     89  S   UNL     1      -5.952  -2.258  10.568  1.00  0.00     0.127 S 
ATOM     90  O   UNL     1      -5.815  -0.908  10.021  1.00  0.00    -0.237 OA
ATOM     91  O   UNL     1      -4.753  -2.782  11.214  1.00  0.00    -0.237 OA
ATOM     92  O   UNL     1      -6.658  -3.189   9.695  1.00  0.00    -0.744 OA
ENDBRANCH  86  89
ENDBRANCH  58  82
BRANCH  70  93
ATOM     93  C   UNL     1     -13.650  -5.063  16.600  1.00  0.00     0.023 A 
ATOM     94  C   UNL     1     -14.088  -4.638  15.327  1.00  0.00     0.012 A 
ATOM     95  C   UNL     1     -14.521  -4.936  17.693  1.00  0.00     0.148 A 
ATOM     96  C   UNL     1     -15.360  -4.083  15.156  1.00  0.00     0.002 A 
ATOM     97  C   UNL     1     -15.800  -4.430  17.511  1.00  0.00     0.091 A 
ATOM     98  F   UNL     1     -14.088  -5.347  18.895  1.00  0.00    -0.205 F 
ATOM     99  C   UNL     1     -16.222  -3.993  16.246  1.00  0.00     0.022 A 
BRANCH  97 100
ATOM    100  S   UNL     1     -16.991  -4.411  18.851  1.00  0.00     0.127 S 
ATOM    101  O   UNL     1     -17.030  -2.994  19.203  1.00  0.00    -0.237 OA
ATOM    102  O   UNL     1     -18.202  -4.916  18.203  1.00  0.00    -0.237 OA
ATOM    103  O   UNL     1     -16.455  -5.297  19.877  1.00  0.00    -0.744 OA
ENDBRANCH  97 100
ENDBRANCH  70  93
ENDBRANCH  44  45
ENDBRANCH  36  39
ENDBRANCH  34  35
ENDBRANCH  33  34
ENDBRANCH  32  33
ENDBRANCH  31  32
ENDBRANCH   1  31
TORSDOF 22
