REMARK SMILES NC(=O)Nc1ccc(C(=O)N2C[C@@H](O)C[C@@H]2C(=O)NCCCCCCNC(=O)c2ccc(-c3c4nc(c(-c5cccc(S(=O)(=O)[O-])c5F)c5ccc([nH]5)c(-c5cccc(S(=O)(=O)[O-])c5F)c5nc(c(-c6cccc(S(=O)(=O)[O-])c6F)c6ccc3[nH]6)C=C5)C=C4)cc2)cc1
REMARK SMILES IDX 22 1 21 2 20 3 19 4 17 5 18 6 16 8 11 9 12 10 13 11 15 12
REMARK SMILES IDX 9 13 10 14 8 15 5 16 6 17 93 18 7 19 92 20 4 21 1 22 2 23
REMARK SMILES IDX 3 26 14 28 23 30 24 31 25 32 26 33 27 34 28 36 29 37 30 38
REMARK SMILES IDX 91 39 31 40 90 41 32 42 33 43 34 44 84 45 35 46 89 47 83 48
REMARK SMILES IDX 85 49 36 50 88 51 82 52 81 53 37 55 69 56 49 57 68 58 50 59
REMARK SMILES IDX 53 60 67 61 86 62 51 63 52 64 66 66 87 67 54 68 38 69 39 70
REMARK SMILES IDX 47 71 40 72 42 73 48 74 41 75 43 76 44 77 45 78 46 79 70 80
REMARK SMILES IDX 71 81 79 82 72 83 74 84 80 85 73 86 75 87 76 88 77 89 78 90
REMARK SMILES IDX 55 91 56 92 64 93 57 94 59 95 65 96 58 97 60 98 61 99 62 100
REMARK SMILES IDX 63 101
REMARK H PARENT 19 7 1 24 1 25 4 27 14 29 26 35 85 54 53 65
REMARK Flexibility Score: inf
ROOT
ATOM      1  C   UNL     1       4.259   2.738  -1.160  1.00  0.00     0.002 C 
ENDROOT
BRANCH   1   2
ATOM      2  C   UNL     1       5.261   2.439  -0.046  1.00  0.00     0.021 C 
BRANCH   2   3
ATOM      3  C   UNL     1       5.670   0.975   0.045  1.00  0.00     0.116 C 
BRANCH   3   4
ATOM      4  N   UNL     1       6.793   0.649  -0.800  1.00  0.00    -0.354 N 
ATOM      5  C   UNL     1       7.923  -0.064  -0.517  1.00  0.00     0.242 C 
ATOM      6  O   UNL     1       8.773  -0.130  -1.412  1.00  0.00    -0.273 OA
ATOM      7  H   UNL     1       6.736   0.992  -1.721  1.00  0.00     0.163 HD
BRANCH   5   8
ATOM      8  C   UNL     1       8.253  -0.570   0.908  1.00  0.00     0.177 C 
ATOM      9  N   UNL     1       7.137  -1.097   1.700  1.00  0.00    -0.324 N 
ATOM     10  C   UNL     1       7.239  -0.624   3.071  1.00  0.00     0.152 C 
ATOM     11  C   UNL     1       7.903   0.744   2.933  1.00  0.00     0.136 C 
ATOM     12  C   UNL     1       8.860   0.560   1.754  1.00  0.00     0.069 C 
BRANCH   9  13
ATOM     13  C   UNL     1       6.574  -2.314   1.349  1.00  0.00     0.254 C 
ATOM     14  O   UNL     1       7.231  -3.173   0.764  1.00  0.00    -0.269 OA
BRANCH  13  15
ATOM     15  C   UNL     1       5.086  -2.490   1.468  1.00  0.00     0.040 A 
ATOM     16  C   UNL     1       2.298  -2.757   1.104  1.00  0.00     0.042 A 
ATOM     17  C   UNL     1       3.146  -3.826   0.824  1.00  0.00     0.027 A 
ATOM     18  C   UNL     1       2.830  -1.595   1.664  1.00  0.00     0.027 A 
ATOM     19  C   UNL     1       4.531  -3.682   0.974  1.00  0.00     0.016 A 
ATOM     20  C   UNL     1       4.212  -1.471   1.864  1.00  0.00     0.016 A 
BRANCH  16  21
ATOM     21  N   UNL     1       0.932  -2.900   0.822  1.00  0.00    -0.308 N 
ATOM     22  N   UNL     1       0.553  -0.875  -0.228  1.00  0.00    -0.351 N 
ATOM     23  C   UNL     1       0.043  -1.981   0.356  1.00  0.00     0.316 C 
ATOM     24  H   UNL     1      -0.050  -0.181  -0.581  1.00  0.00     0.161 HD
ATOM     25  H   UNL     1       1.528  -0.763  -0.301  1.00  0.00     0.161 HD
ATOM     26  O   UNL     1      -1.161  -2.185   0.339  1.00  0.00    -0.249 OA
ATOM     27  H   UNL     1       0.562  -3.798   0.986  1.00  0.00     0.171 HD
ENDBRANCH  16  21
ENDBRANCH  13  15
ENDBRANCH   9  13
BRANCH  11  28
ATOM     28  O   UNL     1       8.584   1.169   4.098  1.00  0.00    -0.391 OA
ATOM     29  H   UNL     1       9.273   0.524   4.324  1.00  0.00     0.211 HD
ENDBRANCH  11  28
ENDBRANCH   5   8
ENDBRANCH   3   4
ENDBRANCH   2   3
ENDBRANCH   1   2
BRANCH   1  30
ATOM     30  C   UNL     1       2.935   1.969  -1.068  1.00  0.00     0.002 C 
BRANCH  30  31
ATOM     31  C   UNL     1       2.207   2.076   0.275  1.00  0.00     0.021 C 
BRANCH  31  32
ATOM     32  C   UNL     1       1.815   3.488   0.689  1.00  0.00     0.116 C 
BRANCH  32  33
ATOM     33  N   UNL     1       0.927   4.101  -0.287  1.00  0.00    -0.352 N 
ATOM     34  C   UNL     1      -0.407   4.412  -0.213  1.00  0.00     0.251 C 
ATOM     35  H   UNL     1       1.355   4.331  -1.143  1.00  0.00     0.163 HD
ATOM     36  O   UNL     1      -1.014   4.668  -1.251  1.00  0.00    -0.269 OA
BRANCH  34  37
ATOM     37  C   UNL     1      -1.119   4.447   1.086  1.00  0.00     0.039 A 
ATOM     38  C   UNL     1      -2.466   4.072   1.131  1.00  0.00     0.014 A 
ATOM     39  C   UNL     1      -0.494   4.907   2.247  1.00  0.00     0.014 A 
ATOM     40  C   UNL     1      -3.167   4.122   2.340  1.00  0.00     0.010 A 
ATOM     41  C   UNL     1      -1.163   4.862   3.468  1.00  0.00     0.010 A 
ATOM     42  C   UNL     1      -2.514   4.494   3.526  1.00  0.00    -0.014 A 
BRANCH  42  43
ATOM     43  C   UNL     1      -3.227   4.526   4.830  1.00  0.00     0.031 A 
ATOM     44  C   UNL     1      -3.340   5.816   5.603  1.00  0.00     0.074 A 
ATOM     45  C   UNL     1      -3.696   3.380   5.362  1.00  0.00     0.049 A 
ATOM     46  N   UNL     1      -3.865   6.029   6.782  1.00  0.00    -0.248 NA
ATOM     47  C   UNL     1      -2.757   7.020   4.986  1.00  0.00     0.031 C 
ATOM     48  C   UNL     1      -3.571   2.052   4.758  1.00  0.00     0.029 A 
ATOM     49  N   UNL     1      -4.351   3.145   6.545  1.00  0.00    -0.354 N 
ATOM     50  C   UNL     1      -3.636   7.371   7.066  1.00  0.00     0.074 A 
ATOM     51  C   UNL     1      -2.890   7.916   5.953  1.00  0.00     0.031 C 
ATOM     52  C   UNL     1      -4.139   1.144   5.567  1.00  0.00     0.029 A 
ATOM     53  C   UNL     1      -4.646   1.818   6.758  1.00  0.00     0.049 A 
ATOM     54  H   UNL     1      -4.588   3.858   7.181  1.00  0.00     0.167 HD
ATOM     55  C   UNL     1      -4.039   8.096   8.137  1.00  0.00     0.034 A 
ATOM     56  C   UNL     1      -5.256   1.213   7.795  1.00  0.00     0.034 A 
ATOM     57  C   UNL     1      -4.838   7.567   9.210  1.00  0.00     0.049 A 
ATOM     58  C   UNL     1      -5.763   2.053   8.936  1.00  0.00     0.074 A 
ATOM     59  C   UNL     1      -5.381   8.239  10.290  1.00  0.00     0.029 A 
ATOM     60  N   UNL     1      -5.211   6.238   9.335  1.00  0.00    -0.354 N 
ATOM     61  N   UNL     1      -5.675   3.350   9.108  1.00  0.00    -0.248 NA
ATOM     62  C   UNL     1      -6.489   1.353  10.005  1.00  0.00     0.031 C 
ATOM     63  C   UNL     1      -6.074   7.312  11.077  1.00  0.00     0.029 A 
ATOM     64  C   UNL     1      -5.977   6.067  10.476  1.00  0.00     0.049 A 
ATOM     65  H   UNL     1      -4.968   5.521   8.706  1.00  0.00     0.167 HD
ATOM     66  C   UNL     1      -6.362   3.626  10.284  1.00  0.00     0.074 A 
ATOM     67  C   UNL     1      -6.882   2.364  10.769  1.00  0.00     0.031 C 
ATOM     68  C   UNL     1      -6.533   4.814  10.916  1.00  0.00     0.034 A 
BRANCH  55  69
ATOM     69  C   UNL     1      -3.681   9.560   8.168  1.00  0.00     0.023 A 
ATOM     70  C   UNL     1      -4.319  10.449   7.278  1.00  0.00     0.012 A 
ATOM     71  C   UNL     1      -2.759  10.067   9.105  1.00  0.00     0.148 A 
ATOM     72  C   UNL     1      -4.020  11.811   7.294  1.00  0.00     0.002 A 
ATOM     73  C   UNL     1      -2.499  11.432   9.145  1.00  0.00     0.091 A 
ATOM     74  F   UNL     1      -2.145   9.206   9.929  1.00  0.00    -0.205 F 
ATOM     75  C   UNL     1      -3.119  12.303   8.234  1.00  0.00     0.022 A 
BRANCH  73  76
ATOM     76  S   UNL     1      -1.414  12.177  10.369  1.00  0.00     0.127 S 
ATOM     77  O   UNL     1      -0.251  12.529   9.555  1.00  0.00    -0.237 OA
ATOM     78  O   UNL     1      -2.204  13.319  10.829  1.00  0.00    -0.237 OA
ATOM     79  O   UNL     1      -1.185  11.152  11.378  1.00  0.00    -0.744 OA
ENDBRANCH  73  76
ENDBRANCH  55  69
BRANCH  56  80
ATOM     80  C   UNL     1      -5.500  -0.257   7.758  1.00  0.00     0.023 A 
ATOM     81  C   UNL     1      -6.813  -0.732   7.576  1.00  0.00     0.012 A 
ATOM     82  C   UNL     1      -4.444  -1.182   7.865  1.00  0.00     0.148 A 
ATOM     83  C   UNL     1      -7.075  -2.102   7.532  1.00  0.00     0.002 A 
ATOM     84  C   UNL     1      -4.705  -2.545   7.769  1.00  0.00     0.091 A 
ATOM     85  F   UNL     1      -3.202  -0.711   8.050  1.00  0.00    -0.205 F 
ATOM     86  C   UNL     1      -6.021  -3.007   7.618  1.00  0.00     0.022 A 
BRANCH  84  87
ATOM     87  S   UNL     1      -3.395  -3.774   7.747  1.00  0.00     0.127 S 
ATOM     88  O   UNL     1      -3.525  -4.375   9.071  1.00  0.00    -0.237 OA
ATOM     89  O   UNL     1      -3.803  -4.637   6.637  1.00  0.00    -0.237 OA
ATOM     90  O   UNL     1      -2.165  -3.031   7.505  1.00  0.00    -0.744 OA
ENDBRANCH  84  87
ENDBRANCH  56  80
BRANCH  68  91
ATOM     91  C   UNL     1      -7.340   4.816  12.187  1.00  0.00     0.023 A 
ATOM     92  C   UNL     1      -6.792   4.270  13.364  1.00  0.00     0.012 A 
ATOM     93  C   UNL     1      -8.613   5.419  12.232  1.00  0.00     0.148 A 
ATOM     94  C   UNL     1      -7.511   4.293  14.558  1.00  0.00     0.002 A 
ATOM     95  C   UNL     1      -9.304   5.480  13.436  1.00  0.00     0.091 A 
ATOM     96  F   UNL     1      -9.127   5.915  11.097  1.00  0.00    -0.205 F 
ATOM     97  C   UNL     1      -8.761   4.907  14.597  1.00  0.00     0.022 A 
BRANCH  95  98
ATOM     98  S   UNL     1     -10.875   6.338  13.596  1.00  0.00     0.127 S 
ATOM     99  O   UNL     1     -11.819   5.223  13.644  1.00  0.00    -0.237 OA
ATOM    100  O   UNL     1     -10.713   7.055  14.861  1.00  0.00    -0.237 OA
ATOM    101  O   UNL     1     -10.978   7.200  12.426  1.00  0.00    -0.744 OA
ENDBRANCH  95  98
ENDBRANCH  68  91
ENDBRANCH  42  43
ENDBRANCH  34  37
ENDBRANCH  32  33
ENDBRANCH  31  32
ENDBRANCH  30  31
ENDBRANCH   1  30
TORSDOF 20
