REMARK SMILES Cc1c(C)c2c(c(C)c1O)CC[C@@](C)(C(=O)NCCCCCCNC(=O)c1ccc(-c3c4nc(c(-c5cccc(S(=O)(=O)[O-])c5F)c5ccc([nH]5)c(-c5cccc(S(=O)(=O)[O-])c5F)c5nc(c(-c6cccc(S(=O)(=O)[O-])c6F)c6ccc3[nH]6)C=C5)C=C4)cc1)O2
REMARK SMILES IDX 21 1 20 2 19 3 18 4 17 5 15 6 16 7 13 9 1 10 2 11 3 12 9 13
REMARK SMILES IDX 4 14 5 15 7 16 6 17 90 18 8 19 11 20 12 21 14 22 10 23 22 25
REMARK SMILES IDX 23 26 24 27 25 28 26 30 27 31 28 32 89 33 29 34 88 35 30 36
REMARK SMILES IDX 31 37 32 38 82 39 33 40 87 41 81 42 83 43 34 44 86 45 80 46
REMARK SMILES IDX 79 47 35 49 67 50 47 51 66 52 48 53 51 54 65 55 84 56 49 57
REMARK SMILES IDX 50 58 64 60 85 61 52 62 36 63 37 64 45 65 38 66 40 67 46 68
REMARK SMILES IDX 39 69 41 70 42 71 43 72 44 73 68 74 69 75 77 76 70 77 72 78
REMARK SMILES IDX 78 79 71 80 73 81 74 82 75 83 76 84 53 85 54 86 62 87 55 88
REMARK SMILES IDX 57 89 63 90 56 91 58 92 59 93 60 94 61 95
REMARK H PARENT 17 8 10 24 24 29 83 48 51 59
REMARK Flexibility Score: inf
ROOT
ATOM      1  C   UNL     1      -2.054   0.334  11.902  1.00  0.00     0.002 C 
ENDROOT
BRANCH   1   2
ATOM      2  C   UNL     1      -2.984   0.723  10.747  1.00  0.00     0.002 C 
BRANCH   2   3
ATOM      3  C   UNL     1      -2.289   1.387   9.557  1.00  0.00     0.021 C 
BRANCH   3   4
ATOM      4  C   UNL     1      -1.183   0.536   8.937  1.00  0.00     0.116 C 
BRANCH   4   5
ATOM      5  N   UNL     1      -1.730  -0.555   8.147  1.00  0.00    -0.353 N 
ATOM      6  C   UNL     1      -1.658  -0.825   6.806  1.00  0.00     0.263 C 
ATOM      7  O   UNL     1      -2.263  -1.828   6.413  1.00  0.00    -0.270 OA
ATOM      8  H   UNL     1      -2.243  -1.215   8.668  1.00  0.00     0.163 HD
BRANCH   6   9
ATOM      9  C   UNL     1      -0.833   0.083   5.850  1.00  0.00     0.184 C 
ATOM     10  C   UNL     1       0.875  -0.128  -0.059  1.00  0.00     0.049 C 
ATOM     11  C   UNL     1       0.472   0.505   1.248  1.00  0.00    -0.002 A 
ATOM     12  C   UNL     1      -0.112  -0.261   2.287  1.00  0.00    -0.002 A 
ATOM     13  C   UNL     1       0.714   1.878   1.467  1.00  0.00     0.122 A 
ATOM     14  C   UNL     1      -0.367  -1.738   2.111  1.00  0.00     0.049 C 
ATOM     15  C   UNL     1      -0.441   0.370   3.502  1.00  0.00     0.127 A 
ATOM     16  C   UNL     1       0.368   2.513   2.667  1.00  0.00    -0.002 A 
ATOM     17  C   UNL     1      -0.242   1.752   3.684  1.00  0.00     0.001 A 
ATOM     18  O   UNL     1      -0.947  -0.436   4.503  1.00  0.00    -0.477 OA
ATOM     19  C   UNL     1       0.659   3.977   2.891  1.00  0.00     0.049 C 
ATOM     20  C   UNL     1      -0.629   2.410   4.981  1.00  0.00     0.044 C 
ATOM     21  C   UNL     1      -1.462   1.478   5.829  1.00  0.00     0.063 C 
ATOM     22  C   UNL     1       0.651  -0.051   6.253  1.00  0.00     0.067 C 
BRANCH  13  23
ATOM     23  O   UNL     1       1.303   2.660   0.506  1.00  0.00    -0.507 OA
ATOM     24  H   UNL     1       1.554   2.285  -0.315  1.00  0.00     0.293 HD
ENDBRANCH  13  23
ENDBRANCH   6   9
ENDBRANCH   4   5
ENDBRANCH   3   4
ENDBRANCH   2   3
ENDBRANCH   1   2
BRANCH   1  25
ATOM     25  C   UNL     1      -1.160   1.462  12.424  1.00  0.00     0.021 C 
BRANCH  25  26
ATOM     26  C   UNL     1      -1.914   2.699  12.898  1.00  0.00     0.116 C 
BRANCH  26  27
ATOM     27  N   UNL     1      -2.801   2.399  14.011  1.00  0.00    -0.352 N 
ATOM     28  C   UNL     1      -2.808   2.926  15.277  1.00  0.00     0.251 C 
ATOM     29  H   UNL     1      -3.493   1.723  13.829  1.00  0.00     0.163 HD
ATOM     30  O   UNL     1      -3.491   2.406  16.156  1.00  0.00    -0.269 OA
BRANCH  28  31
ATOM     31  C   UNL     1      -1.983   4.113  15.580  1.00  0.00     0.039 A 
ATOM     32  C   UNL     1      -1.210   4.123  16.742  1.00  0.00     0.014 A 
ATOM     33  C   UNL     1      -1.979   5.215  14.719  1.00  0.00     0.014 A 
ATOM     34  C   UNL     1      -0.395   5.223  17.018  1.00  0.00     0.010 A 
ATOM     35  C   UNL     1      -1.112   6.276  14.958  1.00  0.00     0.010 A 
ATOM     36  C   UNL     1      -0.323   6.298  16.117  1.00  0.00    -0.014 A 
BRANCH  36  37
ATOM     37  C   UNL     1       0.555   7.464  16.385  1.00  0.00     0.031 A 
ATOM     38  C   UNL     1      -0.047   8.823  16.614  1.00  0.00     0.074 A 
ATOM     39  C   UNL     1       1.894   7.310  16.366  1.00  0.00     0.049 A 
ATOM     40  N   UNL     1       0.554   9.962  16.839  1.00  0.00    -0.248 NA
ATOM     41  C   UNL     1      -1.516   8.921  16.565  1.00  0.00     0.031 C 
ATOM     42  C   UNL     1       2.596   6.055  16.093  1.00  0.00     0.029 A 
ATOM     43  N   UNL     1       2.904   8.218  16.567  1.00  0.00    -0.354 N 
ATOM     44  C   UNL     1      -0.455  10.911  16.936  1.00  0.00     0.074 A 
ATOM     45  C   UNL     1      -1.706  10.226  16.700  1.00  0.00     0.031 C 
ATOM     46  C   UNL     1       3.920   6.268  16.161  1.00  0.00     0.029 A 
ATOM     47  C   UNL     1       4.163   7.678  16.452  1.00  0.00     0.049 A 
ATOM     48  H   UNL     1       2.741   9.167  16.773  1.00  0.00     0.167 HD
ATOM     49  C   UNL     1      -0.355  12.227  17.236  1.00  0.00     0.034 A 
ATOM     50  C   UNL     1       5.377   8.253  16.570  1.00  0.00     0.034 A 
ATOM     51  C   UNL     1       0.887  12.894  17.514  1.00  0.00     0.049 A 
ATOM     52  C   UNL     1       5.461   9.717  16.912  1.00  0.00     0.074 A 
ATOM     53  C   UNL     1       1.087  14.207  17.900  1.00  0.00     0.029 A 
ATOM     54  N   UNL     1       2.139  12.304  17.436  1.00  0.00    -0.354 N 
ATOM     55  N   UNL     1       4.490  10.566  17.145  1.00  0.00    -0.248 NA
ATOM     56  C   UNL     1       6.807  10.297  17.037  1.00  0.00     0.031 C 
ATOM     57  C   UNL     1       2.462  14.419  18.029  1.00  0.00     0.029 A 
ATOM     58  C   UNL     1       3.118  13.230  17.750  1.00  0.00     0.049 A 
ATOM     59  H   UNL     1       2.307  11.365  17.192  1.00  0.00     0.167 HD
ATOM     60  C   UNL     1       5.103  11.772  17.468  1.00  0.00     0.074 A 
ATOM     61  C   UNL     1       6.532  11.535  17.428  1.00  0.00     0.031 C 
ATOM     62  C   UNL     1       4.536  12.970  17.750  1.00  0.00     0.034 A 
BRANCH  49  63
ATOM     63  C   UNL     1      -1.629  13.023  17.352  1.00  0.00     0.023 A 
ATOM     64  C   UNL     1      -2.483  12.802  18.452  1.00  0.00     0.012 A 
ATOM     65  C   UNL     1      -1.940  14.040  16.429  1.00  0.00     0.148 A 
ATOM     66  C   UNL     1      -3.640  13.561  18.618  1.00  0.00     0.002 A 
ATOM     67  C   UNL     1      -3.070  14.825  16.627  1.00  0.00     0.091 A 
ATOM     68  F   UNL     1      -1.126  14.222  15.379  1.00  0.00    -0.205 F 
ATOM     69  C   UNL     1      -3.926  14.580  17.714  1.00  0.00     0.022 A 
BRANCH  67  70
ATOM     70  S   UNL     1      -3.486  16.217  15.570  1.00  0.00     0.127 S 
ATOM     71  O   UNL     1      -4.709  15.742  14.924  1.00  0.00    -0.237 OA
ATOM     72  O   UNL     1      -3.688  17.290  16.544  1.00  0.00    -0.237 OA
ATOM     73  O   UNL     1      -2.347  16.404  14.682  1.00  0.00    -0.744 OA
ENDBRANCH  67  70
ENDBRANCH  49  63
BRANCH  50  74
ATOM     74  C   UNL     1       6.607   7.419  16.443  1.00  0.00     0.023 A 
ATOM     75  C   UNL     1       7.389   7.168  17.587  1.00  0.00     0.012 A 
ATOM     76  C   UNL     1       6.977   6.830  15.218  1.00  0.00     0.148 A 
ATOM     77  C   UNL     1       8.527   6.365  17.511  1.00  0.00     0.002 A 
ATOM     78  C   UNL     1       8.078   5.983  15.161  1.00  0.00     0.091 A 
ATOM     79  F   UNL     1       6.227   7.090  14.137  1.00  0.00    -0.205 F 
ATOM     80  C   UNL     1       8.865   5.763  16.302  1.00  0.00     0.022 A 
BRANCH  78  81
ATOM     81  S   UNL     1       8.507   5.053  13.684  1.00  0.00     0.127 S 
ATOM     82  O   UNL     1       9.775   5.667  13.300  1.00  0.00    -0.237 OA
ATOM     83  O   UNL     1       8.615   3.691  14.210  1.00  0.00    -0.237 OA
ATOM     84  O   UNL     1       7.402   5.252  12.756  1.00  0.00    -0.744 OA
ENDBRANCH  78  81
ENDBRANCH  50  74
BRANCH  62  85
ATOM     85  C   UNL     1       5.447  14.135  18.043  1.00  0.00     0.023 A 
ATOM     86  C   UNL     1       6.170  14.729  16.990  1.00  0.00     0.012 A 
ATOM     87  C   UNL     1       5.492  14.715  19.327  1.00  0.00     0.148 A 
ATOM     88  C   UNL     1       6.940  15.870  17.214  1.00  0.00     0.002 A 
ATOM     89  C   UNL     1       6.220  15.882  19.530  1.00  0.00     0.091 A 
ATOM     90  F   UNL     1       4.808  14.126  20.318  1.00  0.00    -0.205 F 
ATOM     91  C   UNL     1       6.952  16.454  18.478  1.00  0.00     0.022 A 
BRANCH  89  92
ATOM     92  S   UNL     1       6.211  16.768  21.093  1.00  0.00     0.127 S 
ATOM     93  O   UNL     1       7.581  16.563  21.560  1.00  0.00    -0.237 OA
ATOM     94  O   UNL     1       5.909  18.136  20.670  1.00  0.00    -0.237 OA
ATOM     95  O   UNL     1       5.177  16.143  21.906  1.00  0.00    -0.744 OA
ENDBRANCH  89  92
ENDBRANCH  62  85
ENDBRANCH  36  37
ENDBRANCH  28  31
ENDBRANCH  26  27
ENDBRANCH  25  26
ENDBRANCH   1  25
TORSDOF 17
