REMARK SMILES O=C1[NH+]=C(Nc2ccc(C(=O)NCCCCCCNC(=O)c3ccc(-c4c5nc(c(-c6cccc(S(=O)(=O)[O-])c6F)c6ccc([nH]6)c(-c6cccc(S(=O)(=O)[O-])c6F)c6nc(c(-c7cccc(S(=O)(=O)[O-])c7F)c7ccc4[nH]7)C=C6)C=C5)cc3)c(O)c2)S/C1=C\c1ccc[nH]1
REMARK SMILES IDX 16 1 15 2 14 3 13 4 12 5 10 6 11 7 9 9 6 10 7 11 87 12 8 13
REMARK SMILES IDX 85 14 5 15 1 16 2 17 3 18 89 19 4 20 88 22 90 23 91 25 92 26
REMARK SMILES IDX 95 27 93 28 94 29 86 31 17 33 18 34 19 35 20 36 21 38 22 39
REMARK SMILES IDX 23 40 84 41 24 42 83 43 25 44 26 45 27 46 77 47 28 48 82 49
REMARK SMILES IDX 76 50 78 51 29 52 81 53 75 54 74 55 30 57 62 58 42 59 61 60
REMARK SMILES IDX 43 61 46 62 60 63 79 64 44 65 45 66 59 68 80 69 47 70 31 71
REMARK SMILES IDX 32 72 40 73 33 74 35 75 41 76 34 77 36 78 37 79 38 80 39 81
REMARK SMILES IDX 63 82 64 83 72 84 65 85 67 86 73 87 66 88 68 89 69 90 70 91
REMARK SMILES IDX 71 92 48 93 49 94 57 95 50 96 52 97 58 98 51 99 53 100
REMARK SMILES IDX 54 101 55 102 56 103
REMARK H PARENT 12 8 3 21 5 24 95 30 86 32 19 37 78 56 46 67
REMARK Flexibility Score: inf
ROOT
ATOM      1  C   UNL     1      -0.238  11.083  -3.570  1.00  0.00     0.002 C 
ENDROOT
BRANCH   1   2
ATOM      2  C   UNL     1      -1.510  10.230  -3.543  1.00  0.00     0.002 C 
BRANCH   2   3
ATOM      3  C   UNL     1      -1.323   8.711  -3.485  1.00  0.00     0.021 C 
BRANCH   3   4
ATOM      4  C   UNL     1      -0.382   8.183  -2.406  1.00  0.00     0.116 C 
BRANCH   4   5
ATOM      5  N   UNL     1      -0.781   8.519  -1.050  1.00  0.00    -0.352 N 
ATOM      6  C   UNL     1      -0.608   7.826   0.124  1.00  0.00     0.255 C 
ATOM      7  O   UNL     1      -1.059   8.303   1.164  1.00  0.00    -0.269 OA
ATOM      8  H   UNL     1      -1.250   9.380  -0.957  1.00  0.00     0.163 HD
BRANCH   6   9
ATOM      9  C   UNL     1       0.050   6.495   0.167  1.00  0.00     0.081 A 
ATOM     10  C   UNL     1       1.023   3.838   0.243  1.00  0.00     0.129 A 
ATOM     11  C   UNL     1      -0.079   4.218   1.015  1.00  0.00     0.053 A 
ATOM     12  C   UNL     1       1.667   4.819  -0.518  1.00  0.00     0.098 A 
ATOM     13  C   UNL     1      -0.558   5.531   0.983  1.00  0.00     0.022 A 
ATOM     14  C   UNL     1       1.211   6.140  -0.523  1.00  0.00     0.132 A 
BRANCH  10  15
ATOM     15  N   UNL     1       1.447   2.508   0.144  1.00  0.00    -0.234 N 
ATOM     16  O   UNL     1      -2.280  -0.295   0.018  1.00  0.00    -0.240 OA
ATOM     17  C   UNL     1      -1.099   0.027   0.070  1.00  0.00     0.346 C 
ATOM     18  N   UNL     1      -0.637   1.320   0.138  1.00  0.00    -0.199 N 
ATOM     19  C   UNL     1       0.017  -0.960   0.078  1.00  0.00     0.111 C 
ATOM     20  C   UNL     1       0.652   1.403   0.148  1.00  0.00     0.322 C 
ATOM     21  H   UNL     1      -1.230   2.105   0.176  1.00  0.00     0.316 HD
ATOM     22  S   UNL     1       1.515  -0.119   0.121  1.00  0.00     0.006 SA
ATOM     23  C   UNL     1      -0.200  -2.282   0.040  1.00  0.00     0.050 C 
ATOM     24  H   UNL     1       2.417   2.357   0.064  1.00  0.00     0.313 HD
BRANCH  23  25
ATOM     25  C   UNL     1       0.847  -3.228   0.134  1.00  0.00     0.039 A 
ATOM     26  C   UNL     1       1.843  -3.455   1.063  1.00  0.00     0.027 A 
ATOM     27  N   UNL     1       0.990  -4.161  -0.864  1.00  0.00    -0.362 N 
ATOM     28  C   UNL     1       2.627  -4.536   0.597  1.00  0.00     0.020 A 
ATOM     29  C   UNL     1       2.082  -4.949  -0.598  1.00  0.00     0.083 A 
ATOM     30  H   UNL     1       0.402  -4.251  -1.647  1.00  0.00     0.166 HD
ENDBRANCH  23  25
ENDBRANCH  10  15
BRANCH  14  31
ATOM     31  O   UNL     1       1.996   7.020  -1.211  1.00  0.00    -0.507 OA
ATOM     32  H   UNL     1       1.755   7.924  -1.259  1.00  0.00     0.293 HD
ENDBRANCH  14  31
ENDBRANCH   6   9
ENDBRANCH   4   5
ENDBRANCH   3   4
ENDBRANCH   2   3
ENDBRANCH   1   2
BRANCH   1  33
ATOM     33  C   UNL     1       0.792  10.741  -4.647  1.00  0.00     0.021 C 
BRANCH  33  34
ATOM     34  C   UNL     1       0.264  10.660  -6.075  1.00  0.00     0.116 C 
BRANCH  34  35
ATOM     35  N   UNL     1      -0.354  11.897  -6.523  1.00  0.00    -0.352 N 
ATOM     36  C   UNL     1      -0.108  12.638  -7.654  1.00  0.00     0.251 C 
ATOM     37  H   UNL     1      -1.051  12.258  -5.928  1.00  0.00     0.163 HD
ATOM     38  O   UNL     1      -0.638  13.736  -7.793  1.00  0.00    -0.269 OA
BRANCH  36  39
ATOM     39  C   UNL     1       0.818  12.127  -8.688  1.00  0.00     0.039 A 
ATOM     40  C   UNL     1       1.788  12.989  -9.208  1.00  0.00     0.014 A 
ATOM     41  C   UNL     1       0.743  10.805  -9.138  1.00  0.00     0.014 A 
ATOM     42  C   UNL     1       2.728  12.505 -10.121  1.00  0.00     0.010 A 
ATOM     43  C   UNL     1       1.726  10.306  -9.990  1.00  0.00     0.010 A 
ATOM     44  C   UNL     1       2.732  11.149 -10.487  1.00  0.00    -0.014 A 
BRANCH  44  45
ATOM     45  C   UNL     1       3.805  10.589 -11.351  1.00  0.00     0.031 A 
ATOM     46  C   UNL     1       3.474   9.983 -12.688  1.00  0.00     0.074 A 
ATOM     47  C   UNL     1       5.072  10.548 -10.890  1.00  0.00     0.049 A 
ATOM     48  N   UNL     1       4.269   9.396 -13.545  1.00  0.00    -0.248 NA
ATOM     49  C   UNL     1       2.064  10.021 -13.108  1.00  0.00     0.031 C 
ATOM     50  C   UNL     1       5.511  11.037  -9.581  1.00  0.00     0.029 A 
ATOM     51  N   UNL     1       6.219  10.047 -11.456  1.00  0.00    -0.354 N 
ATOM     52  C   UNL     1       3.456   8.966 -14.587  1.00  0.00     0.074 A 
ATOM     53  C   UNL     1       2.100   9.335 -14.242  1.00  0.00     0.031 C 
ATOM     54  C   UNL     1       6.827  10.814  -9.445  1.00  0.00     0.029 A 
ATOM     55  C   UNL     1       7.321  10.131 -10.636  1.00  0.00     0.049 A 
ATOM     56  H   UNL     1       6.250   9.665 -12.363  1.00  0.00     0.167 HD
ATOM     57  C   UNL     1       3.808   8.342 -15.736  1.00  0.00     0.034 A 
ATOM     58  C   UNL     1       8.582   9.690 -10.811  1.00  0.00     0.034 A 
ATOM     59  C   UNL     1       5.161   8.001 -16.088  1.00  0.00     0.049 A 
ATOM     60  C   UNL     1       8.946   9.007 -12.102  1.00  0.00     0.074 A 
ATOM     61  C   UNL     1       5.627   7.446 -17.267  1.00  0.00     0.029 A 
ATOM     62  N   UNL     1       6.260   8.160 -15.260  1.00  0.00    -0.354 N 
ATOM     63  N   UNL     1       8.191   8.754 -13.143  1.00  0.00    -0.248 NA
ATOM     64  C   UNL     1      10.344   8.577 -12.255  1.00  0.00     0.031 C 
ATOM     65  C   UNL     1       7.002   7.230 -17.135  1.00  0.00     0.029 A 
ATOM     66  C   UNL     1       7.401   7.692 -15.892  1.00  0.00     0.049 A 
ATOM     67  H   UNL     1       6.235   8.548 -14.355  1.00  0.00     0.167 HD
ATOM     68  C   UNL     1       9.027   8.167 -14.086  1.00  0.00     0.074 A 
ATOM     69  C   UNL     1      10.351   8.124 -13.502  1.00  0.00     0.031 C 
ATOM     70  C   UNL     1       8.722   7.693 -15.319  1.00  0.00     0.034 A 
BRANCH  57  71
ATOM     71  C   UNL     1       2.716   8.014 -16.722  1.00  0.00     0.023 A 
ATOM     72  C   UNL     1       2.081   9.051 -17.436  1.00  0.00     0.012 A 
ATOM     73  C   UNL     1       2.370   6.675 -16.996  1.00  0.00     0.148 A 
ATOM     74  C   UNL     1       1.096   8.765 -18.380  1.00  0.00     0.002 A 
ATOM     75  C   UNL     1       1.422   6.396 -17.973  1.00  0.00     0.091 A 
ATOM     76  F   UNL     1       2.973   5.704 -16.296  1.00  0.00    -0.205 F 
ATOM     77  C   UNL     1       0.775   7.438 -18.656  1.00  0.00     0.022 A 
BRANCH  75  78
ATOM     78  S   UNL     1       0.998   4.720 -18.462  1.00  0.00     0.127 S 
ATOM     79  O   UNL     1      -0.380   4.614 -17.983  1.00  0.00    -0.237 OA
ATOM     80  O   UNL     1       1.133   4.783 -19.918  1.00  0.00    -0.237 OA
ATOM     81  O   UNL     1       1.956   3.850 -17.797  1.00  0.00    -0.744 OA
ENDBRANCH  75  78
ENDBRANCH  57  71
BRANCH  58  82
ATOM     82  C   UNL     1       9.605   9.907  -9.748  1.00  0.00     0.023 A 
ATOM     83  C   UNL     1      10.673  10.795  -9.981  1.00  0.00     0.012 A 
ATOM     84  C   UNL     1       9.518   9.248  -8.507  1.00  0.00     0.148 A 
ATOM     85  C   UNL     1      11.657  10.994  -9.011  1.00  0.00     0.002 A 
ATOM     86  C   UNL     1      10.468   9.496  -7.523  1.00  0.00     0.091 A 
ATOM     87  F   UNL     1       8.500   8.399  -8.308  1.00  0.00    -0.205 F 
ATOM     88  C   UNL     1      11.550  10.352  -7.780  1.00  0.00     0.022 A 
BRANCH  86  89
ATOM     89  S   UNL     1      10.338   8.817  -5.865  1.00  0.00     0.127 S 
ATOM     90  O   UNL     1      11.456   7.877  -5.838  1.00  0.00    -0.237 OA
ATOM     91  O   UNL     1      10.514  10.010  -5.037  1.00  0.00    -0.237 OA
ATOM     92  O   UNL     1       9.011   8.221  -5.785  1.00  0.00    -0.744 OA
ENDBRANCH  86  89
ENDBRANCH  58  82
BRANCH  70  93
ATOM     93  C   UNL     1       9.843   7.117 -16.146  1.00  0.00     0.023 A 
ATOM     94  C   UNL     1      10.413   5.877 -15.795  1.00  0.00     0.012 A 
ATOM     95  C   UNL     1      10.278   7.771 -17.316  1.00  0.00     0.148 A 
ATOM     96  C   UNL     1      11.422   5.314 -16.576  1.00  0.00     0.002 A 
ATOM     97  C   UNL     1      11.245   7.178 -18.119  1.00  0.00     0.091 A 
ATOM     98  F   UNL     1       9.733   8.957 -17.625  1.00  0.00    -0.205 F 
ATOM     99  C   UNL     1      11.828   5.958 -17.743  1.00  0.00     0.022 A 
BRANCH  97 100
ATOM    100  S   UNL     1      11.762   7.881 -19.689  1.00  0.00     0.127 S 
ATOM    101  O   UNL     1      13.140   8.273 -19.399  1.00  0.00    -0.237 OA
ATOM    102  O   UNL     1      11.629   6.741 -20.595  1.00  0.00    -0.237 OA
ATOM    103  O   UNL     1      10.847   8.982 -19.960  1.00  0.00    -0.744 OA
ENDBRANCH  97 100
ENDBRANCH  70  93
ENDBRANCH  44  45
ENDBRANCH  36  39
ENDBRANCH  34  35
ENDBRANCH  33  34
ENDBRANCH   1  33
TORSDOF 19
