REMARK SMILES CC[C@](C)(NC(=O)N1Cc2ccccc2C1)C(=O)NCCCCCCNC(=O)c1ccc(-c2c3nc(c(-c4cccc(S(=O)(=O)[O-])c4F)c4ccc([nH]4)c(-c4cccc(S(=O)(=O)[O-])c4F)c4nc(c(-c5cccc(S(=O)(=O)[O-])c5F)c5ccc2[nH]5)C=C4)C=C3)cc1
REMARK SMILES IDX 23 1 22 2 21 3 20 4 19 5 17 6 18 7 3 9 4 10 2 11 1 12 5 13
REMARK SMILES IDX 6 14 7 16 8 17 9 18 16 19 10 20 15 21 11 22 14 23 12 24
REMARK SMILES IDX 13 25 24 26 25 27 26 28 27 29 28 31 29 32 30 33 91 34 31 35
REMARK SMILES IDX 90 36 32 37 33 38 34 39 84 40 35 41 89 42 83 43 85 44 36 45
REMARK SMILES IDX 88 46 82 47 81 48 37 50 69 51 49 52 68 53 50 54 53 55 67 56
REMARK SMILES IDX 86 57 51 58 52 59 66 61 87 62 54 63 38 64 39 65 47 66 40 67
REMARK SMILES IDX 42 68 48 69 41 70 43 71 44 72 45 73 46 74 70 75 71 76 79 77
REMARK SMILES IDX 72 78 74 79 80 80 73 81 75 82 76 83 77 84 78 85 55 86 56 87
REMARK SMILES IDX 64 88 57 89 59 90 65 91 58 92 60 93 61 94 62 95 63 96
REMARK H PARENT 19 8 5 15 26 30 85 49 53 60
REMARK Flexibility Score: inf
ROOT
ATOM      1  C   UNL     1       4.876   5.293  -4.158  1.00  0.00     0.002 C 
ENDROOT
BRANCH   1   2
ATOM      2  C   UNL     1       4.279   5.493  -2.769  1.00  0.00     0.002 C 
BRANCH   2   3
ATOM      3  C   UNL     1       2.756   5.394  -2.661  1.00  0.00     0.021 C 
BRANCH   3   4
ATOM      4  C   UNL     1       2.072   4.154  -3.245  1.00  0.00     0.116 C 
BRANCH   4   5
ATOM      5  N   UNL     1       2.624   2.865  -2.857  1.00  0.00    -0.354 N 
ATOM      6  C   UNL     1       2.301   1.973  -1.870  1.00  0.00     0.245 C 
ATOM      7  O   UNL     1       2.921   0.901  -1.869  1.00  0.00    -0.272 OA
ATOM      8  H   UNL     1       3.382   2.577  -3.415  1.00  0.00     0.163 HD
BRANCH   6   9
ATOM      9  C   UNL     1       1.157   2.230  -0.849  1.00  0.00     0.117 C 
ATOM     10  C   UNL     1       1.169   1.245   0.341  1.00  0.00     0.045 C 
BRANCH   9  11
ATOM     11  C   UNL     1      -0.179   2.015  -1.639  1.00  0.00     0.035 C 
ATOM     12  C   UNL     1      -0.302   0.667  -2.361  1.00  0.00     0.007 C 
ENDBRANCH   9  11
BRANCH   9  13
ATOM     13  N   UNL     1       1.193   3.606  -0.283  1.00  0.00    -0.324 N 
ATOM     14  C   UNL     1       1.989   4.268   0.589  1.00  0.00     0.318 C 
ATOM     15  H   UNL     1       0.461   4.170  -0.624  1.00  0.00     0.166 HD
ATOM     16  O   UNL     1       1.464   5.232   1.157  1.00  0.00    -0.249 OA
ATOM     17  N   UNL     1       3.296   3.962   0.804  1.00  0.00    -0.316 N 
ATOM     18  C   UNL     1       4.108   4.844   1.663  1.00  0.00     0.157 C 
ATOM     19  C   UNL     1       4.149   3.016   0.106  1.00  0.00     0.157 C 
ATOM     20  C   UNL     1       5.528   4.500   1.313  1.00  0.00    -0.023 A 
ATOM     21  C   UNL     1       5.541   3.442   0.409  1.00  0.00    -0.023 A 
ATOM     22  C   UNL     1       6.715   5.099   1.693  1.00  0.00     0.006 A 
ATOM     23  C   UNL     1       6.707   2.976  -0.175  1.00  0.00     0.006 A 
ATOM     24  C   UNL     1       7.908   4.635   1.119  1.00  0.00     0.000 A 
ATOM     25  C   UNL     1       7.904   3.588   0.183  1.00  0.00     0.000 A 
ENDBRANCH   9  13
ENDBRANCH   6   9
ENDBRANCH   4   5
ENDBRANCH   3   4
ENDBRANCH   2   3
ENDBRANCH   1   2
BRANCH   1  26
ATOM     26  C   UNL     1       4.314   6.207  -5.242  1.00  0.00     0.021 C 
BRANCH  26  27
ATOM     27  C   UNL     1       4.419   7.698  -4.945  1.00  0.00     0.116 C 
BRANCH  27  28
ATOM     28  N   UNL     1       5.797   8.160  -4.874  1.00  0.00    -0.352 N 
ATOM     29  C   UNL     1       6.397   9.186  -5.574  1.00  0.00     0.251 C 
ATOM     30  H   UNL     1       6.378   7.677  -4.243  1.00  0.00     0.163 HD
ATOM     31  O   UNL     1       7.602   9.361  -5.521  1.00  0.00    -0.269 OA
BRANCH  29  32
ATOM     32  C   UNL     1       5.547  10.055  -6.418  1.00  0.00     0.039 A 
ATOM     33  C   UNL     1       5.880  10.227  -7.763  1.00  0.00     0.014 A 
ATOM     34  C   UNL     1       4.391  10.636  -5.890  1.00  0.00     0.014 A 
ATOM     35  C   UNL     1       5.003  10.919  -8.603  1.00  0.00     0.010 A 
ATOM     36  C   UNL     1       3.487  11.260  -6.743  1.00  0.00     0.010 A 
ATOM     37  C   UNL     1       3.780  11.402  -8.108  1.00  0.00    -0.014 A 
BRANCH  37  38
ATOM     38  C   UNL     1       2.772  12.019  -9.008  1.00  0.00     0.031 A 
ATOM     39  C   UNL     1       2.354  13.449  -8.814  1.00  0.00     0.074 A 
ATOM     40  C   UNL     1       2.151  11.255  -9.929  1.00  0.00     0.049 A 
ATOM     41  N   UNL     1       1.441  14.134  -9.451  1.00  0.00    -0.248 NA
ATOM     42  C   UNL     1       3.029  14.198  -7.742  1.00  0.00     0.031 C 
ATOM     43  C   UNL     1       2.397   9.828 -10.148  1.00  0.00     0.029 A 
ATOM     44  N   UNL     1       1.158  11.561 -10.826  1.00  0.00    -0.354 N 
ATOM     45  C   UNL     1       1.409  15.382  -8.842  1.00  0.00     0.074 A 
ATOM     46  C   UNL     1       2.366  15.345  -7.757  1.00  0.00     0.031 C 
ATOM     47  C   UNL     1       1.571   9.381 -11.106  1.00  0.00     0.029 A 
ATOM     48  C   UNL     1       0.719  10.479 -11.552  1.00  0.00     0.049 A 
ATOM     49  H   UNL     1       0.795  12.470 -10.939  1.00  0.00     0.167 HD
ATOM     50  C   UNL     1       0.676  16.471  -9.175  1.00  0.00     0.034 A 
ATOM     51  C   UNL     1      -0.269  10.375 -12.463  1.00  0.00     0.034 A 
ATOM     52  C   UNL     1      -0.251  16.513 -10.274  1.00  0.00     0.049 A 
ATOM     53  C   UNL     1      -1.042  11.606 -12.847  1.00  0.00     0.074 A 
ATOM     54  C   UNL     1      -0.969  17.593 -10.754  1.00  0.00     0.029 A 
ATOM     55  N   UNL     1      -0.599  15.422 -11.056  1.00  0.00    -0.354 N 
ATOM     56  N   UNL     1      -0.930  12.827 -12.383  1.00  0.00    -0.248 NA
ATOM     57  C   UNL     1      -2.052  11.457 -13.905  1.00  0.00     0.031 C 
ATOM     58  C   UNL     1      -1.769  17.151 -11.813  1.00  0.00     0.029 A 
ATOM     59  C   UNL     1      -1.533  15.799 -12.007  1.00  0.00     0.049 A 
ATOM     60  H   UNL     1      -0.236  14.514 -10.951  1.00  0.00     0.167 HD
ATOM     61  C   UNL     1      -1.837  13.596 -13.103  1.00  0.00     0.074 A 
ATOM     62  C   UNL     1      -2.471  12.707 -14.056  1.00  0.00     0.031 C 
ATOM     63  C   UNL     1      -2.130  14.914 -12.976  1.00  0.00     0.034 A 
BRANCH  50  64
ATOM     64  C   UNL     1       0.896  17.725  -8.368  1.00  0.00     0.023 A 
ATOM     65  C   UNL     1       2.112  18.428  -8.500  1.00  0.00     0.012 A 
ATOM     66  C   UNL     1      -0.101  18.228  -7.510  1.00  0.00     0.148 A 
ATOM     67  C   UNL     1       2.352  19.583  -7.758  1.00  0.00     0.002 A 
ATOM     68  C   UNL     1       0.127  19.406  -6.808  1.00  0.00     0.091 A 
ATOM     69  F   UNL     1      -1.242  17.537  -7.378  1.00  0.00    -0.205 F 
ATOM     70  C   UNL     1       1.357  20.077  -6.920  1.00  0.00     0.022 A 
BRANCH  68  71
ATOM     71  S   UNL     1      -1.123  20.164  -5.763  1.00  0.00     0.127 S 
ATOM     72  O   UNL     1      -0.628  19.837  -4.427  1.00  0.00    -0.237 OA
ATOM     73  O   UNL     1      -1.013  21.578  -6.124  1.00  0.00    -0.237 OA
ATOM     74  O   UNL     1      -2.384  19.541  -6.138  1.00  0.00    -0.744 OA
ENDBRANCH  68  71
ENDBRANCH  50  64
BRANCH  51  75
ATOM     75  C   UNL     1      -0.536   9.059 -13.108  1.00  0.00     0.023 A 
ATOM     76  C   UNL     1      -0.178   8.859 -14.455  1.00  0.00     0.012 A 
ATOM     77  C   UNL     1      -1.084   7.987 -12.376  1.00  0.00     0.148 A 
ATOM     78  C   UNL     1      -0.380   7.622 -15.068  1.00  0.00     0.002 A 
ATOM     79  C   UNL     1      -1.229   6.742 -12.975  1.00  0.00     0.091 A 
ATOM     80  F   UNL     1      -1.428   8.202 -11.098  1.00  0.00    -0.205 F 
ATOM     81  C   UNL     1      -0.893   6.561 -14.326  1.00  0.00     0.022 A 
BRANCH  79  82
ATOM     82  S   UNL     1      -1.745   5.286 -12.058  1.00  0.00     0.127 S 
ATOM     83  O   UNL     1      -3.072   5.036 -12.613  1.00  0.00    -0.237 OA
ATOM     84  O   UNL     1      -0.723   4.311 -12.440  1.00  0.00    -0.237 OA
ATOM     85  O   UNL     1      -1.709   5.671 -10.653  1.00  0.00    -0.744 OA
ENDBRANCH  79  82
ENDBRANCH  51  75
BRANCH  63  86
ATOM     86  C   UNL     1      -3.178  15.488 -13.892  1.00  0.00     0.023 A 
ATOM     87  C   UNL     1      -4.535  15.175 -13.679  1.00  0.00     0.012 A 
ATOM     88  C   UNL     1      -2.829  16.397 -14.910  1.00  0.00     0.148 A 
ATOM     89  C   UNL     1      -5.527  15.738 -14.482  1.00  0.00     0.002 A 
ATOM     90  C   UNL     1      -3.826  16.990 -15.676  1.00  0.00     0.091 A 
ATOM     91  F   UNL     1      -1.531  16.668 -15.108  1.00  0.00    -0.205 F 
ATOM     92  C   UNL     1      -5.174  16.653 -15.471  1.00  0.00     0.022 A 
BRANCH  90  93
ATOM     93  S   UNL     1      -3.476  18.248 -16.910  1.00  0.00     0.127 S 
ATOM     94  O   UNL     1      -3.736  17.525 -18.154  1.00  0.00    -0.237 OA
ATOM     95  O   UNL     1      -4.461  19.281 -16.588  1.00  0.00    -0.237 OA
ATOM     96  O   UNL     1      -2.091  18.645 -16.698  1.00  0.00    -0.744 OA
ENDBRANCH  90  93
ENDBRANCH  63  86
ENDBRANCH  37  38
ENDBRANCH  29  32
ENDBRANCH  27  28
ENDBRANCH  26  27
ENDBRANCH   1  26
TORSDOF 18
