REMARK SMILES Cc1n[nH]c(C(=O)N2CCCC[C@H]2CCC(=O)NCCCCCCNC(=O)c2ccc(-c3c4nc(c(-c5cccc(S(=O)(=O)[O-])c5F)c5ccc([nH]5)c(-c5cccc(S(=O)(=O)[O-])c5F)c5nc(c(-c6cccc(S(=O)(=O)[O-])c6F)c6ccc3[nH]6)C=C5)C=C4)cc2)n1
REMARK SMILES IDX 21 1 20 2 19 3 18 4 16 5 17 6 15 8 14 9 13 10 8 11 9 12
REMARK SMILES IDX 10 13 12 14 11 15 6 16 7 17 5 18 1 19 2 20 3 21 91 22 4 23
REMARK SMILES IDX 22 25 23 26 24 27 25 28 26 29 27 31 28 32 29 33 90 34 30 35
REMARK SMILES IDX 89 36 31 37 32 38 33 39 83 40 34 41 88 42 82 43 84 44 35 45
REMARK SMILES IDX 87 46 81 47 80 48 36 50 68 51 48 52 67 53 49 54 52 55 66 56
REMARK SMILES IDX 85 57 50 58 51 59 65 61 86 62 53 63 37 64 38 65 46 66 39 67
REMARK SMILES IDX 41 68 47 69 40 70 42 71 43 72 44 73 45 74 69 75 70 76 78 77
REMARK SMILES IDX 71 78 73 79 79 80 72 81 74 82 75 83 76 84 77 85 54 86 55 87
REMARK SMILES IDX 63 88 56 89 58 90 64 91 57 92 59 93 60 94 61 95 62 96
REMARK H PARENT 18 7 4 24 25 30 84 49 52 60
REMARK Flexibility Score: inf
ROOT
ATOM      1  C   UNL     1       1.228   2.144   9.055  1.00  0.00     0.002 C 
ENDROOT
BRANCH   1   2
ATOM      2  C   UNL     1       1.773   1.091   8.083  1.00  0.00     0.021 C 
BRANCH   2   3
ATOM      3  C   UNL     1       2.043  -0.317   8.637  1.00  0.00     0.116 C 
BRANCH   3   4
ATOM      4  N   UNL     1       1.011  -0.872   9.505  1.00  0.00    -0.356 N 
ATOM      5  C   UNL     1       0.080  -1.853   9.317  1.00  0.00     0.220 C 
ATOM      6  O   UNL     1      -0.646  -2.150  10.270  1.00  0.00    -0.275 OA
ATOM      7  H   UNL     1       0.980  -0.460  10.398  1.00  0.00     0.163 HD
BRANCH   5   8
ATOM      8  C   UNL     1      -0.102  -2.529   7.970  1.00  0.00     0.102 C 
BRANCH   8   9
ATOM      9  C   UNL     1      -1.228  -1.965   7.074  1.00  0.00     0.035 C 
BRANCH   9  10
ATOM     10  C   UNL     1      -1.084  -0.466   6.768  1.00  0.00     0.086 C 
ATOM     11  N   UNL     1      -1.751  -0.019   5.541  1.00  0.00    -0.333 N 
ATOM     12  C   UNL     1      -3.187   0.273   5.625  1.00  0.00     0.120 C 
ATOM     13  C   UNL     1      -3.580   1.121   6.837  1.00  0.00     0.022 C 
ATOM     14  C   UNL     1      -1.499   0.454   7.931  1.00  0.00     0.025 C 
ATOM     15  C   UNL     1      -3.003   0.532   8.107  1.00  0.00     0.004 C 
BRANCH  11  16
ATOM     16  C   UNL     1      -0.993   0.856   4.719  1.00  0.00     0.291 C 
ATOM     17  O   UNL     1      -0.777   2.011   5.097  1.00  0.00    -0.265 OA
BRANCH  16  18
ATOM     18  C   UNL     1      -0.363   0.216   3.578  1.00  0.00     0.214 A 
ATOM     19  C   UNL     1       1.215   0.017   0.431  1.00  0.00     0.092 C 
ATOM     20  C   UNL     1       0.654  -0.225   1.778  1.00  0.00     0.148 A 
ATOM     21  N   UNL     1       0.264  -1.439   2.194  1.00  0.00    -0.159 NA
ATOM     22  N   UNL     1       0.434   0.784   2.687  1.00  0.00    -0.207 NA
ATOM     23  N   UNL     1      -0.511  -1.095   3.236  1.00  0.00    -0.255 N 
ATOM     24  H   UNL     1      -1.116  -1.718   3.699  1.00  0.00     0.192 HD
ENDBRANCH  16  18
ENDBRANCH  11  16
ENDBRANCH   9  10
ENDBRANCH   8   9
ENDBRANCH   5   8
ENDBRANCH   3   4
ENDBRANCH   2   3
ENDBRANCH   1   2
BRANCH   1  25
ATOM     25  C   UNL     1       2.236   2.734  10.040  1.00  0.00     0.002 C 
BRANCH  25  26
ATOM     26  C   UNL     1       3.551   3.235   9.431  1.00  0.00     0.021 C 
BRANCH  26  27
ATOM     27  C   UNL     1       3.373   4.341   8.401  1.00  0.00     0.116 C 
BRANCH  27  28
ATOM     28  N   UNL     1       3.071   5.629   9.023  1.00  0.00    -0.352 N 
ATOM     29  C   UNL     1       2.969   6.860   8.399  1.00  0.00     0.251 C 
ATOM     30  H   UNL     1       2.924   5.620   9.996  1.00  0.00     0.163 HD
ATOM     31  O   UNL     1       3.124   7.895   9.022  1.00  0.00    -0.269 OA
BRANCH  29  32
ATOM     32  C   UNL     1       2.639   6.885   6.961  1.00  0.00     0.039 A 
ATOM     33  C   UNL     1       3.201   7.827   6.094  1.00  0.00     0.014 A 
ATOM     34  C   UNL     1       1.725   5.942   6.496  1.00  0.00     0.014 A 
ATOM     35  C   UNL     1       2.850   7.786   4.747  1.00  0.00     0.010 A 
ATOM     36  C   UNL     1       1.523   5.790   5.153  1.00  0.00     0.010 A 
ATOM     37  C   UNL     1       2.002   6.766   4.291  1.00  0.00    -0.014 A 
BRANCH  37  38
ATOM     38  C   UNL     1       1.610   6.675   2.894  1.00  0.00     0.031 A 
ATOM     39  C   UNL     1       2.732   6.517   1.934  1.00  0.00     0.074 A 
ATOM     40  C   UNL     1       0.320   6.518   2.526  1.00  0.00     0.049 A 
ATOM     41  N   UNL     1       3.144   7.366   1.051  1.00  0.00    -0.248 NA
ATOM     42  C   UNL     1       3.587   5.328   2.062  1.00  0.00     0.031 C 
ATOM     43  C   UNL     1      -0.860   6.296   3.377  1.00  0.00     0.029 A 
ATOM     44  N   UNL     1      -0.188   6.369   1.278  1.00  0.00    -0.354 N 
ATOM     45  C   UNL     1       4.176   6.729   0.363  1.00  0.00     0.074 A 
ATOM     46  C   UNL     1       4.528   5.575   1.149  1.00  0.00     0.031 C 
ATOM     47  C   UNL     1      -1.863   5.781   2.632  1.00  0.00     0.029 A 
ATOM     48  C   UNL     1      -1.466   5.824   1.240  1.00  0.00     0.049 A 
ATOM     49  H   UNL     1       0.307   6.626   0.466  1.00  0.00     0.167 HD
ATOM     50  C   UNL     1       4.505   7.078  -0.912  1.00  0.00     0.034 A 
ATOM     51  C   UNL     1      -2.124   5.405   0.134  1.00  0.00     0.034 A 
ATOM     52  C   UNL     1       3.887   8.325  -1.288  1.00  0.00     0.049 A 
ATOM     53  C   UNL     1      -1.467   6.063  -1.022  1.00  0.00     0.074 A 
ATOM     54  C   UNL     1       3.952   9.625  -0.828  1.00  0.00     0.029 A 
ATOM     55  N   UNL     1       2.737   8.247  -2.037  1.00  0.00    -0.354 N 
ATOM     56  N   UNL     1      -1.474   7.353  -1.223  1.00  0.00    -0.248 NA
ATOM     57  C   UNL     1      -0.419   5.328  -1.711  1.00  0.00     0.031 C 
ATOM     58  C   UNL     1       2.612  10.106  -0.910  1.00  0.00     0.029 A 
ATOM     59  C   UNL     1       1.823   9.100  -1.475  1.00  0.00     0.049 A 
ATOM     60  H   UNL     1       2.596   7.682  -2.831  1.00  0.00     0.167 HD
ATOM     61  C   UNL     1      -0.194   7.642  -1.683  1.00  0.00     0.074 A 
ATOM     62  C   UNL     1       0.369   6.347  -2.064  1.00  0.00     0.031 C 
ATOM     63  C   UNL     1       0.395   8.853  -1.444  1.00  0.00     0.034 A 
BRANCH  50  64
ATOM     64  C   UNL     1       5.104   6.160  -1.954  1.00  0.00     0.023 A 
ATOM     65  C   UNL     1       5.530   6.749  -3.168  1.00  0.00     0.012 A 
ATOM     66  C   UNL     1       5.035   4.749  -1.922  1.00  0.00     0.148 A 
ATOM     67  C   UNL     1       5.820   5.980  -4.300  1.00  0.00     0.002 A 
ATOM     68  C   UNL     1       5.397   3.984  -3.026  1.00  0.00     0.091 A 
ATOM     69  F   UNL     1       4.492   4.129  -0.871  1.00  0.00    -0.205 F 
ATOM     70  C   UNL     1       5.761   4.595  -4.228  1.00  0.00     0.022 A 
BRANCH  68  71
ATOM     71  S   UNL     1       5.384   2.187  -2.972  1.00  0.00     0.127 S 
ATOM     72  O   UNL     1       4.188   1.878  -3.751  1.00  0.00    -0.237 OA
ATOM     73  O   UNL     1       6.651   1.857  -3.625  1.00  0.00    -0.237 OA
ATOM     74  O   UNL     1       5.335   1.839  -1.558  1.00  0.00    -0.744 OA
ENDBRANCH  68  71
ENDBRANCH  50  64
BRANCH  51  75
ATOM     75  C   UNL     1      -3.125   4.327  -0.034  1.00  0.00     0.023 A 
ATOM     76  C   UNL     1      -4.008   4.374  -1.131  1.00  0.00     0.012 A 
ATOM     77  C   UNL     1      -3.042   3.121   0.702  1.00  0.00     0.148 A 
ATOM     78  C   UNL     1      -4.755   3.252  -1.507  1.00  0.00     0.002 A 
ATOM     79  C   UNL     1      -3.787   2.006   0.320  1.00  0.00     0.091 A 
ATOM     80  F   UNL     1      -2.168   3.039   1.715  1.00  0.00    -0.205 F 
ATOM     81  C   UNL     1      -4.638   2.067  -0.789  1.00  0.00     0.022 A 
BRANCH  79  82
ATOM     82  S   UNL     1      -3.669   0.431   1.173  1.00  0.00     0.127 S 
ATOM     83  O   UNL     1      -5.047  -0.062   1.139  1.00  0.00    -0.237 OA
ATOM     84  O   UNL     1      -2.736  -0.313   0.336  1.00  0.00    -0.237 OA
ATOM     85  O   UNL     1      -3.204   0.745   2.515  1.00  0.00    -0.744 OA
ENDBRANCH  79  82
ENDBRANCH  51  75
BRANCH  63  86
ATOM     86  C   UNL     1      -0.452   9.956  -0.850  1.00  0.00     0.023 A 
ATOM     87  C   UNL     1      -1.016   9.861   0.440  1.00  0.00     0.012 A 
ATOM     88  C   UNL     1      -0.511  11.189  -1.522  1.00  0.00     0.148 A 
ATOM     89  C   UNL     1      -1.637  10.963   1.038  1.00  0.00     0.002 A 
ATOM     90  C   UNL     1      -1.087  12.295  -0.906  1.00  0.00     0.091 A 
ATOM     91  F   UNL     1       0.033  11.270  -2.746  1.00  0.00    -0.205 F 
ATOM     92  C   UNL     1      -1.659  12.184   0.371  1.00  0.00     0.022 A 
BRANCH  90  93
ATOM     93  S   UNL     1      -1.026  13.924  -1.657  1.00  0.00     0.127 S 
ATOM     94  O   UNL     1      -2.399  14.094  -2.130  1.00  0.00    -0.237 OA
ATOM     95  O   UNL     1      -0.658  14.780  -0.528  1.00  0.00    -0.237 OA
ATOM     96  O   UNL     1      -0.009  13.847  -2.698  1.00  0.00    -0.744 OA
ENDBRANCH  90  93
ENDBRANCH  63  86
ENDBRANCH  37  38
ENDBRANCH  29  32
ENDBRANCH  27  28
ENDBRANCH  26  27
ENDBRANCH  25  26
ENDBRANCH   1  25
TORSDOF 20
