REMARK SMILES Cc1c(CC(=O)NCCCCCCNC(=O)c2ccc(-c3c4nc(c(-c5cccc(S(=O)(=O)[O-])c5F)c5ccc([nH]5)c(-c5cccc(S(=O)(=O)[O-])c5F)c5nc(c(-c6cccc(S(=O)(=O)[O-])c6F)c6ccc3[nH]6)C=C5)C=C4)cc2)c(=O)oc2cc(OCc3c(F)cccc3Cl)ccc12
REMARK SMILES IDX 10 1 9 2 8 3 7 4 5 5 6 6 4 8 3 9 1 10 2 11 98 12 80 13 83 14
REMARK SMILES IDX 97 15 81 16 82 17 84 18 96 19 85 20 86 21 87 22 88 23 89 24
REMARK SMILES IDX 94 25 90 26 91 27 93 28 95 29 92 30 11 31 12 32 13 33 14 34
REMARK SMILES IDX 15 35 16 37 17 38 18 39 79 40 19 41 78 42 20 43 21 44 22 45
REMARK SMILES IDX 72 46 23 47 77 48 71 49 73 50 24 51 76 52 70 53 69 54 25 56
REMARK SMILES IDX 57 57 37 58 56 59 38 60 41 61 55 62 74 63 39 64 40 65 54 67
REMARK SMILES IDX 75 68 42 69 26 70 27 71 35 72 28 73 30 74 36 75 29 76 31 77
REMARK SMILES IDX 32 78 33 79 34 80 58 81 59 82 67 83 60 84 62 85 68 86 61 87
REMARK SMILES IDX 63 88 64 89 65 90 66 91 43 92 44 93 52 94 45 95 47 96 53 97
REMARK SMILES IDX 46 98 48 99 49 100 50 101 51 102
REMARK H PARENT 7 7 14 36 73 55 41 66
REMARK Flexibility Score: inf
ROOT
ATOM      1  C   UNL     1      -1.750  -0.898  -4.855  1.00  0.00     0.002 C 
ENDROOT
BRANCH   1   2
ATOM      2  C   UNL     1      -1.867  -0.286  -3.451  1.00  0.00     0.021 C 
BRANCH   2   3
ATOM      3  C   UNL     1      -3.163  -0.643  -2.722  1.00  0.00     0.116 C 
BRANCH   3   4
ATOM      4  N   UNL     1      -3.207  -2.058  -2.406  1.00  0.00    -0.356 N 
ATOM      5  C   UNL     1      -3.108  -2.685  -1.203  1.00  0.00     0.224 C 
ATOM      6  O   UNL     1      -3.112  -3.919  -1.193  1.00  0.00    -0.275 OA
ATOM      7  H   UNL     1      -3.327  -2.655  -3.180  1.00  0.00     0.163 HD
BRANCH   5   8
ATOM      8  C   UNL     1      -3.046  -1.887   0.097  1.00  0.00     0.143 C 
BRANCH   8   9
ATOM      9  C   UNL     1      -1.775  -1.088   0.295  1.00  0.00     0.051 A 
ATOM     10  C   UNL     1      -0.222  -3.072   0.204  1.00  0.00     0.046 C 
ATOM     11  C   UNL     1      -0.524  -1.600   0.317  1.00  0.00    -0.029 A 
ATOM     12  C   UNL     1       0.626  -0.679   0.407  1.00  0.00     0.021 A 
ATOM     13  C   UNL     1      -2.011   0.370   0.510  1.00  0.00     0.340 A 
ATOM     14  C   UNL     1       0.394   0.692   0.488  1.00  0.00     0.142 A 
ATOM     15  C   UNL     1       1.959  -1.097   0.341  1.00  0.00     0.016 A 
ATOM     16  O   UNL     1      -3.143   0.830   0.616  1.00  0.00    -0.246 OA
ATOM     17  O   UNL     1      -0.909   1.200   0.574  1.00  0.00    -0.422 OA
ATOM     18  C   UNL     1       1.419   1.642   0.441  1.00  0.00     0.094 A 
ATOM     19  C   UNL     1       2.997  -0.161   0.279  1.00  0.00     0.047 A 
ATOM     20  C   UNL     1       2.726   1.209   0.266  1.00  0.00     0.123 A 
BRANCH  20  21
ATOM     21  O   UNL     1       3.806   1.982  -0.048  1.00  0.00    -0.489 OA
BRANCH  21  22
ATOM     22  C   UNL     1       3.619   3.362  -0.376  1.00  0.00     0.270 C 
BRANCH  22  23
ATOM     23  C   UNL     1       2.808   3.759  -1.595  1.00  0.00     0.044 A 
ATOM     24  C   UNL     1       2.440   5.115  -1.649  1.00  0.00     0.131 A 
ATOM     25  C   UNL     1       2.405   2.953  -2.668  1.00  0.00     0.050 A 
ATOM     26  F   UNL     1       2.876   5.950  -0.694  1.00  0.00    -0.207 F 
ATOM     27  C   UNL     1       1.637   5.638  -2.660  1.00  0.00     0.040 A 
ATOM     28  C   UNL     1       1.549   3.461  -3.662  1.00  0.00     0.021 A 
ATOM     29  Cl  UNL     1       2.943   1.331  -2.918  1.00  0.00    -0.084 Cl
ATOM     30  C   UNL     1       1.158   4.798  -3.654  1.00  0.00     0.005 A 
ENDBRANCH  22  23
ENDBRANCH  21  22
ENDBRANCH  20  21
ENDBRANCH   8   9
ENDBRANCH   5   8
ENDBRANCH   3   4
ENDBRANCH   2   3
ENDBRANCH   1   2
BRANCH   1  31
ATOM     31  C   UNL     1      -2.897  -0.557  -5.813  1.00  0.00     0.002 C 
BRANCH  31  32
ATOM     32  C   UNL     1      -3.159   0.938  -6.004  1.00  0.00     0.021 C 
BRANCH  32  33
ATOM     33  C   UNL     1      -1.977   1.724  -6.562  1.00  0.00     0.116 C 
BRANCH  33  34
ATOM     34  N   UNL     1      -1.615   1.289  -7.902  1.00  0.00    -0.352 N 
ATOM     35  C   UNL     1      -1.483   2.030  -9.051  1.00  0.00     0.251 C 
ATOM     36  H   UNL     1      -1.440   0.325  -7.999  1.00  0.00     0.163 HD
ATOM     37  O   UNL     1      -1.369   1.466 -10.134  1.00  0.00    -0.269 OA
BRANCH  35  38
ATOM     38  C   UNL     1      -1.492   3.507  -8.979  1.00  0.00     0.039 A 
ATOM     39  C   UNL     1      -2.243   4.225  -9.912  1.00  0.00     0.014 A 
ATOM     40  C   UNL     1      -0.756   4.181  -8.000  1.00  0.00     0.014 A 
ATOM     41  C   UNL     1      -2.301   5.618  -9.828  1.00  0.00     0.010 A 
ATOM     42  C   UNL     1      -0.875   5.562  -7.872  1.00  0.00     0.010 A 
ATOM     43  C   UNL     1      -1.643   6.297  -8.789  1.00  0.00    -0.014 A 
BRANCH  43  44
ATOM     44  C   UNL     1      -1.758   7.771  -8.641  1.00  0.00     0.031 A 
ATOM     45  C   UNL     1      -0.537   8.646  -8.747  1.00  0.00     0.074 A 
ATOM     46  C   UNL     1      -2.951   8.317  -8.333  1.00  0.00     0.049 A 
ATOM     47  N   UNL     1      -0.439   9.942  -8.608  1.00  0.00    -0.248 NA
ATOM     48  C   UNL     1       0.746   7.975  -9.017  1.00  0.00     0.031 C 
ATOM     49  C   UNL     1      -4.193   7.570  -8.122  1.00  0.00     0.029 A 
ATOM     50  N   UNL     1      -3.312   9.624  -8.120  1.00  0.00    -0.354 N 
ATOM     51  C   UNL     1       0.912  10.239  -8.739  1.00  0.00     0.074 A 
ATOM     52  C   UNL     1       1.603   8.982  -8.931  1.00  0.00     0.031 C 
ATOM     53  C   UNL     1      -5.178   8.430  -7.819  1.00  0.00     0.029 A 
ATOM     54  C   UNL     1      -4.636   9.784  -7.784  1.00  0.00     0.049 A 
ATOM     55  H   UNL     1      -2.682  10.377  -8.201  1.00  0.00     0.167 HD
ATOM     56  C   UNL     1       1.522  11.448  -8.732  1.00  0.00     0.034 A 
ATOM     57  C   UNL     1      -5.334  10.895  -7.474  1.00  0.00     0.034 A 
ATOM     58  C   UNL     1       0.828  12.699  -8.585  1.00  0.00     0.049 A 
ATOM     59  C   UNL     1      -4.640  12.229  -7.509  1.00  0.00     0.074 A 
ATOM     60  C   UNL     1       1.343  13.982  -8.656  1.00  0.00     0.029 A 
ATOM     61  N   UNL     1      -0.528  12.827  -8.325  1.00  0.00    -0.354 N 
ATOM     62  N   UNL     1      -3.390  12.502  -7.798  1.00  0.00    -0.248 NA
ATOM     63  C   UNL     1      -5.459  13.413  -7.213  1.00  0.00     0.031 C 
ATOM     64  C   UNL     1       0.303  14.885  -8.410  1.00  0.00     0.029 A 
ATOM     65  C   UNL     1      -0.865  14.166  -8.219  1.00  0.00     0.049 A 
ATOM     66  H   UNL     1      -1.158  12.077  -8.230  1.00  0.00     0.167 HD
ATOM     67  C   UNL     1      -3.282  13.887  -7.753  1.00  0.00     0.074 A 
ATOM     68  C   UNL     1      -4.599  14.398  -7.431  1.00  0.00     0.031 C 
ATOM     69  C   UNL     1      -2.189  14.665  -7.947  1.00  0.00     0.034 A 
BRANCH  56  70
ATOM     70  C   UNL     1       3.014  11.483  -8.939  1.00  0.00     0.023 A 
ATOM     71  C   UNL     1       3.550  11.175 -10.207  1.00  0.00     0.012 A 
ATOM     72  C   UNL     1       3.881  11.879  -7.902  1.00  0.00     0.148 A 
ATOM     73  C   UNL     1       4.926  11.223 -10.428  1.00  0.00     0.002 A 
ATOM     74  C   UNL     1       5.247  11.971  -8.143  1.00  0.00     0.091 A 
ATOM     75  F   UNL     1       3.356  12.148  -6.698  1.00  0.00    -0.205 F 
ATOM     76  C   UNL     1       5.772  11.632  -9.401  1.00  0.00     0.022 A 
BRANCH  74  77
ATOM     77  S   UNL     1       6.411  12.564  -6.911  1.00  0.00     0.127 S 
ATOM     78  O   UNL     1       7.142  11.340  -6.584  1.00  0.00    -0.237 OA
ATOM     79  O   UNL     1       7.182  13.551  -7.667  1.00  0.00    -0.237 OA
ATOM     80  O   UNL     1       5.607  13.118  -5.831  1.00  0.00    -0.744 OA
ENDBRANCH  74  77
ENDBRANCH  56  70
BRANCH  57  81
ATOM     81  C   UNL     1      -6.788  10.797  -7.162  1.00  0.00     0.023 A 
ATOM     82  C   UNL     1      -7.729  11.318  -8.072  1.00  0.00     0.012 A 
ATOM     83  C   UNL     1      -7.244  10.173  -5.985  1.00  0.00     0.148 A 
ATOM     84  C   UNL     1      -9.096  11.250  -7.800  1.00  0.00     0.002 A 
ATOM     85  C   UNL     1      -8.608  10.058  -5.747  1.00  0.00     0.091 A 
ATOM     86  F   UNL     1      -6.332   9.693  -5.128  1.00  0.00    -0.205 F 
ATOM     87  C   UNL     1      -9.536  10.612  -6.643  1.00  0.00     0.022 A 
BRANCH  85  88
ATOM     88  S   UNL     1      -9.267   9.136  -4.354  1.00  0.00     0.127 S 
ATOM     89  O   UNL     1      -9.816  10.204  -3.522  1.00  0.00    -0.237 OA
ATOM     90  O   UNL     1     -10.265   8.283  -5.001  1.00  0.00    -0.237 OA
ATOM     91  O   UNL     1      -8.135   8.413  -3.790  1.00  0.00    -0.744 OA
ENDBRANCH  85  88
ENDBRANCH  57  81
BRANCH  69  92
ATOM     92  C   UNL     1      -2.367  16.158  -7.856  1.00  0.00     0.023 A 
ATOM     93  C   UNL     1      -2.583  16.766  -6.603  1.00  0.00     0.012 A 
ATOM     94  C   UNL     1      -2.244  16.966  -9.004  1.00  0.00     0.148 A 
ATOM     95  C   UNL     1      -2.706  18.151  -6.499  1.00  0.00     0.002 A 
ATOM     96  C   UNL     1      -2.316  18.349  -8.885  1.00  0.00     0.091 A 
ATOM     97  F   UNL     1      -2.056  16.368 -10.189  1.00  0.00    -0.205 F 
ATOM     98  C   UNL     1      -2.561  18.942  -7.636  1.00  0.00     0.022 A 
BRANCH  96  99
ATOM     99  S   UNL     1      -2.043  19.451 -10.276  1.00  0.00     0.127 S 
ATOM    100  O   UNL     1      -3.389  19.972 -10.512  1.00  0.00    -0.237 OA
ATOM    101  O   UNL     1      -1.101  20.423  -9.720  1.00  0.00    -0.237 OA
ATOM    102  O   UNL     1      -1.498  18.625 -11.344  1.00  0.00    -0.744 OA
ENDBRANCH  96  99
ENDBRANCH  69  92
ENDBRANCH  43  44
ENDBRANCH  35  38
ENDBRANCH  33  34
ENDBRANCH  32  33
ENDBRANCH  31  32
ENDBRANCH   1  31
TORSDOF 20
