REMARK SMILES C[NH2+][C@]1(C(=O)NCCCCCCNC(=O)c2ccc(-c3c4nc(c(-c5cccc(S(=O)(=O)[O-])c5F)c5ccc([nH]5)c(-c5cccc(S(=O)(=O)[O-])c5F)c5nc(c(-c6cccc(S(=O)(=O)[O-])c6F)c6ccc3[nH]6)C=C5)C=C4)cc2)CCC[C@@H]([N@@H+](C)C2CCCCCC2)C1
REMARK SMILES IDX 8 1 7 2 6 3 4 4 5 5 3 7 79 8 92 9 80 10 82 11 81 12 2 13
REMARK SMILES IDX 1 14 83 17 84 18 85 20 86 21 87 22 91 24 90 25 89 26 88 27
REMARK SMILES IDX 9 29 10 30 11 31 12 32 13 33 14 34 15 36 16 37 17 38 78 39
REMARK SMILES IDX 18 40 77 41 19 42 20 43 21 44 71 45 22 46 76 47 70 48 72 49
REMARK SMILES IDX 23 50 75 51 69 52 68 53 24 55 56 56 36 57 55 58 37 59 40 60
REMARK SMILES IDX 54 61 73 62 38 63 39 64 53 66 74 67 41 68 25 69 26 70 34 71
REMARK SMILES IDX 27 72 29 73 35 74 28 75 30 76 31 77 32 78 33 79 57 80 58 81
REMARK SMILES IDX 66 82 59 83 61 84 67 85 60 86 62 87 63 88 64 89 65 90 42 91
REMARK SMILES IDX 43 92 51 93 44 94 46 95 52 96 45 97 47 98 48 99 49 100
REMARK SMILES IDX 50 101
REMARK H PARENT 6 6 2 15 2 16 83 19 13 35 72 54 40 65
REMARK Flexibility Score: 80.00
ROOT
ATOM      1  C   UNL     1       1.300  -3.406   1.654  1.00  0.00     0.021 C 
ENDROOT
BRANCH   1   2
ATOM      2  C   UNL     1       0.895  -2.016   1.178  1.00  0.00     0.116 C 
BRANCH   2   3
ATOM      3  N   UNL     1       1.102  -1.841  -0.245  1.00  0.00    -0.351 N 
ATOM      4  C   UNL     1       0.249  -1.603  -1.276  1.00  0.00     0.281 C 
ATOM      5  O   UNL     1       0.783  -1.461  -2.388  1.00  0.00    -0.268 OA
ATOM      6  H   UNL     1       2.046  -1.909  -0.520  1.00  0.00     0.163 HD
BRANCH   4   7
ATOM      7  C   UNL     1      -1.323  -1.472  -1.133  1.00  0.00     0.181 C 
ATOM      8  C   UNL     1      -1.927  -2.749  -0.526  1.00  0.00     0.079 C 
ATOM      9  C   UNL     1      -1.660  -0.279  -0.215  1.00  0.00     0.144 C 
ATOM     10  C   UNL     1      -3.425  -2.686  -0.262  1.00  0.00     0.013 C 
ATOM     11  C   UNL     1      -3.162  -0.069   0.027  1.00  0.00     0.190 C 
ATOM     12  C   UNL     1      -3.970  -1.364   0.279  1.00  0.00     0.065 C 
BRANCH   7  13
ATOM     13  N   UNL     1      -1.827  -1.087  -2.497  1.00  0.00    -0.336 N 
ATOM     14  C   UNL     1      -2.478  -2.109  -3.294  1.00  0.00     0.331 C 
ATOM     15  H   UNL     1      -2.496  -0.328  -2.370  1.00  0.00     0.346 HD
ATOM     16  H   UNL     1      -0.985  -0.850  -3.022  1.00  0.00     0.346 HD
ENDBRANCH   7  13
BRANCH  11  17
ATOM     17  N   UNL     1      -3.466   1.070   0.948  1.00  0.00    -0.332 N 
ATOM     18  C   UNL     1      -4.887   1.440   0.849  1.00  0.00     0.333 C 
ATOM     19  H   UNL     1      -2.820   1.761   0.568  1.00  0.00     0.348 HD
BRANCH  17  20
ATOM     20  C   UNL     1      -3.017   1.094   2.374  1.00  0.00     0.184 C 
BRANCH  20  21
ATOM     21  C   UNL     1      -3.475  -0.045   3.307  1.00  0.00     0.065 C 
BRANCH  21  22
ATOM     22  C   UNL     1      -2.580  -1.275   3.365  1.00  0.00     0.006 CG0
ATOM     23  G   UNL     1      -1.488  -1.172   4.420  1.00  0.00     0.000 G0
ENDBRANCH  21  22
ENDBRANCH  20  21
BRANCH  20  24
ATOM     24  C   UNL     1      -1.547   1.552   2.557  1.00  0.00     0.065 C 
BRANCH  24  25
ATOM     25  C   UNL     1      -0.940   1.316   3.946  1.00  0.00     0.006 C 
BRANCH  25  26
ATOM     26  C   UNL     1      -0.428  -0.108   4.162  1.00  0.00     0.000 C 
BRANCH  26  27
ATOM     27  C   UNL     1      -1.488  -1.172   4.420  1.00  0.00     0.000 CG0
ATOM     28  G   UNL     1      -2.580  -1.275   3.365  1.00  0.00     0.000 G0
ENDBRANCH  26  27
ENDBRANCH  25  26
ENDBRANCH  24  25
ENDBRANCH  20  24
ENDBRANCH  17  20
ENDBRANCH  11  17
ENDBRANCH   4   7
ENDBRANCH   2   3
ENDBRANCH   1   2
BRANCH   1  29
ATOM     29  C   UNL     1       2.771  -3.505   2.066  1.00  0.00     0.002 C 
BRANCH  29  30
ATOM     30  C   UNL     1       3.167  -2.638   3.269  1.00  0.00     0.002 C 
BRANCH  30  31
ATOM     31  C   UNL     1       2.364  -2.881   4.550  1.00  0.00     0.021 C 
BRANCH  31  32
ATOM     32  C   UNL     1       2.415  -4.311   5.079  1.00  0.00     0.116 C 
BRANCH  32  33
ATOM     33  N   UNL     1       3.774  -4.724   5.395  1.00  0.00    -0.352 N 
ATOM     34  C   UNL     1       4.284  -5.210   6.570  1.00  0.00     0.251 C 
ATOM     35  H   UNL     1       4.420  -4.644   4.657  1.00  0.00     0.163 HD
ATOM     36  O   UNL     1       5.505  -5.300   6.715  1.00  0.00    -0.269 OA
BRANCH  34  37
ATOM     37  C   UNL     1       3.377  -5.615   7.664  1.00  0.00     0.039 A 
ATOM     38  C   UNL     1       3.695  -5.258   8.977  1.00  0.00     0.014 A 
ATOM     39  C   UNL     1       2.225  -6.361   7.398  1.00  0.00     0.014 A 
ATOM     40  C   UNL     1       2.830  -5.606  10.017  1.00  0.00     0.010 A 
ATOM     41  C   UNL     1       1.327  -6.639   8.425  1.00  0.00     0.010 A 
ATOM     42  C   UNL     1       1.625  -6.274   9.746  1.00  0.00    -0.014 A 
BRANCH  42  43
ATOM     43  C   UNL     1       0.661  -6.594  10.830  1.00  0.00     0.031 A 
ATOM     44  C   UNL     1       0.317  -8.026  11.144  1.00  0.00     0.074 A 
ATOM     45  C   UNL     1       0.032  -5.593  11.476  1.00  0.00     0.049 A 
ATOM     46  N   UNL     1      -0.537  -8.496  12.015  1.00  0.00    -0.248 NA
ATOM     47  C   UNL     1       1.002  -9.066  10.357  1.00  0.00     0.031 C 
ATOM     48  C   UNL     1       0.219  -4.165  11.209  1.00  0.00     0.029 A 
ATOM     49  N   UNL     1      -0.913  -5.622  12.471  1.00  0.00    -0.354 N 
ATOM     50  C   UNL     1      -0.522  -9.876  11.857  1.00  0.00     0.074 A 
ATOM     51  C   UNL     1       0.402 -10.168  10.783  1.00  0.00     0.031 C 
ATOM     52  C   UNL     1      -0.581  -3.456  12.020  1.00  0.00     0.029 A 
ATOM     53  C   UNL     1      -1.362  -4.375  12.842  1.00  0.00     0.049 A 
ATOM     54  H   UNL     1      -1.238  -6.456  12.881  1.00  0.00     0.167 HD
ATOM     55  C   UNL     1      -1.196 -10.819  12.558  1.00  0.00     0.034 A 
ATOM     56  C   UNL     1      -2.304  -4.013  13.734  1.00  0.00     0.034 A 
ATOM     57  C   UNL     1      -2.083 -10.527  13.651  1.00  0.00     0.049 A 
ATOM     58  C   UNL     1      -3.009  -5.079  14.528  1.00  0.00     0.074 A 
ATOM     59  C   UNL     1      -2.739 -11.414  14.486  1.00  0.00     0.029 A 
ATOM     60  N   UNL     1      -2.450  -9.252  14.055  1.00  0.00    -0.354 N 
ATOM     61  N   UNL     1      -2.861  -6.380  14.473  1.00  0.00    -0.248 NA
ATOM     62  C   UNL     1      -3.982  -4.627  15.532  1.00  0.00     0.031 C 
ATOM     63  C   UNL     1      -3.529 -10.676  15.374  1.00  0.00     0.029 A 
ATOM     64  C   UNL     1      -3.335  -9.328  15.117  1.00  0.00     0.049 A 
ATOM     65  H   UNL     1      -2.128  -8.416  13.647  1.00  0.00     0.167 HD
ATOM     66  C   UNL     1      -3.694  -6.900  15.458  1.00  0.00     0.074 A 
ATOM     67  C   UNL     1      -4.327  -5.771  16.107  1.00  0.00     0.031 C 
ATOM     68  C   UNL     1      -3.922  -8.196  15.786  1.00  0.00     0.034 A 
BRANCH  55  69
ATOM     69  C   UNL     1      -0.969 -12.263  12.193  1.00  0.00     0.023 A 
ATOM     70  C   UNL     1       0.269 -12.872  12.484  1.00  0.00     0.012 A 
ATOM     71  C   UNL     1      -1.999 -13.035  11.619  1.00  0.00     0.148 A 
ATOM     72  C   UNL     1       0.492 -14.214  12.178  1.00  0.00     0.002 A 
ATOM     73  C   UNL     1      -1.786 -14.384  11.361  1.00  0.00     0.091 A 
ATOM     74  F   UNL     1      -3.162 -12.435  11.331  1.00  0.00    -0.205 F 
ATOM     75  C   UNL     1      -0.538 -14.972  11.627  1.00  0.00     0.022 A 
BRANCH  73  76
ATOM     76  S   UNL     1      -3.073 -15.466  10.730  1.00  0.00     0.127 S 
ATOM     77  O   UNL     1      -2.590 -15.741   9.377  1.00  0.00    -0.237 OA
ATOM     78  O   UNL     1      -2.996 -16.602  11.648  1.00  0.00    -0.237 OA
ATOM     79  O   UNL     1      -4.312 -14.705  10.806  1.00  0.00    -0.744 OA
ENDBRANCH  73  76
ENDBRANCH  55  69
BRANCH  56  80
ATOM     80  C   UNL     1      -2.594  -2.569  13.963  1.00  0.00     0.023 A 
ATOM     81  C   UNL     1      -2.217  -1.969  15.179  1.00  0.00     0.012 A 
ATOM     82  C   UNL     1      -3.213  -1.783  12.972  1.00  0.00     0.148 A 
ATOM     83  C   UNL     1      -2.480  -0.620  15.419  1.00  0.00     0.002 A 
ATOM     84  C   UNL     1      -3.420  -0.426  13.194  1.00  0.00     0.091 A 
ATOM     85  F   UNL     1      -3.572  -2.375  11.824  1.00  0.00    -0.205 F 
ATOM     86  C   UNL     1      -3.072   0.153  14.423  1.00  0.00     0.022 A 
BRANCH  84  87
ATOM     87  S   UNL     1      -4.052   0.672  11.921  1.00  0.00     0.127 S 
ATOM     88  O   UNL     1      -5.372   1.012  12.447  1.00  0.00    -0.237 OA
ATOM     89  O   UNL     1      -3.076   1.762  11.953  1.00  0.00    -0.237 OA
ATOM     90  O   UNL     1      -4.044  -0.104  10.689  1.00  0.00    -0.744 OA
ENDBRANCH  84  87
ENDBRANCH  56  80
BRANCH  68  91
ATOM     91  C   UNL     1      -4.868  -8.473  16.926  1.00  0.00     0.023 A 
ATOM     92  C   UNL     1      -6.251  -8.262  16.762  1.00  0.00     0.012 A 
ATOM     93  C   UNL     1      -4.390  -9.014  18.136  1.00  0.00     0.148 A 
ATOM     94  C   UNL     1      -7.140  -8.553  17.796  1.00  0.00     0.002 A 
ATOM     95  C   UNL     1      -5.286  -9.352  19.142  1.00  0.00     0.091 A 
ATOM     96  F   UNL     1      -3.068  -9.191  18.279  1.00  0.00    -0.205 F 
ATOM     97  C   UNL     1      -6.660  -9.109  18.980  1.00  0.00     0.022 A 
BRANCH  95  98
ATOM     98  S   UNL     1      -4.771 -10.163  20.659  1.00  0.00     0.127 S 
ATOM     99  O   UNL     1      -4.947  -9.096  21.643  1.00  0.00    -0.237 OA
ATOM    100  O   UNL     1      -5.736 -11.258  20.768  1.00  0.00    -0.237 OA
ATOM    101  O   UNL     1      -3.395 -10.589  20.441  1.00  0.00    -0.744 OA
ENDBRANCH  95  98
ENDBRANCH  68  91
ENDBRANCH  42  43
ENDBRANCH  34  37
ENDBRANCH  32  33
ENDBRANCH  31  32
ENDBRANCH  30  31
ENDBRANCH  29  30
ENDBRANCH   1  29
TORSDOF 19
