REMARK SMILES CCCCc1cc(S(F)(F)(F)(F)F)cc2c1O[C@@H](C(F)(F)F)C(C(=O)NCCCCCCNC(=O)c1ccc(-c3c4nc(c(-c5cccc(S(=O)(=O)[O-])c5F)c5ccc([nH]5)c(-c5cccc(S(=O)(=O)[O-])c5F)c5nc(c(-c6cccc(S(=O)(=O)[O-])c6F)c6ccc3[nH]6)C=C5)C=C4)cc1)=C2
REMARK SMILES IDX 29 1 28 2 27 3 26 4 24 5 25 6 23 8 5 9 6 10 16 11 7 12 15 13
REMARK SMILES IDX 17 14 14 15 99 16 18 17 4 18 3 19 2 20 1 21 8 22 9 23 10 24
REMARK SMILES IDX 11 25 12 26 13 27 19 28 20 29 21 30 22 31 30 32 31 33 32 34
REMARK SMILES IDX 33 35 34 36 35 38 36 39 37 40 98 41 38 42 97 43 39 44 40 45
REMARK SMILES IDX 41 46 91 47 42 48 96 49 90 50 92 51 43 52 95 53 89 54 88 55
REMARK SMILES IDX 44 57 76 58 56 59 75 60 57 61 60 62 74 63 93 64 58 65 59 66
REMARK SMILES IDX 73 68 94 69 61 70 45 71 46 72 54 73 47 74 49 75 55 76 48 77
REMARK SMILES IDX 50 78 51 79 52 80 53 81 77 82 78 83 86 84 79 85 81 86 87 87
REMARK SMILES IDX 80 88 82 89 83 90 84 91 85 92 62 93 63 94 71 95 64 96 66 97
REMARK SMILES IDX 72 98 65 99 67 100 68 101 69 102 70 103
REMARK H PARENT 26 7 33 37 92 56 60 67
REMARK Flexibility Score: inf
ROOT
ATOM      1  C   UNL     1      -8.056  -2.086   0.088  1.00  0.00     0.002 C 
ENDROOT
BRANCH   1   2
ATOM      2  C   UNL     1      -7.143  -0.889  -0.122  1.00  0.00     0.021 C 
BRANCH   2   3
ATOM      3  C   UNL     1      -6.013  -0.928   0.894  1.00  0.00     0.116 C 
BRANCH   3   4
ATOM      4  N   UNL     1      -5.243  -2.168   0.723  1.00  0.00    -0.352 N 
ATOM      5  C   UNL     1      -3.811  -2.104   0.397  1.00  0.00     0.251 C 
ATOM      6  O   UNL     1      -3.145  -3.176   0.249  1.00  0.00    -0.270 OA
ATOM      7  H   UNL     1      -5.686  -3.041   0.826  1.00  0.00     0.163 HD
BRANCH   5   8
ATOM      8  C   UNL     1      -3.127  -0.756   0.238  1.00  0.00     0.067 C 
ATOM      9  C   UNL     1      -1.078   2.884   0.279  1.00  0.00    -0.004 A 
ATOM     10  C   UNL     1      -1.783   4.073   0.239  1.00  0.00     0.032 A 
ATOM     11  C   UNL     1      -1.778   1.703   0.318  1.00  0.00     0.131 A 
ATOM     12  C   UNL     1      -3.153   4.080   0.243  1.00  0.00     0.108 A 
ATOM     13  C   UNL     1      -3.161   1.671   0.305  1.00  0.00     0.019 A 
ATOM     14  O   UNL     1      -1.068   0.537   0.471  1.00  0.00    -0.475 OA
ATOM     15  C   UNL     1      -3.839   2.884   0.270  1.00  0.00     0.036 A 
ATOM     16  C   UNL     1      -3.809   0.372   0.389  1.00  0.00     0.025 C 
ATOM     17  C   UNL     1      -1.644  -0.671  -0.099  1.00  0.00     0.314 C 
BRANCH   9  18
ATOM     18  C   UNL     1       0.442   2.884   0.279  1.00  0.00     0.039 C 
BRANCH  18  19
ATOM     19  C   UNL     1       0.949   2.019   1.421  1.00  0.00     0.005 C 
BRANCH  19  20
ATOM     20  C   UNL     1       0.442   0.597   1.244  1.00  0.00    -0.003 C 
ATOM     21  C   UNL     1       0.949   0.040  -0.076  1.00  0.00     0.004 C 
ENDBRANCH  19  20
ENDBRANCH  18  19
ENDBRANCH   9  18
BRANCH  12  22
ATOM     22  S   UNL     1      -4.057   5.648   0.215  1.00  0.00     0.310 S 
ATOM     23  F   UNL     1      -4.209   5.660   1.794  1.00  0.00    -0.094 F 
ATOM     24  F   UNL     1      -5.406   4.836   0.160  1.00  0.00    -0.094 F 
ATOM     25  F   UNL     1      -4.834   6.995   0.192  1.00  0.00    -0.094 F 
ATOM     26  F   UNL     1      -2.705   6.441   0.412  1.00  0.00    -0.094 F 
ATOM     27  F   UNL     1      -3.263   4.289   0.354  1.00  0.00    -0.094 F 
ENDBRANCH  12  22
BRANCH  17  28
ATOM     28  C   UNL     1      -0.933  -1.882   0.482  1.00  0.00     0.429 C 
ATOM     29  F   UNL     1      -1.451  -2.992  -0.037  1.00  0.00    -0.167 F 
ATOM     30  F   UNL     1       0.363  -1.819   0.189  1.00  0.00    -0.167 F 
ATOM     31  F   UNL     1      -1.089  -1.896   1.803  1.00  0.00    -0.167 F 
ENDBRANCH  17  28
ENDBRANCH   5   8
ENDBRANCH   3   4
ENDBRANCH   2   3
ENDBRANCH   1   2
BRANCH   1  32
ATOM     32  C   UNL     1      -8.636  -2.039   1.493  1.00  0.00     0.002 C 
BRANCH  32  33
ATOM     33  C   UNL     1      -9.433  -0.757   1.670  1.00  0.00     0.021 C 
BRANCH  33  34
ATOM     34  C   UNL     1     -10.562  -0.718   0.653  1.00  0.00     0.116 C 
BRANCH  34  35
ATOM     35  N   UNL     1     -11.445  -1.876   0.857  1.00  0.00    -0.352 N 
ATOM     36  C   UNL     1     -12.865  -1.670   1.179  1.00  0.00     0.251 C 
ATOM     37  H   UNL     1     -11.086  -2.789   0.779  1.00  0.00     0.163 HD
ATOM     38  O   UNL     1     -13.628  -2.671   1.355  1.00  0.00    -0.269 OA
BRANCH  36  39
ATOM     39  C   UNL     1     -13.420  -0.260   1.301  1.00  0.00     0.039 A 
ATOM     40  C   UNL     1     -14.248   0.062   2.363  1.00  0.00     0.014 A 
ATOM     41  C   UNL     1     -13.095   0.642   0.383  1.00  0.00     0.014 A 
ATOM     42  C   UNL     1     -14.921   1.297   2.212  1.00  0.00     0.010 A 
ATOM     43  C   UNL     1     -13.693   1.879   0.375  1.00  0.00     0.010 A 
ATOM     44  C   UNL     1     -14.567   2.244   1.361  1.00  0.00    -0.014 A 
BRANCH  44  45
ATOM     45  C   UNL     1     -15.101   3.662   1.474  1.00  0.00     0.031 A 
ATOM     46  C   UNL     1     -15.825   4.186   0.401  1.00  0.00     0.074 A 
ATOM     47  C   UNL     1     -14.839   4.356   2.642  1.00  0.00     0.049 A 
ATOM     48  N   UNL     1     -16.403   5.385   0.317  1.00  0.00    -0.248 NA
ATOM     49  C   UNL     1     -16.076   3.463  -0.855  1.00  0.00     0.031 C 
ATOM     50  C   UNL     1     -14.117   3.832   3.732  1.00  0.00     0.029 A 
ATOM     51  N   UNL     1     -15.213   5.643   2.963  1.00  0.00    -0.354 N 
ATOM     52  C   UNL     1     -17.022   5.518  -0.858  1.00  0.00     0.074 A 
ATOM     53  C   UNL     1     -16.815   4.285  -1.631  1.00  0.00     0.031 C 
ATOM     54  C   UNL     1     -14.046   4.792   4.692  1.00  0.00     0.029 A 
ATOM     55  C   UNL     1     -14.723   5.932   4.218  1.00  0.00     0.049 A 
ATOM     56  H   UNL     1     -15.738   6.250   2.395  1.00  0.00     0.167 HD
ATOM     57  C   UNL     1     -17.752   6.616  -1.314  1.00  0.00     0.034 A 
ATOM     58  C   UNL     1     -14.848   7.118   4.925  1.00  0.00     0.034 A 
ATOM     59  C   UNL     1     -17.913   7.786  -0.589  1.00  0.00     0.049 A 
ATOM     60  C   UNL     1     -15.529   8.239   4.444  1.00  0.00     0.074 A 
ATOM     61  C   UNL     1     -18.652   8.900  -1.031  1.00  0.00     0.029 A 
ATOM     62  N   UNL     1     -17.403   8.085   0.655  1.00  0.00    -0.354 N 
ATOM     63  N   UNL     1     -16.180   8.357   3.286  1.00  0.00    -0.248 NA
ATOM     64  C   UNL     1     -15.640   9.511   5.170  1.00  0.00     0.031 C 
ATOM     65  C   UNL     1     -18.581   9.861  -0.071  1.00  0.00     0.029 A 
ATOM     66  C   UNL     1     -17.796   9.363   0.986  1.00  0.00     0.049 A 
ATOM     67  H   UNL     1     -16.853   7.487   1.212  1.00  0.00     0.167 HD
ATOM     68  C   UNL     1     -16.723   9.572   3.186  1.00  0.00     0.074 A 
ATOM     69  C   UNL     1     -16.377  10.334   4.393  1.00  0.00     0.031 C 
ATOM     70  C   UNL     1     -17.496  10.074   2.138  1.00  0.00     0.034 A 
BRANCH  57  71
ATOM     71  C   UNL     1     -18.406   6.525  -2.683  1.00  0.00     0.023 A 
ATOM     72  C   UNL     1     -19.347   5.537  -2.922  1.00  0.00     0.012 A 
ATOM     73  C   UNL     1     -18.068   7.396  -3.626  1.00  0.00     0.148 A 
ATOM     74  C   UNL     1     -19.668   5.370  -4.290  1.00  0.00     0.002 A 
ATOM     75  C   UNL     1     -18.528   7.249  -4.912  1.00  0.00     0.091 A 
ATOM     76  F   UNL     1     -17.277   8.421  -3.323  1.00  0.00    -0.205 F 
ATOM     77  C   UNL     1     -19.414   6.258  -5.233  1.00  0.00     0.022 A 
BRANCH  75  78
ATOM     78  S   UNL     1     -17.952   8.381  -6.201  1.00  0.00     0.127 S 
ATOM     79  O   UNL     1     -17.246   7.586  -7.301  1.00  0.00    -0.237 OA
ATOM     80  O   UNL     1     -19.148   9.126  -6.798  1.00  0.00    -0.237 OA
ATOM     81  O   UNL     1     -16.859   9.509  -5.523  1.00  0.00    -0.744 OA
ENDBRANCH  75  78
ENDBRANCH  57  71
BRANCH  58  82
ATOM     82  C   UNL     1     -14.208   7.203   6.301  1.00  0.00     0.023 A 
ATOM     83  C   UNL     1     -15.002   7.461   7.405  1.00  0.00     0.012 A 
ATOM     84  C   UNL     1     -12.896   7.032   6.420  1.00  0.00     0.148 A 
ATOM     85  C   UNL     1     -14.273   7.810   8.567  1.00  0.00     0.002 A 
ATOM     86  C   UNL     1     -12.268   7.259   7.621  1.00  0.00     0.091 A 
ATOM     87  F   UNL     1     -12.184   6.638   5.368  1.00  0.00    -0.205 F 
ATOM     88  C   UNL     1     -12.985   7.577   8.741  1.00  0.00     0.022 A 
BRANCH  86  89
ATOM     89  S   UNL     1     -10.465   7.137   7.721  1.00  0.00     0.127 S 
ATOM     90  O   UNL     1      -9.887   8.481   8.170  1.00  0.00    -0.237 OA
ATOM     91  O   UNL     1     -10.083   6.054   8.732  1.00  0.00    -0.237 OA
ATOM     92  O   UNL     1      -9.835   6.730   6.184  1.00  0.00    -0.744 OA
ENDBRANCH  86  89
ENDBRANCH  58  82
BRANCH  70  93
ATOM     93  C   UNL     1     -18.043  11.486   2.267  1.00  0.00     0.023 A 
ATOM     94  C   UNL     1     -17.167  12.550   2.406  1.00  0.00     0.012 A 
ATOM     95  C   UNL     1     -19.357  11.675   2.241  1.00  0.00     0.148 A 
ATOM     96  C   UNL     1     -17.790  13.757   2.803  1.00  0.00     0.002 A 
ATOM     97  C   UNL     1     -19.892  12.913   2.505  1.00  0.00     0.091 A 
ATOM     98  F   UNL     1     -20.164  10.656   1.956  1.00  0.00    -0.205 F 
ATOM     99  C   UNL     1     -19.085  13.998   2.710  1.00  0.00     0.022 A 
BRANCH  97 100
ATOM    100  S   UNL     1     -21.689  13.111   2.582  1.00  0.00     0.127 S 
ATOM    101  O   UNL     1     -22.087  13.619   3.969  1.00  0.00    -0.237 OA
ATOM    102  O   UNL     1     -22.137  14.119   1.521  1.00  0.00    -0.237 OA
ATOM    103  O   UNL     1     -22.442  11.603   2.289  1.00  0.00    -0.744 OA
ENDBRANCH  97 100
ENDBRANCH  70  93
ENDBRANCH  44  45
ENDBRANCH  36  39
ENDBRANCH  34  35
ENDBRANCH  33  34
ENDBRANCH  32  33
ENDBRANCH   1  32
TORSDOF 21
