REMARK SMILES N#Cc1ccn2cc(C(=O)NCCCCCCNC(=O)c3ccc(-c4c5nc(c(-c6cccc(S(=O)(=O)[O-])c6F)c6ccc([nH]6)c(-c6cccc(S(=O)(=O)[O-])c6F)c6nc(c(-c7cccc(S(=O)(=O)[O-])c7F)c7ccc4[nH]7)C=C6)C=C5)cc3)nc2c1
REMARK SMILES IDX 15 1 14 2 13 3 12 4 11 5 9 6 10 7 8 9 3 10 4 11 86 12 5 13
REMARK SMILES IDX 85 14 6 15 84 16 7 17 2 18 1 19 16 20 17 21 18 22 19 23
REMARK SMILES IDX 20 25 21 26 22 27 83 28 23 29 82 30 24 31 25 32 26 33 76 34
REMARK SMILES IDX 27 35 81 36 75 37 77 38 28 39 80 40 74 41 73 42 29 44 61 45
REMARK SMILES IDX 41 46 60 47 42 48 45 49 59 50 78 51 43 52 44 53 58 55 79 56
REMARK SMILES IDX 46 57 30 58 31 59 39 60 32 61 34 62 40 63 33 64 35 65 36 66
REMARK SMILES IDX 37 67 38 68 62 69 63 70 71 71 64 72 66 73 72 74 65 75 67 76
REMARK SMILES IDX 68 77 69 78 70 79 47 80 48 81 56 82 49 83 51 84 57 85 50 86
REMARK SMILES IDX 52 87 53 88 54 89 55 90
REMARK H PARENT 11 8 18 24 77 43 45 54
REMARK Flexibility Score: inf
ROOT
ATOM      1  C   UNL     1       9.374   7.639   0.156  1.00  0.00     0.002 C 
ENDROOT
BRANCH   1   2
ATOM      2  C   UNL     1       9.451   6.564   1.247  1.00  0.00     0.002 C 
BRANCH   2   3
ATOM      3  C   UNL     1       8.306   5.546   1.232  1.00  0.00     0.021 C 
BRANCH   3   4
ATOM      4  C   UNL     1       8.255   4.705  -0.042  1.00  0.00     0.116 C 
BRANCH   4   5
ATOM      5  N   UNL     1       9.322   3.716  -0.059  1.00  0.00    -0.351 N 
ATOM      6  C   UNL     1       9.286   2.348   0.019  1.00  0.00     0.271 C 
ATOM      7  O   UNL     1      10.366   1.740   0.011  1.00  0.00    -0.267 OA
ATOM      8  H   UNL     1      10.227   4.095  -0.139  1.00  0.00     0.163 HD
BRANCH   6   9
ATOM      9  C   UNL     1       8.015   1.623   0.087  1.00  0.00     0.147 A 
ATOM     10  C   UNL     1       3.811   0.062   0.073  1.00  0.00     0.057 A 
ATOM     11  C   UNL     1       4.512  -1.222   0.048  1.00  0.00     0.038 A 
ATOM     12  C   UNL     1       4.479   1.230   0.114  1.00  0.00     0.067 A 
ATOM     13  C   UNL     1       5.858  -1.229   0.050  1.00  0.00     0.094 A 
ATOM     14  C   UNL     1       5.899   1.217   0.123  1.00  0.00     0.138 A 
ATOM     15  N   UNL     1       6.538  -0.014   0.082  1.00  0.00    -0.306 N 
ATOM     16  N   UNL     1       6.762   2.201   0.160  1.00  0.00    -0.223 NA
ATOM     17  C   UNL     1       7.882   0.243   0.070  1.00  0.00     0.127 A 
BRANCH  10  18
ATOM     18  C   UNL     1       2.291   0.062   0.073  1.00  0.00     0.099 C 
ATOM     19  N   UNL     1       1.030   0.062   0.073  1.00  0.00    -0.192 NA
ENDBRANCH  10  18
ENDBRANCH   6   9
ENDBRANCH   4   5
ENDBRANCH   3   4
ENDBRANCH   2   3
ENDBRANCH   1   2
BRANCH   1  20
ATOM     20  C   UNL     1       8.072   8.450   0.122  1.00  0.00     0.021 C 
BRANCH  20  21
ATOM     21  C   UNL     1       7.702   9.112   1.452  1.00  0.00     0.116 C 
BRANCH  21  22
ATOM     22  N   UNL     1       8.746   9.970   1.972  1.00  0.00    -0.352 N 
ATOM     23  C   UNL     1       9.087  11.284   1.805  1.00  0.00     0.251 C 
ATOM     24  H   UNL     1       9.351   9.499   2.589  1.00  0.00     0.163 HD
ATOM     25  O   UNL     1      10.026  11.684   2.499  1.00  0.00    -0.269 OA
BRANCH  23  26
ATOM     26  C   UNL     1       8.448  12.225   0.842  1.00  0.00     0.039 A 
ATOM     27  C   UNL     1       7.425  11.899  -0.048  1.00  0.00     0.014 A 
ATOM     28  C   UNL     1       8.979  13.529   0.796  1.00  0.00     0.014 A 
ATOM     29  C   UNL     1       7.006  12.813  -1.009  1.00  0.00     0.010 A 
ATOM     30  C   UNL     1       8.549  14.455  -0.154  1.00  0.00     0.010 A 
ATOM     31  C   UNL     1       7.594  14.076  -1.091  1.00  0.00    -0.014 A 
BRANCH  31  32
ATOM     32  C   UNL     1       7.172  14.926  -2.200  1.00  0.00     0.031 A 
ATOM     33  C   UNL     1       5.719  15.241  -2.297  1.00  0.00     0.074 A 
ATOM     34  C   UNL     1       8.012  15.426  -3.127  1.00  0.00     0.049 A 
ATOM     35  N   UNL     1       4.863  14.798  -3.164  1.00  0.00    -0.248 NA
ATOM     36  C   UNL     1       5.141  16.107  -1.263  1.00  0.00     0.031 C 
ATOM     37  C   UNL     1       9.474  15.499  -3.101  1.00  0.00     0.029 A 
ATOM     38  N   UNL     1       7.687  16.080  -4.278  1.00  0.00    -0.354 N 
ATOM     39  C   UNL     1       3.674  15.477  -2.904  1.00  0.00     0.074 A 
ATOM     40  C   UNL     1       3.870  16.183  -1.660  1.00  0.00     0.031 C 
ATOM     41  C   UNL     1       9.887  16.366  -4.053  1.00  0.00     0.029 A 
ATOM     42  C   UNL     1       8.742  16.774  -4.847  1.00  0.00     0.049 A 
ATOM     43  H   UNL     1       6.784  16.061  -4.670  1.00  0.00     0.167 HD
ATOM     44  C   UNL     1       2.656  15.566  -3.804  1.00  0.00     0.034 A 
ATOM     45  C   UNL     1       8.646  17.675  -5.851  1.00  0.00     0.034 A 
ATOM     46  C   UNL     1       2.785  14.650  -4.899  1.00  0.00     0.049 A 
ATOM     47  C   UNL     1       7.395  17.380  -6.590  1.00  0.00     0.074 A 
ATOM     48  C   UNL     1       2.852  13.279  -5.039  1.00  0.00     0.029 A 
ATOM     49  N   UNL     1       3.183  15.165  -6.108  1.00  0.00    -0.354 N 
ATOM     50  N   UNL     1       7.198  16.303  -7.298  1.00  0.00    -0.248 NA
ATOM     51  C   UNL     1       6.203  18.148  -6.272  1.00  0.00     0.031 C 
ATOM     52  C   UNL     1       3.744  13.064  -6.131  1.00  0.00     0.029 A 
ATOM     53  C   UNL     1       4.148  14.320  -6.588  1.00  0.00     0.049 A 
ATOM     54  H   UNL     1       2.842  15.979  -6.544  1.00  0.00     0.167 HD
ATOM     55  C   UNL     1       5.842  16.039  -7.169  1.00  0.00     0.074 A 
ATOM     56  C   UNL     1       5.267  17.267  -6.631  1.00  0.00     0.031 C 
ATOM     57  C   UNL     1       5.355  14.766  -7.248  1.00  0.00     0.034 A 
BRANCH  44  58
ATOM     58  C   UNL     1       1.665  16.695  -3.847  1.00  0.00     0.023 A 
ATOM     59  C   UNL     1       0.433  16.492  -4.504  1.00  0.00     0.012 A 
ATOM     60  C   UNL     1       2.000  18.017  -3.485  1.00  0.00     0.148 A 
ATOM     61  C   UNL     1      -0.429  17.560  -4.781  1.00  0.00     0.002 A 
ATOM     62  C   UNL     1       1.108  19.062  -3.695  1.00  0.00     0.091 A 
ATOM     63  F   UNL     1       3.238  18.287  -3.049  1.00  0.00    -0.205 F 
ATOM     64  C   UNL     1      -0.100  18.843  -4.360  1.00  0.00     0.022 A 
BRANCH  62  65
ATOM     65  S   UNL     1       1.476  20.717  -3.106  1.00  0.00     0.127 S 
ATOM     66  O   UNL     1       2.005  21.346  -4.316  1.00  0.00    -0.237 OA
ATOM     67  O   UNL     1       0.155  21.195  -2.689  1.00  0.00    -0.237 OA
ATOM     68  O   UNL     1       2.409  20.521  -2.010  1.00  0.00    -0.744 OA
ENDBRANCH  62  65
ENDBRANCH  44  58
BRANCH  45  69
ATOM     69  C   UNL     1       9.401  18.932  -6.062  1.00  0.00     0.023 A 
ATOM     70  C   UNL     1       9.329  19.569  -7.317  1.00  0.00     0.012 A 
ATOM     71  C   UNL     1       9.938  19.660  -4.976  1.00  0.00     0.148 A 
ATOM     72  C   UNL     1       9.722  20.903  -7.474  1.00  0.00     0.002 A 
ATOM     73  C   UNL     1      10.341  20.982  -5.141  1.00  0.00     0.091 A 
ATOM     74  F   UNL     1       9.958  19.099  -3.760  1.00  0.00    -0.205 F 
ATOM     75  C   UNL     1      10.219  21.613  -6.385  1.00  0.00     0.022 A 
BRANCH  73  76
ATOM     76  S   UNL     1      10.991  21.949  -3.771  1.00  0.00     0.127 S 
ATOM     77  O   UNL     1      12.067  22.708  -4.410  1.00  0.00    -0.237 OA
ATOM     78  O   UNL     1       9.831  22.744  -3.381  1.00  0.00    -0.237 OA
ATOM     79  O   UNL     1      11.456  20.974  -2.793  1.00  0.00    -0.744 OA
ENDBRANCH  73  76
ENDBRANCH  45  69
BRANCH  57  80
ATOM     80  C   UNL     1       6.269  13.681  -7.753  1.00  0.00     0.023 A 
ATOM     81  C   UNL     1       7.412  13.287  -7.027  1.00  0.00     0.012 A 
ATOM     82  C   UNL     1       5.866  12.916  -8.861  1.00  0.00     0.148 A 
ATOM     83  C   UNL     1       8.148  12.162  -7.409  1.00  0.00     0.002 A 
ATOM     84  C   UNL     1       6.578  11.776  -9.215  1.00  0.00     0.091 A 
ATOM     85  F   UNL     1       4.765  13.297  -9.528  1.00  0.00    -0.205 F 
ATOM     86  C   UNL     1       7.724  11.399  -8.495  1.00  0.00     0.022 A 
BRANCH  84  87
ATOM     87  S   UNL     1       6.027  10.676 -10.523  1.00  0.00     0.127 S 
ATOM     88  O   UNL     1       7.028  10.909 -11.562  1.00  0.00    -0.237 OA
ATOM     89  O   UNL     1       6.107   9.363  -9.881  1.00  0.00    -0.237 OA
ATOM     90  O   UNL     1       4.671  11.094 -10.858  1.00  0.00    -0.744 OA
ENDBRANCH  84  87
ENDBRANCH  57  80
ENDBRANCH  31  32
ENDBRANCH  23  26
ENDBRANCH  21  22
ENDBRANCH  20  21
ENDBRANCH   1  20
TORSDOF 17
