REMARK SMILES Cc1noc(C)c1[C@@H](C)NC(=O)N(CC(=O)NCCCCCCNC(=O)c1ccc(-c2c3nc(c(-c4cccc(S(=O)(=O)[O-])c4F)c4ccc([nH]4)c(-c4cccc(S(=O)(=O)[O-])c4F)c4nc(c(-c5cccc(S(=O)(=O)[O-])c5F)c5ccc2[nH]5)C=C4)C=C3)cc1)C(C)C
REMARK SMILES IDX 20 1 19 2 18 3 17 4 15 5 16 6 14 8 13 9 11 10 10 11 12 13
REMARK SMILES IDX 8 14 9 15 7 16 1 17 2 18 3 19 4 20 5 21 6 22 90 23 91 24
REMARK SMILES IDX 92 25 21 26 22 27 23 28 24 29 25 30 26 32 27 33 28 34 89 35
REMARK SMILES IDX 29 36 88 37 30 38 31 39 32 40 82 41 33 42 87 43 81 44 83 45
REMARK SMILES IDX 34 46 86 47 80 48 79 49 35 51 67 52 47 53 66 54 48 55 51 56
REMARK SMILES IDX 65 57 84 58 49 59 50 60 64 62 85 63 52 64 36 65 37 66 45 67
REMARK SMILES IDX 38 68 40 69 46 70 39 71 41 72 42 73 43 74 44 75 68 76 69 77
REMARK SMILES IDX 77 78 70 79 72 80 78 81 71 82 73 83 74 84 75 85 76 86 53 87
REMARK SMILES IDX 54 88 62 89 55 90 57 91 63 92 56 93 58 94 59 95 60 96 61 97
REMARK H PARENT 17 7 10 12 24 31 83 50 51 61
REMARK Flexibility Score: inf
ROOT
ATOM      1  C   UNL     1      -0.039   8.499  -0.714  1.00  0.00     0.002 C 
ENDROOT
BRANCH   1   2
ATOM      2  C   UNL     1      -0.136   7.276   0.195  1.00  0.00     0.021 C 
BRANCH   2   3
ATOM      3  C   UNL     1       0.474   6.016  -0.403  1.00  0.00     0.116 C 
BRANCH   3   4
ATOM      4  N   UNL     1       1.916   6.055  -0.482  1.00  0.00    -0.355 N 
ATOM      5  C   UNL     1       2.857   5.211   0.021  1.00  0.00     0.239 C 
ATOM      6  O   UNL     1       4.013   5.364  -0.394  1.00  0.00    -0.273 OA
ATOM      7  H   UNL     1       2.279   6.820  -0.984  1.00  0.00     0.163 HD
BRANCH   5   8
ATOM      8  C   UNL     1       2.528   4.000   0.914  1.00  0.00     0.221 C 
BRANCH   8   9
ATOM      9  N   UNL     1       1.576   4.171   2.010  1.00  0.00    -0.313 N 
BRANCH   9  10
ATOM     10  C   UNL     1       0.297   3.691   2.104  1.00  0.00     0.318 C 
ATOM     11  N   UNL     1      -0.336   2.957   1.174  1.00  0.00    -0.331 N 
ATOM     12  H   UNL     1      -1.233   2.717   1.504  1.00  0.00     0.165 HD
ATOM     13  O   UNL     1      -0.406   3.935   3.091  1.00  0.00    -0.249 OA
BRANCH  11  14
ATOM     14  C   UNL     1      -0.146   2.393  -0.162  1.00  0.00     0.116 C 
ATOM     15  C   UNL     1      -1.224   2.884  -1.134  1.00  0.00     0.036 C 
BRANCH  14  16
ATOM     16  C   UNL     1      -0.106   0.902  -0.028  1.00  0.00     0.040 A 
ATOM     17  C   UNL     1      -2.645   0.185   0.093  1.00  0.00     0.071 C 
ATOM     18  C   UNL     1      -1.178  -0.042   0.076  1.00  0.00     0.086 A 
ATOM     19  N   UNL     1      -0.718  -1.296   0.162  1.00  0.00    -0.085 NA
ATOM     20  O   UNL     1       0.653  -1.202   0.137  1.00  0.00    -0.361 OA
ATOM     21  C   UNL     1       1.019   0.099   0.027  1.00  0.00     0.139 A 
ATOM     22  C   UNL     1       2.471   0.350   0.000  1.00  0.00     0.091 C 
ENDBRANCH  14  16
ENDBRANCH  11  14
ENDBRANCH   9  10
BRANCH   9  23
ATOM     23  C   UNL     1       2.138   4.944   3.156  1.00  0.00     0.081 C 
ATOM     24  C   UNL     1       1.534   6.337   3.319  1.00  0.00     0.031 C 
ATOM     25  C   UNL     1       2.136   4.174   4.480  1.00  0.00     0.031 C 
ENDBRANCH   9  23
ENDBRANCH   8   9
ENDBRANCH   5   8
ENDBRANCH   3   4
ENDBRANCH   2   3
ENDBRANCH   1   2
BRANCH   1  26
ATOM     26  C   UNL     1      -0.824   8.376  -2.022  1.00  0.00     0.002 C 
BRANCH  26  27
ATOM     27  C   UNL     1      -2.315   8.070  -1.853  1.00  0.00     0.021 C 
BRANCH  27  28
ATOM     28  C   UNL     1      -3.064   9.044  -0.948  1.00  0.00     0.116 C 
BRANCH  28  29
ATOM     29  N   UNL     1      -2.977  10.411  -1.439  1.00  0.00    -0.352 N 
ATOM     30  C   UNL     1      -3.989  11.293  -1.724  1.00  0.00     0.251 C 
ATOM     31  H   UNL     1      -2.065  10.750  -1.589  1.00  0.00     0.163 HD
ATOM     32  O   UNL     1      -3.751  12.326  -2.338  1.00  0.00    -0.269 OA
BRANCH  30  33
ATOM     33  C   UNL     1      -5.367  10.979  -1.292  1.00  0.00     0.039 A 
ATOM     34  C   UNL     1      -6.418  11.163  -2.192  1.00  0.00     0.014 A 
ATOM     35  C   UNL     1      -5.616  10.505  -0.001  1.00  0.00     0.014 A 
ATOM     36  C   UNL     1      -7.717  10.823  -1.812  1.00  0.00     0.010 A 
ATOM     37  C   UNL     1      -6.898  10.093   0.348  1.00  0.00     0.010 A 
ATOM     38  C   UNL     1      -7.964  10.259  -0.548  1.00  0.00    -0.014 A 
BRANCH  38  39
ATOM     39  C   UNL     1      -9.330   9.836  -0.150  1.00  0.00     0.031 A 
ATOM     40  C   UNL     1     -10.015  10.487   1.021  1.00  0.00     0.074 A 
ATOM     41  C   UNL     1      -9.923   8.812  -0.796  1.00  0.00     0.049 A 
ATOM     42  N   UNL     1     -11.184  10.222   1.542  1.00  0.00    -0.248 NA
ATOM     43  C   UNL     1      -9.280  11.559   1.714  1.00  0.00     0.031 C 
ATOM     44  C   UNL     1      -9.330   8.049  -1.897  1.00  0.00     0.029 A 
ATOM     45  N   UNL     1     -11.146   8.219  -0.604  1.00  0.00    -0.354 N 
ATOM     46  C   UNL     1     -11.311  11.065   2.640  1.00  0.00     0.074 A 
ATOM     47  C   UNL     1     -10.084  11.825   2.732  1.00  0.00     0.031 C 
ATOM     48  C   UNL     1     -10.190   7.095  -2.285  1.00  0.00     0.029 A 
ATOM     49  C   UNL     1     -11.380   7.154  -1.442  1.00  0.00     0.049 A 
ATOM     50  H   UNL     1     -11.794   8.527   0.070  1.00  0.00     0.167 HD
ATOM     51  C   UNL     1     -12.364  11.214   3.479  1.00  0.00     0.034 A 
ATOM     52  C   UNL     1     -12.428   6.311  -1.515  1.00  0.00     0.034 A 
ATOM     53  C   UNL     1     -13.594  10.479   3.363  1.00  0.00     0.049 A 
ATOM     54  C   UNL     1     -13.597   6.517  -0.589  1.00  0.00     0.074 A 
ATOM     55  C   UNL     1     -14.751  10.617   4.110  1.00  0.00     0.029 A 
ATOM     56  N   UNL     1     -13.825   9.460   2.452  1.00  0.00    -0.354 N 
ATOM     57  N   UNL     1     -13.762   7.425   0.342  1.00  0.00    -0.248 NA
ATOM     58  C   UNL     1     -14.740   5.607  -0.750  1.00  0.00     0.031 C 
ATOM     59  C   UNL     1     -15.669   9.656   3.674  1.00  0.00     0.029 A 
ATOM     60  C   UNL     1     -15.100   8.949   2.627  1.00  0.00     0.049 A 
ATOM     61  H   UNL     1     -13.178   9.145   1.781  1.00  0.00     0.167 HD
ATOM     62  C   UNL     1     -15.039   7.221   0.852  1.00  0.00     0.074 A 
ATOM     63  C   UNL     1     -15.612   6.116   0.111  1.00  0.00     0.031 C 
ATOM     64  C   UNL     1     -15.676   7.881   1.850  1.00  0.00     0.034 A 
BRANCH  51  65
ATOM     65  C   UNL     1     -12.246  12.242   4.575  1.00  0.00     0.023 A 
ATOM     66  C   UNL     1     -12.243  13.614   4.250  1.00  0.00     0.012 A 
ATOM     67  C   UNL     1     -12.198  11.854   5.929  1.00  0.00     0.148 A 
ATOM     68  C   UNL     1     -12.154  14.582   5.249  1.00  0.00     0.002 A 
ATOM     69  C   UNL     1     -12.160  12.826   6.922  1.00  0.00     0.091 A 
ATOM     70  F   UNL     1     -12.184  10.546   6.219  1.00  0.00    -0.205 F 
ATOM     71  C   UNL     1     -12.124  14.189   6.583  1.00  0.00     0.022 A 
BRANCH  69  72
ATOM     72  S   UNL     1     -12.204  12.427   8.672  1.00  0.00     0.127 S 
ATOM     73  O   UNL     1     -10.855  12.804   9.094  1.00  0.00    -0.237 OA
ATOM     74  O   UNL     1     -13.264  13.309   9.161  1.00  0.00    -0.237 OA
ATOM     75  O   UNL     1     -12.508  11.005   8.754  1.00  0.00    -0.744 OA
ENDBRANCH  69  72
ENDBRANCH  51  65
BRANCH  52  76
ATOM     76  C   UNL     1     -12.443   5.227  -2.537  1.00  0.00     0.023 A 
ATOM     77  C   UNL     1     -13.348   5.299  -3.614  1.00  0.00     0.012 A 
ATOM     78  C   UNL     1     -11.552   4.139  -2.461  1.00  0.00     0.148 A 
ATOM     79  C   UNL     1     -13.391   4.288  -4.576  1.00  0.00     0.002 A 
ATOM     80  C   UNL     1     -11.560   3.167  -3.454  1.00  0.00     0.091 A 
ATOM     81  F   UNL     1     -10.704   4.085  -1.424  1.00  0.00    -0.205 F 
ATOM     82  C   UNL     1     -12.492   3.228  -4.501  1.00  0.00     0.022 A 
BRANCH  80  83
ATOM     83  S   UNL     1     -10.350   1.841  -3.512  1.00  0.00     0.127 S 
ATOM     84  O   UNL     1     -11.173   0.671  -3.218  1.00  0.00    -0.237 OA
ATOM     85  O   UNL     1      -9.873   1.929  -4.892  1.00  0.00    -0.237 OA
ATOM     86  O   UNL     1      -9.347   2.176  -2.510  1.00  0.00    -0.744 OA
ENDBRANCH  80  83
ENDBRANCH  52  76
BRANCH  64  87
ATOM     87  C   UNL     1     -17.087   7.464   2.176  1.00  0.00     0.023 A 
ATOM     88  C   UNL     1     -17.331   6.234   2.817  1.00  0.00     0.012 A 
ATOM     89  C   UNL     1     -18.166   8.331   1.910  1.00  0.00     0.148 A 
ATOM     90  C   UNL     1     -18.630   5.856   3.154  1.00  0.00     0.002 A 
ATOM     91  C   UNL     1     -19.451   7.973   2.298  1.00  0.00     0.091 A 
ATOM     92  F   UNL     1     -17.915   9.491   1.284  1.00  0.00    -0.205 F 
ATOM     93  C   UNL     1     -19.687   6.729   2.906  1.00  0.00     0.022 A 
BRANCH  91  94
ATOM     94  S   UNL     1     -20.857   9.075   2.111  1.00  0.00     0.127 S 
ATOM     95  O   UNL     1     -21.615   8.412   1.051  1.00  0.00    -0.237 OA
ATOM     96  O   UNL     1     -21.476   9.012   3.435  1.00  0.00    -0.237 OA
ATOM     97  O   UNL     1     -20.305  10.377   1.762  1.00  0.00    -0.744 OA
ENDBRANCH  91  94
ENDBRANCH  64  87
ENDBRANCH  38  39
ENDBRANCH  30  33
ENDBRANCH  28  29
ENDBRANCH  27  28
ENDBRANCH  26  27
ENDBRANCH   1  26
TORSDOF 21
