REMARK SMILES C[C@@H]1[C@H](C(=O)NCCCCCCNC(=O)c2ccc(-c3c4nc(c(-c5cccc(S(=O)(=O)[O-])c5F)c5ccc([nH]5)c(-c5cccc(S(=O)(=O)[O-])c5F)c5nc(c(-c6cccc(S(=O)(=O)[O-])c6F)c6ccc3[nH]6)C=C5)C=C4)cc2)CCN1S(=O)(=O)c1cc(F)cc(F)c1
REMARK SMILES IDX 10 1 9 2 8 3 7 4 6 5 4 6 5 7 3 9 1 10 2 11 81 12 79 13 80 14
REMARK SMILES IDX 82 15 83 16 84 17 85 18 86 19 92 20 87 21 90 22 88 23 89 24
REMARK SMILES IDX 91 25 11 26 12 27 13 28 14 29 15 31 16 32 17 33 78 34 18 35
REMARK SMILES IDX 77 36 19 37 20 38 21 39 71 40 22 41 76 42 70 43 72 44 23 45
REMARK SMILES IDX 75 46 69 47 68 48 24 50 56 51 36 52 55 53 37 54 40 55 54 56
REMARK SMILES IDX 73 57 38 58 39 59 53 61 74 62 41 63 25 64 26 65 34 66 27 67
REMARK SMILES IDX 29 68 35 69 28 70 30 71 31 72 32 73 33 74 57 75 58 76 66 77
REMARK SMILES IDX 59 78 61 79 67 80 60 81 62 82 63 83 64 84 65 85 42 86 43 87
REMARK SMILES IDX 51 88 44 89 46 90 52 91 45 92 47 93 48 94 49 95 50 96
REMARK H PARENT 6 8 13 30 72 49 40 60
REMARK Flexibility Score: inf
ROOT
ATOM      1  C   UNL     1       2.854   3.470   4.850  1.00  0.00     0.002 C 
ENDROOT
BRANCH   1   2
ATOM      2  C   UNL     1       3.323   3.271   3.409  1.00  0.00     0.002 C 
BRANCH   2   3
ATOM      3  C   UNL     1       2.623   2.157   2.635  1.00  0.00     0.021 C 
BRANCH   3   4
ATOM      4  C   UNL     1       1.152   2.407   2.280  1.00  0.00     0.116 C 
BRANCH   4   5
ATOM      5  N   UNL     1       1.016   2.940   0.932  1.00  0.00    -0.356 N 
ATOM      6  C   UNL     1       0.608   2.429  -0.254  1.00  0.00     0.224 C 
ATOM      7  O   UNL     1       0.735   3.183  -1.229  1.00  0.00    -0.275 OA
ATOM      8  H   UNL     1       1.279   3.887   0.868  1.00  0.00     0.163 HD
BRANCH   6   9
ATOM      9  C   UNL     1       0.034   1.035  -0.492  1.00  0.00     0.098 C 
ATOM     10  C   UNL     1       2.126  -0.139   0.427  1.00  0.00     0.026 C 
ATOM     11  C   UNL     1       0.993  -0.167  -0.572  1.00  0.00     0.082 C 
ATOM     12  N   UNL     1       0.093  -1.379  -0.491  1.00  0.00    -0.194 NA
ATOM     13  C   UNL     1      -1.106   0.544   0.369  1.00  0.00     0.032 C 
ATOM     14  C   UNL     1      -1.290  -0.878  -0.144  1.00  0.00     0.104 C 
BRANCH  12  15
ATOM     15  S   UNL     1       0.458  -2.810   0.359  1.00  0.00     0.243 S 
ATOM     16  O   UNL     1       0.722  -2.426   1.732  1.00  0.00    -0.207 OA
ATOM     17  O   UNL     1      -0.601  -3.744   0.043  1.00  0.00    -0.207 OA
BRANCH  15  18
ATOM     18  C   UNL     1       1.943  -3.556  -0.256  1.00  0.00     0.088 A 
ATOM     19  C   UNL     1       2.304  -4.777   0.334  1.00  0.00     0.061 A 
ATOM     20  C   UNL     1       2.776  -2.974  -1.207  1.00  0.00     0.061 A 
ATOM     21  C   UNL     1       3.524  -5.360   0.017  1.00  0.00     0.127 A 
ATOM     22  C   UNL     1       4.017  -3.556  -1.465  1.00  0.00     0.127 A 
ATOM     23  F   UNL     1       3.864  -6.525   0.581  1.00  0.00    -0.207 F 
ATOM     24  C   UNL     1       4.404  -4.743  -0.858  1.00  0.00     0.078 A 
ATOM     25  F   UNL     1       4.864  -2.938  -2.299  1.00  0.00    -0.207 F 
ENDBRANCH  15  18
ENDBRANCH  12  15
ENDBRANCH   6   9
ENDBRANCH   4   5
ENDBRANCH   3   4
ENDBRANCH   2   3
ENDBRANCH   1   2
BRANCH   1  26
ATOM     26  C   UNL     1       2.815   2.216   5.731  1.00  0.00     0.021 C 
BRANCH  26  27
ATOM     27  C   UNL     1       4.095   1.380   5.772  1.00  0.00     0.116 C 
BRANCH  27  28
ATOM     28  N   UNL     1       5.241   2.143   6.234  1.00  0.00    -0.352 N 
ATOM     29  C   UNL     1       6.018   1.986   7.353  1.00  0.00     0.251 C 
ATOM     30  H   UNL     1       5.503   2.891   5.650  1.00  0.00     0.163 HD
ATOM     31  O   UNL     1       6.827   2.862   7.650  1.00  0.00    -0.269 OA
BRANCH  29  32
ATOM     32  C   UNL     1       5.890   0.785   8.210  1.00  0.00     0.039 A 
ATOM     33  C   UNL     1       5.897   0.952   9.599  1.00  0.00     0.014 A 
ATOM     34  C   UNL     1       5.830  -0.501   7.665  1.00  0.00     0.014 A 
ATOM     35  C   UNL     1       5.807  -0.163  10.438  1.00  0.00     0.010 A 
ATOM     36  C   UNL     1       5.684  -1.609   8.502  1.00  0.00     0.010 A 
ATOM     37  C   UNL     1       5.685  -1.452   9.896  1.00  0.00    -0.014 A 
BRANCH  37  38
ATOM     38  C   UNL     1       5.571  -2.642  10.779  1.00  0.00     0.031 A 
ATOM     39  C   UNL     1       6.675  -3.664  10.828  1.00  0.00     0.074 A 
ATOM     40  C   UNL     1       4.444  -2.836  11.493  1.00  0.00     0.049 A 
ATOM     41  N   UNL     1       6.748  -4.764  11.533  1.00  0.00    -0.248 NA
ATOM     42  C   UNL     1       7.838  -3.433   9.957  1.00  0.00     0.031 C 
ATOM     43  C   UNL     1       3.270  -1.962  11.470  1.00  0.00     0.029 A 
ATOM     44  N   UNL     1       4.094  -3.842  12.358  1.00  0.00    -0.354 N 
ATOM     45  C   UNL     1       7.944  -5.371  11.170  1.00  0.00     0.074 A 
ATOM     46  C   UNL     1       8.553  -4.531  10.160  1.00  0.00     0.031 C 
ATOM     47  C   UNL     1       2.330  -2.468  12.285  1.00  0.00     0.029 A 
ATOM     48  C   UNL     1       2.828  -3.706  12.879  1.00  0.00     0.049 A 
ATOM     49  H   UNL     1       4.692  -4.590  12.585  1.00  0.00     0.167 HD
ATOM     50  C   UNL     1       8.505  -6.504  11.656  1.00  0.00     0.034 A 
ATOM     51  C   UNL     1       2.148  -4.486  13.742  1.00  0.00     0.034 A 
ATOM     52  C   UNL     1       7.929  -7.306  12.702  1.00  0.00     0.049 A 
ATOM     53  C   UNL     1       2.820  -5.705  14.315  1.00  0.00     0.074 A 
ATOM     54  C   UNL     1       8.465  -8.415  13.331  1.00  0.00     0.029 A 
ATOM     55  N   UNL     1       6.686  -7.084  13.274  1.00  0.00    -0.354 N 
ATOM     56  N   UNL     1       4.027  -6.164  14.089  1.00  0.00    -0.248 NA
ATOM     57  C   UNL     1       2.052  -6.492  15.291  1.00  0.00     0.031 C 
ATOM     58  C   UNL     1       7.543  -8.867  14.282  1.00  0.00     0.029 A 
ATOM     59  C   UNL     1       6.435  -8.037  14.246  1.00  0.00     0.049 A 
ATOM     60  H   UNL     1       6.072  -6.356  13.025  1.00  0.00     0.167 HD
ATOM     61  C   UNL     1       4.175  -7.273  14.915  1.00  0.00     0.074 A 
ATOM     62  C   UNL     1       2.942  -7.402  15.664  1.00  0.00     0.031 C 
ATOM     63  C   UNL     1       5.228  -8.120  15.027  1.00  0.00     0.034 A 
BRANCH  50  64
ATOM     64  C   UNL     1       9.853  -6.902  11.116  1.00  0.00     0.023 A 
ATOM     65  C   UNL     1      10.994  -6.179  11.519  1.00  0.00     0.012 A 
ATOM     66  C   UNL     1      10.004  -8.014  10.264  1.00  0.00     0.148 A 
ATOM     67  C   UNL     1      12.261  -6.536  11.061  1.00  0.00     0.002 A 
ATOM     68  C   UNL     1      11.275  -8.386   9.840  1.00  0.00     0.091 A 
ATOM     69  F   UNL     1       8.905  -8.675   9.872  1.00  0.00    -0.205 F 
ATOM     70  C   UNL     1      12.402  -7.644  10.230  1.00  0.00     0.022 A 
BRANCH  68  71
ATOM     71  S   UNL     1      11.565  -9.838   8.822  1.00  0.00     0.127 S 
ATOM     72  O   UNL     1      11.800  -9.238   7.510  1.00  0.00    -0.237 OA
ATOM     73  O   UNL     1      12.752 -10.425   9.445  1.00  0.00    -0.237 OA
ATOM     74  O   UNL     1      10.361 -10.650   8.938  1.00  0.00    -0.744 OA
ENDBRANCH  68  71
ENDBRANCH  50  64
BRANCH  51  75
ATOM     75  C   UNL     1       0.787  -4.080  14.191  1.00  0.00     0.023 A 
ATOM     76  C   UNL     1       0.614  -3.598  15.504  1.00  0.00     0.012 A 
ATOM     77  C   UNL     1      -0.322  -4.125  13.325  1.00  0.00     0.148 A 
ATOM     78  C   UNL     1      -0.643  -3.192  15.953  1.00  0.00     0.002 A 
ATOM     79  C   UNL     1      -1.561  -3.671  13.763  1.00  0.00     0.091 A 
ATOM     80  F   UNL     1      -0.143  -4.604  12.085  1.00  0.00    -0.205 F 
ATOM     81  C   UNL     1      -1.727  -3.217  15.080  1.00  0.00     0.022 A 
BRANCH  79  82
ATOM     82  S   UNL     1      -2.974  -3.546  12.659  1.00  0.00     0.127 S 
ATOM     83  O   UNL     1      -3.748  -4.728  13.027  1.00  0.00    -0.237 OA
ATOM     84  O   UNL     1      -3.569  -2.270  13.060  1.00  0.00    -0.237 OA
ATOM     85  O   UNL     1      -2.411  -3.541  11.315  1.00  0.00    -0.744 OA
ENDBRANCH  79  82
ENDBRANCH  51  75
BRANCH  63  86
ATOM     86  C   UNL     1       5.106  -9.259  16.003  1.00  0.00     0.023 A 
ATOM     87  C   UNL     1       4.301 -10.367  15.674  1.00  0.00     0.012 A 
ATOM     88  C   UNL     1       5.842  -9.270  17.203  1.00  0.00     0.148 A 
ATOM     89  C   UNL     1       4.211 -11.459  16.536  1.00  0.00     0.002 A 
ATOM     90  C   UNL     1       5.779 -10.379  18.039  1.00  0.00     0.091 A 
ATOM     91  F   UNL     1       6.585  -8.196  17.511  1.00  0.00    -0.205 F 
ATOM     92  C   UNL     1       4.958 -11.470  17.712  1.00  0.00     0.022 A 
BRANCH  90  93
ATOM     93  S   UNL     1       6.777 -10.509  19.528  1.00  0.00     0.127 S 
ATOM     94  O   UNL     1       5.812 -10.159  20.567  1.00  0.00    -0.237 OA
ATOM     95  O   UNL     1       7.180 -11.916  19.518  1.00  0.00    -0.237 OA
ATOM     96  O   UNL     1       7.878  -9.571  19.346  1.00  0.00    -0.744 OA
ENDBRANCH  90  93
ENDBRANCH  63  86
ENDBRANCH  37  38
ENDBRANCH  29  32
ENDBRANCH  27  28
ENDBRANCH  26  27
ENDBRANCH   1  26
TORSDOF 18
