REMARK SMILES O=C(NCCCCCCNC(=O)c1ccc2c(=O)[nH]c(N3CC[NH2+]CC3)nc2c1)c1ccc(-c2c3nc(c(-c4cccc(S(=O)(=O)[O-])c4F)c4ccc([nH]4)c(-c4cccc(S(=O)(=O)[O-])c4F)c4nc(c(-c5cccc(S(=O)(=O)[O-])c5F)c5ccc2[nH]5)C=C4)C=C3)cc1
REMARK SMILES IDX 5 1 4 2 3 3 1 4 2 5 30 7 31 8 92 9 32 10 91 11 33 12 34 13
REMARK SMILES IDX 35 14 85 15 36 16 90 17 84 18 86 19 37 20 89 21 83 22 82 23
REMARK SMILES IDX 38 25 70 26 50 27 69 28 51 29 54 30 68 31 87 32 52 33 53 34
REMARK SMILES IDX 67 36 88 37 55 38 39 39 40 40 48 41 41 42 43 43 49 44 42 45
REMARK SMILES IDX 44 46 45 47 46 48 47 49 71 50 72 51 80 52 73 53 75 54 81 55
REMARK SMILES IDX 74 56 76 57 77 58 78 59 79 60 56 61 57 62 65 63 58 64 60 65
REMARK SMILES IDX 66 66 59 67 61 68 62 69 63 70 64 71 6 72 7 73 8 74 9 75
REMARK SMILES IDX 10 76 11 77 12 79 13 80 14 81 29 82 15 83 28 84 16 85 27 86
REMARK SMILES IDX 17 87 20 88 18 89 19 90 21 92 22 93 26 94 23 95 25 96 24 97
REMARK H PARENT 3 6 86 24 54 35 10 78 19 91 24 98 24 99
REMARK Flexibility Score: inf
ROOT
ATOM      1  C   UNL     1       4.650   1.049   2.358  1.00  0.00     0.021 C 
ENDROOT
BRANCH   1   2
ATOM      2  C   UNL     1       4.388   0.019   1.268  1.00  0.00     0.116 C 
BRANCH   2   3
ATOM      3  N   UNL     1       2.970  -0.211   1.052  1.00  0.00    -0.352 N 
ATOM      4  O   UNL     1       1.021  -0.166  -0.078  1.00  0.00    -0.269 OA
ATOM      5  C   UNL     1       2.246  -0.114  -0.113  1.00  0.00     0.251 C 
ATOM      6  H   UNL     1       2.456  -0.473   1.850  1.00  0.00     0.163 HD
BRANCH   5   7
ATOM      7  C   UNL     1       2.956   0.078  -1.396  1.00  0.00     0.039 A 
ATOM      8  C   UNL     1       4.094  -0.676  -1.696  1.00  0.00     0.014 A 
ATOM      9  C   UNL     1       2.481   1.025  -2.307  1.00  0.00     0.014 A 
ATOM     10  C   UNL     1       4.835  -0.385  -2.836  1.00  0.00     0.010 A 
ATOM     11  C   UNL     1       3.177   1.251  -3.497  1.00  0.00     0.010 A 
ATOM     12  C   UNL     1       4.376   0.568  -3.759  1.00  0.00    -0.014 A 
BRANCH  12  13
ATOM     13  C   UNL     1       5.117   0.764  -5.031  1.00  0.00     0.031 A 
ATOM     14  C   UNL     1       5.747   2.083  -5.378  1.00  0.00     0.074 A 
ATOM     15  C   UNL     1       5.199  -0.272  -5.888  1.00  0.00     0.049 A 
ATOM     16  N   UNL     1       6.430   2.409  -6.446  1.00  0.00    -0.248 NA
ATOM     17  C   UNL     1       5.586   3.181  -4.413  1.00  0.00     0.031 C 
ATOM     18  C   UNL     1       4.579  -1.584  -5.681  1.00  0.00     0.029 A 
ATOM     19  N   UNL     1       5.820  -0.387  -7.105  1.00  0.00    -0.354 N 
ATOM     20  C   UNL     1       6.744   3.755  -6.305  1.00  0.00     0.074 A 
ATOM     21  C   UNL     1       6.172   4.189  -5.048  1.00  0.00     0.031 C 
ATOM     22  C   UNL     1       4.858  -2.373  -6.727  1.00  0.00     0.029 A 
ATOM     23  C   UNL     1       5.628  -1.611  -7.702  1.00  0.00     0.049 A 
ATOM     24  H   UNL     1       6.352   0.335  -7.511  1.00  0.00     0.167 HD
ATOM     25  C   UNL     1       7.453   4.552  -7.142  1.00  0.00     0.034 A 
ATOM     26  C   UNL     1       6.001  -2.065  -8.913  1.00  0.00     0.034 A 
ATOM     27  C   UNL     1       8.039   4.104  -8.379  1.00  0.00     0.049 A 
ATOM     28  C   UNL     1       6.803  -1.168  -9.809  1.00  0.00     0.074 A 
ATOM     29  C   UNL     1       8.843   4.813  -9.256  1.00  0.00     0.029 A 
ATOM     30  N   UNL     1       7.872   2.841  -8.926  1.00  0.00    -0.354 N 
ATOM     31  N   UNL     1       7.216   0.057  -9.590  1.00  0.00    -0.248 NA
ATOM     32  C   UNL     1       7.219  -1.724 -11.103  1.00  0.00     0.031 C 
ATOM     33  C   UNL     1       9.133   3.988 -10.348  1.00  0.00     0.029 A 
ATOM     34  C   UNL     1       8.540   2.754 -10.137  1.00  0.00     0.049 A 
ATOM     35  H   UNL     1       7.354   2.112  -8.515  1.00  0.00     0.167 HD
ATOM     36  C   UNL     1       7.959   0.412 -10.709  1.00  0.00     0.074 A 
ATOM     37  C   UNL     1       7.962  -0.739 -11.590  1.00  0.00     0.031 C 
ATOM     38  C   UNL     1       8.569   1.590 -10.987  1.00  0.00     0.034 A 
BRANCH  25  39
ATOM     39  C   UNL     1       7.660   5.990  -6.738  1.00  0.00     0.023 A 
ATOM     40  C   UNL     1       8.537   6.301  -5.679  1.00  0.00     0.012 A 
ATOM     41  C   UNL     1       7.038   7.038  -7.447  1.00  0.00     0.148 A 
ATOM     42  C   UNL     1       8.765   7.627  -5.310  1.00  0.00     0.002 A 
ATOM     43  C   UNL     1       7.304   8.358  -7.101  1.00  0.00     0.091 A 
ATOM     44  F   UNL     1       6.193   6.725  -8.440  1.00  0.00    -0.205 F 
ATOM     45  C   UNL     1       8.157   8.654  -6.026  1.00  0.00     0.022 A 
BRANCH  43  46
ATOM     46  S   UNL     1       6.631   9.752  -8.015  1.00  0.00     0.127 S 
ATOM     47  O   UNL     1       5.627  10.258  -7.081  1.00  0.00    -0.237 OA
ATOM     48  O   UNL     1       7.804  10.613  -8.172  1.00  0.00    -0.237 OA
ATOM     49  O   UNL     1       6.113   9.202  -9.259  1.00  0.00    -0.744 OA
ENDBRANCH  43  46
ENDBRANCH  25  39
BRANCH  26  50
ATOM     50  C   UNL     1       5.632  -3.448  -9.321  1.00  0.00     0.023 A 
ATOM     51  C   UNL     1       6.629  -4.436  -9.420  1.00  0.00     0.012 A 
ATOM     52  C   UNL     1       4.287  -3.802  -9.546  1.00  0.00     0.148 A 
ATOM     53  C   UNL     1       6.296  -5.748  -9.759  1.00  0.00     0.002 A 
ATOM     54  C   UNL     1       3.955  -5.122  -9.821  1.00  0.00     0.091 A 
ATOM     55  F   UNL     1       3.354  -2.842  -9.456  1.00  0.00    -0.205 F 
ATOM     56  C   UNL     1       4.960  -6.093  -9.946  1.00  0.00     0.022 A 
BRANCH  54  57
ATOM     57  S   UNL     1       2.252  -5.682  -9.929  1.00  0.00     0.127 S 
ATOM     58  O   UNL     1       2.119  -5.960 -11.356  1.00  0.00    -0.237 OA
ATOM     59  O   UNL     1       2.269  -6.866  -9.068  1.00  0.00    -0.237 OA
ATOM     60  O   UNL     1       1.444  -4.583  -9.419  1.00  0.00    -0.744 OA
ENDBRANCH  54  57
ENDBRANCH  26  50
BRANCH  38  61
ATOM     61  C   UNL     1       9.318   1.691 -12.289  1.00  0.00     0.023 A 
ATOM     62  C   UNL     1       8.607   1.767 -13.503  1.00  0.00     0.012 A 
ATOM     63  C   UNL     1      10.724   1.774 -12.304  1.00  0.00     0.148 A 
ATOM     64  C   UNL     1       9.286   1.891 -14.715  1.00  0.00     0.002 A 
ATOM     65  C   UNL     1      11.391   1.948 -13.511  1.00  0.00     0.091 A 
ATOM     66  F   UNL     1      11.383   1.679 -11.140  1.00  0.00    -0.205 F 
ATOM     67  C   UNL     1      10.675   1.994 -14.718  1.00  0.00     0.022 A 
BRANCH  65  68
ATOM     68  S   UNL     1      13.169   2.185 -13.603  1.00  0.00     0.127 S 
ATOM     69  O   UNL     1      13.609   0.916 -14.181  1.00  0.00    -0.237 OA
ATOM     70  O   UNL     1      13.283   3.336 -14.499  1.00  0.00    -0.237 OA
ATOM     71  O   UNL     1      13.612   2.436 -12.238  1.00  0.00    -0.744 OA
ENDBRANCH  65  68
ENDBRANCH  38  61
ENDBRANCH  12  13
ENDBRANCH   5   7
ENDBRANCH   2   3
ENDBRANCH   1   2
BRANCH   1  72
ATOM     72  C   UNL     1       4.178   0.639   3.753  1.00  0.00     0.002 C 
BRANCH  72  73
ATOM     73  C   UNL     1       4.728  -0.696   4.264  1.00  0.00     0.002 C 
BRANCH  73  74
ATOM     74  C   UNL     1       6.253  -0.837   4.229  1.00  0.00     0.021 C 
BRANCH  74  75
ATOM     75  C   UNL     1       7.018   0.264   4.958  1.00  0.00     0.116 C 
BRANCH  75  76
ATOM     76  N   UNL     1       6.714   0.284   6.379  1.00  0.00    -0.352 N 
ATOM     77  C   UNL     1       7.571   0.170   7.442  1.00  0.00     0.251 C 
ATOM     78  H   UNL     1       5.764   0.396   6.609  1.00  0.00     0.163 HD
ATOM     79  O   UNL     1       7.144   0.027   8.583  1.00  0.00    -0.269 OA
BRANCH  77  80
ATOM     80  C   UNL     1       9.026   0.219   7.205  1.00  0.00     0.041 A 
ATOM     81  C   UNL     1       9.591   1.304   6.523  1.00  0.00     0.015 A 
ATOM     82  C   UNL     1       9.827  -0.819   7.696  1.00  0.00     0.043 A 
ATOM     83  C   UNL     1      10.960   1.325   6.282  1.00  0.00     0.017 A 
ATOM     84  C   UNL     1      11.203  -0.802   7.469  1.00  0.00     0.081 A 
ATOM     85  C   UNL     1      11.748   0.274   6.760  1.00  0.00     0.066 A 
ATOM     86  N   UNL     1      11.993  -1.852   7.972  1.00  0.00    -0.214 NA
ATOM     87  C   UNL     1      13.201   0.276   6.551  1.00  0.00     0.260 A 
ATOM     88  C   UNL     1      13.280  -1.782   7.830  1.00  0.00     0.206 A 
ATOM     89  O   UNL     1      13.768   1.137   5.893  1.00  0.00    -0.269 OA
ATOM     90  N   UNL     1      13.874  -0.755   7.147  1.00  0.00    -0.292 N 
ATOM     91  H   UNL     1      14.856  -0.758   7.081  1.00  0.00     0.173 HD
BRANCH  88  92
ATOM     92  N   UNL     1      14.137  -2.730   8.313  1.00  0.00    -0.331 N 
ATOM     93  C   UNL     1      13.806  -4.155   8.272  1.00  0.00     0.181 C 
ATOM     94  C   UNL     1      15.266  -2.398   9.186  1.00  0.00     0.181 C 
ATOM     95  C   UNL     1      15.074  -4.955   7.886  1.00  0.00     0.282 C 
ATOM     96  C   UNL     1      16.499  -3.233   8.791  1.00  0.00     0.282 C 
ATOM     97  N   UNL     1      16.239  -4.688   8.762  1.00  0.00    -0.343 N 
ATOM     98  H   UNL     1      17.058  -5.174   8.398  1.00  0.00     0.346 HD
ATOM     99  H   UNL     1      16.042  -5.020   9.706  1.00  0.00     0.346 HD
ENDBRANCH  88  92
ENDBRANCH  77  80
ENDBRANCH  75  76
ENDBRANCH  74  75
ENDBRANCH  73  74
ENDBRANCH  72  73
ENDBRANCH   1  72
TORSDOF 17
