REMARK SMILES O=C(NCCCCCCNC(=O)c1ccc(-c2c3nc(c(-c4cccc(S(=O)(=O)[O-])c4F)c4ccc([nH]4)c(-c4cccc(S(=O)(=O)[O-])c4F)c4nc(c(-c5cccc(S(=O)(=O)[O-])c5F)c5ccc2[nH]5)C=C4)C=C3)cc1)C1=NN=C2C=CC=C[C@@H]21
REMARK SMILES IDX 8 1 7 2 6 3 5 4 4 5 3 6 1 7 2 8 76 10 77 11 84 12 78 13
REMARK SMILES IDX 79 14 83 15 80 16 82 17 81 18 9 19 10 20 11 21 12 23 13 24
REMARK SMILES IDX 14 25 75 26 15 27 74 28 16 29 17 30 18 31 68 32 19 33 73 34
REMARK SMILES IDX 67 35 69 36 20 37 72 38 66 39 65 40 21 42 53 43 33 44 52 45
REMARK SMILES IDX 34 46 37 47 51 48 70 49 35 50 36 51 50 53 71 54 38 55 22 56
REMARK SMILES IDX 23 57 31 58 24 59 26 60 32 61 25 62 27 63 28 64 29 65 30 66
REMARK SMILES IDX 54 67 55 68 63 69 56 70 58 71 64 72 57 73 59 74 60 75 61 76
REMARK SMILES IDX 62 77 39 78 40 79 48 80 41 81 43 82 49 83 42 84 44 85 45 86
REMARK SMILES IDX 46 87 47 88
REMARK H PARENT 3 9 10 22 69 41 37 52
REMARK Flexibility Score: inf
ROOT
ATOM      1  C   UNL     1       6.255   0.600   4.299  1.00  0.00     0.021 C 
ENDROOT
BRANCH   1   2
ATOM      2  C   UNL     1       4.729   0.695   4.264  1.00  0.00     0.002 C 
BRANCH   2   3
ATOM      3  C   UNL     1       4.153   1.820   3.400  1.00  0.00     0.002 C 
BRANCH   3   4
ATOM      4  C   UNL     1       4.616   1.841   1.946  1.00  0.00     0.021 C 
BRANCH   4   5
ATOM      5  C   UNL     1       4.373   0.567   1.151  1.00  0.00     0.116 C 
BRANCH   5   6
ATOM      6  N   UNL     1       2.980   0.173   1.044  1.00  0.00    -0.351 N 
ATOM      7  O   UNL     1       1.177  -0.773   0.029  1.00  0.00    -0.268 OA
ATOM      8  C   UNL     1       2.334  -0.379  -0.042  1.00  0.00     0.268 C 
ATOM      9  H   UNL     1       2.428   0.317   1.846  1.00  0.00     0.163 HD
BRANCH   8  10
ATOM     10  C   UNL     1       3.064  -0.478  -1.350  1.00  0.00     0.140 C 
ATOM     11  N   UNL     1       2.759   0.226  -2.401  1.00  0.00    -0.148 NA
ATOM     12  C   UNL     1       4.309  -1.276  -1.491  1.00  0.00     0.120 C 
ATOM     13  N   UNL     1       3.757  -0.030  -3.408  1.00  0.00    -0.154 NA
ATOM     14  C   UNL     1       4.601  -0.881  -2.921  1.00  0.00     0.076 C 
ATOM     15  C   UNL     1       4.396  -2.761  -1.442  1.00  0.00    -0.010 C 
ATOM     16  C   UNL     1       5.828  -1.423  -3.543  1.00  0.00     0.027 C 
ATOM     17  C   UNL     1       5.473  -3.294  -2.050  1.00  0.00    -0.003 C 
ATOM     18  C   UNL     1       6.357  -2.438  -2.836  1.00  0.00     0.002 C 
ENDBRANCH   8  10
ENDBRANCH   5   6
ENDBRANCH   4   5
ENDBRANCH   3   4
ENDBRANCH   2   3
ENDBRANCH   1   2
BRANCH   1  19
ATOM     19  C   UNL     1       6.975   1.881   4.707  1.00  0.00     0.116 C 
BRANCH  19  20
ATOM     20  N   UNL     1       6.618   2.312   6.049  1.00  0.00    -0.352 N 
ATOM     21  C   UNL     1       7.430   2.577   7.131  1.00  0.00     0.251 C 
ATOM     22  H   UNL     1       5.654   2.432   6.208  1.00  0.00     0.163 HD
ATOM     23  O   UNL     1       6.944   2.744   8.232  1.00  0.00    -0.269 OA
BRANCH  21  24
ATOM     24  C   UNL     1       8.900   2.636   6.942  1.00  0.00     0.039 A 
ATOM     25  C   UNL     1       9.723   2.007   7.879  1.00  0.00     0.014 A 
ATOM     26  C   UNL     1       9.461   3.304   5.851  1.00  0.00     0.014 A 
ATOM     27  C   UNL     1      11.106   1.998   7.686  1.00  0.00     0.010 A 
ATOM     28  C   UNL     1      10.831   3.217   5.615  1.00  0.00     0.010 A 
ATOM     29  C   UNL     1      11.670   2.570   6.533  1.00  0.00    -0.014 A 
BRANCH  29  30
ATOM     30  C   UNL     1      13.130   2.482   6.268  1.00  0.00     0.031 A 
ATOM     31  C   UNL     1      13.961   3.731   6.151  1.00  0.00     0.074 A 
ATOM     32  C   UNL     1      13.698   1.275   6.070  1.00  0.00     0.049 A 
ATOM     33  N   UNL     1      15.239   3.848   5.896  1.00  0.00    -0.248 NA
ATOM     34  C   UNL     1      13.267   5.018   6.324  1.00  0.00     0.031 C 
ATOM     35  C   UNL     1      12.992  -0.008   6.100  1.00  0.00     0.029 A 
ATOM     36  N   UNL     1      14.997   0.929   5.790  1.00  0.00    -0.354 N 
ATOM     37  C   UNL     1      15.495   5.212   5.846  1.00  0.00     0.074 A 
ATOM     38  C   UNL     1      14.234   5.886   6.064  1.00  0.00     0.031 C 
ATOM     39  C   UNL     1      13.867  -0.999   5.873  1.00  0.00     0.029 A 
ATOM     40  C   UNL     1      15.186  -0.424   5.630  1.00  0.00     0.049 A 
ATOM     41  H   UNL     1      15.725   1.588   5.711  1.00  0.00     0.167 HD
ATOM     42  C   UNL     1      16.675   5.848   5.656  1.00  0.00     0.034 A 
ATOM     43  C   UNL     1      16.291  -1.125   5.309  1.00  0.00     0.034 A 
ATOM     44  C   UNL     1      17.930   5.176   5.455  1.00  0.00     0.049 A 
ATOM     45  C   UNL     1      17.586  -0.390   5.092  1.00  0.00     0.074 A 
ATOM     46  C   UNL     1      19.190   5.733   5.325  1.00  0.00     0.029 A 
ATOM     47  N   UNL     1      18.085   3.805   5.328  1.00  0.00    -0.354 N 
ATOM     48  N   UNL     1      17.831   0.894   5.178  1.00  0.00    -0.248 NA
ATOM     49  C   UNL     1      18.765  -1.205   4.765  1.00  0.00     0.031 C 
ATOM     50  C   UNL     1      20.098   4.704   5.060  1.00  0.00     0.029 A 
ATOM     51  C   UNL     1      19.415   3.499   5.096  1.00  0.00     0.049 A 
ATOM     52  H   UNL     1      17.357   3.145   5.393  1.00  0.00     0.167 HD
ATOM     53  C   UNL     1      19.197   1.037   4.960  1.00  0.00     0.074 A 
ATOM     54  C   UNL     1      19.728  -0.294   4.755  1.00  0.00     0.031 C 
ATOM     55  C   UNL     1      19.942   2.169   4.930  1.00  0.00     0.034 A 
BRANCH  42  56
ATOM     56  C   UNL     1      16.674   7.356   5.671  1.00  0.00     0.023 A 
ATOM     57  C   UNL     1      16.437   8.051   6.874  1.00  0.00     0.012 A 
ATOM     58  C   UNL     1      16.983   8.082   4.503  1.00  0.00     0.148 A 
ATOM     59  C   UNL     1      16.471   9.445   6.907  1.00  0.00     0.002 A 
ATOM     60  C   UNL     1      17.068   9.467   4.556  1.00  0.00     0.091 A 
ATOM     61  F   UNL     1      17.190   7.403   3.366  1.00  0.00    -0.205 F 
ATOM     62  C   UNL     1      16.799  10.151   5.753  1.00  0.00     0.022 A 
BRANCH  60  63
ATOM     63  S   UNL     1      17.562  10.463   3.146  1.00  0.00     0.127 S 
ATOM     64  O   UNL     1      16.338  11.216   2.874  1.00  0.00    -0.237 OA
ATOM     65  O   UNL     1      18.656  11.257   3.703  1.00  0.00    -0.237 OA
ATOM     66  O   UNL     1      17.955   9.524   2.105  1.00  0.00    -0.744 OA
ENDBRANCH  60  63
ENDBRANCH  42  56
BRANCH  43  67
ATOM     67  C   UNL     1      16.236  -2.611   5.210  1.00  0.00     0.023 A 
ATOM     68  C   UNL     1      16.927  -3.398   6.151  1.00  0.00     0.012 A 
ATOM     69  C   UNL     1      15.501  -3.247   4.190  1.00  0.00     0.148 A 
ATOM     70  C   UNL     1      16.923  -4.790   6.054  1.00  0.00     0.002 A 
ATOM     71  C   UNL     1      15.452  -4.634   4.134  1.00  0.00     0.091 A 
ATOM     72  F   UNL     1      14.853  -2.479   3.303  1.00  0.00    -0.205 F 
ATOM     73  C   UNL     1      16.180  -5.408   5.052  1.00  0.00     0.022 A 
BRANCH  71  74
ATOM     74  S   UNL     1      14.426  -5.516   2.954  1.00  0.00     0.127 S 
ATOM     75  O   UNL     1      15.427  -6.204   2.143  1.00  0.00    -0.237 OA
ATOM     76  O   UNL     1      13.640  -6.383   3.833  1.00  0.00    -0.237 OA
ATOM     77  O   UNL     1      13.650  -4.497   2.261  1.00  0.00    -0.744 OA
ENDBRANCH  71  74
ENDBRANCH  43  67
BRANCH  55  78
ATOM     78  C   UNL     1      21.429   2.026   4.726  1.00  0.00     0.023 A 
ATOM     79  C   UNL     1      21.943   1.611   3.481  1.00  0.00     0.012 A 
ATOM     80  C   UNL     1      22.320   2.370   5.762  1.00  0.00     0.148 A 
ATOM     81  C   UNL     1      23.320   1.501   3.286  1.00  0.00     0.002 A 
ATOM     82  C   UNL     1      23.690   2.315   5.541  1.00  0.00     0.091 A 
ATOM     83  F   UNL     1      21.811   2.749   6.943  1.00  0.00    -0.205 F 
ATOM     84  C   UNL     1      24.192   1.864   4.309  1.00  0.00     0.022 A 
BRANCH  82  85
ATOM     85  S   UNL     1      24.888   2.856   6.764  1.00  0.00     0.127 S 
ATOM     86  O   UNL     1      25.539   1.596   7.120  1.00  0.00    -0.237 OA
ATOM     87  O   UNL     1      25.721   3.777   5.992  1.00  0.00    -0.237 OA
ATOM     88  O   UNL     1      24.121   3.481   7.834  1.00  0.00    -0.744 OA
ENDBRANCH  82  85
ENDBRANCH  55  78
ENDBRANCH  29  30
ENDBRANCH  21  24
ENDBRANCH  19  20
ENDBRANCH   1  19
TORSDOF 16
