REMARK SMILES CCN1C(=O)C[C@@H](C(=O)NCCCCCCNC(=O)c2ccc(-c3c4nc(c(-c5cccc(S(=O)(=O)[O-])c5F)c5ccc([nH]5)c(-c5cccc(S(=O)(=O)[O-])c5F)c5nc(c(-c6cccc(S(=O)(=O)[O-])c6F)c6ccc3[nH]6)C=C5)C=C4)cc2)[C@H]1c1ccccc1C1CC1
REMARK SMILES IDX 14 1 13 2 12 3 11 4 10 5 8 6 9 7 7 9 3 10 4 11 83 12 5 13
REMARK SMILES IDX 6 14 2 15 1 16 84 17 85 18 89 19 86 20 88 21 87 22 90 23
REMARK SMILES IDX 91 24 92 25 15 26 16 27 17 28 18 29 19 31 20 32 21 33 82 34
REMARK SMILES IDX 22 35 81 36 23 37 24 38 25 39 75 40 26 41 80 42 74 43 76 44
REMARK SMILES IDX 27 45 79 46 73 47 72 48 28 50 60 51 40 52 59 53 41 54 44 55
REMARK SMILES IDX 58 56 77 57 42 58 43 59 57 61 78 62 45 63 29 64 30 65 38 66
REMARK SMILES IDX 31 67 33 68 39 69 32 70 34 71 35 72 36 73 37 74 61 75 62 76
REMARK SMILES IDX 70 77 63 78 65 79 71 80 64 81 66 82 67 83 68 84 69 85 46 86
REMARK SMILES IDX 47 87 55 88 48 89 50 90 56 91 49 92 51 93 52 94 53 95 54 96
REMARK H PARENT 10 8 17 30 76 49 44 60
REMARK Flexibility Score: inf
ROOT
ATOM      1  C   UNL     1       5.782   4.125   4.179  1.00  0.00     0.002 C 
ENDROOT
BRANCH   1   2
ATOM      2  C   UNL     1       5.752   3.222   5.416  1.00  0.00     0.002 C 
BRANCH   2   3
ATOM      3  C   UNL     1       4.353   2.800   5.886  1.00  0.00     0.021 C 
BRANCH   3   4
ATOM      4  C   UNL     1       3.545   2.049   4.836  1.00  0.00     0.116 C 
BRANCH   4   5
ATOM      5  N   UNL     1       4.160   0.778   4.497  1.00  0.00    -0.356 N 
ATOM      6  C   UNL     1       3.579  -0.394   4.117  1.00  0.00     0.226 C 
ATOM      7  O   UNL     1       4.320  -1.320   3.784  1.00  0.00    -0.275 OA
ATOM      8  H   UNL     1       5.143   0.760   4.550  1.00  0.00     0.163 HD
BRANCH   6   9
ATOM      9  C   UNL     1       2.065  -0.515   4.115  1.00  0.00     0.115 C 
ATOM     10  N   UNL     1       1.189  -1.315   2.054  1.00  0.00    -0.335 N 
ATOM     11  C   UNL     1       1.327  -2.434   2.879  1.00  0.00     0.223 C 
ATOM     12  C   UNL     1       1.336  -0.081   2.824  1.00  0.00     0.128 C 
ATOM     13  O   UNL     1       1.082  -3.591   2.576  1.00  0.00    -0.275 OA
ATOM     14  C   UNL     1       1.669  -1.983   4.274  1.00  0.00     0.116 C 
BRANCH  10  15
ATOM     15  C   UNL     1       0.389  -1.446   0.838  1.00  0.00     0.117 C 
ATOM     16  C   UNL     1       0.660  -0.469  -0.291  1.00  0.00     0.027 C 
ENDBRANCH  10  15
BRANCH  12  17
ATOM     17  C   UNL     1       1.922   1.097   2.061  1.00  0.00    -0.021 A 
ATOM     18  C   UNL     1       3.178   0.878   1.426  1.00  0.00     0.006 A 
ATOM     19  C   UNL     1       1.313   2.381   1.959  1.00  0.00    -0.040 A 
ATOM     20  C   UNL     1       3.877   1.891   0.778  1.00  0.00     0.000 A 
ATOM     21  C   UNL     1       2.073   3.381   1.288  1.00  0.00     0.004 A 
ATOM     22  C   UNL     1       3.328   3.155   0.722  1.00  0.00     0.000 A 
BRANCH  19  23
ATOM     23  C   UNL     1      -0.055   2.861   2.449  1.00  0.00     0.019 C 
ATOM     24  C   UNL     1      -1.289   2.022   2.623  1.00  0.00     0.009 C 
ATOM     25  C   UNL     1      -0.570   2.571   3.830  1.00  0.00     0.009 C 
ENDBRANCH  19  23
ENDBRANCH  12  17
ENDBRANCH   6   9
ENDBRANCH   4   5
ENDBRANCH   3   4
ENDBRANCH   2   3
ENDBRANCH   1   2
BRANCH   1  26
ATOM     26  C   UNL     1       4.974   5.418   4.299  1.00  0.00     0.021 C 
BRANCH  26  27
ATOM     27  C   UNL     1       5.317   6.269   5.515  1.00  0.00     0.116 C 
BRANCH  27  28
ATOM     28  N   UNL     1       6.708   6.700   5.519  1.00  0.00    -0.352 N 
ATOM     29  C   UNL     1       7.215   7.950   5.775  1.00  0.00     0.251 C 
ATOM     30  H   UNL     1       7.373   6.003   5.312  1.00  0.00     0.163 HD
ATOM     31  O   UNL     1       8.403   8.194   5.587  1.00  0.00    -0.269 OA
BRANCH  29  32
ATOM     32  C   UNL     1       6.302   9.006   6.258  1.00  0.00     0.039 A 
ATOM     33  C   UNL     1       6.307  10.253   5.629  1.00  0.00     0.014 A 
ATOM     34  C   UNL     1       5.415   8.743   7.304  1.00  0.00     0.014 A 
ATOM     35  C   UNL     1       5.377  11.221   6.012  1.00  0.00     0.010 A 
ATOM     36  C   UNL     1       4.440   9.678   7.629  1.00  0.00     0.010 A 
ATOM     37  C   UNL     1       4.416  10.929   6.994  1.00  0.00    -0.014 A 
BRANCH  37  38
ATOM     38  C   UNL     1       3.379  11.914   7.394  1.00  0.00     0.031 A 
ATOM     39  C   UNL     1       3.333  12.404   8.816  1.00  0.00     0.074 A 
ATOM     40  C   UNL     1       2.422  12.279   6.519  1.00  0.00     0.049 A 
ATOM     41  N   UNL     1       2.433  13.147   9.404  1.00  0.00    -0.248 NA
ATOM     42  C   UNL     1       4.428  11.973   9.702  1.00  0.00     0.031 C 
ATOM     43  C   UNL     1       2.324  11.825   5.131  1.00  0.00     0.029 A 
ATOM     44  N   UNL     1       1.323  13.087   6.682  1.00  0.00    -0.354 N 
ATOM     45  C   UNL     1       2.828  13.237  10.733  1.00  0.00     0.074 A 
ATOM     46  C   UNL     1       4.029  12.443  10.874  1.00  0.00     0.031 C 
ATOM     47  C   UNL     1       1.223  12.352   4.572  1.00  0.00     0.029 A 
ATOM     48  C   UNL     1       0.514  13.146   5.571  1.00  0.00     0.049 A 
ATOM     49  H   UNL     1       1.133  13.578   7.514  1.00  0.00     0.167 HD
ATOM     50  C   UNL     1       2.260  13.939  11.742  1.00  0.00     0.034 A 
ATOM     51  C   UNL     1      -0.677  13.751   5.385  1.00  0.00     0.034 A 
ATOM     52  C   UNL     1       1.087  14.755  11.587  1.00  0.00     0.049 A 
ATOM     53  C   UNL     1      -1.281  14.541   6.515  1.00  0.00     0.074 A 
ATOM     54  C   UNL     1       0.473  15.563  12.527  1.00  0.00     0.029 A 
ATOM     55  N   UNL     1       0.347  14.863  10.420  1.00  0.00    -0.354 N 
ATOM     56  N   UNL     1      -0.825  14.718   7.732  1.00  0.00    -0.248 NA
ATOM     57  C   UNL     1      -2.544  15.242   6.241  1.00  0.00     0.031 C 
ATOM     58  C   UNL     1      -0.658  16.134  11.937  1.00  0.00     0.029 A 
ATOM     59  C   UNL     1      -0.721  15.718  10.617  1.00  0.00     0.049 A 
ATOM     60  H   UNL     1       0.552  14.399   9.576  1.00  0.00     0.167 HD
ATOM     61  C   UNL     1      -1.716  15.588   8.350  1.00  0.00     0.074 A 
ATOM     62  C   UNL     1      -2.737  15.905   7.373  1.00  0.00     0.031 C 
ATOM     63  C   UNL     1      -1.693  16.075   9.615  1.00  0.00     0.034 A 
BRANCH  50  64
ATOM     64  C   UNL     1       2.924  13.885  13.093  1.00  0.00     0.023 A 
ATOM     65  C   UNL     1       4.175  14.507  13.283  1.00  0.00     0.012 A 
ATOM     66  C   UNL     1       2.290  13.262  14.186  1.00  0.00     0.148 A 
ATOM     67  C   UNL     1       4.805  14.473  14.525  1.00  0.00     0.002 A 
ATOM     68  C   UNL     1       2.901  13.277  15.434  1.00  0.00     0.091 A 
ATOM     69  F   UNL     1       1.110  12.659  13.983  1.00  0.00    -0.205 F 
ATOM     70  C   UNL     1       4.164  13.868  15.602  1.00  0.00     0.022 A 
BRANCH  68  71
ATOM     71  S   UNL     1       2.120  12.598  16.903  1.00  0.00     0.127 S 
ATOM     72  O   UNL     1       2.951  11.423  17.162  1.00  0.00    -0.237 OA
ATOM     73  O   UNL     1       2.284  13.686  17.867  1.00  0.00    -0.237 OA
ATOM     74  O   UNL     1       0.740  12.317  16.532  1.00  0.00    -0.744 OA
ENDBRANCH  68  71
ENDBRANCH  50  64
BRANCH  51  75
ATOM     75  C   UNL     1      -1.356  13.668   4.060  1.00  0.00     0.023 A 
ATOM     76  C   UNL     1      -1.449  14.818   3.254  1.00  0.00     0.012 A 
ATOM     77  C   UNL     1      -1.886  12.452   3.586  1.00  0.00     0.148 A 
ATOM     78  C   UNL     1      -2.089  14.769   2.015  1.00  0.00     0.002 A 
ATOM     79  C   UNL     1      -2.471  12.396   2.326  1.00  0.00     0.091 A 
ATOM     80  F   UNL     1      -1.793  11.370   4.371  1.00  0.00    -0.205 F 
ATOM     81  C   UNL     1      -2.591  13.557   1.547  1.00  0.00     0.022 A 
BRANCH  79  82
ATOM     82  S   UNL     1      -3.027  10.855   1.589  1.00  0.00     0.127 S 
ATOM     83  O   UNL     1      -4.475  11.039   1.566  1.00  0.00    -0.237 OA
ATOM     84  O   UNL     1      -2.378  10.899   0.278  1.00  0.00    -0.237 OA
ATOM     85  O   UNL     1      -2.538   9.798   2.464  1.00  0.00    -0.744 OA
ENDBRANCH  79  82
ENDBRANCH  51  75
BRANCH  63  86
ATOM     86  C   UNL     1      -2.755  17.064  10.014  1.00  0.00     0.023 A 
ATOM     87  C   UNL     1      -4.074  16.634  10.250  1.00  0.00     0.012 A 
ATOM     88  C   UNL     1      -2.408  18.407  10.264  1.00  0.00     0.148 A 
ATOM     89  C   UNL     1      -5.038  17.530  10.712  1.00  0.00     0.002 A 
ATOM     90  C   UNL     1      -3.358  19.281  10.774  1.00  0.00     0.091 A 
ATOM     91  F   UNL     1      -1.149  18.798  10.015  1.00  0.00    -0.205 F 
ATOM     92  C   UNL     1      -4.677  18.848  10.988  1.00  0.00     0.022 A 
BRANCH  90  93
ATOM     93  S   UNL     1      -2.960  20.965  11.258  1.00  0.00     0.127 S 
ATOM     94  O   UNL     1      -3.703  21.742  10.268  1.00  0.00    -0.237 OA
ATOM     95  O   UNL     1      -3.501  21.030  12.616  1.00  0.00    -0.237 OA
ATOM     96  O   UNL     1      -1.510  21.078  11.176  1.00  0.00    -0.744 OA
ENDBRANCH  90  93
ENDBRANCH  63  86
ENDBRANCH  37  38
ENDBRANCH  29  32
ENDBRANCH  27  28
ENDBRANCH  26  27
ENDBRANCH   1  26
TORSDOF 19
