REMARK SMILES C=Cc1cncc(-c2ccc([C@@H](C)C(=O)NCCCCCCNC(=O)c3ccc(-c4c5nc(c(-c6cccc(S(=O)(=O)[O-])c6F)c6ccc([nH]6)c(-c6cccc(S(=O)(=O)[O-])c6F)c6nc(c(-c7cccc(S(=O)(=O)[O-])c7F)c7ccc4[nH]7)C=C6)C=C5)cc3)cc2)c1
REMARK SMILES IDX 19 1 18 2 17 3 16 4 14 5 15 6 12 8 13 9 11 10 8 11 9 12
REMARK SMILES IDX 90 13 10 14 89 15 7 16 3 17 4 18 91 19 5 20 6 21 2 22 1 23
REMARK SMILES IDX 20 24 21 25 22 26 23 27 24 28 25 30 26 31 27 32 88 33 28 34
REMARK SMILES IDX 87 35 29 36 30 37 31 38 81 39 32 40 86 41 80 42 82 43 33 44
REMARK SMILES IDX 85 45 79 46 78 47 34 49 66 50 46 51 65 52 47 53 50 54 64 55
REMARK SMILES IDX 83 56 48 57 49 58 63 60 84 61 51 62 35 63 36 64 44 65 37 66
REMARK SMILES IDX 39 67 45 68 38 69 40 70 41 71 42 72 43 73 67 74 68 75 76 76
REMARK SMILES IDX 69 77 71 78 77 79 70 80 72 81 73 82 74 83 75 84 52 85 53 86
REMARK SMILES IDX 61 87 54 88 56 89 62 90 55 91 57 92 58 93 59 94 60 95
REMARK H PARENT 16 7 23 29 82 48 50 59
REMARK Flexibility Score: inf
ROOT
ATOM      1  C   UNL     1      -5.833   5.415  -2.034  1.00  0.00     0.002 C 
ENDROOT
BRANCH   1   2
ATOM      2  C   UNL     1      -6.103   3.920  -2.237  1.00  0.00     0.021 C 
BRANCH   2   3
ATOM      3  C   UNL     1      -7.081   3.618  -3.374  1.00  0.00     0.116 C 
BRANCH   3   4
ATOM      4  N   UNL     1      -6.402   3.495  -4.648  1.00  0.00    -0.356 N 
ATOM      5  C   UNL     1      -6.050   2.400  -5.376  1.00  0.00     0.227 C 
ATOM      6  O   UNL     1      -5.389   2.609  -6.401  1.00  0.00    -0.274 OA
ATOM      7  H   UNL     1      -6.152   4.354  -5.059  1.00  0.00     0.163 HD
BRANCH   5   8
ATOM      8  C   UNL     1      -6.446   0.964  -4.998  1.00  0.00     0.105 C 
ATOM      9  C   UNL     1      -7.957   0.732  -4.953  1.00  0.00     0.023 C 
BRANCH   8  10
ATOM     10  C   UNL     1      -5.640   0.400  -3.838  1.00  0.00    -0.036 A 
ATOM     11  C   UNL     1      -3.976  -0.532  -1.708  1.00  0.00    -0.017 A 
ATOM     12  C   UNL     1      -5.227   0.054  -1.463  1.00  0.00     0.009 A 
ATOM     13  C   UNL     1      -3.594  -0.681  -3.050  1.00  0.00     0.009 A 
ATOM     14  C   UNL     1      -6.055   0.484  -2.507  1.00  0.00     0.005 A 
ATOM     15  C   UNL     1      -4.401  -0.208  -4.094  1.00  0.00     0.005 A 
BRANCH  11  16
ATOM     16  C   UNL     1      -3.104  -0.955  -0.594  1.00  0.00     0.001 A 
ATOM     17  C   UNL     1      -0.910  -1.153   0.466  1.00  0.00    -0.007 A 
ATOM     18  C   UNL     1      -1.555  -1.707   1.566  1.00  0.00     0.119 A 
ATOM     19  C   UNL     1      -1.709  -0.786  -0.626  1.00  0.00     0.020 A 
ATOM     20  N   UNL     1      -2.888  -1.906   1.645  1.00  0.00    -0.263 NA
ATOM     21  C   UNL     1      -3.621  -1.526   0.573  1.00  0.00     0.119 A 
BRANCH  17  22
ATOM     22  C   UNL     1       0.551  -1.024   0.465  1.00  0.00     0.002 C 
ATOM     23  C   UNL     1       1.216   0.016  -0.053  1.00  0.00     0.009 C 
ENDBRANCH  17  22
ENDBRANCH  11  16
ENDBRANCH   8  10
ENDBRANCH   5   8
ENDBRANCH   3   4
ENDBRANCH   2   3
ENDBRANCH   1   2
BRANCH   1  24
ATOM     24  C   UNL     1      -7.059   6.250  -1.643  1.00  0.00     0.002 C 
BRANCH  24  25
ATOM     25  C   UNL     1      -7.828   5.759  -0.411  1.00  0.00     0.021 C 
BRANCH  25  26
ATOM     26  C   UNL     1      -7.009   5.705   0.877  1.00  0.00     0.116 C 
BRANCH  26  27
ATOM     27  N   UNL     1      -6.511   7.018   1.251  1.00  0.00    -0.352 N 
ATOM     28  C   UNL     1      -6.680   7.723   2.415  1.00  0.00     0.251 C 
ATOM     29  H   UNL     1      -5.969   7.470   0.565  1.00  0.00     0.163 HD
ATOM     30  O   UNL     1      -6.381   8.914   2.447  1.00  0.00    -0.269 OA
BRANCH  28  31
ATOM     31  C   UNL     1      -7.213   7.063   3.628  1.00  0.00     0.039 A 
ATOM     32  C   UNL     1      -8.087   7.777   4.453  1.00  0.00     0.014 A 
ATOM     33  C   UNL     1      -6.803   5.777   3.994  1.00  0.00     0.014 A 
ATOM     34  C   UNL     1      -8.562   7.196   5.631  1.00  0.00     0.010 A 
ATOM     35  C   UNL     1      -7.335   5.172   5.131  1.00  0.00     0.010 A 
ATOM     36  C   UNL     1      -8.196   5.885   5.978  1.00  0.00    -0.014 A 
BRANCH  36  37
ATOM     37  C   UNL     1      -8.675   5.269   7.241  1.00  0.00     0.031 A 
ATOM     38  C   UNL     1      -7.697   4.909   8.329  1.00  0.00     0.074 A 
ATOM     39  C   UNL     1      -9.983   4.984   7.391  1.00  0.00     0.049 A 
ATOM     40  N   UNL     1      -7.926   4.373   9.500  1.00  0.00    -0.248 NA
ATOM     41  C   UNL     1      -6.271   5.159   8.057  1.00  0.00     0.031 C 
ATOM     42  C   UNL     1     -11.018   5.202   6.377  1.00  0.00     0.029 A 
ATOM     43  N   UNL     1     -10.665   4.433   8.447  1.00  0.00    -0.354 N 
ATOM     44  C   UNL     1      -6.679   4.190  10.087  1.00  0.00     0.074 A 
ATOM     45  C   UNL     1      -5.693   4.636   9.128  1.00  0.00     0.031 C 
ATOM     46  C   UNL     1     -12.202   4.799   6.864  1.00  0.00     0.029 A 
ATOM     47  C   UNL     1     -12.012   4.281   8.216  1.00  0.00     0.049 A 
ATOM     48  H   UNL     1     -10.230   4.171   9.290  1.00  0.00     0.167 HD
ATOM     49  C   UNL     1      -6.380   3.729  11.325  1.00  0.00     0.034 A 
ATOM     50  C   UNL     1     -12.984   3.788   9.008  1.00  0.00     0.034 A 
ATOM     51  C   UNL     1      -7.366   3.337  12.296  1.00  0.00     0.049 A 
ATOM     52  C   UNL     1     -12.635   3.353  10.406  1.00  0.00     0.074 A 
ATOM     53  C   UNL     1      -7.174   2.938  13.607  1.00  0.00     0.029 A 
ATOM     54  N   UNL     1      -8.732   3.297  12.062  1.00  0.00    -0.354 N 
ATOM     55  N   UNL     1     -11.467   3.347  11.002  1.00  0.00    -0.248 NA
ATOM     56  C   UNL     1     -13.746   2.904  11.258  1.00  0.00     0.031 C 
ATOM     57  C   UNL     1      -8.425   2.644  14.161  1.00  0.00     0.029 A 
ATOM     58  C   UNL     1      -9.396   2.881  13.202  1.00  0.00     0.049 A 
ATOM     59  H   UNL     1      -9.165   3.529  11.209  1.00  0.00     0.167 HD
ATOM     60  C   UNL     1     -11.707   2.933  12.307  1.00  0.00     0.074 A 
ATOM     61  C   UNL     1     -13.136   2.720  12.420  1.00  0.00     0.031 C 
ATOM     62  C   UNL     1     -10.824   2.731  13.316  1.00  0.00     0.034 A 
BRANCH  49  63
ATOM     63  C   UNL     1      -4.926   3.684  11.723  1.00  0.00     0.023 A 
ATOM     64  C   UNL     1      -4.236   4.891  11.961  1.00  0.00     0.012 A 
ATOM     65  C   UNL     1      -4.257   2.459  11.911  1.00  0.00     0.148 A 
ATOM     66  C   UNL     1      -2.894   4.882  12.341  1.00  0.00     0.002 A 
ATOM     67  C   UNL     1      -2.932   2.457  12.335  1.00  0.00     0.091 A 
ATOM     68  F   UNL     1      -4.921   1.322  11.662  1.00  0.00    -0.205 F 
ATOM     69  C   UNL     1      -2.246   3.667  12.537  1.00  0.00     0.022 A 
BRANCH  67  70
ATOM     70  S   UNL     1      -2.031   0.945  12.694  1.00  0.00     0.127 S 
ATOM     71  O   UNL     1      -1.099   0.881  11.569  1.00  0.00    -0.237 OA
ATOM     72  O   UNL     1      -1.410   1.255  13.982  1.00  0.00    -0.237 OA
ATOM     73  O   UNL     1      -3.029  -0.114  12.742  1.00  0.00    -0.744 OA
ENDBRANCH  67  70
ENDBRANCH  49  63
BRANCH  50  74
ATOM     74  C   UNL     1     -14.395   3.772   8.529  1.00  0.00     0.023 A 
ATOM     75  C   UNL     1     -15.326   4.665   9.094  1.00  0.00     0.012 A 
ATOM     76  C   UNL     1     -14.813   2.905   7.502  1.00  0.00     0.148 A 
ATOM     77  C   UNL     1     -16.655   4.671   8.671  1.00  0.00     0.002 A 
ATOM     78  C   UNL     1     -16.126   2.954   7.046  1.00  0.00     0.091 A 
ATOM     79  F   UNL     1     -13.916   2.054   6.983  1.00  0.00    -0.205 F 
ATOM     80  C   UNL     1     -17.053   3.824   7.641  1.00  0.00     0.022 A 
BRANCH  78  81
ATOM     81  S   UNL     1     -16.691   1.994   5.637  1.00  0.00     0.127 S 
ATOM     82  O   UNL     1     -17.521   0.978   6.278  1.00  0.00    -0.237 OA
ATOM     83  O   UNL     1     -17.427   2.994   4.863  1.00  0.00    -0.237 OA
ATOM     84  O   UNL     1     -15.481   1.507   4.985  1.00  0.00    -0.744 OA
ENDBRANCH  78  81
ENDBRANCH  50  74
BRANCH  62  85
ATOM     85  C   UNL     1     -11.377   2.293  14.648  1.00  0.00     0.023 A 
ATOM     86  C   UNL     1     -11.870   0.983  14.806  1.00  0.00     0.012 A 
ATOM     87  C   UNL     1     -11.352   3.161  15.757  1.00  0.00     0.148 A 
ATOM     88  C   UNL     1     -12.366   0.556  16.038  1.00  0.00     0.002 A 
ATOM     89  C   UNL     1     -11.802   2.713  16.993  1.00  0.00     0.091 A 
ATOM     90  F   UNL     1     -10.899   4.412  15.584  1.00  0.00    -0.205 F 
ATOM     91  C   UNL     1     -12.322   1.416  17.133  1.00  0.00     0.022 A 
BRANCH  89  92
ATOM     92  S   UNL     1     -11.689   3.725  18.474  1.00  0.00     0.127 S 
ATOM     93  O   UNL     1     -13.064   4.200  18.617  1.00  0.00    -0.237 OA
ATOM     94  O   UNL     1     -11.271   2.754  19.486  1.00  0.00    -0.237 OA
ATOM     95  O   UNL     1     -10.695   4.748  18.178  1.00  0.00    -0.744 OA
ENDBRANCH  89  92
ENDBRANCH  62  85
ENDBRANCH  36  37
ENDBRANCH  28  31
ENDBRANCH  26  27
ENDBRANCH  25  26
ENDBRANCH  24  25
ENDBRANCH   1  24
TORSDOF 19
