REMARK SMILES Cc1c(N[C@@H](C)C[C@@H]2CCCCC[NH2+]2)cccc1C(=O)NCCCCCCNC(=O)c1ccc(-c2c3nc(c(-c4cccc(S(=O)(=O)[O-])c4F)c4ccc([nH]4)c(-c4cccc(S(=O)(=O)[O-])c4F)c4nc(c(-c5cccc(S(=O)(=O)[O-])c5F)c5ccc2[nH]5)C=C4)C=C3)cc1
REMARK SMILES IDX 22 1 21 2 19 3 20 4 18 6 1 7 2 8 3 9 15 10 17 11 16 12 4 13
REMARK SMILES IDX 5 15 6 16 7 17 8 18 9 19 10 20 11 21 14 23 13 26 12 27 23 29
REMARK SMILES IDX 24 30 25 31 26 32 27 33 28 34 29 35 30 37 31 38 32 39 93 40
REMARK SMILES IDX 33 41 92 42 34 43 35 44 36 45 86 46 37 47 91 48 85 49 87 50
REMARK SMILES IDX 38 51 90 52 84 53 83 54 39 56 71 57 51 58 70 59 52 60 55 61
REMARK SMILES IDX 69 62 88 63 53 64 54 65 68 67 89 68 56 69 40 70 41 71 49 72
REMARK SMILES IDX 42 73 44 74 50 75 43 76 45 77 46 78 47 79 48 80 72 81 73 82
REMARK SMILES IDX 81 83 74 84 76 85 82 86 75 87 77 88 78 89 79 90 80 91 57 92
REMARK SMILES IDX 58 93 66 94 59 95 61 96 67 97 60 98 62 99 63 100 64 101
REMARK SMILES IDX 65 102
REMARK H PARENT 21 5 4 14 14 24 14 25 28 36 87 55 55 66
REMARK Flexibility Score: 80.00
ROOT
ATOM      1  C   UNL     1       3.208   1.939   0.419  1.00  0.00     0.116 C 
ENDROOT
BRANCH   1   2
ATOM      2  N   UNL     1       2.078   2.722  -0.026  1.00  0.00    -0.352 N 
ATOM      3  C   UNL     1       0.820   2.421  -0.474  1.00  0.00     0.251 C 
ATOM      4  O   UNL     1       0.148   3.389  -0.848  1.00  0.00    -0.269 OA
ATOM      5  H   UNL     1       2.252   3.691  -0.002  1.00  0.00     0.163 HD
BRANCH   3   6
ATOM      6  C   UNL     1       0.157   1.075  -0.431  1.00  0.00     0.044 A 
ATOM      7  C   UNL     1       2.047  -0.415  -1.316  1.00  0.00     0.047 C 
ATOM      8  C   UNL     1       0.699  -0.208  -0.685  1.00  0.00    -0.015 A 
ATOM      9  C   UNL     1      -0.091  -1.372  -0.462  1.00  0.00     0.038 A 
ATOM     10  C   UNL     1      -1.475  -1.211  -0.311  1.00  0.00     0.026 A 
ATOM     11  C   UNL     1      -1.226   1.167  -0.171  1.00  0.00     0.014 A 
ATOM     12  C   UNL     1      -2.044   0.046  -0.167  1.00  0.00     0.003 A 
BRANCH   9  13
ATOM     13  N   UNL     1       0.527  -2.609  -0.307  1.00  0.00    -0.382 N 
ATOM     14  H   UNL     1       1.510  -2.608  -0.364  1.00  0.00     0.160 HD
BRANCH  13  15
ATOM     15  C   UNL     1      -0.097  -3.909  -0.070  1.00  0.00     0.082 C 
ATOM     16  C   UNL     1       0.308  -4.818  -1.239  1.00  0.00     0.031 C 
BRANCH  15  17
ATOM     17  C   UNL     1       0.367  -4.552   1.264  1.00  0.00     0.089 C 
BRANCH  17  18
ATOM     18  C   UNL     1       0.200  -3.789   2.620  1.00  0.00     0.184 C 
BRANCH  18  19
ATOM     19  C   UNL     1      -0.431  -4.723   3.675  1.00  0.00     0.065 C 
BRANCH  19  20
ATOM     20  C   UNL     1      -0.394  -4.240   5.131  1.00  0.00     0.006 C 
BRANCH  20  21
ATOM     21  C   UNL     1      -0.857  -2.807   5.404  1.00  0.00     0.006 CG0
ATOM     22  G   UNL     1       0.092  -1.769   4.809  1.00  0.00     0.000 G0
ENDBRANCH  20  21
ENDBRANCH  19  20
ENDBRANCH  18  19
BRANCH  18  23
ATOM     23  N   UNL     1      -0.653  -2.609   2.548  1.00  0.00    -0.344 N 
ATOM     24  H   UNL     1      -1.581  -2.863   2.886  1.00  0.00     0.346 HD
ATOM     25  H   UNL     1      -0.657  -2.308   1.573  1.00  0.00     0.346 HD
BRANCH  23  26
ATOM     26  C   UNL     1      -0.171  -1.477   3.336  1.00  0.00     0.260 C 
BRANCH  26  27
ATOM     27  C   UNL     1       0.092  -1.769   4.809  1.00  0.00     0.061 CG0
ATOM     28  G   UNL     1      -0.857  -2.807   5.404  1.00  0.00     0.000 G0
ENDBRANCH  26  27
ENDBRANCH  23  26
ENDBRANCH  18  23
ENDBRANCH  17  18
ENDBRANCH  15  17
ENDBRANCH  13  15
ENDBRANCH   9  13
ENDBRANCH   3   6
ENDBRANCH   1   2
BRANCH   1  29
ATOM     29  C   UNL     1       4.257   1.862  -0.700  1.00  0.00     0.021 C 
BRANCH  29  30
ATOM     30  C   UNL     1       5.309   2.977  -0.692  1.00  0.00     0.002 C 
BRANCH  30  31
ATOM     31  C   UNL     1       6.191   3.064   0.560  1.00  0.00     0.002 C 
BRANCH  31  32
ATOM     32  C   UNL     1       6.678   1.728   1.121  1.00  0.00     0.021 C 
BRANCH  32  33
ATOM     33  C   UNL     1       7.623   0.978   0.193  1.00  0.00     0.116 C 
BRANCH  33  34
ATOM     34  N   UNL     1       9.016   1.291   0.436  1.00  0.00    -0.352 N 
ATOM     35  C   UNL     1      10.167   0.766  -0.133  1.00  0.00     0.251 C 
ATOM     36  H   UNL     1       9.171   1.987   1.115  1.00  0.00     0.163 HD
ATOM     37  O   UNL     1      11.229   0.971   0.413  1.00  0.00    -0.269 OA
BRANCH  35  38
ATOM     38  C   UNL     1      10.093   0.102  -1.464  1.00  0.00     0.039 A 
ATOM     39  C   UNL     1      11.087   0.427  -2.398  1.00  0.00     0.014 A 
ATOM     40  C   UNL     1       8.982  -0.632  -1.867  1.00  0.00     0.014 A 
ATOM     41  C   UNL     1      10.841   0.253  -3.759  1.00  0.00     0.010 A 
ATOM     42  C   UNL     1       8.700  -0.737  -3.211  1.00  0.00     0.010 A 
ATOM     43  C   UNL     1       9.594  -0.220  -4.151  1.00  0.00    -0.014 A 
BRANCH  43  44
ATOM     44  C   UNL     1       9.095  -0.231  -5.515  1.00  0.00     0.031 A 
ATOM     45  C   UNL     1       9.336  -1.409  -6.365  1.00  0.00     0.074 A 
ATOM     46  C   UNL     1       8.253   0.753  -5.901  1.00  0.00     0.049 A 
ATOM     47  N   UNL     1       9.061  -1.464  -7.620  1.00  0.00    -0.248 NA
ATOM     48  C   UNL     1       9.931  -2.631  -5.845  1.00  0.00     0.031 C 
ATOM     49  C   UNL     1       7.361   0.767  -7.054  1.00  0.00     0.029 A 
ATOM     50  N   UNL     1       8.193   2.067  -5.423  1.00  0.00    -0.354 N 
ATOM     51  C   UNL     1       9.206  -2.772  -8.028  1.00  0.00     0.074 A 
ATOM     52  C   UNL     1       9.811  -3.441  -6.901  1.00  0.00     0.031 C 
ATOM     53  C   UNL     1       7.098   2.043  -7.377  1.00  0.00     0.029 A 
ATOM     54  C   UNL     1       7.977   2.865  -6.563  1.00  0.00     0.049 A 
ATOM     55  H   UNL     1       8.283   2.368  -4.490  1.00  0.00     0.167 HD
ATOM     56  C   UNL     1       8.682  -3.135  -9.234  1.00  0.00     0.034 A 
ATOM     57  C   UNL     1       8.919   3.735  -7.046  1.00  0.00     0.034 A 
ATOM     58  C   UNL     1       8.239  -1.946  -9.983  1.00  0.00     0.049 A 
ATOM     59  C   UNL     1       9.361   3.423  -8.476  1.00  0.00     0.074 A 
ATOM     60  C   UNL     1       7.030  -1.295 -10.170  1.00  0.00     0.029 A 
ATOM     61  N   UNL     1       9.212  -1.073 -10.434  1.00  0.00    -0.354 N 
ATOM     62  N   UNL     1       8.909   2.432  -9.198  1.00  0.00    -0.248 NA
ATOM     63  C   UNL     1      10.427   4.158  -9.163  1.00  0.00     0.031 C 
ATOM     64  C   UNL     1       7.311   0.020 -10.663  1.00  0.00     0.029 A 
ATOM     65  C   UNL     1       8.682   0.150 -10.806  1.00  0.00     0.049 A 
ATOM     66  H   UNL     1      10.169  -1.296 -10.485  1.00  0.00     0.167 HD
ATOM     67  C   UNL     1       9.692   2.285 -10.314  1.00  0.00     0.074 A 
ATOM     68  C   UNL     1      10.604   3.415 -10.268  1.00  0.00     0.031 C 
ATOM     69  C   UNL     1       9.603   1.221 -11.169  1.00  0.00     0.034 A 
BRANCH  56  70
ATOM     70  C   UNL     1       8.377  -4.553  -9.689  1.00  0.00     0.023 A 
ATOM     71  C   UNL     1       7.471  -4.700 -10.766  1.00  0.00     0.012 A 
ATOM     72  C   UNL     1       8.842  -5.759  -9.114  1.00  0.00     0.148 A 
ATOM     73  C   UNL     1       6.995  -5.947 -11.190  1.00  0.00     0.002 A 
ATOM     74  C   UNL     1       8.327  -7.003  -9.497  1.00  0.00     0.091 A 
ATOM     75  F   UNL     1       9.840  -5.740  -8.233  1.00  0.00    -0.205 F 
ATOM     76  C   UNL     1       7.401  -7.099 -10.536  1.00  0.00     0.022 A 
BRANCH  74  77
ATOM     77  S   UNL     1       8.756  -8.534  -8.645  1.00  0.00     0.127 S 
ATOM     78  O   UNL     1       7.439  -9.044  -8.256  1.00  0.00    -0.237 OA
ATOM     79  O   UNL     1       9.418  -9.305  -9.695  1.00  0.00    -0.237 OA
ATOM     80  O   UNL     1       9.602  -8.157  -7.519  1.00  0.00    -0.744 OA
ENDBRANCH  74  77
ENDBRANCH  56  70
BRANCH  57  81
ATOM     81  C   UNL     1       9.814   4.284  -5.976  1.00  0.00     0.023 A 
ATOM     82  C   UNL     1       9.189   4.951  -4.893  1.00  0.00     0.012 A 
ATOM     83  C   UNL     1      11.136   3.837  -5.815  1.00  0.00     0.148 A 
ATOM     84  C   UNL     1       9.792   4.992  -3.634  1.00  0.00     0.002 A 
ATOM     85  C   UNL     1      11.745   3.917  -4.565  1.00  0.00     0.091 A 
ATOM     86  F   UNL     1      11.767   3.281  -6.856  1.00  0.00    -0.205 F 
ATOM     87  C   UNL     1      11.055   4.437  -3.461  1.00  0.00     0.022 A 
BRANCH  85  88
ATOM     88  S   UNL     1      13.398   3.258  -4.310  1.00  0.00     0.127 S 
ATOM     89  O   UNL     1      14.225   4.413  -4.646  1.00  0.00    -0.237 OA
ATOM     90  O   UNL     1      13.387   2.901  -2.893  1.00  0.00    -0.237 OA
ATOM     91  O   UNL     1      13.476   2.117  -5.211  1.00  0.00    -0.744 OA
ENDBRANCH  85  88
ENDBRANCH  57  81
BRANCH  69  92
ATOM     92  C   UNL     1      10.414   1.131 -12.443  1.00  0.00     0.023 A 
ATOM     93  C   UNL     1      10.565   2.270 -13.261  1.00  0.00     0.012 A 
ATOM     94  C   UNL     1      10.913  -0.095 -12.946  1.00  0.00     0.148 A 
ATOM     95  C   UNL     1      11.225   2.208 -14.493  1.00  0.00     0.002 A 
ATOM     96  C   UNL     1      11.469  -0.172 -14.219  1.00  0.00     0.091 A 
ATOM     97  F   UNL     1      10.900  -1.187 -12.173  1.00  0.00    -0.205 F 
ATOM     98  C   UNL     1      11.655   0.982 -14.983  1.00  0.00     0.022 A 
BRANCH  96  99
ATOM     99  S   UNL     1      11.838  -1.749 -15.004  1.00  0.00     0.127 S 
ATOM    100  O   UNL     1      11.272  -1.559 -16.342  1.00  0.00    -0.237 OA
ATOM    101  O   UNL     1      13.297  -1.775 -14.958  1.00  0.00    -0.237 OA
ATOM    102  O   UNL     1      11.152  -2.755 -14.205  1.00  0.00    -0.744 OA
ENDBRANCH  96  99
ENDBRANCH  69  92
ENDBRANCH  43  44
ENDBRANCH  35  38
ENDBRANCH  33  34
ENDBRANCH  32  33
ENDBRANCH  31  32
ENDBRANCH  30  31
ENDBRANCH  29  30
ENDBRANCH   1  29
TORSDOF 20
