REMARK SMILES CS(=O)(=O)c1ccc(C2=NN(c3ccc(C(=O)NCCCCCCNC(=O)c4ccc(-c5c6nc(c(-c7cccc(S(=O)(=O)[O-])c7F)c7ccc([nH]7)c(-c7cccc(S(=O)(=O)[O-])c7F)c7nc(c(-c8cccc(S(=O)(=O)[O-])c8F)c8ccc5[nH]8)C=C7)C=C6)cc4)cc3)[C@H](c3cccs3)C2)cc1
REMARK SMILES IDX 21 1 20 2 19 3 18 4 16 5 17 6 15 8 12 9 13 10 92 11 14 12
REMARK SMILES IDX 91 13 11 14 9 15 10 16 99 17 93 18 8 19 5 20 6 21 101 22
REMARK SMILES IDX 7 23 100 24 2 25 1 26 3 27 4 28 94 29 95 30 98 31 96 32
REMARK SMILES IDX 97 33 22 34 23 35 24 36 25 37 26 38 27 40 28 41 29 42 90 43
REMARK SMILES IDX 30 44 89 45 31 46 32 47 33 48 83 49 34 50 88 51 82 52 84 53
REMARK SMILES IDX 35 54 87 55 81 56 80 57 36 59 68 60 48 61 67 62 49 63 52 64
REMARK SMILES IDX 66 65 85 66 50 67 51 68 65 70 86 71 53 72 37 73 38 74 46 75
REMARK SMILES IDX 39 76 41 77 47 78 40 79 42 80 43 81 44 82 45 83 69 84 70 85
REMARK SMILES IDX 78 86 71 87 73 88 79 89 72 90 74 91 75 92 76 93 77 94 54 95
REMARK SMILES IDX 55 96 63 97 56 98 58 99 64 100 57 101 59 102 60 103 61 104
REMARK SMILES IDX 62 105
REMARK H PARENT 18 7 25 39 84 58 52 69
REMARK Flexibility Score: inf
ROOT
ATOM      1  C   UNL     1       0.596 -11.905 -12.200  1.00  0.00     0.002 C 
ENDROOT
BRANCH   1   2
ATOM      2  C   UNL     1       0.994 -10.871 -11.139  1.00  0.00     0.021 C 
BRANCH   2   3
ATOM      3  C   UNL     1       1.529  -9.571 -11.742  1.00  0.00     0.116 C 
BRANCH   3   4
ATOM      4  N   UNL     1       0.425  -8.773 -12.245  1.00  0.00    -0.352 N 
ATOM      5  C   UNL     1      -0.180  -7.646 -11.754  1.00  0.00     0.251 C 
ATOM      6  O   UNL     1      -1.114  -7.159 -12.390  1.00  0.00    -0.269 OA
ATOM      7  H   UNL     1       0.043  -9.100 -13.091  1.00  0.00     0.163 HD
BRANCH   5   8
ATOM      8  C   UNL     1       0.316  -6.950 -10.539  1.00  0.00     0.039 A 
ATOM      9  C   UNL     1       1.445  -5.474  -8.425  1.00  0.00     0.060 A 
ATOM     10  C   UNL     1       0.825  -4.822  -9.494  1.00  0.00     0.029 A 
ATOM     11  C   UNL     1       1.402  -6.870  -8.378  1.00  0.00     0.029 A 
ATOM     12  C   UNL     1       0.266  -5.551 -10.545  1.00  0.00     0.016 A 
ATOM     13  C   UNL     1       0.822  -7.604  -9.414  1.00  0.00     0.016 A 
BRANCH   9  14
ATOM     14  N   UNL     1       2.076  -4.748  -7.438  1.00  0.00    -0.257 N 
ATOM     15  C   UNL     1       2.235  -3.723  -5.601  1.00  0.00     0.071 C 
ATOM     16  N   UNL     1       1.409  -4.428  -6.309  1.00  0.00    -0.176 NA
ATOM     17  C   UNL     1       3.571  -3.445  -6.240  1.00  0.00     0.091 C 
ATOM     18  C   UNL     1       3.512  -4.455  -7.400  1.00  0.00     0.154 C 
BRANCH  15  19
ATOM     19  C   UNL     1       1.865  -3.190  -4.285  1.00  0.00    -0.002 A 
ATOM     20  C   UNL     1       0.966  -2.186  -1.855  1.00  0.00     0.067 A 
ATOM     21  C   UNL     1       0.711  -3.520  -2.191  1.00  0.00     0.021 A 
ATOM     22  C   UNL     1       1.681  -1.354  -2.724  1.00  0.00     0.021 A 
ATOM     23  C   UNL     1       1.151  -4.018  -3.415  1.00  0.00     0.011 A 
ATOM     24  C   UNL     1       2.140  -1.863  -3.944  1.00  0.00     0.011 A 
BRANCH  20  25
ATOM     25  S   UNL     1       0.327  -1.611  -0.300  1.00  0.00     0.175 S 
ATOM     26  C   UNL     1       0.960   0.019  -0.039  1.00  0.00     0.163 C 
ATOM     27  O   UNL     1       0.905  -2.461   0.725  1.00  0.00    -0.224 OA
ATOM     28  O   UNL     1      -1.109  -1.496  -0.461  1.00  0.00    -0.224 OA
ENDBRANCH  20  25
ENDBRANCH  15  19
BRANCH  18  29
ATOM     29  C   UNL     1       4.432  -5.663  -7.290  1.00  0.00     0.030 A 
ATOM     30  C   UNL     1       4.814  -6.497  -8.331  1.00  0.00     0.017 A 
ATOM     31  S   UNL     1       5.114  -6.203  -5.810  1.00  0.00    -0.147 S 
ATOM     32  C   UNL     1       5.675  -7.551  -7.915  1.00  0.00     0.012 A 
ATOM     33  C   UNL     1       5.944  -7.489  -6.568  1.00  0.00     0.065 A 
ENDBRANCH  18  29
ENDBRANCH   9  14
ENDBRANCH   5   8
ENDBRANCH   3   4
ENDBRANCH   2   3
ENDBRANCH   1   2
BRANCH   1  34
ATOM     34  C   UNL     1       1.755 -12.399 -13.073  1.00  0.00     0.002 C 
BRANCH  34  35
ATOM     35  C   UNL     1       2.935 -12.989 -12.297  1.00  0.00     0.021 C 
BRANCH  35  36
ATOM     36  C   UNL     1       2.579 -14.204 -11.447  1.00  0.00     0.116 C 
BRANCH  36  37
ATOM     37  N   UNL     1       2.119 -15.314 -12.268  1.00  0.00    -0.352 N 
ATOM     38  C   UNL     1       2.608 -16.592 -12.354  1.00  0.00     0.251 C 
ATOM     39  H   UNL     1       1.345 -15.119 -12.845  1.00  0.00     0.163 HD
ATOM     40  O   UNL     1       2.256 -17.322 -13.276  1.00  0.00    -0.269 OA
BRANCH  38  41
ATOM     41  C   UNL     1       3.563 -17.085 -11.339  1.00  0.00     0.039 A 
ATOM     42  C   UNL     1       4.662 -17.841 -11.755  1.00  0.00     0.014 A 
ATOM     43  C   UNL     1       3.365 -16.820  -9.981  1.00  0.00     0.014 A 
ATOM     44  C   UNL     1       5.585 -18.293 -10.810  1.00  0.00     0.010 A 
ATOM     45  C   UNL     1       4.327 -17.204  -9.052  1.00  0.00     0.010 A 
ATOM     46  C   UNL     1       5.440 -17.956  -9.454  1.00  0.00    -0.014 A 
BRANCH  46  47
ATOM     47  C   UNL     1       6.453 -18.375  -8.452  1.00  0.00     0.031 A 
ATOM     48  C   UNL     1       6.077 -19.289  -7.318  1.00  0.00     0.074 A 
ATOM     49  C   UNL     1       7.700 -17.868  -8.522  1.00  0.00     0.049 A 
ATOM     50  N   UNL     1       6.825 -19.747  -6.347  1.00  0.00    -0.248 NA
ATOM     51  C   UNL     1       4.673 -19.724  -7.246  1.00  0.00     0.031 C 
ATOM     52  C   UNL     1       8.162 -16.898  -9.518  1.00  0.00     0.029 A 
ATOM     53  N   UNL     1       8.799 -18.076  -7.726  1.00  0.00    -0.354 N 
ATOM     54  C   UNL     1       5.979 -20.489  -5.532  1.00  0.00     0.074 A 
ATOM     55  C   UNL     1       4.654 -20.394  -6.103  1.00  0.00     0.031 C 
ATOM     56  C   UNL     1       9.448 -16.601  -9.278  1.00  0.00     0.029 A 
ATOM     57  C   UNL     1       9.894 -17.332  -8.096  1.00  0.00     0.049 A 
ATOM     58  H   UNL     1       8.802 -18.698  -6.964  1.00  0.00     0.167 HD
ATOM     59  C   UNL     1       6.282 -21.206  -4.423  1.00  0.00     0.034 A 
ATOM     60  C   UNL     1      11.119 -17.241  -7.542  1.00  0.00     0.034 A 
ATOM     61  C   UNL     1       7.608 -21.326  -3.880  1.00  0.00     0.049 A 
ATOM     62  C   UNL     1      11.446 -18.090  -6.346  1.00  0.00     0.074 A 
ATOM     63  C   UNL     1       8.037 -22.113  -2.825  1.00  0.00     0.029 A 
ATOM     64  N   UNL     1       8.716 -20.628  -4.333  1.00  0.00    -0.354 N 
ATOM     65  N   UNL     1      10.676 -18.927  -5.694  1.00  0.00    -0.248 NA
ATOM     66  C   UNL     1      12.820 -18.014  -5.832  1.00  0.00     0.031 C 
ATOM     67  C   UNL     1       9.398 -21.860  -2.617  1.00  0.00     0.029 A 
ATOM     68  C   UNL     1       9.825 -20.948  -3.568  1.00  0.00     0.049 A 
ATOM     69  H   UNL     1       8.715 -19.996  -5.088  1.00  0.00     0.167 HD
ATOM     70  C   UNL     1      11.478 -19.500  -4.714  1.00  0.00     0.074 A 
ATOM     71  C   UNL     1      12.801 -18.931  -4.875  1.00  0.00     0.031 C 
ATOM     72  C   UNL     1      11.146 -20.404  -3.759  1.00  0.00     0.034 A 
BRANCH  59  73
ATOM     73  C   UNL     1       5.160 -21.947  -3.740  1.00  0.00     0.023 A 
ATOM     74  C   UNL     1       4.570 -23.063  -4.369  1.00  0.00     0.012 A 
ATOM     75  C   UNL     1       4.723 -21.570  -2.455  1.00  0.00     0.148 A 
ATOM     76  C   UNL     1       3.537 -23.765  -3.749  1.00  0.00     0.002 A 
ATOM     77  C   UNL     1       3.728 -22.306  -1.822  1.00  0.00     0.091 A 
ATOM     78  F   UNL     1       5.280 -20.494  -1.880  1.00  0.00    -0.205 F 
ATOM     79  C   UNL     1       3.124 -23.394  -2.473  1.00  0.00     0.022 A 
BRANCH  77  80
ATOM     80  S   UNL     1       3.186 -21.959  -0.145  1.00  0.00     0.127 S 
ATOM     81  O   UNL     1       1.849 -21.413  -0.374  1.00  0.00    -0.237 OA
ATOM     82  O   UNL     1       3.204 -23.290   0.464  1.00  0.00    -0.237 OA
ATOM     83  O   UNL     1       4.157 -21.026   0.406  1.00  0.00    -0.744 OA
ENDBRANCH  77  80
ENDBRANCH  59  73
BRANCH  60  84
ATOM     84  C   UNL     1      12.140 -16.346  -8.156  1.00  0.00     0.023 A 
ATOM     85  C   UNL     1      13.245 -16.906  -8.828  1.00  0.00     0.012 A 
ATOM     86  C   UNL     1      11.997 -14.946  -8.117  1.00  0.00     0.148 A 
ATOM     87  C   UNL     1      14.204 -16.086  -9.423  1.00  0.00     0.002 A 
ATOM     88  C   UNL     1      12.923 -14.137  -8.762  1.00  0.00     0.091 A 
ATOM     89  F   UNL     1      10.942 -14.435  -7.466  1.00  0.00    -0.205 F 
ATOM     90  C   UNL     1      14.037 -14.704  -9.401  1.00  0.00     0.022 A 
BRANCH  88  91
ATOM     91  S   UNL     1      12.715 -12.358  -8.904  1.00  0.00     0.127 S 
ATOM     92  O   UNL     1      13.809 -11.861  -8.074  1.00  0.00    -0.237 OA
ATOM     93  O   UNL     1      12.888 -12.150 -10.342  1.00  0.00    -0.237 OA
ATOM     94  O   UNL     1      11.373 -12.075  -8.415  1.00  0.00    -0.744 OA
ENDBRANCH  88  91
ENDBRANCH  60  84
BRANCH  72  95
ATOM     95  C   UNL     1      12.237 -20.863  -2.825  1.00  0.00     0.023 A 
ATOM     96  C   UNL     1      12.751 -19.981  -1.853  1.00  0.00     0.012 A 
ATOM     97  C   UNL     1      12.711 -22.189  -2.873  1.00  0.00     0.148 A 
ATOM     98  C   UNL     1      13.748 -20.399  -0.972  1.00  0.00     0.002 A 
ATOM     99  C   UNL     1      13.665 -22.614  -1.957  1.00  0.00     0.091 A 
ATOM    100  F   UNL     1      12.224 -23.009  -3.816  1.00  0.00    -0.205 F 
ATOM    101  C   UNL     1      14.196 -21.717  -1.016  1.00  0.00     0.022 A 
BRANCH  99 102
ATOM    102  S   UNL     1      14.229 -24.317  -1.876  1.00  0.00     0.127 S 
ATOM    103  O   UNL     1      15.582 -24.210  -2.421  1.00  0.00    -0.237 OA
ATOM    104  O   UNL     1      14.170 -24.595  -0.440  1.00  0.00    -0.237 OA
ATOM    105  O   UNL     1      13.291 -25.090  -2.679  1.00  0.00    -0.744 OA
ENDBRANCH  99 102
ENDBRANCH  72  95
ENDBRANCH  46  47
ENDBRANCH  38  41
ENDBRANCH  36  37
ENDBRANCH  35  36
ENDBRANCH  34  35
ENDBRANCH   1  34
TORSDOF 20
