REMARK SMILES C[C@H](C(=O)NCCCCCCNC(=O)c1ccc(-c2c3nc(c(-c4cccc(S(=O)(=O)[O-])c4F)c4ccc([nH]4)c(-c4cccc(S(=O)(=O)[O-])c4F)c4nc(c(-c5cccc(S(=O)(=O)[O-])c5F)c5ccc2[nH]5)C=C4)C=C3)cc1)c1ccc(-c2ccccc2)c(F)c1
REMARK SMILES IDX 9 1 8 2 7 3 6 4 5 5 3 6 4 7 2 9 1 10 78 11 79 12 90 13 80 14
REMARK SMILES IDX 88 15 81 16 89 17 82 18 83 19 87 20 84 21 86 22 85 23 10 24
REMARK SMILES IDX 11 25 12 26 13 27 14 29 15 30 16 31 77 32 17 33 76 34 18 35
REMARK SMILES IDX 19 36 20 37 70 38 21 39 75 40 69 41 71 42 22 43 74 44 68 45
REMARK SMILES IDX 67 46 23 48 55 49 35 50 54 51 36 52 39 53 53 54 72 55 37 56
REMARK SMILES IDX 38 57 52 59 73 60 40 61 24 62 25 63 33 64 26 65 28 66 34 67
REMARK SMILES IDX 27 68 29 69 30 70 31 71 32 72 56 73 57 74 65 75 58 76 60 77
REMARK SMILES IDX 66 78 59 79 61 80 62 81 63 82 64 83 41 84 42 85 50 86 43 87
REMARK SMILES IDX 45 88 51 89 44 90 46 91 47 92 48 93 49 94
REMARK H PARENT 5 8 12 28 71 47 39 58
REMARK Flexibility Score: inf
ROOT
ATOM      1  C   UNL     1       1.377   4.568   2.208  1.00  0.00     0.002 C 
ENDROOT
BRANCH   1   2
ATOM      2  C   UNL     1       0.214   3.572   2.151  1.00  0.00     0.002 C 
BRANCH   2   3
ATOM      3  C   UNL     1      -0.194   3.137   0.738  1.00  0.00     0.021 C 
BRANCH   3   4
ATOM      4  C   UNL     1       0.944   2.509  -0.068  1.00  0.00     0.116 C 
BRANCH   4   5
ATOM      5  N   UNL     1       1.297   1.206   0.462  1.00  0.00    -0.356 N 
ATOM      6  C   UNL     1       1.078  -0.040  -0.049  1.00  0.00     0.227 C 
ATOM      7  O   UNL     1       1.386  -1.007   0.654  1.00  0.00    -0.274 OA
ATOM      8  H   UNL     1       1.768   1.223   1.327  1.00  0.00     0.163 HD
BRANCH   6   9
ATOM      9  C   UNL     1       0.483  -0.207  -1.453  1.00  0.00     0.105 C 
ATOM     10  C   UNL     1       1.114  -1.439  -2.117  1.00  0.00     0.023 C 
BRANCH   9  11
ATOM     11  C   UNL     1      -1.040  -0.252  -1.417  1.00  0.00    -0.033 A 
ATOM     12  C   UNL     1      -1.776   0.921  -1.630  1.00  0.00     0.005 A 
ATOM     13  C   UNL     1      -1.754  -1.424  -1.141  1.00  0.00     0.044 A 
ATOM     14  C   UNL     1      -3.171   0.934  -1.531  1.00  0.00     0.012 A 
ATOM     15  C   UNL     1      -3.153  -1.412  -1.079  1.00  0.00     0.131 A 
ATOM     16  C   UNL     1      -3.895  -0.236  -1.259  1.00  0.00     0.017 A 
ATOM     17  F   UNL     1      -3.776  -2.578  -0.844  1.00  0.00    -0.206 F 
BRANCH  16  18
ATOM     18  C   UNL     1      -5.366  -0.194  -1.160  1.00  0.00    -0.015 A 
ATOM     19  C   UNL     1      -6.134   0.514  -2.103  1.00  0.00     0.009 A 
ATOM     20  C   UNL     1      -6.048  -0.819  -0.103  1.00  0.00     0.009 A 
ATOM     21  C   UNL     1      -7.523   0.607  -1.987  1.00  0.00     0.001 A 
ATOM     22  C   UNL     1      -7.439  -0.731   0.013  1.00  0.00     0.001 A 
ATOM     23  C   UNL     1      -8.175  -0.015  -0.927  1.00  0.00     0.000 A 
ENDBRANCH  16  18
ENDBRANCH   9  11
ENDBRANCH   6   9
ENDBRANCH   4   5
ENDBRANCH   3   4
ENDBRANCH   2   3
ENDBRANCH   1   2
BRANCH   1  24
ATOM     24  C   UNL     1       1.176   5.841   1.382  1.00  0.00     0.021 C 
BRANCH  24  25
ATOM     25  C   UNL     1      -0.036   6.669   1.790  1.00  0.00     0.116 C 
BRANCH  25  26
ATOM     26  N   UNL     1       0.083   7.170   3.151  1.00  0.00    -0.352 N 
ATOM     27  C   UNL     1      -0.031   8.456   3.610  1.00  0.00     0.251 C 
ATOM     28  H   UNL     1       0.271   6.490   3.837  1.00  0.00     0.163 HD
ATOM     29  O   UNL     1       0.313   8.728   4.761  1.00  0.00    -0.269 OA
BRANCH  27  30
ATOM     30  C   UNL     1      -0.558   9.513   2.723  1.00  0.00     0.039 A 
ATOM     31  C   UNL     1       0.056  10.768   2.719  1.00  0.00     0.014 A 
ATOM     32  C   UNL     1      -1.670   9.272   1.910  1.00  0.00     0.014 A 
ATOM     33  C   UNL     1      -0.429  11.772   1.878  1.00  0.00     0.010 A 
ATOM     34  C   UNL     1      -2.096  10.245   1.012  1.00  0.00     0.010 A 
ATOM     35  C   UNL     1      -1.500  11.514   1.007  1.00  0.00    -0.014 A 
BRANCH  35  36
ATOM     36  C   UNL     1      -2.039  12.571   0.114  1.00  0.00     0.031 A 
ATOM     37  C   UNL     1      -3.459  13.043   0.282  1.00  0.00     0.074 A 
ATOM     38  C   UNL     1      -1.282  13.053  -0.890  1.00  0.00     0.049 A 
ATOM     39  N   UNL     1      -4.123  13.929  -0.414  1.00  0.00    -0.248 NA
ATOM     40  C   UNL     1      -4.249  12.415   1.355  1.00  0.00     0.031 C 
ATOM     41  C   UNL     1       0.084  12.626  -1.202  1.00  0.00     0.029 A 
ATOM     42  N   UNL     1      -1.561  13.997  -1.846  1.00  0.00    -0.354 N 
ATOM     43  C   UNL     1      -5.414  13.929   0.102  1.00  0.00     0.074 A 
ATOM     44  C   UNL     1      -5.451  12.929   1.145  1.00  0.00     0.031 C 
ATOM     45  C   UNL     1       0.529  13.318  -2.263  1.00  0.00     0.029 A 
ATOM     46  C   UNL     1      -0.526  14.215  -2.726  1.00  0.00     0.049 A 
ATOM     47  H   UNL     1      -2.421  14.474  -1.898  1.00  0.00     0.167 HD
ATOM     48  C   UNL     1      -6.467  14.708  -0.240  1.00  0.00     0.034 A 
ATOM     49  C   UNL     1      -0.438  15.045  -3.783  1.00  0.00     0.034 A 
ATOM     50  C   UNL     1      -6.410  15.735  -1.244  1.00  0.00     0.049 A 
ATOM     51  C   UNL     1      -1.606  15.936  -4.112  1.00  0.00     0.074 A 
ATOM     52  C   UNL     1      -7.388  16.648  -1.599  1.00  0.00     0.029 A 
ATOM     53  N   UNL     1      -5.318  15.981  -2.062  1.00  0.00    -0.354 N 
ATOM     54  N   UNL     1      -2.767  16.032  -3.511  1.00  0.00    -0.248 NA
ATOM     55  C   UNL     1      -1.436  16.862  -5.240  1.00  0.00     0.031 C 
ATOM     56  C   UNL     1      -6.898  17.422  -2.656  1.00  0.00     0.029 A 
ATOM     57  C   UNL     1      -5.600  17.021  -2.930  1.00  0.00     0.049 A 
ATOM     58  H   UNL     1      -4.467  15.487  -2.031  1.00  0.00     0.167 HD
ATOM     59  C   UNL     1      -3.445  17.063  -4.153  1.00  0.00     0.074 A 
ATOM     60  C   UNL     1      -2.559  17.565  -5.184  1.00  0.00     0.031 C 
ATOM     61  C   UNL     1      -4.689  17.548  -3.913  1.00  0.00     0.034 A 
BRANCH  48  62
ATOM     62  C   UNL     1      -7.762  14.499   0.503  1.00  0.00     0.023 A 
ATOM     63  C   UNL     1      -7.859  14.853   1.865  1.00  0.00     0.012 A 
ATOM     64  C   UNL     1      -8.896  13.985  -0.157  1.00  0.00     0.148 A 
ATOM     65  C   UNL     1      -9.045  14.653   2.570  1.00  0.00     0.002 A 
ATOM     66  C   UNL     1     -10.090  13.838   0.539  1.00  0.00     0.091 A 
ATOM     67  F   UNL     1      -8.782  13.633  -1.445  1.00  0.00    -0.205 F 
ATOM     68  C   UNL     1     -10.162  14.155   1.905  1.00  0.00     0.022 A 
BRANCH  66  69
ATOM     69  S   UNL     1     -11.606  13.287  -0.251  1.00  0.00     0.127 S 
ATOM     70  O   UNL     1     -11.748  11.937   0.294  1.00  0.00    -0.237 OA
ATOM     71  O   UNL     1     -12.584  14.253   0.251  1.00  0.00    -0.237 OA
ATOM     72  O   UNL     1     -11.361  13.362  -1.684  1.00  0.00    -0.744 OA
ENDBRANCH  66  69
ENDBRANCH  48  62
BRANCH  49  73
ATOM     73  C   UNL     1       0.835  15.139  -4.553  1.00  0.00     0.023 A 
ATOM     74  C   UNL     1       1.618  16.305  -4.447  1.00  0.00     0.012 A 
ATOM     75  C   UNL     1       1.285  14.080  -5.363  1.00  0.00     0.148 A 
ATOM     76  C   UNL     1       2.810  16.430  -5.160  1.00  0.00     0.002 A 
ATOM     77  C   UNL     1       2.501  14.189  -6.029  1.00  0.00     0.091 A 
ATOM     78  F   UNL     1       0.523  12.981  -5.453  1.00  0.00    -0.205 F 
ATOM     79  C   UNL     1       3.255  15.369  -5.944  1.00  0.00     0.022 A 
BRANCH  77  80
ATOM     80  S   UNL     1       3.216  12.831  -6.962  1.00  0.00     0.127 S 
ATOM     81  O   UNL     1       3.166  13.347  -8.328  1.00  0.00    -0.237 OA
ATOM     82  O   UNL     1       4.558  12.745  -6.385  1.00  0.00    -0.237 OA
ATOM     83  O   UNL     1       2.370  11.676  -6.694  1.00  0.00    -0.744 OA
ENDBRANCH  77  80
ENDBRANCH  49  73
BRANCH  61  84
ATOM     84  C   UNL     1      -5.153  18.724  -4.733  1.00  0.00     0.023 A 
ATOM     85  C   UNL     1      -5.468  18.560  -6.097  1.00  0.00     0.012 A 
ATOM     86  C   UNL     1      -5.344  19.981  -4.125  1.00  0.00     0.148 A 
ATOM     87  C   UNL     1      -5.929  19.640  -6.851  1.00  0.00     0.002 A 
ATOM     88  C   UNL     1      -5.856  21.036  -4.869  1.00  0.00     0.091 A 
ATOM     89  F   UNL     1      -5.021  20.122  -2.832  1.00  0.00    -0.205 F 
ATOM     90  C   UNL     1      -6.134  20.872  -6.235  1.00  0.00     0.022 A 
BRANCH  88  91
ATOM     91  S   UNL     1      -6.251  22.626  -4.132  1.00  0.00     0.127 S 
ATOM     92  O   UNL     1      -5.172  23.468  -4.644  1.00  0.00    -0.237 OA
ATOM     93  O   UNL     1      -7.570  22.912  -4.698  1.00  0.00    -0.237 OA
ATOM     94  O   UNL     1      -6.249  22.411  -2.691  1.00  0.00    -0.744 OA
ENDBRANCH  88  91
ENDBRANCH  61  84
ENDBRANCH  35  36
ENDBRANCH  27  30
ENDBRANCH  25  26
ENDBRANCH  24  25
ENDBRANCH   1  24
TORSDOF 18
