REMARK SMILES COc1cccc(/C=C(/C#N)c2ccc(Br)cc2)c1O[C@@H](C)C(=O)NCCCCCCNC(=O)c1ccc(-c2c3nc(c(-c4cccc(S(=O)(=O)[O-])c4F)c4ccc([nH]4)c(-c4cccc(S(=O)(=O)[O-])c4F)c4nc(c(-c5cccc(S(=O)(=O)[O-])c5F)c5ccc2[nH]5)C=C4)C=C3)cc1
REMARK SMILES IDX 28 1 27 2 26 3 25 4 23 5 24 6 21 8 22 9 20 10 19 11 3 12
REMARK SMILES IDX 4 13 5 14 7 15 6 16 2 17 1 18 8 19 9 20 10 21 11 22 12 23
REMARK SMILES IDX 13 24 18 25 14 26 17 27 15 28 16 29 29 30 30 31 31 32 32 33
REMARK SMILES IDX 33 34 34 36 35 37 36 38 97 39 37 40 96 41 38 42 39 43 40 44
REMARK SMILES IDX 90 45 41 46 95 47 89 48 91 49 42 50 94 51 88 52 87 53 43 55
REMARK SMILES IDX 75 56 55 57 74 58 56 59 59 60 73 61 92 62 57 63 58 64 72 66
REMARK SMILES IDX 93 67 60 68 44 69 45 70 53 71 46 72 48 73 54 74 47 75 49 76
REMARK SMILES IDX 50 77 51 78 52 79 76 80 77 81 85 82 78 83 80 84 86 85 79 86
REMARK SMILES IDX 81 87 82 88 83 89 84 90 61 91 62 92 70 93 63 94 65 95 71 96
REMARK SMILES IDX 64 97 66 98 67 99 68 100 69 101
REMARK H PARENT 25 7 32 35 91 54 59 65
REMARK Flexibility Score: inf
ROOT
ATOM      1  C   UNL     1      -0.634  -2.162  -4.645  1.00  0.00     0.002 C 
ENDROOT
BRANCH   1   2
ATOM      2  C   UNL     1       0.492  -1.428  -3.914  1.00  0.00     0.021 C 
BRANCH   2   3
ATOM      3  C   UNL     1       0.501  -1.612  -2.398  1.00  0.00     0.116 C 
BRANCH   3   4
ATOM      4  N   UNL     1       1.835  -1.915  -1.891  1.00  0.00    -0.353 N 
ATOM      5  C   UNL     1       2.223  -1.580  -0.618  1.00  0.00     0.260 C 
ATOM      6  O   UNL     1       2.148  -2.475   0.233  1.00  0.00    -0.271 OA
ATOM      7  H   UNL     1       2.476  -2.373  -2.480  1.00  0.00     0.163 HD
BRANCH   5   8
ATOM      8  C   UNL     1       3.049  -0.259  -0.352  1.00  0.00     0.259 C 
ATOM      9  C   UNL     1       3.021   0.112   1.143  1.00  0.00     0.064 C 
BRANCH   8  10
ATOM     10  O   UNL     1       3.225   0.935  -1.092  1.00  0.00    -0.476 OA
BRANCH  10  11
ATOM     11  C   UNL     1       2.210   1.414  -1.868  1.00  0.00     0.169 A 
ATOM     12  C   UNL     1       0.897   1.608  -1.394  1.00  0.00     0.161 A 
ATOM     13  C   UNL     1      -0.085   2.106  -2.252  1.00  0.00     0.050 A 
ATOM     14  C   UNL     1       0.211   2.300  -3.596  1.00  0.00     0.005 A 
ATOM     15  C   UNL     1       2.568   1.819  -3.177  1.00  0.00     0.022 A 
ATOM     16  C   UNL     1       1.516   2.112  -4.058  1.00  0.00     0.012 A 
BRANCH  12  17
ATOM     17  O   UNL     1       0.648   1.432  -0.062  1.00  0.00    -0.493 OA
ATOM     18  C   UNL     1      -0.539   0.725   0.287  1.00  0.00     0.278 C 
ENDBRANCH  12  17
BRANCH  15  19
ATOM     19  C   UNL     1       4.018   2.035  -3.529  1.00  0.00     0.032 C 
ATOM     20  C   UNL     1       4.548   2.910  -4.416  1.00  0.00     0.060 C 
BRANCH  20  21
ATOM     21  C   UNL     1       6.029   3.235  -4.510  1.00  0.00     0.100 C 
ATOM     22  N   UNL     1       7.259   3.505  -4.588  1.00  0.00    -0.192 NA
ENDBRANCH  20  21
BRANCH  20  23
ATOM     23  C   UNL     1       3.752   3.716  -5.381  1.00  0.00    -0.008 A 
ATOM     24  C   UNL     1       3.879   3.449  -6.756  1.00  0.00     0.010 A 
ATOM     25  C   UNL     1       2.846   4.704  -4.963  1.00  0.00     0.010 A 
ATOM     26  C   UNL     1       3.059   4.094  -7.684  1.00  0.00     0.016 A 
ATOM     27  C   UNL     1       2.003   5.326  -5.891  1.00  0.00     0.016 A 
ATOM     28  C   UNL     1       2.103   5.006  -7.244  1.00  0.00     0.018 A 
ATOM     29  Br  UNL     1       0.906   5.775  -8.486  1.00  0.00    -0.051 Br
ENDBRANCH  20  23
ENDBRANCH  15  19
ENDBRANCH  10  11
ENDBRANCH   8  10
ENDBRANCH   5   8
ENDBRANCH   3   4
ENDBRANCH   2   3
ENDBRANCH   1   2
BRANCH   1  30
ATOM     30  C   UNL     1      -2.066  -1.812  -4.230  1.00  0.00     0.002 C 
BRANCH  30  31
ATOM     31  C   UNL     1      -2.511  -0.361  -4.435  1.00  0.00     0.021 C 
BRANCH  31  32
ATOM     32  C   UNL     1      -2.347   0.206  -5.846  1.00  0.00     0.116 C 
BRANCH  32  33
ATOM     33  N   UNL     1      -3.029  -0.594  -6.851  1.00  0.00    -0.352 N 
ATOM     34  C   UNL     1      -4.032  -0.267  -7.729  1.00  0.00     0.251 C 
ATOM     35  H   UNL     1      -2.719  -1.527  -6.912  1.00  0.00     0.163 HD
ATOM     36  O   UNL     1      -4.589  -1.163  -8.361  1.00  0.00    -0.269 OA
BRANCH  34  37
ATOM     37  C   UNL     1      -4.459   1.138  -7.922  1.00  0.00     0.039 A 
ATOM     38  C   UNL     1      -5.825   1.411  -8.060  1.00  0.00     0.014 A 
ATOM     39  C   UNL     1      -3.531   2.177  -8.032  1.00  0.00     0.014 A 
ATOM     40  C   UNL     1      -6.260   2.726  -8.251  1.00  0.00     0.010 A 
ATOM     41  C   UNL     1      -3.970   3.495  -8.159  1.00  0.00     0.010 A 
ATOM     42  C   UNL     1      -5.338   3.785  -8.274  1.00  0.00    -0.014 A 
BRANCH  42  43
ATOM     43  C   UNL     1      -5.790   5.197  -8.398  1.00  0.00     0.031 A 
ATOM     44  C   UNL     1      -5.399   6.026  -9.593  1.00  0.00     0.074 A 
ATOM     45  C   UNL     1      -6.486   5.761  -7.390  1.00  0.00     0.049 A 
ATOM     46  N   UNL     1      -5.655   7.285  -9.842  1.00  0.00    -0.248 NA
ATOM     47  C   UNL     1      -4.598   5.361 -10.633  1.00  0.00     0.031 C 
ATOM     48  C   UNL     1      -6.866   5.087  -6.146  1.00  0.00     0.029 A 
ATOM     49  N   UNL     1      -6.973   7.036  -7.238  1.00  0.00    -0.354 N 
ATOM     50  C   UNL     1      -5.019   7.574 -11.044  1.00  0.00     0.074 A 
ATOM     51  C   UNL     1      -4.341   6.365 -11.461  1.00  0.00     0.031 C 
ATOM     52  C   UNL     1      -7.522   5.954  -5.359  1.00  0.00     0.029 A 
ATOM     53  C   UNL     1      -7.586   7.251  -6.025  1.00  0.00     0.049 A 
ATOM     54  H   UNL     1      -6.891   7.731  -7.930  1.00  0.00     0.167 HD
ATOM     55  C   UNL     1      -5.019   8.730 -11.751  1.00  0.00     0.034 A 
ATOM     56  C   UNL     1      -8.130   8.368  -5.501  1.00  0.00     0.034 A 
ATOM     57  C   UNL     1      -5.726   9.918 -11.354  1.00  0.00     0.049 A 
ATOM     58  C   UNL     1      -8.148   9.628  -6.323  1.00  0.00     0.074 A 
ATOM     59  C   UNL     1      -5.860  11.110 -12.044  1.00  0.00     0.029 A 
ATOM     60  N   UNL     1      -6.410  10.071 -10.158  1.00  0.00    -0.354 N 
ATOM     61  N   UNL     1      -7.679   9.833  -7.529  1.00  0.00    -0.248 NA
ATOM     62  C   UNL     1      -8.804  10.801  -5.727  1.00  0.00     0.031 C 
ATOM     63  C   UNL     1      -6.604  11.993 -11.254  1.00  0.00     0.029 A 
ATOM     64  C   UNL     1      -6.959  11.341 -10.084  1.00  0.00     0.049 A 
ATOM     65  H   UNL     1      -6.493   9.379  -9.463  1.00  0.00     0.167 HD
ATOM     66  C   UNL     1      -8.014  11.143  -7.852  1.00  0.00     0.074 A 
ATOM     67  C   UNL     1      -8.744  11.678  -6.721  1.00  0.00     0.031 C 
ATOM     68  C   UNL     1      -7.729  11.845  -8.977  1.00  0.00     0.034 A 
BRANCH  55  69
ATOM     69  C   UNL     1      -4.271   8.754 -13.059  1.00  0.00     0.023 A 
ATOM     70  C   UNL     1      -4.781   8.043 -14.165  1.00  0.00     0.012 A 
ATOM     71  C   UNL     1      -3.104   9.529 -13.217  1.00  0.00     0.148 A 
ATOM     72  C   UNL     1      -4.126   8.074 -15.396  1.00  0.00     0.002 A 
ATOM     73  C   UNL     1      -2.481   9.591 -14.459  1.00  0.00     0.091 A 
ATOM     74  F   UNL     1      -2.623  10.184 -12.151  1.00  0.00    -0.205 F 
ATOM     75  C   UNL     1      -2.983   8.855 -15.545  1.00  0.00     0.022 A 
BRANCH  73  76
ATOM     76  S   UNL     1      -1.052  10.632 -14.775  1.00  0.00     0.127 S 
ATOM     77  O   UNL     1       0.009   9.636 -14.930  1.00  0.00    -0.237 OA
ATOM     78  O   UNL     1      -1.434  11.309 -16.016  1.00  0.00    -0.237 OA
ATOM     79  O   UNL     1      -0.926  11.505 -13.620  1.00  0.00    -0.744 OA
ENDBRANCH  73  76
ENDBRANCH  55  69
BRANCH  56  80
ATOM     80  C   UNL     1      -8.759   8.325  -4.151  1.00  0.00     0.023 A 
ATOM     81  C   UNL     1     -10.159   8.434  -4.035  1.00  0.00     0.012 A 
ATOM     82  C   UNL     1      -7.986   8.146  -2.987  1.00  0.00     0.148 A 
ATOM     83  C   UNL     1     -10.774   8.398  -2.783  1.00  0.00     0.002 A 
ATOM     84  C   UNL     1      -8.610   8.052  -1.748  1.00  0.00     0.091 A 
ATOM     85  F   UNL     1      -6.654   8.057  -3.117  1.00  0.00    -0.205 F 
ATOM     86  C   UNL     1     -10.002   8.196  -1.642  1.00  0.00     0.022 A 
BRANCH  84  87
ATOM     87  S   UNL     1      -7.705   7.653  -0.248  1.00  0.00     0.127 S 
ATOM     88  O   UNL     1      -7.738   8.930   0.468  1.00  0.00    -0.237 OA
ATOM     89  O   UNL     1      -8.541   6.601   0.337  1.00  0.00    -0.237 OA
ATOM     90  O   UNL     1      -6.397   7.203  -0.685  1.00  0.00    -0.744 OA
ENDBRANCH  84  87
ENDBRANCH  56  80
BRANCH  68  91
ATOM     91  C   UNL     1      -8.240  13.259  -9.067  1.00  0.00     0.023 A 
ATOM     92  C   UNL     1      -7.645  14.272  -8.289  1.00  0.00     0.012 A 
ATOM     93  C   UNL     1      -9.260  13.597  -9.979  1.00  0.00     0.148 A 
ATOM     94  C   UNL     1      -8.079  15.593  -8.393  1.00  0.00     0.002 A 
ATOM     95  C   UNL     1      -9.653  14.923 -10.113  1.00  0.00     0.091 A 
ATOM     96  F   UNL     1      -9.827  12.616 -10.696  1.00  0.00    -0.205 F 
ATOM     97  C   UNL     1      -9.073  15.920  -9.313  1.00  0.00     0.022 A 
BRANCH  95  98
ATOM     98  S   UNL     1     -10.857  15.451 -11.338  1.00  0.00     0.127 S 
ATOM     99  O   UNL     1     -12.017  15.757 -10.504  1.00  0.00    -0.237 OA
ATOM    100  O   UNL     1     -10.205  16.620 -11.930  1.00  0.00    -0.237 OA
ATOM    101  O   UNL     1     -11.021  14.326 -12.249  1.00  0.00    -0.744 OA
ENDBRANCH  95  98
ENDBRANCH  68  91
ENDBRANCH  42  43
ENDBRANCH  34  37
ENDBRANCH  32  33
ENDBRANCH  31  32
ENDBRANCH  30  31
ENDBRANCH   1  30
TORSDOF 22
