REMARK SMILES CC(=O)Nc1ccc(/C(=C\c2ccc(S(C)(=O)=O)cc2)C(=O)NCCCCCCNC(=O)c2ccc(-c3c4nc(c(-c5cccc(S(=O)(=O)[O-])c5F)c5ccc([nH]5)c(-c5cccc(S(=O)(=O)[O-])c5F)c5nc(c(-c6cccc(S(=O)(=O)[O-])c6F)c6ccc3[nH]6)C=C5)C=C4)cc2)cc1
REMARK SMILES IDX 27 1 26 2 25 3 24 4 23 5 21 6 22 7 9 9 10 10 8 11 5 12 6 13
REMARK SMILES IDX 97 14 7 15 96 16 4 17 1 18 2 19 3 20 11 22 12 23 20 24 13 25
REMARK SMILES IDX 19 26 14 27 15 28 16 29 17 30 18 31 28 32 29 33 30 34 31 35
REMARK SMILES IDX 32 37 33 38 34 39 95 40 35 41 94 42 36 43 37 44 38 45 88 46
REMARK SMILES IDX 39 47 93 48 87 49 89 50 40 51 92 52 86 53 85 54 41 56 73 57
REMARK SMILES IDX 53 58 72 59 54 60 57 61 71 62 90 63 55 64 56 65 70 67 91 68
REMARK SMILES IDX 58 69 42 70 43 71 51 72 44 73 46 74 52 75 45 76 47 77 48 78
REMARK SMILES IDX 49 79 50 80 74 81 75 82 83 83 76 84 78 85 84 86 77 87 79 88
REMARK SMILES IDX 80 89 81 90 82 91 59 92 60 93 68 94 61 95 63 96 69 97 62 98
REMARK SMILES IDX 64 99 65 100 66 101 67 102
REMARK H PARENT 23 8 4 21 30 36 89 55 57 66
REMARK Flexibility Score: inf
ROOT
ATOM      1  C   UNL     1       8.648  -1.550   8.855  1.00  0.00     0.002 C 
ENDROOT
BRANCH   1   2
ATOM      2  C   UNL     1       7.326  -2.073   8.280  1.00  0.00     0.002 C 
BRANCH   2   3
ATOM      3  C   UNL     1       6.161  -1.071   8.327  1.00  0.00     0.021 C 
BRANCH   3   4
ATOM      4  C   UNL     1       6.455   0.241   7.593  1.00  0.00     0.116 C 
BRANCH   4   5
ATOM      5  N   UNL     1       6.400   0.026   6.162  1.00  0.00    -0.352 N 
ATOM      6  C   UNL     1       5.512   0.276   5.168  1.00  0.00     0.251 C 
ATOM      7  O   UNL     1       5.907  -0.101   4.060  1.00  0.00    -0.269 OA
ATOM      8  H   UNL     1       7.214  -0.412   5.825  1.00  0.00     0.163 HD
BRANCH   6   9
ATOM      9  C   UNL     1       4.179   1.011   5.332  1.00  0.00     0.047 C 
ATOM     10  C   UNL     1       3.595   1.046   6.554  1.00  0.00     0.022 C 
BRANCH   9  11
ATOM     11  C   UNL     1       3.460   1.515   4.101  1.00  0.00    -0.013 A 
ATOM     12  C   UNL     1       1.776   2.090   1.860  1.00  0.00     0.041 A 
ATOM     13  C   UNL     1       1.789   2.921   2.982  1.00  0.00     0.027 A 
ATOM     14  C   UNL     1       2.711   1.072   1.802  1.00  0.00     0.027 A 
ATOM     15  C   UNL     1       2.644   2.655   4.069  1.00  0.00     0.011 A 
ATOM     16  C   UNL     1       3.504   0.768   2.913  1.00  0.00     0.011 A 
BRANCH  12  17
ATOM     17  N   UNL     1       0.822   2.341   0.860  1.00  0.00    -0.326 N 
ATOM     18  C   UNL     1       0.729   0.124  -0.308  1.00  0.00     0.114 C 
ATOM     19  C   UNL     1       0.352   1.575  -0.171  1.00  0.00     0.221 C 
ATOM     20  O   UNL     1      -0.431   2.086  -0.977  1.00  0.00    -0.275 OA
ATOM     21  H   UNL     1       0.415   3.236   0.910  1.00  0.00     0.169 HD
ENDBRANCH  12  17
ENDBRANCH   9  11
BRANCH  10  22
ATOM     22  C   UNL     1       2.440   1.826   7.023  1.00  0.00    -0.025 A 
ATOM     23  C   UNL     1       2.693   2.985   7.779  1.00  0.00     0.009 A 
ATOM     24  C   UNL     1       1.123   1.482   6.707  1.00  0.00     0.009 A 
ATOM     25  C   UNL     1       1.647   3.821   8.170  1.00  0.00     0.021 A 
ATOM     26  C   UNL     1       0.071   2.318   7.093  1.00  0.00     0.021 A 
ATOM     27  C   UNL     1       0.339   3.485   7.817  1.00  0.00     0.067 A 
BRANCH  27  28
ATOM     28  S   UNL     1      -0.978   4.617   8.205  1.00  0.00     0.175 S 
ATOM     29  C   UNL     1      -1.249   4.385   9.941  1.00  0.00     0.163 C 
ATOM     30  O   UNL     1      -0.465   5.955   7.990  1.00  0.00    -0.224 OA
ATOM     31  O   UNL     1      -2.164   4.162   7.501  1.00  0.00    -0.224 OA
ENDBRANCH  27  28
ENDBRANCH  10  22
ENDBRANCH   6   9
ENDBRANCH   4   5
ENDBRANCH   3   4
ENDBRANCH   2   3
ENDBRANCH   1   2
BRANCH   1  32
ATOM     32  C   UNL     1       8.544  -0.961  10.265  1.00  0.00     0.021 C 
BRANCH  32  33
ATOM     33  C   UNL     1       8.067  -1.953  11.321  1.00  0.00     0.116 C 
BRANCH  33  34
ATOM     34  N   UNL     1       9.006  -3.051  11.479  1.00  0.00    -0.352 N 
ATOM     35  C   UNL     1       9.655  -3.483  12.607  1.00  0.00     0.251 C 
ATOM     36  H   UNL     1       9.205  -3.557  10.659  1.00  0.00     0.163 HD
ATOM     37  O   UNL     1      10.606  -4.253  12.502  1.00  0.00    -0.269 OA
BRANCH  35  38
ATOM     38  C   UNL     1       9.213  -3.024  13.941  1.00  0.00     0.039 A 
ATOM     39  C   UNL     1      10.180  -2.723  14.903  1.00  0.00     0.014 A 
ATOM     40  C   UNL     1       7.855  -2.931  14.259  1.00  0.00     0.014 A 
ATOM     41  C   UNL     1       9.784  -2.303  16.173  1.00  0.00     0.010 A 
ATOM     42  C   UNL     1       7.463  -2.435  15.500  1.00  0.00     0.010 A 
ATOM     43  C   UNL     1       8.422  -2.137  16.478  1.00  0.00    -0.014 A 
BRANCH  43  44
ATOM     44  C   UNL     1       8.000  -1.654  17.817  1.00  0.00     0.031 A 
ATOM     45  C   UNL     1       7.173  -2.529  18.721  1.00  0.00     0.074 A 
ATOM     46  C   UNL     1       8.320  -0.402  18.199  1.00  0.00     0.049 A 
ATOM     47  N   UNL     1       6.733  -2.281  19.928  1.00  0.00    -0.248 NA
ATOM     48  C   UNL     1       6.764  -3.842  18.196  1.00  0.00     0.031 C 
ATOM     49  C   UNL     1       9.039   0.573  17.376  1.00  0.00     0.029 A 
ATOM     50  N   UNL     1       8.070   0.270  19.368  1.00  0.00    -0.354 N 
ATOM     51  C   UNL     1       5.974  -3.387  20.293  1.00  0.00     0.074 A 
ATOM     52  C   UNL     1       5.980  -4.292  19.165  1.00  0.00     0.031 C 
ATOM     53  C   UNL     1       9.184   1.712  18.071  1.00  0.00     0.029 A 
ATOM     54  C   UNL     1       8.549   1.559  19.375  1.00  0.00     0.049 A 
ATOM     55  H   UNL     1       7.592  -0.132  20.129  1.00  0.00     0.167 HD
ATOM     56  C   UNL     1       5.354  -3.641  21.470  1.00  0.00     0.034 A 
ATOM     57  C   UNL     1       8.485   2.511  20.326  1.00  0.00     0.034 A 
ATOM     58  C   UNL     1       5.381  -2.754  22.602  1.00  0.00     0.049 A 
ATOM     59  C   UNL     1       7.839   2.182  21.644  1.00  0.00     0.074 A 
ATOM     60  C   UNL     1       4.862  -2.957  23.868  1.00  0.00     0.029 A 
ATOM     61  N   UNL     1       5.949  -1.489  22.602  1.00  0.00    -0.354 N 
ATOM     62  N   UNL     1       7.272   1.065  22.030  1.00  0.00    -0.248 NA
ATOM     63  C   UNL     1       7.864   3.230  22.674  1.00  0.00     0.031 C 
ATOM     64  C   UNL     1       5.089  -1.802  24.625  1.00  0.00     0.029 A 
ATOM     65  C   UNL     1       5.783  -0.894  23.842  1.00  0.00     0.049 A 
ATOM     66  H   UNL     1       6.404  -1.074  21.834  1.00  0.00     0.167 HD
ATOM     67  C   UNL     1       6.904   1.262  23.356  1.00  0.00     0.074 A 
ATOM     68  C   UNL     1       7.337   2.597  23.713  1.00  0.00     0.031 C 
ATOM     69  C   UNL     1       6.255   0.420  24.198  1.00  0.00     0.034 A 
BRANCH  56  70
ATOM     70  C   UNL     1       4.626  -4.954  21.610  1.00  0.00     0.023 A 
ATOM     71  C   UNL     1       5.360  -6.157  21.681  1.00  0.00     0.012 A 
ATOM     72  C   UNL     1       3.223  -4.996  21.729  1.00  0.00     0.148 A 
ATOM     73  C   UNL     1       4.709  -7.381  21.830  1.00  0.00     0.002 A 
ATOM     74  C   UNL     1       2.584  -6.215  21.926  1.00  0.00     0.091 A 
ATOM     75  F   UNL     1       2.539  -3.847  21.638  1.00  0.00    -0.205 F 
ATOM     76  C   UNL     1       3.324  -7.409  21.963  1.00  0.00     0.022 A 
BRANCH  74  77
ATOM     77  S   UNL     1       0.813  -6.350  22.190  1.00  0.00     0.127 S 
ATOM     78  O   UNL     1       0.377  -6.985  20.947  1.00  0.00    -0.237 OA
ATOM     79  O   UNL     1       0.743  -7.210  23.371  1.00  0.00    -0.237 OA
ATOM     80  O   UNL     1       0.333  -4.991  22.398  1.00  0.00    -0.744 OA
ENDBRANCH  74  77
ENDBRANCH  56  70
BRANCH  57  81
ATOM     81  C   UNL     1       9.108   3.842  20.087  1.00  0.00     0.023 A 
ATOM     82  C   UNL     1      10.267   4.208  20.798  1.00  0.00     0.012 A 
ATOM     83  C   UNL     1       8.575   4.734  19.136  1.00  0.00     0.148 A 
ATOM     84  C   UNL     1      10.864   5.452  20.593  1.00  0.00     0.002 A 
ATOM     85  C   UNL     1       9.209   5.947  18.894  1.00  0.00     0.091 A 
ATOM     86  F   UNL     1       7.466   4.371  18.476  1.00  0.00    -0.205 F 
ATOM     87  C   UNL     1      10.342   6.317  19.635  1.00  0.00     0.022 A 
BRANCH  85  88
ATOM     88  S   UNL     1       8.686   7.058  17.584  1.00  0.00     0.127 S 
ATOM     89  O   UNL     1       8.133   8.177  18.342  1.00  0.00    -0.237 OA
ATOM     90  O   UNL     1       9.951   7.339  16.904  1.00  0.00    -0.237 OA
ATOM     91  O   UNL     1       7.732   6.303  16.783  1.00  0.00    -0.744 OA
ENDBRANCH  85  88
ENDBRANCH  57  81
BRANCH  69  92
ATOM     92  C   UNL     1       6.003   0.901  25.603  1.00  0.00     0.023 A 
ATOM     93  C   UNL     1       5.063   1.924  25.841  1.00  0.00     0.012 A 
ATOM     94  C   UNL     1       6.666   0.306  26.694  1.00  0.00     0.148 A 
ATOM     95  C   UNL     1       4.822   2.378  27.137  1.00  0.00     0.002 A 
ATOM     96  C   UNL     1       6.380   0.725  27.988  1.00  0.00     0.091 A 
ATOM     97  F   UNL     1       7.571  -0.653  26.448  1.00  0.00    -0.205 F 
ATOM     98  C   UNL     1       5.471   1.772  28.210  1.00  0.00     0.022 A 
BRANCH  96  99
ATOM     99  S   UNL     1       7.095  -0.067  29.433  1.00  0.00     0.127 S 
ATOM    100  O   UNL     1       8.076   0.928  29.863  1.00  0.00    -0.237 OA
ATOM    101  O   UNL     1       5.937  -0.203  30.317  1.00  0.00    -0.237 OA
ATOM    102  O   UNL     1       7.647  -1.330  28.964  1.00  0.00    -0.744 OA
ENDBRANCH  96  99
ENDBRANCH  69  92
ENDBRANCH  43  44
ENDBRANCH  35  38
ENDBRANCH  33  34
ENDBRANCH  32  33
ENDBRANCH   1  32
TORSDOF 20
