REMARK SMILES O=C(NCCCCCCNC(=O)[C@@H]1CC2(CC[NH2+]CC2)C[N@H+]1Cc1cccc2nonc12)c1ccc(-c2c3nc(c(-c4cccc(S(=O)(=O)[O-])c4F)c4ccc([nH]4)c(-c4cccc(S(=O)(=O)[O-])c4F)c4nc(c(-c5cccc(S(=O)(=O)[O-])c5F)c5ccc2[nH]5)C=C4)C=C3)cc1
REMARK SMILES IDX 6 1 5 2 4 3 3 4 1 5 2 6 33 8 34 9 95 10 35 11 94 12 36 13
REMARK SMILES IDX 37 14 38 15 88 16 39 17 93 18 87 19 89 20 40 21 92 22 86 23
REMARK SMILES IDX 85 24 41 26 73 27 53 28 72 29 54 30 57 31 71 32 90 33 55 34
REMARK SMILES IDX 56 35 70 37 91 38 58 39 42 40 43 41 51 42 44 43 46 44 52 45
REMARK SMILES IDX 45 46 47 47 48 48 49 49 50 50 74 51 75 52 83 53 76 54 78 55
REMARK SMILES IDX 84 56 77 57 79 58 80 59 81 60 82 61 59 62 60 63 68 64 61 65
REMARK SMILES IDX 63 66 69 67 62 68 64 69 65 70 66 71 67 72 7 73 8 74 9 75
REMARK SMILES IDX 10 76 11 77 12 79 13 80 14 81 22 82 15 83 21 84 16 86 20 87
REMARK SMILES IDX 17 88 19 89 18 90 23 93 24 94 25 95 32 96 26 97 28 98 31 99
REMARK SMILES IDX 27 100 29 101 30 102
REMARK H PARENT 3 7 89 25 57 36 10 78 22 85 18 91 18 92
REMARK Flexibility Score: inf
ROOT
ATOM      1  C   UNL     1       4.344   2.920   1.637  1.00  0.00     0.002 C 
ENDROOT
BRANCH   1   2
ATOM      2  C   UNL     1       4.738   1.948   0.512  1.00  0.00     0.021 C 
BRANCH   2   3
ATOM      3  C   UNL     1       4.258   0.502   0.714  1.00  0.00     0.116 C 
BRANCH   3   4
ATOM      4  N   UNL     1       2.807   0.466   0.722  1.00  0.00    -0.352 N 
ATOM      5  O   UNL     1       0.967   0.526  -0.545  1.00  0.00    -0.269 OA
ATOM      6  C   UNL     1       1.978  -0.093  -0.212  1.00  0.00     0.251 C 
ATOM      7  H   UNL     1       2.367   0.894   1.492  1.00  0.00     0.163 HD
BRANCH   6   8
ATOM      8  C   UNL     1       2.232  -1.450  -0.756  1.00  0.00     0.039 A 
ATOM      9  C   UNL     1       1.590  -1.802  -1.951  1.00  0.00     0.014 A 
ATOM     10  C   UNL     1       2.921  -2.428  -0.031  1.00  0.00     0.014 A 
ATOM     11  C   UNL     1       1.629  -3.117  -2.415  1.00  0.00     0.010 A 
ATOM     12  C   UNL     1       2.963  -3.746  -0.499  1.00  0.00     0.010 A 
ATOM     13  C   UNL     1       2.313  -4.101  -1.690  1.00  0.00    -0.014 A 
BRANCH  13  14
ATOM     14  C   UNL     1       2.355  -5.476  -2.233  1.00  0.00     0.031 A 
ATOM     15  C   UNL     1       3.708  -6.101  -2.294  1.00  0.00     0.074 A 
ATOM     16  C   UNL     1       1.274  -6.288  -2.204  1.00  0.00     0.049 A 
ATOM     17  N   UNL     1       4.263  -6.647  -1.254  1.00  0.00    -0.248 NA
ATOM     18  C   UNL     1       4.613  -5.940  -3.430  1.00  0.00     0.031 C 
ATOM     19  C   UNL     1       0.194  -6.161  -1.216  1.00  0.00     0.029 A 
ATOM     20  N   UNL     1       1.016  -7.486  -2.836  1.00  0.00    -0.354 N 
ATOM     21  C   UNL     1       5.598  -6.836  -1.548  1.00  0.00     0.074 A 
ATOM     22  C   UNL     1       5.765  -6.412  -2.922  1.00  0.00     0.031 C 
ATOM     23  C   UNL     1      -0.504  -7.315  -1.187  1.00  0.00     0.029 A 
ATOM     24  C   UNL     1      -0.035  -8.196  -2.252  1.00  0.00     0.049 A 
ATOM     25  H   UNL     1       1.520  -7.807  -3.618  1.00  0.00     0.167 HD
ATOM     26  C   UNL     1       6.489  -7.314  -0.639  1.00  0.00     0.034 A 
ATOM     27  C   UNL     1      -0.165  -9.552  -2.237  1.00  0.00     0.034 A 
ATOM     28  C   UNL     1       5.942  -7.629   0.650  1.00  0.00     0.049 A 
ATOM     29  C   UNL     1       0.998  -9.945  -1.357  1.00  0.00     0.074 A 
ATOM     30  C   UNL     1       5.845  -7.026   1.885  1.00  0.00     0.029 A 
ATOM     31  N   UNL     1       5.219  -8.790   0.774  1.00  0.00    -0.354 N 
ATOM     32  N   UNL     1       1.052  -9.830  -0.056  1.00  0.00    -0.248 NA
ATOM     33  C   UNL     1       2.293 -10.137  -2.008  1.00  0.00     0.031 C 
ATOM     34  C   UNL     1       4.707  -7.626   2.517  1.00  0.00     0.029 A 
ATOM     35  C   UNL     1       4.165  -8.540   1.615  1.00  0.00     0.049 A 
ATOM     36  H   UNL     1       5.422  -9.649   0.338  1.00  0.00     0.167 HD
ATOM     37  C   UNL     1       2.401  -9.616   0.238  1.00  0.00     0.074 A 
ATOM     38  C   UNL     1       3.111  -9.843  -1.006  1.00  0.00     0.031 C 
ATOM     39  C   UNL     1       2.848  -9.110   1.426  1.00  0.00     0.034 A 
BRANCH  26  40
ATOM     40  C   UNL     1       7.878  -7.701  -0.966  1.00  0.00     0.023 A 
ATOM     41  C   UNL     1       8.075  -9.032  -1.384  1.00  0.00     0.012 A 
ATOM     42  C   UNL     1       8.989  -6.884  -0.696  1.00  0.00     0.148 A 
ATOM     43  C   UNL     1       9.357  -9.562  -1.491  1.00  0.00     0.002 A 
ATOM     44  C   UNL     1      10.270  -7.420  -0.812  1.00  0.00     0.091 A 
ATOM     45  F   UNL     1       8.776  -5.623  -0.295  1.00  0.00    -0.205 F 
ATOM     46  C   UNL     1      10.453  -8.760  -1.197  1.00  0.00     0.022 A 
BRANCH  44  47
ATOM     47  S   UNL     1      11.762  -6.481  -0.460  1.00  0.00     0.127 S 
ATOM     48  O   UNL     1      12.282  -7.173   0.724  1.00  0.00    -0.237 OA
ATOM     49  O   UNL     1      12.547  -6.697  -1.680  1.00  0.00    -0.237 OA
ATOM     50  O   UNL     1      11.338  -5.112  -0.248  1.00  0.00    -0.744 OA
ENDBRANCH  44  47
ENDBRANCH  26  40
BRANCH  27  51
ATOM     51  C   UNL     1      -0.436 -10.204  -3.568  1.00  0.00     0.023 A 
ATOM     52  C   UNL     1      -1.374  -9.578  -4.425  1.00  0.00     0.012 A 
ATOM     53  C   UNL     1       0.150 -11.402  -4.021  1.00  0.00     0.148 A 
ATOM     54  C   UNL     1      -1.631 -10.053  -5.714  1.00  0.00     0.002 A 
ATOM     55  C   UNL     1      -0.062 -11.842  -5.329  1.00  0.00     0.091 A 
ATOM     56  F   UNL     1       0.921 -12.105  -3.183  1.00  0.00    -0.205 F 
ATOM     57  C   UNL     1      -0.951 -11.169  -6.178  1.00  0.00     0.022 A 
BRANCH  55  58
ATOM     58  S   UNL     1       0.834 -13.229  -6.043  1.00  0.00     0.127 S 
ATOM     59  O   UNL     1      -0.241 -14.011  -6.651  1.00  0.00    -0.237 OA
ATOM     60  O   UNL     1       1.712 -12.546  -6.991  1.00  0.00    -0.237 OA
ATOM     61  O   UNL     1       1.510 -13.879  -4.929  1.00  0.00    -0.744 OA
ENDBRANCH  55  58
ENDBRANCH  27  51
BRANCH  39  62
ATOM     62  C   UNL     1       1.837  -9.003   2.528  1.00  0.00     0.023 A 
ATOM     63  C   UNL     1       1.410 -10.194   3.146  1.00  0.00     0.012 A 
ATOM     64  C   UNL     1       1.373  -7.766   3.022  1.00  0.00     0.148 A 
ATOM     65  C   UNL     1       0.561 -10.162   4.250  1.00  0.00     0.002 A 
ATOM     66  C   UNL     1       0.546  -7.739   4.142  1.00  0.00     0.091 A 
ATOM     67  F   UNL     1       1.772  -6.637   2.418  1.00  0.00    -0.205 F 
ATOM     68  C   UNL     1       0.139  -8.936   4.755  1.00  0.00     0.022 A 
BRANCH  66  69
ATOM     69  S   UNL     1      -0.017  -6.215   4.911  1.00  0.00     0.127 S 
ATOM     70  O   UNL     1      -1.466  -6.413   4.965  1.00  0.00    -0.237 OA
ATOM     71  O   UNL     1       0.650  -6.270   6.212  1.00  0.00    -0.237 OA
ATOM     72  O   UNL     1       0.416  -5.130   4.041  1.00  0.00    -0.744 OA
ENDBRANCH  66  69
ENDBRANCH  39  62
ENDBRANCH  13  14
ENDBRANCH   6   8
ENDBRANCH   3   4
ENDBRANCH   2   3
ENDBRANCH   1   2
BRANCH   1  73
ATOM     73  C   UNL     1       5.001   2.636   2.986  1.00  0.00     0.002 C 
BRANCH  73  74
ATOM     74  C   UNL     1       6.535   2.693   2.975  1.00  0.00     0.021 C 
BRANCH  74  75
ATOM     75  C   UNL     1       7.129   4.057   2.591  1.00  0.00     0.116 C 
BRANCH  75  76
ATOM     76  N   UNL     1       6.788   5.047   3.591  1.00  0.00    -0.351 N 
ATOM     77  C   UNL     1       7.312   5.050   4.856  1.00  0.00     0.278 C 
ATOM     78  H   UNL     1       6.148   5.755   3.348  1.00  0.00     0.163 HD
ATOM     79  O   UNL     1       6.490   5.018   5.771  1.00  0.00    -0.268 OA
BRANCH  77  80
ATOM     80  C   UNL     1       8.851   5.135   5.036  1.00  0.00     0.275 C 
ATOM     81  C   UNL     1       9.571   3.788   4.899  1.00  0.00     0.089 C 
ATOM     82  N   UNL     1       9.249   5.564   6.378  1.00  0.00    -0.320 N 
ATOM     83  C   UNL     1       9.792   3.278   6.338  1.00  0.00     0.036 C 
ATOM     84  C   UNL     1      10.027   4.588   7.101  1.00  0.00     0.270 C 
ATOM     85  H   UNL     1       8.554   6.244   6.685  1.00  0.00     0.349 HD
ATOM     86  C   UNL     1      11.010   2.343   6.447  1.00  0.00     0.074 C 
ATOM     87  C   UNL     1       8.552   2.521   6.881  1.00  0.00     0.074 C 
ATOM     88  C   UNL     1      10.749   0.978   5.810  1.00  0.00     0.261 C 
ATOM     89  C   UNL     1       8.384   1.135   6.253  1.00  0.00     0.261 C 
ATOM     90  N   UNL     1       9.588   0.325   6.406  1.00  0.00    -0.346 N 
ATOM     91  H   UNL     1       9.765   0.177   7.400  1.00  0.00     0.346 HD
ATOM     92  H   UNL     1       9.440  -0.564   5.929  1.00  0.00     0.346 HD
BRANCH  82  93
ATOM     93  C   UNL     1       8.964   6.866   6.933  1.00  0.00     0.302 C 
BRANCH  93  94
ATOM     94  C   UNL     1       7.581   6.951   7.514  1.00  0.00     0.038 A 
ATOM     95  C   UNL     1       7.156   6.101   8.573  1.00  0.00     0.012 A 
ATOM     96  C   UNL     1       6.529   7.717   6.958  1.00  0.00     0.144 A 
ATOM     97  C   UNL     1       5.804   5.956   8.981  1.00  0.00     0.003 A 
ATOM     98  C   UNL     1       5.141   7.570   7.386  1.00  0.00     0.135 A 
ATOM     99  N   UNL     1       6.564   8.629   5.975  1.00  0.00    -0.049 NA
ATOM    100  C   UNL     1       4.748   6.671   8.393  1.00  0.00     0.034 A 
ATOM    101  N   UNL     1       4.385   8.399   6.654  1.00  0.00    -0.050 NA
ATOM    102  O   UNL     1       5.255   9.034   5.787  1.00  0.00    -0.243 OA
ENDBRANCH  93  94
ENDBRANCH  82  93
ENDBRANCH  77  80
ENDBRANCH  75  76
ENDBRANCH  74  75
ENDBRANCH  73  74
ENDBRANCH   1  73
TORSDOF 18
