REMARK SMILES Cc1ccc(C(c2ccccc2)(c2ccccc2)n2cnc(C[C@H]([NH3+])C(=O)NCCCCCCNC(=O)c3ccc(-c4c5nc(c(-c6cccc(S(=O)(=O)[O-])c6F)c6ccc([nH]6)c(-c6cccc(S(=O)(=O)[O-])c6F)c6nc(c(-c7cccc(S(=O)(=O)[O-])c7F)c7ccc4[nH]7)C=C6)C=C5)cc3)c2)cc1
REMARK SMILES IDX 31 1 30 2 29 3 28 4 26 5 27 6 24 8 23 9 22 10 19 11 20 12
REMARK SMILES IDX 101 13 21 14 6 15 5 16 1 17 2 18 3 19 103 20 4 21 102 22
REMARK SMILES IDX 7 23 8 24 12 25 9 26 11 27 10 28 13 29 14 30 18 31 15 32
REMARK SMILES IDX 17 33 16 34 25 35 32 39 33 40 34 41 35 42 36 43 37 45 38 46
REMARK SMILES IDX 39 47 100 48 40 49 99 50 41 51 42 52 43 53 93 54 44 55 98 56
REMARK SMILES IDX 92 57 94 58 45 59 97 60 91 61 90 62 46 64 78 65 58 66 77 67
REMARK SMILES IDX 59 68 62 69 76 70 95 71 60 72 61 73 75 75 96 76 63 77 47 78
REMARK SMILES IDX 48 79 56 80 49 81 51 82 57 83 50 84 52 85 53 86 54 87 55 88
REMARK SMILES IDX 79 89 80 90 88 91 81 92 83 93 89 94 82 95 84 96 85 97 86 98
REMARK SMILES IDX 87 99 64 100 65 101 73 102 66 103 68 104 74 105 67 106
REMARK SMILES IDX 69 107 70 108 71 109 72 110
REMARK H PARENT 28 7 25 36 25 37 25 38 35 44 94 63 62 74
REMARK Flexibility Score: inf
ROOT
ATOM      1  C   UNL     1      -5.909  -8.663   3.752  1.00  0.00     0.002 C 
ENDROOT
BRANCH   1   2
ATOM      2  C   UNL     1      -5.176  -7.483   3.106  1.00  0.00     0.021 C 
BRANCH   2   3
ATOM      3  C   UNL     1      -5.771  -6.984   1.794  1.00  0.00     0.116 C 
BRANCH   3   4
ATOM      4  N   UNL     1      -7.085  -6.410   1.976  1.00  0.00    -0.351 N 
ATOM      5  C   UNL     1      -7.647  -5.278   1.462  1.00  0.00     0.278 C 
ATOM      6  O   UNL     1      -8.792  -4.995   1.835  1.00  0.00    -0.268 OA
ATOM      7  H   UNL     1      -7.676  -6.924   2.573  1.00  0.00     0.163 HD
BRANCH   5   8
ATOM      8  C   UNL     1      -6.867  -4.350   0.504  1.00  0.00     0.276 C 
BRANCH   8   9
ATOM      9  C   UNL     1      -6.354  -5.047  -0.768  1.00  0.00     0.133 C 
BRANCH   9  10
ATOM     10  C   UNL     1      -7.449  -5.471  -1.684  1.00  0.00     0.065 A 
ATOM     11  N   UNL     1      -8.786  -5.710  -3.411  1.00  0.00    -0.319 N 
ATOM     12  C   UNL     1      -9.374  -6.197  -2.264  1.00  0.00     0.201 A 
ATOM     13  C   UNL     1      -7.514  -5.327  -3.050  1.00  0.00     0.112 A 
ATOM     14  N   UNL     1      -8.582  -6.083  -1.224  1.00  0.00    -0.241 NA
BRANCH  11  15
ATOM     15  C   UNL     1      -9.450  -5.579  -4.750  1.00  0.00     0.121 C 
BRANCH  15  16
ATOM     16  C   UNL     1      -9.557  -7.011  -5.422  1.00  0.00    -0.013 A 
ATOM     17  C   UNL     1      -9.992 -10.886  -7.349  1.00  0.00     0.044 C 
ATOM     18  C   UNL     1      -9.826  -9.542  -6.707  1.00  0.00    -0.051 A 
ATOM     19  C   UNL     1      -9.253  -9.441  -5.438  1.00  0.00     0.004 A 
ATOM     20  C   UNL     1     -10.238  -8.376  -7.354  1.00  0.00     0.004 A 
ATOM     21  C   UNL     1      -9.114  -8.198  -4.807  1.00  0.00     0.007 A 
ATOM     22  C   UNL     1     -10.093  -7.134  -6.728  1.00  0.00     0.007 A 
ENDBRANCH  15  16
BRANCH  15  23
ATOM     23  C   UNL     1     -10.896  -4.958  -4.488  1.00  0.00    -0.013 A 
ATOM     24  C   UNL     1     -11.065  -3.805  -3.686  1.00  0.00     0.007 A 
ATOM     25  C   UNL     1     -12.092  -5.557  -4.941  1.00  0.00     0.007 A 
ATOM     26  C   UNL     1     -12.320  -3.227  -3.458  1.00  0.00     0.000 A 
ATOM     27  C   UNL     1     -13.351  -4.990  -4.703  1.00  0.00     0.000 A 
ATOM     28  C   UNL     1     -13.464  -3.812  -3.981  1.00  0.00     0.000 A 
ENDBRANCH  15  23
BRANCH  15  29
ATOM     29  C   UNL     1      -8.518  -4.638  -5.646  1.00  0.00    -0.013 A 
ATOM     30  C   UNL     1      -7.599  -5.187  -6.574  1.00  0.00     0.007 A 
ATOM     31  C   UNL     1      -8.393  -3.250  -5.412  1.00  0.00     0.007 A 
ATOM     32  C   UNL     1      -6.638  -4.405  -7.226  1.00  0.00     0.000 A 
ATOM     33  C   UNL     1      -7.410  -2.474  -6.039  1.00  0.00     0.000 A 
ATOM     34  C   UNL     1      -6.533  -3.050  -6.947  1.00  0.00     0.000 A 
ENDBRANCH  15  29
ENDBRANCH  11  15
ENDBRANCH   9  10
ENDBRANCH   8   9
BRANCH   8  35
ATOM     35  N   UNL     1      -5.810  -3.623   1.251  1.00  0.00    -0.347 N 
ATOM     36  H   UNL     1      -5.136  -4.291   1.624  1.00  0.00     0.345 HD
ATOM     37  H   UNL     1      -6.234  -3.102   2.019  1.00  0.00     0.345 HD
ATOM     38  H   UNL     1      -5.335  -2.975   0.623  1.00  0.00     0.345 HD
ENDBRANCH   8  35
ENDBRANCH   5   8
ENDBRANCH   3   4
ENDBRANCH   2   3
ENDBRANCH   1   2
BRANCH   1  39
ATOM     39  C   UNL     1      -6.130  -9.905   2.875  1.00  0.00     0.002 C 
BRANCH  39  40
ATOM     40  C   UNL     1      -4.940 -10.381   2.040  1.00  0.00     0.021 C 
BRANCH  40  41
ATOM     41  C   UNL     1      -3.680 -10.674   2.837  1.00  0.00     0.116 C 
BRANCH  41  42
ATOM     42  N   UNL     1      -3.505 -12.068   3.192  1.00  0.00    -0.352 N 
ATOM     43  C   UNL     1      -2.464 -12.670   3.874  1.00  0.00     0.251 C 
ATOM     44  H   UNL     1      -4.230 -12.671   2.909  1.00  0.00     0.163 HD
ATOM     45  O   UNL     1      -2.377 -13.896   3.841  1.00  0.00    -0.269 OA
BRANCH  43  46
ATOM     46  C   UNL     1      -1.562 -11.863   4.740  1.00  0.00     0.039 A 
ATOM     47  C   UNL     1      -1.232 -12.389   5.997  1.00  0.00     0.014 A 
ATOM     48  C   UNL     1      -1.234 -10.543   4.441  1.00  0.00     0.014 A 
ATOM     49  C   UNL     1      -0.836 -11.536   7.026  1.00  0.00     0.010 A 
ATOM     50  C   UNL     1      -0.926  -9.682   5.470  1.00  0.00     0.010 A 
ATOM     51  C   UNL     1      -0.808 -10.172   6.773  1.00  0.00    -0.014 A 
BRANCH  51  52
ATOM     52  C   UNL     1      -0.715  -9.140   7.789  1.00  0.00     0.031 A 
ATOM     53  C   UNL     1       0.594  -8.585   8.162  1.00  0.00     0.074 A 
ATOM     54  C   UNL     1      -1.866  -8.532   8.155  1.00  0.00     0.049 A 
ATOM     55  N   UNL     1       0.769  -7.771   9.144  1.00  0.00    -0.248 NA
ATOM     56  C   UNL     1       1.833  -8.937   7.471  1.00  0.00     0.031 C 
ATOM     57  C   UNL     1      -2.030  -7.200   8.721  1.00  0.00     0.029 A 
ATOM     58  N   UNL     1      -3.136  -9.109   8.266  1.00  0.00    -0.354 N 
ATOM     59  C   UNL     1       2.022  -7.231   8.986  1.00  0.00     0.074 A 
ATOM     60  C   UNL     1       2.696  -8.102   8.058  1.00  0.00     0.031 C 
ATOM     61  C   UNL     1      -3.211  -7.146   9.357  1.00  0.00     0.029 A 
ATOM     62  C   UNL     1      -3.735  -8.501   9.384  1.00  0.00     0.049 A 
ATOM     63  H   UNL     1      -3.530  -9.797   7.683  1.00  0.00     0.167 HD
ATOM     64  C   UNL     1       2.273  -6.005   9.517  1.00  0.00     0.034 A 
ATOM     65  C   UNL     1      -4.088  -9.185  10.513  1.00  0.00     0.034 A 
ATOM     66  C   UNL     1       1.216  -5.611  10.457  1.00  0.00     0.049 A 
ATOM     67  C   UNL     1      -3.395  -8.668  11.763  1.00  0.00     0.074 A 
ATOM     68  C   UNL     1       0.178  -4.699  10.399  1.00  0.00     0.029 A 
ATOM     69  N   UNL     1       0.977  -6.405  11.577  1.00  0.00    -0.354 N 
ATOM     70  N   UNL     1      -2.447  -7.771  11.757  1.00  0.00    -0.248 NA
ATOM     71  C   UNL     1      -3.693  -9.135  13.115  1.00  0.00     0.031 C 
ATOM     72  C   UNL     1      -0.764  -5.051  11.409  1.00  0.00     0.029 A 
ATOM     73  C   UNL     1      -0.269  -6.134  12.118  1.00  0.00     0.049 A 
ATOM     74  H   UNL     1       1.609  -7.069  11.935  1.00  0.00     0.167 HD
ATOM     75  C   UNL     1      -1.916  -7.637  13.011  1.00  0.00     0.074 A 
ATOM     76  C   UNL     1      -2.791  -8.450  13.841  1.00  0.00     0.031 C 
ATOM     77  C   UNL     1      -0.768  -6.926  13.242  1.00  0.00     0.034 A 
BRANCH  64  78
ATOM     78  C   UNL     1       3.372  -5.063   9.061  1.00  0.00     0.023 A 
ATOM     79  C   UNL     1       3.561  -3.881   9.811  1.00  0.00     0.012 A 
ATOM     80  C   UNL     1       4.161  -5.187   7.888  1.00  0.00     0.148 A 
ATOM     81  C   UNL     1       4.476  -2.890   9.429  1.00  0.00     0.002 A 
ATOM     82  C   UNL     1       5.132  -4.239   7.554  1.00  0.00     0.091 A 
ATOM     83  F   UNL     1       3.913  -6.163   7.009  1.00  0.00    -0.205 F 
ATOM     84  C   UNL     1       5.280  -3.078   8.313  1.00  0.00     0.022 A 
BRANCH  82  85
ATOM     85  S   UNL     1       6.254  -4.470   6.161  1.00  0.00     0.127 S 
ATOM     86  O   UNL     1       5.715  -3.542   5.169  1.00  0.00    -0.237 OA
ATOM     87  O   UNL     1       7.546  -4.074   6.725  1.00  0.00    -0.237 OA
ATOM     88  O   UNL     1       6.169  -5.883   5.808  1.00  0.00    -0.744 OA
ENDBRANCH  82  85
ENDBRANCH  64  78
BRANCH  65  89
ATOM     89  C   UNL     1      -4.474 -10.604  10.246  1.00  0.00     0.023 A 
ATOM     90  C   UNL     1      -5.620 -10.801   9.438  1.00  0.00     0.012 A 
ATOM     91  C   UNL     1      -3.550 -11.656  10.379  1.00  0.00     0.148 A 
ATOM     92  C   UNL     1      -5.760 -11.950   8.658  1.00  0.00     0.002 A 
ATOM     93  C   UNL     1      -3.701 -12.805   9.602  1.00  0.00     0.091 A 
ATOM     94  F   UNL     1      -2.497 -11.485  11.188  1.00  0.00    -0.205 F 
ATOM     95  C   UNL     1      -4.778 -12.933   8.709  1.00  0.00     0.022 A 
BRANCH  93  96
ATOM     96  S   UNL     1      -2.461 -14.108   9.597  1.00  0.00     0.127 S 
ATOM     97  O   UNL     1      -3.014 -15.043  10.571  1.00  0.00    -0.237 OA
ATOM     98  O   UNL     1      -2.495 -14.574   8.211  1.00  0.00    -0.237 OA
ATOM     99  O   UNL     1      -1.220 -13.443   9.970  1.00  0.00    -0.744 OA
ENDBRANCH  93  96
ENDBRANCH  65  89
BRANCH  77 100
ATOM    100  C   UNL     1       0.016  -6.936  14.544  1.00  0.00     0.023 A 
ATOM    101  C   UNL     1      -0.069  -7.995  15.468  1.00  0.00     0.012 A 
ATOM    102  C   UNL     1       0.993  -5.940  14.810  1.00  0.00     0.148 A 
ATOM    103  C   UNL     1       0.715  -8.035  16.627  1.00  0.00     0.002 A 
ATOM    104  C   UNL     1       1.849  -6.044  15.905  1.00  0.00     0.091 A 
ATOM    105  F   UNL     1       1.092  -4.870  14.007  1.00  0.00    -0.205 F 
ATOM    106  C   UNL     1       1.690  -7.071  16.836  1.00  0.00     0.022 A 
BRANCH 104 107
ATOM    107  S   UNL     1       3.276  -4.959  16.068  1.00  0.00     0.127 S 
ATOM    108  O   UNL     1       2.743  -3.872  16.884  1.00  0.00    -0.237 OA
ATOM    109  O   UNL     1       4.248  -5.814  16.752  1.00  0.00    -0.237 OA
ATOM    110  O   UNL     1       3.646  -4.618  14.700  1.00  0.00    -0.744 OA
ENDBRANCH 104 107
ENDBRANCH  77 100
ENDBRANCH  51  52
ENDBRANCH  43  46
ENDBRANCH  41  42
ENDBRANCH  40  41
ENDBRANCH  39  40
ENDBRANCH   1  39
TORSDOF 23
