REMARK SMILES O=C(NCCCCCCNC(=O)[C@H]1[C@@H]2C[C@H]3C[C@@H](C2)C[C@]1(n1ncc(N2CCN(c4ccc(F)cc4)CC2)c(Cl)c1=O)C3)c1ccc(-c2c3nc(c(-c4cccc(S(=O)(=O)[O-])c4F)c4ccc([nH]4)c(-c4cccc(S(=O)(=O)[O-])c4F)c4nc(c(-c5cccc(S(=O)(=O)[O-])c5F)c5ccc2[nH]5)C=C4)C=C3)cc1
REMARK SMILES IDX 6 1 5 2 4 3 3 4 1 5 2 6 44 8 45 9 106 10 46 11 105 12 47 13
REMARK SMILES IDX 48 14 49 15 99 16 50 17 104 18 98 19 100 20 51 21 103 22
REMARK SMILES IDX 97 23 96 24 52 26 84 27 64 28 83 29 65 30 68 31 82 32 101 33
REMARK SMILES IDX 66 34 67 35 81 37 102 38 69 39 53 40 54 41 62 42 55 43 57 44
REMARK SMILES IDX 63 45 56 46 58 47 59 48 60 49 61 50 85 51 86 52 94 53 87 54
REMARK SMILES IDX 89 55 95 56 88 57 90 58 91 59 92 60 93 61 70 62 71 63 79 64
REMARK SMILES IDX 72 65 74 66 80 67 73 68 75 69 76 70 77 71 78 72 7 73 8 74
REMARK SMILES IDX 9 75 10 76 11 77 12 79 13 80 14 81 21 82 19 83 15 84 43 85
REMARK SMILES IDX 20 86 18 87 16 88 17 89 22 90 23 91 41 92 24 93 39 94 42 95
REMARK SMILES IDX 25 96 40 97 26 98 27 99 38 100 28 101 37 102 29 103 30 104
REMARK SMILES IDX 31 105 36 106 32 107 35 108 33 109 34 110
REMARK H PARENT 3 7 100 25 68 36 10 78
REMARK Flexibility Score: inf
ROOT
ATOM      1  C   UNL     1       3.811   1.656   3.395  1.00  0.00     0.002 C 
ENDROOT
BRANCH   1   2
ATOM      2  C   UNL     1       4.475   1.661   2.016  1.00  0.00     0.021 C 
BRANCH   2   3
ATOM      3  C   UNL     1       4.282   0.380   1.213  1.00  0.00     0.116 C 
BRANCH   3   4
ATOM      4  N   UNL     1       2.875   0.042   1.074  1.00  0.00    -0.352 N 
ATOM      5  O   UNL     1       0.923  -0.273   0.011  1.00  0.00    -0.269 OA
ATOM      6  C   UNL     1       2.148  -0.230  -0.053  1.00  0.00     0.251 C 
ATOM      7  H   UNL     1       2.369   0.003   1.917  1.00  0.00     0.163 HD
BRANCH   6   8
ATOM      8  C   UNL     1       2.833  -0.481  -1.338  1.00  0.00     0.039 A 
ATOM      9  C   UNL     1       2.270   0.035  -2.509  1.00  0.00     0.014 A 
ATOM     10  C   UNL     1       3.977  -1.283  -1.400  1.00  0.00     0.014 A 
ATOM     11  C   UNL     1       2.858  -0.247  -3.742  1.00  0.00     0.010 A 
ATOM     12  C   UNL     1       4.598  -1.511  -2.623  1.00  0.00     0.010 A 
ATOM     13  C   UNL     1       4.026  -1.023  -3.807  1.00  0.00    -0.014 A 
BRANCH  13  14
ATOM     14  C   UNL     1       4.625  -1.402  -5.107  1.00  0.00     0.031 A 
ATOM     15  C   UNL     1       4.626  -2.848  -5.527  1.00  0.00     0.074 A 
ATOM     16  C   UNL     1       5.208  -0.467  -5.881  1.00  0.00     0.049 A 
ATOM     17  N   UNL     1       5.185  -3.401  -6.571  1.00  0.00    -0.248 NA
ATOM     18  C   UNL     1       3.923  -3.800  -4.649  1.00  0.00     0.031 C 
ATOM     19  C   UNL     1       5.295   0.959  -5.565  1.00  0.00     0.029 A 
ATOM     20  N   UNL     1       5.851  -0.583  -7.087  1.00  0.00    -0.354 N 
ATOM     21  C   UNL     1       4.939  -4.763  -6.453  1.00  0.00     0.074 A 
ATOM     22  C   UNL     1       4.196  -4.960  -5.229  1.00  0.00     0.031 C 
ATOM     23  C   UNL     1       5.941   1.589  -6.559  1.00  0.00     0.029 A 
ATOM     24  C   UNL     1       6.341   0.609  -7.565  1.00  0.00     0.049 A 
ATOM     25  H   UNL     1       5.952  -1.437  -7.564  1.00  0.00     0.167 HD
ATOM     26  C   UNL     1       5.276  -5.758  -7.305  1.00  0.00     0.034 A 
ATOM     27  C   UNL     1       7.036   0.879  -8.687  1.00  0.00     0.034 A 
ATOM     28  C   UNL     1       5.952  -5.553  -8.555  1.00  0.00     0.049 A 
ATOM     29  C   UNL     1       7.365  -0.240  -9.634  1.00  0.00     0.074 A 
ATOM     30  C   UNL     1       6.287  -6.493  -9.513  1.00  0.00     0.029 A 
ATOM     31  N   UNL     1       6.378  -4.323  -9.030  1.00  0.00    -0.354 N 
ATOM     32  N   UNL     1       7.065  -1.512  -9.539  1.00  0.00    -0.248 NA
ATOM     33  C   UNL     1       8.107   0.114 -10.854  1.00  0.00     0.031 C 
ATOM     34  C   UNL     1       6.915  -5.830 -10.571  1.00  0.00     0.029 A 
ATOM     35  C   UNL     1       6.963  -4.477 -10.273  1.00  0.00     0.049 A 
ATOM     36  H   UNL     1       6.279  -3.467  -8.553  1.00  0.00     0.167 HD
ATOM     37  C   UNL     1       7.554  -2.107 -10.696  1.00  0.00     0.074 A 
ATOM     38  C   UNL     1       8.164  -1.054 -11.482  1.00  0.00     0.031 C 
ATOM     39  C   UNL     1       7.513  -3.409 -11.065  1.00  0.00     0.034 A 
BRANCH  26  40
ATOM     40  C   UNL     1       4.857  -7.158  -6.957  1.00  0.00     0.023 A 
ATOM     41  C   UNL     1       3.520  -7.547  -7.173  1.00  0.00     0.012 A 
ATOM     42  C   UNL     1       5.796  -8.108  -6.514  1.00  0.00     0.148 A 
ATOM     43  C   UNL     1       3.120  -8.862  -6.944  1.00  0.00     0.002 A 
ATOM     44  C   UNL     1       5.397  -9.425  -6.318  1.00  0.00     0.091 A 
ATOM     45  F   UNL     1       7.058  -7.708  -6.303  1.00  0.00    -0.205 F 
ATOM     46  C   UNL     1       4.060  -9.802  -6.528  1.00  0.00     0.022 A 
BRANCH  44  47
ATOM     47  S   UNL     1       6.536 -10.728  -5.836  1.00  0.00     0.127 S 
ATOM     48  O   UNL     1       6.000 -11.122  -4.533  1.00  0.00    -0.237 OA
ATOM     49  O   UNL     1       6.340 -11.713  -6.900  1.00  0.00    -0.237 OA
ATOM     50  O   UNL     1       7.858 -10.118  -5.799  1.00  0.00    -0.744 OA
ENDBRANCH  44  47
ENDBRANCH  26  40
BRANCH  27  51
ATOM     51  C   UNL     1       7.388   2.289  -9.007  1.00  0.00     0.023 A 
ATOM     52  C   UNL     1       6.651   2.967  -9.996  1.00  0.00     0.012 A 
ATOM     53  C   UNL     1       8.392   2.976  -8.299  1.00  0.00     0.148 A 
ATOM     54  C   UNL     1       6.913   4.306 -10.283  1.00  0.00     0.002 A 
ATOM     55  C   UNL     1       8.622   4.321  -8.562  1.00  0.00     0.091 A 
ATOM     56  F   UNL     1       9.080   2.306  -7.364  1.00  0.00    -0.205 F 
ATOM     57  C   UNL     1       7.891   4.985  -9.561  1.00  0.00     0.022 A 
BRANCH  55  58
ATOM     58  S   UNL     1       9.788   5.310  -7.619  1.00  0.00     0.127 S 
ATOM     59  O   UNL     1      10.772   5.666  -8.639  1.00  0.00    -0.237 OA
ATOM     60  O   UNL     1       8.944   6.416  -7.166  1.00  0.00    -0.237 OA
ATOM     61  O   UNL     1      10.275   4.444  -6.554  1.00  0.00    -0.744 OA
ENDBRANCH  55  58
ENDBRANCH  27  51
BRANCH  39  62
ATOM     62  C   UNL     1       8.117  -3.788 -12.388  1.00  0.00     0.023 A 
ATOM     63  C   UNL     1       9.513  -3.932 -12.494  1.00  0.00     0.012 A 
ATOM     64  C   UNL     1       7.294  -4.123 -13.481  1.00  0.00     0.148 A 
ATOM     65  C   UNL     1      10.085  -4.398 -13.677  1.00  0.00     0.002 A 
ATOM     66  C   UNL     1       7.868  -4.619 -14.644  1.00  0.00     0.091 A 
ATOM     67  F   UNL     1       5.969  -3.966 -13.354  1.00  0.00    -0.205 F 
ATOM     68  C   UNL     1       9.263  -4.752 -14.745  1.00  0.00     0.022 A 
BRANCH  66  69
ATOM     69  S   UNL     1       6.889  -5.175 -16.044  1.00  0.00     0.127 S 
ATOM     70  O   UNL     1       7.189  -4.149 -17.042  1.00  0.00    -0.237 OA
ATOM     71  O   UNL     1       7.468  -6.488 -16.325  1.00  0.00    -0.237 OA
ATOM     72  O   UNL     1       5.508  -5.207 -15.582  1.00  0.00    -0.744 OA
ENDBRANCH  66  69
ENDBRANCH  39  62
ENDBRANCH  13  14
ENDBRANCH   6   8
ENDBRANCH   3   4
ENDBRANCH   2   3
ENDBRANCH   1   2
BRANCH   1  73
ATOM     73  C   UNL     1       4.215   0.496   4.320  1.00  0.00     0.002 C 
BRANCH  73  74
ATOM     74  C   UNL     1       5.723   0.308   4.522  1.00  0.00     0.021 C 
BRANCH  74  75
ATOM     75  C   UNL     1       6.397   1.570   5.043  1.00  0.00     0.116 C 
BRANCH  75  76
ATOM     76  N   UNL     1       6.902   1.432   6.387  1.00  0.00    -0.356 N 
ATOM     77  C   UNL     1       7.971   2.029   6.967  1.00  0.00     0.225 C 
ATOM     78  H   UNL     1       6.398   0.816   6.966  1.00  0.00     0.163 HD
ATOM     79  O   UNL     1       7.871   2.226   8.188  1.00  0.00    -0.275 OA
BRANCH  77  80
ATOM     80  C   UNL     1       9.303   2.349   6.270  1.00  0.00     0.109 C 
ATOM     81  C   UNL     1       9.969   1.135   5.551  1.00  0.00     0.004 C 
ATOM     82  C   UNL     1       9.612   3.684   5.507  1.00  0.00     0.079 C 
ATOM     83  C   UNL     1       9.667   1.052   4.044  1.00  0.00     0.008 C 
ATOM     84  C   UNL     1      11.501   1.314   5.664  1.00  0.00     0.008 C 
ATOM     85  C   UNL     1      11.192   3.817   5.603  1.00  0.00     0.035 C 
ATOM     86  C   UNL     1       9.302   3.561   3.991  1.00  0.00     0.035 C 
ATOM     87  C   UNL     1      10.030   2.369   3.346  1.00  0.00    -0.008 C 
ATOM     88  C   UNL     1      11.921   2.622   4.968  1.00  0.00    -0.008 C 
ATOM     89  C   UNL     1      11.546   2.574   3.481  1.00  0.00     0.007 C 
BRANCH  82  90
ATOM     90  N   UNL     1       8.973   4.938   6.052  1.00  0.00    -0.222 N 
ATOM     91  N   UNL     1       9.839   5.986   6.315  1.00  0.00    -0.175 NA
ATOM     92  C   UNL     1       7.593   5.130   6.045  1.00  0.00     0.288 A 
ATOM     93  C   UNL     1       9.341   7.151   6.558  1.00  0.00     0.161 A 
ATOM     94  C   UNL     1       7.089   6.472   6.449  1.00  0.00     0.132 A 
ATOM     95  O   UNL     1       6.790   4.282   5.671  1.00  0.00    -0.266 OA
ATOM     96  C   UNL     1       7.909   7.513   6.639  1.00  0.00     0.082 A 
ATOM     97  Cl  UNL     1       5.361   6.659   6.499  1.00  0.00    -0.076 Cl
BRANCH  96  98
ATOM     98  N   UNL     1       7.583   8.833   6.938  1.00  0.00    -0.365 N 
ATOM     99  C   UNL     1       8.023   9.986   6.115  1.00  0.00     0.138 C 
ATOM    100  C   UNL     1       6.862   9.203   8.173  1.00  0.00     0.138 C 
ATOM    101  C   UNL     1       6.861  10.987   5.849  1.00  0.00     0.138 C 
ATOM    102  C   UNL     1       5.685  10.142   7.863  1.00  0.00     0.138 C 
ATOM    103  N   UNL     1       6.172  11.305   7.108  1.00  0.00    -0.368 N 
BRANCH 103 104
ATOM    104  C   UNL     1       5.838  12.579   7.497  1.00  0.00     0.037 A 
ATOM    105  C   UNL     1       6.024  12.979   8.832  1.00  0.00     0.029 A 
ATOM    106  C   UNL     1       5.302  13.515   6.604  1.00  0.00     0.029 A 
ATOM    107  C   UNL     1       5.677  14.259   9.266  1.00  0.00     0.041 A 
ATOM    108  C   UNL     1       4.936  14.795   7.035  1.00  0.00     0.041 A 
ATOM    109  C   UNL     1       5.127  15.154   8.363  1.00  0.00     0.123 A 
ATOM    110  F   UNL     1       4.777  16.378   8.778  1.00  0.00    -0.207 F 
ENDBRANCH 103 104
ENDBRANCH  96  98
ENDBRANCH  82  90
ENDBRANCH  77  80
ENDBRANCH  75  76
ENDBRANCH  74  75
ENDBRANCH  73  74
ENDBRANCH   1  73
TORSDOF 19
