REMARK SMILES C[C@]12c3ccccc3[C@](C)(c3ccccc31)[C@@H]1C(=O)N(c3ccc(C(=O)NCCCCCCNC(=O)c4ccc(-c5c6nc(c(-c7cccc(S(=O)(=O)[O-])c7F)c7ccc([nH]7)c(-c7cccc(S(=O)(=O)[O-])c7F)c7nc(c(-c8cccc(S(=O)(=O)[O-])c8F)c8ccc5[nH]8)C=C7)C=C6)cc4)cc3)C(=O)[C@H]12
REMARK SMILES IDX 31 1 30 2 29 3 28 4 27 5 25 6 26 7 24 9 21 10 22 11 101 12
REMARK SMILES IDX 23 13 100 14 20 15 1 16 2 17 16 18 3 19 104 20 15 21 11 22
REMARK SMILES IDX 8 23 4 24 17 25 102 26 14 27 12 28 9 29 7 30 5 31 18 32
REMARK SMILES IDX 103 33 13 34 10 35 6 36 19 37 32 38 33 39 34 40 35 41 36 43
REMARK SMILES IDX 37 44 38 45 99 46 39 47 98 48 40 49 41 50 42 51 92 52 43 53
REMARK SMILES IDX 97 54 91 55 93 56 44 57 96 58 90 59 89 60 45 62 77 63 57 64
REMARK SMILES IDX 76 65 58 66 61 67 75 68 94 69 59 70 60 71 74 73 95 74 62 75
REMARK SMILES IDX 46 76 47 77 55 78 48 79 50 80 56 81 49 82 51 83 52 84 53 85
REMARK SMILES IDX 54 86 78 87 79 88 87 89 80 90 82 91 88 92 81 93 83 94 84 95
REMARK SMILES IDX 85 96 86 97 63 98 64 99 72 100 65 101 67 102 73 103 66 104
REMARK SMILES IDX 68 105 69 106 70 107 71 108
REMARK H PARENT 27 8 34 42 93 61 61 72
REMARK Flexibility Score: inf
ROOT
ATOM      1  C   UNL     1       0.113  -1.123 -13.021  1.00  0.00     0.002 C 
ENDROOT
BRANCH   1   2
ATOM      2  C   UNL     1       1.111  -0.351 -12.156  1.00  0.00     0.002 C 
BRANCH   2   3
ATOM      3  C   UNL     1       0.814  -0.301 -10.655  1.00  0.00     0.021 C 
BRANCH   3   4
ATOM      4  C   UNL     1       0.592  -1.645  -9.966  1.00  0.00     0.116 C 
BRANCH   4   5
ATOM      5  N   UNL     1       1.746  -2.525 -10.023  1.00  0.00    -0.352 N 
ATOM      6  C   UNL     1       2.324  -3.302  -9.048  1.00  0.00     0.251 C 
ATOM      7  O   UNL     1       3.345  -3.935  -9.309  1.00  0.00    -0.269 OA
ATOM      8  H   UNL     1       2.185  -2.573 -10.903  1.00  0.00     0.163 HD
BRANCH   6   9
ATOM      9  C   UNL     1       1.783  -3.336  -7.666  1.00  0.00     0.039 A 
ATOM     10  C   UNL     1       0.873  -3.104  -5.016  1.00  0.00     0.052 A 
ATOM     11  C   UNL     1       2.244  -3.159  -5.294  1.00  0.00     0.027 A 
ATOM     12  C   UNL     1      -0.036  -3.277  -6.069  1.00  0.00     0.027 A 
ATOM     13  C   UNL     1       2.697  -3.294  -6.609  1.00  0.00     0.016 A 
ATOM     14  C   UNL     1       0.416  -3.397  -7.387  1.00  0.00     0.016 A 
BRANCH  10  15
ATOM     15  N   UNL     1       0.409  -2.812  -3.715  1.00  0.00    -0.250 N 
ATOM     16  C   UNL     1       1.596  -0.521   0.003  1.00  0.00     0.022 C 
ATOM     17  C   UNL     1       0.271  -1.226  -0.279  1.00  0.00     0.030 C 
ATOM     18  C   UNL     1      -0.972  -0.295  -0.306  1.00  0.00    -0.033 A 
ATOM     19  C   UNL     1      -0.114  -2.337   0.751  1.00  0.00    -0.033 A 
ATOM     20  C   UNL     1       0.338  -2.122  -1.539  1.00  0.00     0.108 C 
ATOM     21  C   UNL     1      -0.976   1.079  -0.081  1.00  0.00     0.005 A 
ATOM     22  C   UNL     1      -2.219  -0.980  -0.517  1.00  0.00    -0.033 A 
ATOM     23  C   UNL     1      -1.301  -3.064   0.384  1.00  0.00    -0.033 A 
ATOM     24  C   UNL     1       0.617  -2.696   1.880  1.00  0.00     0.005 A 
ATOM     25  C   UNL     1      -1.083  -2.350  -2.057  1.00  0.00     0.108 C 
ATOM     26  C   UNL     1       1.056  -1.931  -2.836  1.00  0.00     0.238 C 
ATOM     27  C   UNL     1      -2.195   1.764  -0.053  1.00  0.00     0.000 A 
ATOM     28  C   UNL     1      -3.426  -0.287  -0.472  1.00  0.00     0.005 A 
ATOM     29  C   UNL     1      -2.043  -2.494  -0.852  1.00  0.00     0.030 C 
ATOM     30  C   UNL     1      -1.711  -4.144   1.159  1.00  0.00     0.005 A 
ATOM     31  C   UNL     1       0.186  -3.781   2.642  1.00  0.00     0.000 A 
ATOM     32  C   UNL     1      -0.796  -3.287  -3.183  1.00  0.00     0.238 C 
ATOM     33  O   UNL     1       2.039  -1.232  -3.010  1.00  0.00    -0.274 OA
ATOM     34  C   UNL     1      -3.407   1.087  -0.236  1.00  0.00     0.000 A 
ATOM     35  C   UNL     1      -3.333  -3.215  -1.235  1.00  0.00     0.022 C 
ATOM     36  C   UNL     1      -0.961  -4.500   2.282  1.00  0.00     0.000 A 
ATOM     37  O   UNL     1      -1.524  -4.180  -3.582  1.00  0.00    -0.274 OA
ENDBRANCH  10  15
ENDBRANCH   6   9
ENDBRANCH   4   5
ENDBRANCH   3   4
ENDBRANCH   2   3
ENDBRANCH   1   2
BRANCH   1  38
ATOM     38  C   UNL     1      -1.356  -0.735 -12.856  1.00  0.00     0.021 C 
BRANCH  38  39
ATOM     39  C   UNL     1      -1.667   0.745 -13.035  1.00  0.00     0.116 C 
BRANCH  39  40
ATOM     40  N   UNL     1      -1.374   1.236 -14.373  1.00  0.00    -0.352 N 
ATOM     41  C   UNL     1      -2.190   1.918 -15.247  1.00  0.00     0.251 C 
ATOM     42  H   UNL     1      -0.462   1.056 -14.699  1.00  0.00     0.163 HD
ATOM     43  O   UNL     1      -1.814   2.142 -16.393  1.00  0.00    -0.269 OA
BRANCH  41  44
ATOM     44  C   UNL     1      -3.539   2.336 -14.804  1.00  0.00     0.039 A 
ATOM     45  C   UNL     1      -3.718   2.936 -13.557  1.00  0.00     0.014 A 
ATOM     46  C   UNL     1      -4.642   2.067 -15.619  1.00  0.00     0.014 A 
ATOM     47  C   UNL     1      -5.002   3.077 -13.042  1.00  0.00     0.010 A 
ATOM     48  C   UNL     1      -5.932   2.306 -15.136  1.00  0.00     0.010 A 
ATOM     49  C   UNL     1      -6.126   2.755 -13.821  1.00  0.00    -0.014 A 
BRANCH  49  50
ATOM     50  C   UNL     1      -7.486   2.890 -13.234  1.00  0.00     0.031 A 
ATOM     51  C   UNL     1      -8.386   1.691 -13.077  1.00  0.00     0.074 A 
ATOM     52  C   UNL     1      -7.898   4.098 -12.800  1.00  0.00     0.049 A 
ATOM     53  N   UNL     1      -9.594   1.634 -12.576  1.00  0.00    -0.248 NA
ATOM     54  C   UNL     1      -7.873   0.389 -13.538  1.00  0.00     0.031 C 
ATOM     55  C   UNL     1      -7.125   5.338 -12.902  1.00  0.00     0.029 A 
ATOM     56  N   UNL     1      -9.059   4.482 -12.179  1.00  0.00    -0.354 N 
ATOM     57  C   UNL     1      -9.999   0.310 -12.698  1.00  0.00     0.074 A 
ATOM     58  C   UNL     1      -8.912  -0.408 -13.324  1.00  0.00     0.031 C 
ATOM     59  C   UNL     1      -7.814   6.335 -12.331  1.00  0.00     0.029 A 
ATOM     60  C   UNL     1      -9.102   5.823 -11.877  1.00  0.00     0.049 A 
ATOM     61  H   UNL     1      -9.791   3.858 -11.970  1.00  0.00     0.167 HD
ATOM     62  C   UNL     1     -11.163  -0.259 -12.306  1.00  0.00     0.034 A 
ATOM     63  C   UNL     1     -10.073   6.568 -11.316  1.00  0.00     0.034 A 
ATOM     64  C   UNL     1     -12.226   0.443 -11.640  1.00  0.00     0.049 A 
ATOM     65  C   UNL     1     -11.357   5.915 -10.901  1.00  0.00     0.074 A 
ATOM     66  C   UNL     1     -13.421  -0.067 -11.164  1.00  0.00     0.029 A 
ATOM     67  N   UNL     1     -12.227   1.799 -11.356  1.00  0.00    -0.354 N 
ATOM     68  N   UNL     1     -11.688   4.649 -10.964  1.00  0.00    -0.248 NA
ATOM     69  C   UNL     1     -12.394   6.783 -10.326  1.00  0.00     0.031 C 
ATOM     70  C   UNL     1     -14.154   0.984 -10.609  1.00  0.00     0.029 A 
ATOM     71  C   UNL     1     -13.405   2.144 -10.718  1.00  0.00     0.049 A 
ATOM     72  H   UNL     1     -11.498   2.423 -11.576  1.00  0.00     0.167 HD
ATOM     73  C   UNL     1     -12.964   4.564 -10.423  1.00  0.00     0.074 A 
ATOM     74  C   UNL     1     -13.341   5.904 -10.022  1.00  0.00     0.031 C 
ATOM     75  C   UNL     1     -13.753   3.472 -10.285  1.00  0.00     0.034 A 
BRANCH  62  76
ATOM     76  C   UNL     1     -11.352  -1.734 -12.539  1.00  0.00     0.023 A 
ATOM     77  C   UNL     1     -10.735  -2.655 -11.671  1.00  0.00     0.012 A 
ATOM     78  C   UNL     1     -12.238  -2.199 -13.532  1.00  0.00     0.148 A 
ATOM     79  C   UNL     1     -10.992  -4.020 -11.790  1.00  0.00     0.002 A 
ATOM     80  C   UNL     1     -12.511  -3.558 -13.625  1.00  0.00     0.091 A 
ATOM     81  F   UNL     1     -12.807  -1.302 -14.349  1.00  0.00    -0.205 F 
ATOM     82  C   UNL     1     -11.887  -4.470 -12.757  1.00  0.00     0.022 A 
BRANCH  80  83
ATOM     83  S   UNL     1     -13.688  -4.238 -14.800  1.00  0.00     0.127 S 
ATOM     84  O   UNL     1     -12.821  -5.067 -15.637  1.00  0.00    -0.237 OA
ATOM     85  O   UNL     1     -14.592  -4.987 -13.929  1.00  0.00    -0.237 OA
ATOM     86  O   UNL     1     -14.290  -3.098 -15.477  1.00  0.00    -0.744 OA
ENDBRANCH  80  83
ENDBRANCH  62  76
BRANCH  63  87
ATOM     87  C   UNL     1      -9.831   8.018 -11.092  1.00  0.00     0.023 A 
ATOM     88  C   UNL     1      -9.563   8.480  -9.790  1.00  0.00     0.012 A 
ATOM     89  C   UNL     1      -9.776   8.919 -12.174  1.00  0.00     0.148 A 
ATOM     90  C   UNL     1      -9.244   9.820  -9.568  1.00  0.00     0.002 A 
ATOM     91  C   UNL     1      -9.418  10.242 -11.950  1.00  0.00     0.091 A 
ATOM     92  F   UNL     1     -10.033   8.449 -13.402  1.00  0.00    -0.205 F 
ATOM     93  C   UNL     1      -9.160  10.697 -10.648  1.00  0.00     0.022 A 
BRANCH  91  94
ATOM     94  S   UNL     1      -9.185  11.421 -13.284  1.00  0.00     0.127 S 
ATOM     95  O   UNL     1     -10.209  12.418 -12.982  1.00  0.00    -0.237 OA
ATOM     96  O   UNL     1      -7.809  11.862 -13.053  1.00  0.00    -0.237 OA
ATOM     97  O   UNL     1      -9.386  10.674 -14.517  1.00  0.00    -0.744 OA
ENDBRANCH  91  94
ENDBRANCH  63  87
BRANCH  75  98
ATOM     98  C   UNL     1     -15.107   3.649  -9.657  1.00  0.00     0.023 A 
ATOM     99  C   UNL     1     -16.164   4.169 -10.427  1.00  0.00     0.012 A 
ATOM    100  C   UNL     1     -15.359   3.172  -8.356  1.00  0.00     0.148 A 
ATOM    101  C   UNL     1     -17.457   4.215  -9.908  1.00  0.00     0.002 A 
ATOM    102  C   UNL     1     -16.655   3.189  -7.858  1.00  0.00     0.091 A 
ATOM    103  F   UNL     1     -14.331   2.686  -7.645  1.00  0.00    -0.205 F 
ATOM    104  C   UNL     1     -17.705   3.714  -8.631  1.00  0.00     0.022 A 
BRANCH 102 105
ATOM    105  S   UNL     1     -17.087   2.504  -6.255  1.00  0.00     0.127 S 
ATOM    106  O   UNL     1     -17.529   3.696  -5.532  1.00  0.00    -0.237 OA
ATOM    107  O   UNL     1     -18.156   1.567  -6.598  1.00  0.00    -0.237 OA
ATOM    108  O   UNL     1     -15.874   1.885  -5.738  1.00  0.00    -0.744 OA
ENDBRANCH 102 105
ENDBRANCH  75  98
ENDBRANCH  49  50
ENDBRANCH  41  44
ENDBRANCH  39  40
ENDBRANCH  38  39
ENDBRANCH   1  38
TORSDOF 17
