REMARK SMILES O=C(NCCCCCCNC(=O)c1cccc([C@@H]2CCC[N@@H+](Cc3cccc(OCCO)c3)C2)c1)c1ccc(-c2c3nc(c(-c4cccc(S(=O)(=O)[O-])c4F)c4ccc([nH]4)c(-c4cccc(S(=O)(=O)[O-])c4F)c4nc(c(-c5cccc(S(=O)(=O)[O-])c5F)c5ccc2[nH]5)C=C4)C=C3)cc1
REMARK SMILES IDX 8 1 7 2 6 3 5 4 4 5 3 6 1 7 2 8 36 10 37 11 98 12 38 13
REMARK SMILES IDX 97 14 39 15 40 16 41 17 91 18 42 19 96 20 90 21 92 22 43 23
REMARK SMILES IDX 95 24 89 25 88 26 44 28 76 29 56 30 75 31 57 32 60 33 74 34
REMARK SMILES IDX 93 35 58 36 59 37 73 39 94 40 61 41 45 42 46 43 54 44 47 45
REMARK SMILES IDX 49 46 55 47 48 48 50 49 51 50 52 51 53 52 77 53 78 54 86 55
REMARK SMILES IDX 79 56 81 57 87 58 80 59 82 60 83 61 84 62 85 63 62 64 63 65
REMARK SMILES IDX 71 66 64 67 66 68 72 69 65 70 67 71 68 72 69 73 70 74 9 75
REMARK SMILES IDX 10 76 11 77 12 79 13 80 14 81 35 82 15 83 17 84 16 85 18 86
REMARK SMILES IDX 19 87 34 88 20 89 22 90 21 91 23 93 24 94 25 95 33 96 26 97
REMARK SMILES IDX 28 98 27 99 29 100 30 101 31 102 32 103
REMARK H PARENT 3 9 92 27 60 38 10 78 22 92 32 104
REMARK Flexibility Score: inf
ROOT
ATOM      1  C   UNL     1       6.079  -1.415  -4.231  1.00  0.00     0.021 C 
ENDROOT
BRANCH   1   2
ATOM      2  C   UNL     1       4.561  -1.589  -4.131  1.00  0.00     0.002 C 
BRANCH   2   3
ATOM      3  C   UNL     1       4.074  -2.562  -3.054  1.00  0.00     0.002 C 
BRANCH   3   4
ATOM      4  C   UNL     1       4.571  -2.281  -1.636  1.00  0.00     0.021 C 
BRANCH   4   5
ATOM      5  C   UNL     1       4.331  -0.865  -1.126  1.00  0.00     0.116 C 
BRANCH   5   6
ATOM      6  N   UNL     1       2.922  -0.521  -1.044  1.00  0.00    -0.352 N 
ATOM      7  O   UNL     1       1.004   0.139  -0.065  1.00  0.00    -0.269 OA
ATOM      8  C   UNL     1       2.222   0.040   0.000  1.00  0.00     0.251 C 
ATOM      9  H   UNL     1       2.393  -0.717  -1.851  1.00  0.00     0.163 HD
BRANCH   8  10
ATOM     10  C   UNL     1       2.947   0.488   1.212  1.00  0.00     0.039 A 
ATOM     11  C   UNL     1       4.133   1.219   1.110  1.00  0.00     0.014 A 
ATOM     12  C   UNL     1       2.434   0.161   2.471  1.00  0.00     0.014 A 
ATOM     13  C   UNL     1       4.880   1.489   2.252  1.00  0.00     0.010 A 
ATOM     14  C   UNL     1       3.145   0.508   3.624  1.00  0.00     0.010 A 
ATOM     15  C   UNL     1       4.393   1.141   3.524  1.00  0.00    -0.014 A 
BRANCH  15  16
ATOM     16  C   UNL     1       5.184   1.502   4.729  1.00  0.00     0.031 A 
ATOM     17  C   UNL     1       5.755   0.447   5.638  1.00  0.00     0.074 A 
ATOM     18  C   UNL     1       5.397   2.806   4.995  1.00  0.00     0.049 A 
ATOM     19  N   UNL     1       6.515   0.596   6.693  1.00  0.00    -0.248 NA
ATOM     20  C   UNL     1       5.426  -0.955   5.335  1.00  0.00     0.031 C 
ATOM     21  C   UNL     1       4.854   3.921   4.215  1.00  0.00     0.029 A 
ATOM     22  N   UNL     1       6.126   3.416   5.982  1.00  0.00    -0.354 N 
ATOM     23  C   UNL     1       6.722  -0.680   7.203  1.00  0.00     0.074 A 
ATOM     24  C   UNL     1       5.999  -1.595   6.346  1.00  0.00     0.031 C 
ATOM     25  C   UNL     1       5.301   5.076   4.728  1.00  0.00     0.029 A 
ATOM     26  C   UNL     1       6.121   4.789   5.899  1.00  0.00     0.049 A 
ATOM     27  H   UNL     1       6.607   2.920   6.684  1.00  0.00     0.167 HD
ATOM     28  C   UNL     1       7.459  -1.056   8.276  1.00  0.00     0.034 A 
ATOM     29  C   UNL     1       6.710   5.717   6.677  1.00  0.00     0.034 A 
ATOM     30  C   UNL     1       8.212  -0.146   9.100  1.00  0.00     0.049 A 
ATOM     31  C   UNL     1       7.550   5.267   7.837  1.00  0.00     0.074 A 
ATOM     32  C   UNL     1       9.049  -0.440  10.164  1.00  0.00     0.029 A 
ATOM     33  N   UNL     1       8.215   1.233   8.960  1.00  0.00    -0.354 N 
ATOM     34  N   UNL     1       7.847   4.048   8.216  1.00  0.00    -0.248 NA
ATOM     35  C   UNL     1       8.159   6.320   8.661  1.00  0.00     0.031 C 
ATOM     36  C   UNL     1       9.545   0.764  10.676  1.00  0.00     0.029 A 
ATOM     37  C   UNL     1       9.030   1.807   9.922  1.00  0.00     0.049 A 
ATOM     38  H   UNL     1       7.712   1.732   8.277  1.00  0.00     0.167 HD
ATOM     39  C   UNL     1       8.697   4.185   9.306  1.00  0.00     0.074 A 
ATOM     40  C   UNL     1       8.889   5.607   9.508  1.00  0.00     0.031 C 
ATOM     41  C   UNL     1       9.253   3.221  10.081  1.00  0.00     0.034 A 
BRANCH  28  42
ATOM     42  C   UNL     1       7.527  -2.526   8.601  1.00  0.00     0.023 A 
ATOM     43  C   UNL     1       8.305  -3.382   7.795  1.00  0.00     0.012 A 
ATOM     44  C   UNL     1       6.880  -3.050   9.739  1.00  0.00     0.148 A 
ATOM     45  C   UNL     1       8.414  -4.739   8.097  1.00  0.00     0.002 A 
ATOM     46  C   UNL     1       7.025  -4.397  10.055  1.00  0.00     0.091 A 
ATOM     47  F   UNL     1       6.126  -2.228  10.482  1.00  0.00    -0.205 F 
ATOM     48  C   UNL     1       7.783  -5.244   9.231  1.00  0.00     0.022 A 
BRANCH  46  49
ATOM     49  S   UNL     1       6.310  -5.119  11.537  1.00  0.00     0.127 S 
ATOM     50  O   UNL     1       5.155  -5.830  10.991  1.00  0.00    -0.237 OA
ATOM     51  O   UNL     1       7.389  -5.987  12.013  1.00  0.00    -0.237 OA
ATOM     52  O   UNL     1       6.006  -3.999  12.416  1.00  0.00    -0.744 OA
ENDBRANCH  46  49
ENDBRANCH  28  42
BRANCH  29  53
ATOM     53  C   UNL     1       6.578   7.160   6.332  1.00  0.00     0.023 A 
ATOM     54  C   UNL     1       7.701   7.858   5.848  1.00  0.00     0.012 A 
ATOM     55  C   UNL     1       5.341   7.827   6.425  1.00  0.00     0.148 A 
ATOM     56  C   UNL     1       7.599   9.200   5.482  1.00  0.00     0.002 A 
ATOM     57  C   UNL     1       5.234   9.147   6.004  1.00  0.00     0.091 A 
ATOM     58  F   UNL     1       4.288   7.150   6.906  1.00  0.00    -0.205 F 
ATOM     59  C   UNL     1       6.364   9.840   5.547  1.00  0.00     0.022 A 
BRANCH  57  60
ATOM     60  S   UNL     1       3.653   9.996   5.918  1.00  0.00     0.127 S 
ATOM     61  O   UNL     1       3.731  10.889   7.070  1.00  0.00    -0.237 OA
ATOM     62  O   UNL     1       3.733  10.660   4.616  1.00  0.00    -0.237 OA
ATOM     63  O   UNL     1       2.645   8.947   5.991  1.00  0.00    -0.744 OA
ENDBRANCH  57  60
ENDBRANCH  29  53
BRANCH  41  64
ATOM     64  C   UNL     1      10.141   3.671  11.210  1.00  0.00     0.023 A 
ATOM     65  C   UNL     1       9.567   4.251  12.359  1.00  0.00     0.012 A 
ATOM     66  C   UNL     1      11.534   3.470  11.158  1.00  0.00     0.148 A 
ATOM     67  C   UNL     1      10.370   4.655  13.425  1.00  0.00     0.002 A 
ATOM     68  C   UNL     1      12.323   3.834  12.243  1.00  0.00     0.091 A 
ATOM     69  F   UNL     1      12.065   2.939  10.047  1.00  0.00    -0.205 F 
ATOM     70  C   UNL     1      11.745   4.437  13.372  1.00  0.00     0.022 A 
BRANCH  68  71
ATOM     71  S   UNL     1      14.088   3.506  12.292  1.00  0.00     0.127 S 
ATOM     72  O   UNL     1      14.646   4.822  11.989  1.00  0.00    -0.237 OA
ATOM     73  O   UNL     1      14.288   3.062  13.672  1.00  0.00    -0.237 OA
ATOM     74  O   UNL     1      14.326   2.475  11.291  1.00  0.00    -0.744 OA
ENDBRANCH  68  71
ENDBRANCH  41  64
ENDBRANCH  15  16
ENDBRANCH   8  10
ENDBRANCH   5   6
ENDBRANCH   4   5
ENDBRANCH   3   4
ENDBRANCH   2   3
ENDBRANCH   1   2
BRANCH   1  75
ATOM     75  C   UNL     1       6.860  -2.692  -4.525  1.00  0.00     0.116 C 
BRANCH  75  76
ATOM     76  N   UNL     1       6.532  -3.249  -5.830  1.00  0.00    -0.352 N 
ATOM     77  C   UNL     1       7.375  -3.695  -6.819  1.00  0.00     0.251 C 
ATOM     78  H   UNL     1       5.570  -3.315  -6.032  1.00  0.00     0.163 HD
ATOM     79  O   UNL     1       6.933  -3.978  -7.930  1.00  0.00    -0.269 OA
BRANCH  77  80
ATOM     80  C   UNL     1       8.822  -3.832  -6.550  1.00  0.00     0.040 A 
ATOM     81  C   UNL     1       9.746  -3.351  -7.478  1.00  0.00     0.014 A 
ATOM     82  C   UNL     1       9.262  -4.447  -5.375  1.00  0.00     0.018 A 
ATOM     83  C   UNL     1      11.108  -3.437  -7.195  1.00  0.00     0.001 A 
ATOM     84  C   UNL     1      10.621  -4.513  -5.061  1.00  0.00    -0.039 A 
ATOM     85  C   UNL     1      11.541  -4.002  -5.991  1.00  0.00     0.004 A 
BRANCH  84  86
ATOM     86  C   UNL     1      11.098  -5.028  -3.713  1.00  0.00     0.074 C 
ATOM     87  C   UNL     1      10.724  -6.486  -3.398  1.00  0.00     0.020 C 
ATOM     88  C   UNL     1      10.685  -4.086  -2.561  1.00  0.00     0.270 C 
ATOM     89  C   UNL     1       9.341  -6.657  -2.771  1.00  0.00     0.062 C 
ATOM     90  N   UNL     1       9.306  -4.266  -2.073  1.00  0.00    -0.331 N 
ATOM     91  C   UNL     1       9.072  -5.653  -1.648  1.00  0.00     0.262 C 
ATOM     92  H   UNL     1       8.682  -4.079  -2.858  1.00  0.00     0.348 HD
BRANCH  90  93
ATOM     93  C   UNL     1       8.937  -3.283  -1.025  1.00  0.00     0.299 C 
BRANCH  93  94
ATOM     94  C   UNL     1       9.543  -3.497   0.349  1.00  0.00     0.010 A 
ATOM     95  C   UNL     1       8.770  -3.987   1.410  1.00  0.00     0.010 A 
ATOM     96  C   UNL     1      10.912  -3.270   0.565  1.00  0.00     0.056 A 
ATOM     97  C   UNL     1       9.366  -4.288   2.634  1.00  0.00     0.004 A 
ATOM     98  C   UNL     1      11.534  -3.674   1.744  1.00  0.00     0.119 A 
ATOM     99  C   UNL     1      10.747  -4.153   2.791  1.00  0.00     0.046 A 
BRANCH  98 100
ATOM    100  O   UNL     1      12.882  -3.689   1.969  1.00  0.00    -0.491 OA
BRANCH 100 101
ATOM    101  C   UNL     1      13.776  -3.612   0.852  1.00  0.00     0.257 C 
BRANCH 101 102
ATOM    102  C   UNL     1      14.080  -4.990   0.254  1.00  0.00     0.197 C 
BRANCH 102 103
ATOM    103  O   UNL     1      12.945  -5.597  -0.356  1.00  0.00    -0.393 OA
ATOM    104  H   UNL     1      12.255  -5.736   0.311  1.00  0.00     0.210 HD
ENDBRANCH 102 103
ENDBRANCH 101 102
ENDBRANCH 100 101
ENDBRANCH  98 100
ENDBRANCH  93  94
ENDBRANCH  90  93
ENDBRANCH  84  86
ENDBRANCH  77  80
ENDBRANCH  75  76
ENDBRANCH   1  75
TORSDOF 23
