REMARK SMILES Cn1cc(/C=C/C(=O)N(CC(=O)NCCCCCCNC(=O)c2ccc(-c3c4nc(c(-c5cccc(S(=O)(=O)[O-])c5F)c5ccc([nH]5)c(-c5cccc(S(=O)(=O)[O-])c5F)c5nc(c(-c6cccc(S(=O)(=O)[O-])c6F)c6ccc3[nH]6)C=C5)C=C4)cc2)C(C)(C)C)cn1
REMARK SMILES IDX 16 1 15 2 14 3 13 4 11 5 12 6 10 8 9 9 7 10 8 11 6 12 5 13
REMARK SMILES IDX 4 14 1 15 2 16 3 17 91 18 90 19 86 20 87 21 88 22 89 23
REMARK SMILES IDX 17 24 18 25 19 26 20 27 21 28 22 30 23 31 24 32 85 33 25 34
REMARK SMILES IDX 84 35 26 36 27 37 28 38 78 39 29 40 83 41 77 42 79 43 30 44
REMARK SMILES IDX 82 45 76 46 75 47 31 49 63 50 43 51 62 52 44 53 47 54 61 55
REMARK SMILES IDX 80 56 45 57 46 58 60 60 81 61 48 62 32 63 33 64 41 65 34 66
REMARK SMILES IDX 36 67 42 68 35 69 37 70 38 71 39 72 40 73 64 74 65 75 73 76
REMARK SMILES IDX 66 77 68 78 74 79 67 80 69 81 70 82 71 83 72 84 49 85 50 86
REMARK SMILES IDX 58 87 51 88 53 89 59 90 52 91 54 92 55 93 56 94 57 95
REMARK H PARENT 13 7 20 29 79 48 47 59
REMARK Flexibility Score: inf
ROOT
ATOM      1  C   UNL     1       4.716  -3.220  -5.273  1.00  0.00     0.002 C 
ENDROOT
BRANCH   1   2
ATOM      2  C   UNL     1       4.913  -2.610  -3.890  1.00  0.00     0.021 C 
BRANCH   2   3
ATOM      3  C   UNL     1       3.746  -2.812  -2.936  1.00  0.00     0.116 C 
BRANCH   3   4
ATOM      4  N   UNL     1       3.513  -4.198  -2.577  1.00  0.00    -0.355 N 
ATOM      5  C   UNL     1       3.531  -4.852  -1.385  1.00  0.00     0.239 C 
ATOM      6  O   UNL     1       3.056  -5.996  -1.386  1.00  0.00    -0.273 OA
ATOM      7  H   UNL     1       3.302  -4.777  -3.345  1.00  0.00     0.163 HD
BRANCH   5   8
ATOM      8  C   UNL     1       3.945  -4.214  -0.041  1.00  0.00     0.220 C 
BRANCH   8   9
ATOM      9  N   UNL     1       5.123  -3.341  -0.012  1.00  0.00    -0.325 N 
BRANCH   9  10
ATOM     10  C   UNL     1       5.061  -1.946   0.098  1.00  0.00     0.247 C 
ATOM     11  O   UNL     1       6.081  -1.250   0.079  1.00  0.00    -0.270 OA
BRANCH  10  12
ATOM     12  C   UNL     1       3.787  -1.152   0.279  1.00  0.00     0.072 C 
ATOM     13  C   UNL     1       2.518  -1.397  -0.085  1.00  0.00     0.017 C 
BRANCH  13  14
ATOM     14  C   UNL     1       1.396  -0.531   0.041  1.00  0.00     0.013 A 
ATOM     15  C   UNL     1      -2.127   0.192  -0.024  1.00  0.00     0.173 C 
ATOM     16  N   UNL     1      -0.688   0.139   0.066  1.00  0.00    -0.275 N 
ATOM     17  C   UNL     1       0.093  -0.978   0.013  1.00  0.00     0.116 A 
ATOM     18  N   UNL     1       0.018   1.275   0.181  1.00  0.00    -0.181 NA
ATOM     19  C   UNL     1       1.292   0.870   0.135  1.00  0.00     0.143 A 
ENDBRANCH  13  14
ENDBRANCH  10  12
ENDBRANCH   9  10
BRANCH   9  20
ATOM     20  C   UNL     1       6.492  -4.019  -0.030  1.00  0.00     0.035 C 
ATOM     21  C   UNL     1       7.297  -3.666  -1.295  1.00  0.00     0.034 C 
ATOM     22  C   UNL     1       7.308  -3.629   1.225  1.00  0.00     0.034 C 
ATOM     23  C   UNL     1       6.433  -5.575  -0.011  1.00  0.00     0.034 C 
ENDBRANCH   9  20
ENDBRANCH   8   9
ENDBRANCH   5   8
ENDBRANCH   3   4
ENDBRANCH   2   3
ENDBRANCH   1   2
BRANCH   1  24
ATOM     24  C   UNL     1       3.551  -2.625  -6.065  1.00  0.00     0.002 C 
BRANCH  24  25
ATOM     25  C   UNL     1       3.597  -1.103  -6.231  1.00  0.00     0.021 C 
BRANCH  25  26
ATOM     26  C   UNL     1       4.888  -0.571  -6.845  1.00  0.00     0.116 C 
BRANCH  26  27
ATOM     27  N   UNL     1       5.102  -1.092  -8.186  1.00  0.00    -0.352 N 
ATOM     28  C   UNL     1       5.281  -0.403  -9.361  1.00  0.00     0.251 C 
ATOM     29  H   UNL     1       5.121  -2.073  -8.262  1.00  0.00     0.163 HD
ATOM     30  O   UNL     1       5.224  -0.989 -10.435  1.00  0.00    -0.269 OA
BRANCH  28  31
ATOM     31  C   UNL     1       5.532   1.053  -9.315  1.00  0.00     0.039 A 
ATOM     32  C   UNL     1       4.832   1.890 -10.185  1.00  0.00     0.014 A 
ATOM     33  C   UNL     1       6.454   1.586  -8.409  1.00  0.00     0.014 A 
ATOM     34  C   UNL     1       5.023   3.271 -10.114  1.00  0.00     0.010 A 
ATOM     35  C   UNL     1       6.583   2.966  -8.286  1.00  0.00     0.010 A 
ATOM     36  C   UNL     1       5.880   3.823  -9.146  1.00  0.00    -0.014 A 
BRANCH  36  37
ATOM     37  C   UNL     1       6.055   5.293  -9.023  1.00  0.00     0.031 A 
ATOM     38  C   UNL     1       7.405   5.916  -9.252  1.00  0.00     0.074 A 
ATOM     39  C   UNL     1       5.016   6.058  -8.633  1.00  0.00     0.049 A 
ATOM     40  N   UNL     1       7.761   7.171  -9.154  1.00  0.00    -0.248 NA
ATOM     41  C   UNL     1       8.508   5.009  -9.615  1.00  0.00     0.031 C 
ATOM     42  C   UNL     1       3.676   5.563  -8.305  1.00  0.00     0.029 A 
ATOM     43  N   UNL     1       4.929   7.411  -8.422  1.00  0.00    -0.354 N 
ATOM     44  C   UNL     1       9.127   7.200  -9.406  1.00  0.00     0.074 A 
ATOM     45  C   UNL     1       9.545   5.833  -9.625  1.00  0.00     0.031 C 
ATOM     46  C   UNL     1       2.901   6.598  -7.944  1.00  0.00     0.029 A 
ATOM     47  C   UNL     1       3.693   7.823  -7.979  1.00  0.00     0.049 A 
ATOM     48  H   UNL     1       5.681   8.029  -8.573  1.00  0.00     0.167 HD
ATOM     49  C   UNL     1       9.956   8.269  -9.478  1.00  0.00     0.034 A 
ATOM     50  C   UNL     1       3.251   9.047  -7.631  1.00  0.00     0.034 A 
ATOM     51  C   UNL     1       9.529   9.630  -9.294  1.00  0.00     0.049 A 
ATOM     52  C   UNL     1       4.186  10.221  -7.744  1.00  0.00     0.074 A 
ATOM     53  C   UNL     1      10.271  10.789  -9.434  1.00  0.00     0.029 A 
ATOM     54  N   UNL     1       8.252  10.015  -8.917  1.00  0.00    -0.354 N 
ATOM     55  N   UNL     1       5.435  10.248  -8.142  1.00  0.00    -0.248 NA
ATOM     56  C   UNL     1       3.641  11.541  -7.392  1.00  0.00     0.031 C 
ATOM     57  C   UNL     1       9.452  11.873  -9.105  1.00  0.00     0.029 A 
ATOM     58  C   UNL     1       8.188  11.393  -8.802  1.00  0.00     0.049 A 
ATOM     59  H   UNL     1       7.501   9.399  -8.754  1.00  0.00     0.167 HD
ATOM     60  C   UNL     1       5.813  11.585  -8.125  1.00  0.00     0.074 A 
ATOM     61  C   UNL     1       4.653  12.341  -7.697  1.00  0.00     0.031 C 
ATOM     62  C   UNL     1       7.015  12.137  -8.423  1.00  0.00     0.034 A 
BRANCH  49  63
ATOM     63  C   UNL     1      11.403   8.013  -9.810  1.00  0.00     0.023 A 
ATOM     64  C   UNL     1      11.758   7.585 -11.107  1.00  0.00     0.012 A 
ATOM     65  C   UNL     1      12.417   8.252  -8.861  1.00  0.00     0.148 A 
ATOM     66  C   UNL     1      13.092   7.360 -11.442  1.00  0.00     0.002 A 
ATOM     67  C   UNL     1      13.749   8.073  -9.218  1.00  0.00     0.091 A 
ATOM     68  F   UNL     1      12.061   8.640  -7.629  1.00  0.00    -0.205 F 
ATOM     69  C   UNL     1      14.087   7.614 -10.502  1.00  0.00     0.022 A 
BRANCH  67  70
ATOM     70  S   UNL     1      15.110   8.452  -8.109  1.00  0.00     0.127 S 
ATOM     71  O   UNL     1      15.638   7.118  -7.825  1.00  0.00    -0.237 OA
ATOM     72  O   UNL     1      15.970   9.281  -8.953  1.00  0.00    -0.237 OA
ATOM     73  O   UNL     1      14.522   9.145  -6.971  1.00  0.00    -0.744 OA
ENDBRANCH  67  70
ENDBRANCH  49  63
BRANCH  50  74
ATOM     74  C   UNL     1       1.839   9.235  -7.193  1.00  0.00     0.023 A 
ATOM     75  C   UNL     1       0.943   9.941  -8.021  1.00  0.00     0.012 A 
ATOM     76  C   UNL     1       1.375   8.708  -5.973  1.00  0.00     0.148 A 
ATOM     77  C   UNL     1      -0.378  10.150  -7.624  1.00  0.00     0.002 A 
ATOM     78  C   UNL     1       0.043   8.870  -5.611  1.00  0.00     0.091 A 
ATOM     79  F   UNL     1       2.245   8.047  -5.196  1.00  0.00    -0.205 F 
ATOM     80  C   UNL     1      -0.830   9.607  -6.425  1.00  0.00     0.022 A 
BRANCH  78  81
ATOM     81  S   UNL     1      -0.660   8.098  -4.149  1.00  0.00     0.127 S 
ATOM     82  O   UNL     1      -0.940   9.257  -3.305  1.00  0.00    -0.237 OA
ATOM     83  O   UNL     1      -1.843   7.436  -4.701  1.00  0.00    -0.237 OA
ATOM     84  O   UNL     1       0.363   7.188  -3.655  1.00  0.00    -0.744 OA
ENDBRANCH  78  81
ENDBRANCH  50  74
BRANCH  62  85
ATOM     85  C   UNL     1       7.137  13.637  -8.344  1.00  0.00     0.023 A 
ATOM     86  C   UNL     1       7.142  14.279  -7.090  1.00  0.00     0.012 A 
ATOM     87  C   UNL     1       7.324  14.402  -9.513  1.00  0.00     0.148 A 
ATOM     88  C   UNL     1       7.298  15.662  -7.002  1.00  0.00     0.002 A 
ATOM     89  C   UNL     1       7.533  15.771  -9.414  1.00  0.00     0.091 A 
ATOM     90  F   UNL     1       7.300  13.774 -10.697  1.00  0.00    -0.205 F 
ATOM     91  C   UNL     1       7.506  16.405  -8.162  1.00  0.00     0.022 A 
BRANCH  89  92
ATOM     92  S   UNL     1       7.908  16.795 -10.842  1.00  0.00     0.127 S 
ATOM     93  O   UNL     1       6.689  17.592 -10.966  1.00  0.00    -0.237 OA
ATOM     94  O   UNL     1       9.081  17.542 -10.386  1.00  0.00    -0.237 OA
ATOM     95  O   UNL     1       8.165  15.876 -11.942  1.00  0.00    -0.744 OA
ENDBRANCH  89  92
ENDBRANCH  62  85
ENDBRANCH  36  37
ENDBRANCH  28  31
ENDBRANCH  26  27
ENDBRANCH  25  26
ENDBRANCH  24  25
ENDBRANCH   1  24
TORSDOF 21
