REMARK SMILES O=C(NCCCCCCNC(=O)c1ccc(F)cc1-c1ccc(F)c(Cl)c1)c1ccc(-c2c3nc(c(-c4cccc(S(=O)(=O)[O-])c4F)c4ccc([nH]4)c(-c4cccc(S(=O)(=O)[O-])c4F)c4nc(c(-c5cccc(S(=O)(=O)[O-])c5F)c5ccc2[nH]5)C=C4)C=C3)cc1
REMARK SMILES IDX 5 1 4 2 3 3 1 4 2 5 28 7 29 8 90 9 30 10 89 11 31 12 32 13
REMARK SMILES IDX 33 14 83 15 34 16 88 17 82 18 84 19 35 20 87 21 81 22 80 23
REMARK SMILES IDX 36 25 68 26 48 27 67 28 49 29 52 30 66 31 85 32 50 33 51 34
REMARK SMILES IDX 65 36 86 37 53 38 37 39 38 40 46 41 39 42 41 43 47 44 40 45
REMARK SMILES IDX 42 46 43 47 44 48 45 49 69 50 70 51 78 52 71 53 73 54 79 55
REMARK SMILES IDX 72 56 74 57 75 58 76 59 77 60 54 61 55 62 63 63 56 64 58 65
REMARK SMILES IDX 64 66 57 67 59 68 60 69 61 70 62 71 6 72 7 73 8 74 9 75
REMARK SMILES IDX 10 76 11 77 12 79 13 80 14 81 19 82 15 83 18 84 16 85 17 86
REMARK SMILES IDX 20 87 21 88 27 89 22 90 25 91 23 92 26 93 24 94
REMARK H PARENT 3 6 84 24 52 35 10 78
REMARK Flexibility Score: inf
ROOT
ATOM      1  C   UNL     1       4.678   2.556   0.697  1.00  0.00     0.021 C 
ENDROOT
BRANCH   1   2
ATOM      2  C   UNL     1       4.391   1.065   0.813  1.00  0.00     0.116 C 
BRANCH   2   3
ATOM      3  N   UNL     1       2.968   0.780   0.823  1.00  0.00    -0.352 N 
ATOM      4  O   UNL     1       1.030  -0.043   0.023  1.00  0.00    -0.269 OA
ATOM      5  C   UNL     1       2.258  -0.068   0.010  1.00  0.00     0.251 C 
ATOM      6  H   UNL     1       2.441   1.258   1.504  1.00  0.00     0.163 HD
BRANCH   5   7
ATOM      7  C   UNL     1       2.982  -0.992  -0.890  1.00  0.00     0.039 A 
ATOM      8  C   UNL     1       4.075  -1.727  -0.421  1.00  0.00     0.014 A 
ATOM      9  C   UNL     1       2.545  -1.143  -2.208  1.00  0.00     0.014 A 
ATOM     10  C   UNL     1       4.791  -2.537  -1.295  1.00  0.00     0.010 A 
ATOM     11  C   UNL     1       3.217  -2.018  -3.064  1.00  0.00     0.010 A 
ATOM     12  C   UNL     1       4.347  -2.717  -2.614  1.00  0.00    -0.014 A 
BRANCH  12  13
ATOM     13  C   UNL     1       4.976  -3.761  -3.458  1.00  0.00     0.031 A 
ATOM     14  C   UNL     1       5.737  -3.420  -4.703  1.00  0.00     0.074 A 
ATOM     15  C   UNL     1       4.821  -5.046  -3.083  1.00  0.00     0.049 A 
ATOM     16  N   UNL     1       6.328  -4.225  -5.547  1.00  0.00    -0.248 NA
ATOM     17  C   UNL     1       5.847  -1.996  -5.052  1.00  0.00     0.031 C 
ATOM     18  C   UNL     1       4.074  -5.487  -1.902  1.00  0.00     0.029 A 
ATOM     19  N   UNL     1       5.273  -6.211  -3.644  1.00  0.00    -0.354 N 
ATOM     20  C   UNL     1       6.863  -3.415  -6.540  1.00  0.00     0.074 A 
ATOM     21  C   UNL     1       6.512  -2.051  -6.199  1.00  0.00     0.031 C 
ATOM     22  C   UNL     1       4.146  -6.820  -1.808  1.00  0.00     0.029 A 
ATOM     23  C   UNL     1       4.888  -7.334  -2.952  1.00  0.00     0.049 A 
ATOM     24  H   UNL     1       5.820  -6.240  -4.462  1.00  0.00     0.167 HD
ATOM     25  C   UNL     1       7.590  -3.777  -7.624  1.00  0.00     0.034 A 
ATOM     26  C   UNL     1       5.094  -8.638  -3.213  1.00  0.00     0.034 A 
ATOM     27  C   UNL     1       7.927  -5.141  -7.948  1.00  0.00     0.049 A 
ATOM     28  C   UNL     1       5.890  -9.014  -4.425  1.00  0.00     0.074 A 
ATOM     29  C   UNL     1       8.669  -5.614  -9.016  1.00  0.00     0.029 A 
ATOM     30  N   UNL     1       7.541  -6.253  -7.212  1.00  0.00    -0.354 N 
ATOM     31  N   UNL     1       6.451  -8.231  -5.314  1.00  0.00    -0.248 NA
ATOM     32  C   UNL     1       6.107 -10.447  -4.658  1.00  0.00     0.031 C 
ATOM     33  C   UNL     1       8.713  -7.010  -8.938  1.00  0.00     0.029 A 
ATOM     34  C   UNL     1       8.029  -7.409  -7.800  1.00  0.00     0.049 A 
ATOM     35  H   UNL     1       6.998  -6.225  -6.390  1.00  0.00     0.167 HD
ATOM     36  C   UNL     1       7.117  -9.070  -6.195  1.00  0.00     0.074 A 
ATOM     37  C   UNL     1       6.899 -10.425  -5.723  1.00  0.00     0.031 C 
ATOM     38  C   UNL     1       7.838  -8.748  -7.298  1.00  0.00     0.034 A 
BRANCH  25  39
ATOM     39  C   UNL     1       8.103  -2.681  -8.525  1.00  0.00     0.023 A 
ATOM     40  C   UNL     1       9.142  -1.842  -8.072  1.00  0.00     0.012 A 
ATOM     41  C   UNL     1       7.613  -2.520  -9.836  1.00  0.00     0.148 A 
ATOM     42  C   UNL     1       9.662  -0.842  -8.894  1.00  0.00     0.002 A 
ATOM     43  C   UNL     1       8.167  -1.550 -10.666  1.00  0.00     0.091 A 
ATOM     44  F   UNL     1       6.610  -3.309 -10.247  1.00  0.00    -0.205 F 
ATOM     45  C   UNL     1       9.182  -0.703 -10.193  1.00  0.00     0.022 A 
BRANCH  43  46
ATOM     46  S   UNL     1       7.673  -1.350 -12.383  1.00  0.00     0.127 S 
ATOM     47  O   UNL     1       6.867  -0.133 -12.318  1.00  0.00    -0.237 OA
ATOM     48  O   UNL     1       8.961  -1.192 -13.060  1.00  0.00    -0.237 OA
ATOM     49  O   UNL     1       6.952  -2.566 -12.733  1.00  0.00    -0.744 OA
ENDBRANCH  43  46
ENDBRANCH  25  39
BRANCH  26  50
ATOM     50  C   UNL     1       4.597  -9.652  -2.243  1.00  0.00     0.023 A 
ATOM     51  C   UNL     1       5.519 -10.310  -1.409  1.00  0.00     0.012 A 
ATOM     52  C   UNL     1       3.217  -9.864  -2.050  1.00  0.00     0.148 A 
ATOM     53  C   UNL     1       5.077 -11.164  -0.398  1.00  0.00     0.002 A 
ATOM     54  C   UNL     1       2.782 -10.668  -1.004  1.00  0.00     0.091 A 
ATOM     55  F   UNL     1       2.360  -9.223  -2.858  1.00  0.00    -0.205 F 
ATOM     56  C   UNL     1       3.711 -11.330  -0.185  1.00  0.00     0.022 A 
BRANCH  54  57
ATOM     57  S   UNL     1       1.050 -10.817  -0.552  1.00  0.00     0.127 S 
ATOM     58  O   UNL     1       0.805 -12.240  -0.773  1.00  0.00    -0.237 OA
ATOM     59  O   UNL     1       1.074 -10.406   0.852  1.00  0.00    -0.237 OA
ATOM     60  O   UNL     1       0.328  -9.913  -1.437  1.00  0.00    -0.744 OA
ENDBRANCH  54  57
ENDBRANCH  26  50
BRANCH  38  61
ATOM     61  C   UNL     1       8.482  -9.875  -8.061  1.00  0.00     0.023 A 
ATOM     62  C   UNL     1       7.691 -10.741  -8.841  1.00  0.00     0.012 A 
ATOM     63  C   UNL     1       9.883 -10.024  -8.067  1.00  0.00     0.148 A 
ATOM     64  C   UNL     1       8.283 -11.756  -9.592  1.00  0.00     0.002 A 
ATOM     65  C   UNL     1      10.469 -11.005  -8.857  1.00  0.00     0.091 A 
ATOM     66  F   UNL     1      10.618  -9.206  -7.298  1.00  0.00    -0.205 F 
ATOM     67  C   UNL     1       9.670 -11.880  -9.611  1.00  0.00     0.022 A 
BRANCH  65  68
ATOM     68  S   UNL     1      12.251 -11.168  -9.019  1.00  0.00     0.127 S 
ATOM     69  O   UNL     1      12.516 -12.358  -8.212  1.00  0.00    -0.237 OA
ATOM     70  O   UNL     1      12.417 -11.359 -10.460  1.00  0.00    -0.237 OA
ATOM     71  O   UNL     1      12.813  -9.925  -8.507  1.00  0.00    -0.744 OA
ENDBRANCH  65  68
ENDBRANCH  38  61
ENDBRANCH  12  13
ENDBRANCH   5   7
ENDBRANCH   2   3
ENDBRANCH   1   2
BRANCH   1  72
ATOM     72  C   UNL     1       4.206   3.395   1.885  1.00  0.00     0.002 C 
BRANCH  72  73
ATOM     73  C   UNL     1       4.736   2.958   3.253  1.00  0.00     0.002 C 
BRANCH  73  74
ATOM     74  C   UNL     1       6.258   2.821   3.364  1.00  0.00     0.021 C 
BRANCH  74  75
ATOM     75  C   UNL     1       7.056   4.051   2.942  1.00  0.00     0.116 C 
BRANCH  75  76
ATOM     76  N   UNL     1       6.736   5.222   3.741  1.00  0.00    -0.352 N 
ATOM     77  C   UNL     1       7.578   6.064   4.423  1.00  0.00     0.251 C 
ATOM     78  H   UNL     1       5.779   5.442   3.803  1.00  0.00     0.163 HD
ATOM     79  O   UNL     1       7.132   7.000   5.078  1.00  0.00    -0.269 OA
BRANCH  77  80
ATOM     80  C   UNL     1       9.038   5.838   4.349  1.00  0.00     0.047 A 
ATOM     81  C   UNL     1       9.651   5.932   3.086  1.00  0.00     0.017 A 
ATOM     82  C   UNL     1       9.797   5.580   5.511  1.00  0.00    -0.003 A 
ATOM     83  C   UNL     1      11.019   5.708   2.956  1.00  0.00     0.040 A 
ATOM     84  C   UNL     1      11.178   5.361   5.349  1.00  0.00     0.048 A 
ATOM     85  C   UNL     1      11.768   5.418   4.088  1.00  0.00     0.123 A 
ATOM     86  F   UNL     1      13.083   5.199   3.968  1.00  0.00    -0.207 F 
BRANCH  82  87
ATOM     87  C   UNL     1       9.220   5.551   6.866  1.00  0.00    -0.016 A 
ATOM     88  C   UNL     1       8.289   4.570   7.250  1.00  0.00     0.012 A 
ATOM     89  C   UNL     1       9.599   6.522   7.812  1.00  0.00     0.032 A 
ATOM     90  C   UNL     1       7.745   4.565   8.538  1.00  0.00     0.041 A 
ATOM     91  C   UNL     1       9.056   6.514   9.099  1.00  0.00     0.077 A 
ATOM     92  C   UNL     1       8.132   5.537   9.454  1.00  0.00     0.141 A 
ATOM     93  Cl  UNL     1       9.548   7.715  10.231  1.00  0.00    -0.081 Cl
ATOM     94  F   UNL     1       7.601   5.511  10.686  1.00  0.00    -0.205 F 
ENDBRANCH  82  87
ENDBRANCH  77  80
ENDBRANCH  75  76
ENDBRANCH  74  75
ENDBRANCH  73  74
ENDBRANCH  72  73
ENDBRANCH   1  72
TORSDOF 17
