REMARK SMILES COc1cccc(-c2cccnc2C(=O)NCCCCCCNC(=O)c2ccc(-c3c4nc(c(-c5cccc(S(=O)(=O)[O-])c5F)c5ccc([nH]5)c(-c5cccc(S(=O)(=O)[O-])c5F)c5nc(c(-c6cccc(S(=O)(=O)[O-])c6F)c6ccc3[nH]6)C=C5)C=C4)cc2)c1F
REMARK SMILES IDX 20 1 19 2 18 3 17 4 16 5 14 6 15 7 13 9 8 10 9 11 10 12
REMARK SMILES IDX 12 13 11 14 7 15 3 16 4 17 89 18 5 19 90 20 6 21 2 22 1 23
REMARK SMILES IDX 21 24 22 25 23 26 24 27 25 29 26 30 27 31 88 32 28 33 87 34
REMARK SMILES IDX 29 35 30 36 31 37 81 38 32 39 86 40 80 41 82 42 33 43 85 44
REMARK SMILES IDX 79 45 78 46 34 48 66 49 46 50 65 51 47 52 50 53 64 54 83 55
REMARK SMILES IDX 48 56 49 57 63 59 84 60 51 61 35 62 36 63 44 64 37 65 39 66
REMARK SMILES IDX 45 67 38 68 40 69 41 70 42 71 43 72 67 73 68 74 76 75 69 76
REMARK SMILES IDX 71 77 77 78 70 79 72 80 73 81 74 82 75 83 52 84 53 85 61 86
REMARK SMILES IDX 54 87 56 88 62 89 55 90 57 91 58 92 59 93 60 94
REMARK H PARENT 16 8 23 28 82 47 50 58
REMARK Flexibility Score: inf
ROOT
ATOM      1  C   UNL     1      -1.638  -2.337  -4.193  1.00  0.00     0.002 C 
ENDROOT
BRANCH   1   2
ATOM      2  C   UNL     1      -0.913  -1.053  -4.609  1.00  0.00     0.002 C 
BRANCH   2   3
ATOM      3  C   UNL     1       0.408  -0.698  -3.924  1.00  0.00     0.021 C 
BRANCH   3   4
ATOM      4  C   UNL     1       1.469  -1.781  -3.787  1.00  0.00     0.116 C 
BRANCH   4   5
ATOM      5  N   UNL     1       2.127  -2.228  -4.981  1.00  0.00    -0.351 N 
ATOM      6  C   UNL     1       3.361  -2.834  -5.135  1.00  0.00     0.270 C 
ATOM      7  O   UNL     1       3.608  -3.237  -6.280  1.00  0.00    -0.267 OA
ATOM      8  H   UNL     1       1.626  -2.082  -5.815  1.00  0.00     0.163 HD
BRANCH   6   9
ATOM      9  C   UNL     1       4.445  -2.971  -4.068  1.00  0.00     0.136 A 
ATOM     10  C   UNL     1       4.317  -3.330  -2.713  1.00  0.00     0.016 A 
ATOM     11  C   UNL     1       5.517  -3.469  -1.973  1.00  0.00     0.013 A 
ATOM     12  C   UNL     1       6.761  -3.270  -2.553  1.00  0.00     0.021 A 
ATOM     13  N   UNL     1       5.684  -2.772  -4.635  1.00  0.00    -0.250 NA
ATOM     14  C   UNL     1       6.792  -2.926  -3.882  1.00  0.00     0.112 A 
BRANCH  10  15
ATOM     15  C   UNL     1       3.086  -3.579  -1.956  1.00  0.00     0.024 A 
ATOM     16  C   UNL     1       1.486  -2.813  -0.257  1.00  0.00     0.155 A 
ATOM     17  C   UNL     1       0.772  -3.999  -0.421  1.00  0.00     0.049 A 
ATOM     18  C   UNL     1       2.665  -2.642  -0.983  1.00  0.00     0.172 A 
ATOM     19  C   UNL     1       1.186  -4.957  -1.353  1.00  0.00     0.005 A 
ATOM     20  F   UNL     1       3.401  -1.529  -0.820  1.00  0.00    -0.202 F 
ATOM     21  C   UNL     1       2.331  -4.746  -2.126  1.00  0.00     0.012 A 
BRANCH  16  22
ATOM     22  O   UNL     1       0.933  -1.914   0.613  1.00  0.00    -0.494 OA
ATOM     23  C   UNL     1       1.233  -0.541   0.378  1.00  0.00     0.278 C 
ENDBRANCH  16  22
ENDBRANCH  10  15
ENDBRANCH   6   9
ENDBRANCH   4   5
ENDBRANCH   3   4
ENDBRANCH   2   3
ENDBRANCH   1   2
BRANCH   1  24
ATOM     24  C   UNL     1      -1.833  -2.611  -2.700  1.00  0.00     0.021 C 
BRANCH  24  25
ATOM     25  C   UNL     1      -2.521  -1.539  -1.861  1.00  0.00     0.116 C 
BRANCH  25  26
ATOM     26  N   UNL     1      -3.877  -1.263  -2.294  1.00  0.00    -0.352 N 
ATOM     27  C   UNL     1      -5.066  -1.292  -1.606  1.00  0.00     0.251 C 
ATOM     28  H   UNL     1      -3.960  -1.013  -3.243  1.00  0.00     0.163 HD
ATOM     29  O   UNL     1      -6.112  -1.147  -2.238  1.00  0.00    -0.269 OA
BRANCH  27  30
ATOM     30  C   UNL     1      -5.129  -1.506  -0.137  1.00  0.00     0.039 A 
ATOM     31  C   UNL     1      -6.197  -2.253   0.375  1.00  0.00     0.014 A 
ATOM     32  C   UNL     1      -4.215  -0.930   0.751  1.00  0.00     0.014 A 
ATOM     33  C   UNL     1      -6.327  -2.453   1.754  1.00  0.00     0.010 A 
ATOM     34  C   UNL     1      -4.307  -1.187   2.124  1.00  0.00     0.010 A 
ATOM     35  C   UNL     1      -5.371  -1.940   2.644  1.00  0.00    -0.014 A 
BRANCH  35  36
ATOM     36  C   UNL     1      -5.481  -2.190   4.109  1.00  0.00     0.031 A 
ATOM     37  C   UNL     1      -5.682  -1.050   5.075  1.00  0.00     0.074 A 
ATOM     38  C   UNL     1      -5.354  -3.446   4.584  1.00  0.00     0.049 A 
ATOM     39  N   UNL     1      -5.793  -1.087   6.379  1.00  0.00    -0.248 NA
ATOM     40  C   UNL     1      -5.752   0.308   4.511  1.00  0.00     0.031 C 
ATOM     41  C   UNL     1      -5.087  -4.631   3.766  1.00  0.00     0.029 A 
ATOM     42  N   UNL     1      -5.412  -3.937   5.867  1.00  0.00    -0.354 N 
ATOM     43  C   UNL     1      -5.911   0.235   6.793  1.00  0.00     0.074 A 
ATOM     44  C   UNL     1      -5.834   1.055   5.604  1.00  0.00     0.031 C 
ATOM     45  C   UNL     1      -5.012  -5.708   4.563  1.00  0.00     0.029 A 
ATOM     46  C   UNL     1      -5.194  -5.293   5.951  1.00  0.00     0.049 A 
ATOM     47  H   UNL     1      -5.593  -3.370   6.652  1.00  0.00     0.167 HD
ATOM     48  C   UNL     1      -6.097   0.720   8.043  1.00  0.00     0.034 A 
ATOM     49  C   UNL     1      -5.139  -6.114   7.021  1.00  0.00     0.034 A 
ATOM     50  C   UNL     1      -6.230  -0.099   9.218  1.00  0.00     0.049 A 
ATOM     51  C   UNL     1      -5.388  -5.553   8.395  1.00  0.00     0.074 A 
ATOM     52  C   UNL     1      -6.521   0.302  10.510  1.00  0.00     0.029 A 
ATOM     53  N   UNL     1      -6.074  -1.475   9.252  1.00  0.00    -0.354 N 
ATOM     54  N   UNL     1      -5.659  -4.319   8.742  1.00  0.00    -0.248 NA
ATOM     55  C   UNL     1      -5.360  -6.499   9.522  1.00  0.00     0.031 C 
ATOM     56  C   UNL     1      -6.509  -0.827  11.332  1.00  0.00     0.029 A 
ATOM     57  C   UNL     1      -6.245  -1.937  10.545  1.00  0.00     0.049 A 
ATOM     58  H   UNL     1      -5.871  -2.040   8.471  1.00  0.00     0.167 HD
ATOM     59  C   UNL     1      -5.861  -4.344  10.118  1.00  0.00     0.074 A 
ATOM     60  C   UNL     1      -5.702  -5.719  10.540  1.00  0.00     0.031 C 
ATOM     61  C   UNL     1      -6.138  -3.314  10.954  1.00  0.00     0.034 A 
BRANCH  48  62
ATOM     62  C   UNL     1      -6.233   2.210   8.222  1.00  0.00     0.023 A 
ATOM     63  C   UNL     1      -7.420   2.851   7.815  1.00  0.00     0.012 A 
ATOM     64  C   UNL     1      -5.248   2.949   8.908  1.00  0.00     0.148 A 
ATOM     65  C   UNL     1      -7.619   4.207   8.072  1.00  0.00     0.002 A 
ATOM     66  C   UNL     1      -5.473   4.289   9.201  1.00  0.00     0.091 A 
ATOM     67  F   UNL     1      -4.120   2.323   9.274  1.00  0.00    -0.205 F 
ATOM     68  C   UNL     1      -6.654   4.921   8.777  1.00  0.00     0.022 A 
BRANCH  66  69
ATOM     69  S   UNL     1      -4.334   5.275  10.180  1.00  0.00     0.127 S 
ATOM     70  O   UNL     1      -3.863   6.247   9.193  1.00  0.00    -0.237 OA
ATOM     71  O   UNL     1      -5.215   5.830  11.208  1.00  0.00    -0.237 OA
ATOM     72  O   UNL     1      -3.322   4.354  10.674  1.00  0.00    -0.744 OA
ENDBRANCH  66  69
ENDBRANCH  48  62
BRANCH  49  73
ATOM     73  C   UNL     1      -4.894  -7.571   6.816  1.00  0.00     0.023 A 
ATOM     74  C   UNL     1      -5.938  -8.489   7.036  1.00  0.00     0.012 A 
ATOM     75  C   UNL     1      -3.652  -8.043   6.346  1.00  0.00     0.148 A 
ATOM     76  C   UNL     1      -5.746  -9.853   6.811  1.00  0.00     0.002 A 
ATOM     77  C   UNL     1      -3.486  -9.394   6.066  1.00  0.00     0.091 A 
ATOM     78  F   UNL     1      -2.666  -7.155   6.158  1.00  0.00    -0.205 F 
ATOM     79  C   UNL     1      -4.526 -10.303   6.313  1.00  0.00     0.022 A 
BRANCH  77  80
ATOM     80  S   UNL     1      -2.003 -10.038   5.282  1.00  0.00     0.127 S 
ATOM     81  O   UNL     1      -1.409 -10.823   6.364  1.00  0.00    -0.237 OA
ATOM     82  O   UNL     1      -2.563 -10.830   4.184  1.00  0.00    -0.237 OA
ATOM     83  O   UNL     1      -1.244  -8.875   4.855  1.00  0.00    -0.744 OA
ENDBRANCH  77  80
ENDBRANCH  49  73
BRANCH  61  84
ATOM     84  C   UNL     1      -6.314  -3.607  12.421  1.00  0.00     0.023 A 
ATOM     85  C   UNL     1      -5.186  -3.894  13.214  1.00  0.00     0.012 A 
ATOM     86  C   UNL     1      -7.574  -3.457  13.036  1.00  0.00     0.148 A 
ATOM     87  C   UNL     1      -5.311  -4.039  14.595  1.00  0.00     0.002 A 
ATOM     88  C   UNL     1      -7.682  -3.552  14.418  1.00  0.00     0.091 A 
ATOM     89  F   UNL     1      -8.636  -3.197  12.260  1.00  0.00    -0.205 F 
ATOM     90  C   UNL     1      -6.553  -3.852  15.198  1.00  0.00     0.022 A 
BRANCH  88  91
ATOM     91  S   UNL     1      -9.215  -3.223  15.295  1.00  0.00     0.127 S 
ATOM     92  O   UNL     1      -9.549  -4.547  15.819  1.00  0.00    -0.237 OA
ATOM     93  O   UNL     1      -8.790  -2.256  16.307  1.00  0.00    -0.237 OA
ATOM     94  O   UNL     1     -10.143  -2.697  14.304  1.00  0.00    -0.744 OA
ENDBRANCH  88  91
ENDBRANCH  61  84
ENDBRANCH  35  36
ENDBRANCH  27  30
ENDBRANCH  25  26
ENDBRANCH  24  25
ENDBRANCH   1  24
TORSDOF 18
