REMARK SMILES COc1cc2c(cc1OC)[C@H](C(=O)NCCCCCCNC(=O)c1ccc(-c3c4nc(c(-c5cccc(S(=O)(=O)[O-])c5F)c5ccc([nH]5)c(-c5cccc(S(=O)(=O)[O-])c5F)c5nc(c(-c6cccc(S(=O)(=O)[O-])c6F)c6ccc3[nH]6)C=C5)C=C4)cc1)[C@H](c1cccc(Cl)c1)N(C)C2=O
REMARK SMILES IDX 18 1 17 2 16 3 15 4 14 5 12 6 13 7 11 9 3 10 4 11 8 12 5 13
REMARK SMILES IDX 7 14 6 15 97 16 95 17 98 18 87 19 96 20 2 21 1 22 9 23 10 24
REMARK SMILES IDX 88 25 89 26 94 27 90 28 92 29 91 30 93 31 19 32 20 33 21 34
REMARK SMILES IDX 22 35 23 37 24 38 25 39 86 40 26 41 85 42 27 43 28 44 29 45
REMARK SMILES IDX 79 46 30 47 84 48 78 49 80 50 31 51 83 52 77 53 76 54 32 56
REMARK SMILES IDX 64 57 44 58 63 59 45 60 48 61 62 62 81 63 46 64 47 65 61 67
REMARK SMILES IDX 82 68 49 69 33 70 34 71 42 72 35 73 37 74 43 75 36 76 38 77
REMARK SMILES IDX 39 78 40 79 41 80 65 81 66 82 74 83 67 84 69 85 75 86 68 87
REMARK SMILES IDX 70 88 71 89 72 90 73 91 50 92 51 93 59 94 52 95 54 96 60 97
REMARK SMILES IDX 53 98 55 99 56 100 57 101 58 102
REMARK H PARENT 14 8 21 36 80 55 48 66
REMARK Flexibility Score: inf
ROOT
ATOM      1  C   UNL     1      -3.255   8.287  -3.557  1.00  0.00     0.002 C 
ENDROOT
BRANCH   1   2
ATOM      2  C   UNL     1      -1.930   9.049  -3.655  1.00  0.00     0.002 C 
BRANCH   2   3
ATOM      3  C   UNL     1      -0.858   8.622  -2.640  1.00  0.00     0.021 C 
BRANCH   3   4
ATOM      4  C   UNL     1      -0.550   7.124  -2.644  1.00  0.00     0.116 C 
BRANCH   4   5
ATOM      5  N   UNL     1      -0.162   6.713  -3.980  1.00  0.00    -0.355 N 
ATOM      6  C   UNL     1       0.980   6.136  -4.442  1.00  0.00     0.230 C 
ATOM      7  O   UNL     1       1.093   6.109  -5.665  1.00  0.00    -0.274 OA
ATOM      8  H   UNL     1      -0.843   6.879  -4.671  1.00  0.00     0.163 HD
BRANCH   6   9
ATOM      9  C   UNL     1       1.987   5.552  -3.457  1.00  0.00     0.136 C 
ATOM     10  C   UNL     1       0.967   1.743  -1.635  1.00  0.00     0.161 A 
ATOM     11  C   UNL     1       2.219   2.343  -1.430  1.00  0.00     0.064 A 
ATOM     12  C   UNL     1      -0.001   2.409  -2.400  1.00  0.00     0.161 A 
ATOM     13  C   UNL     1       2.514   3.587  -2.003  1.00  0.00     0.048 A 
ATOM     14  C   UNL     1       0.313   3.647  -2.979  1.00  0.00     0.056 A 
ATOM     15  C   UNL     1       1.569   4.243  -2.807  1.00  0.00    -0.016 A 
ATOM     16  C   UNL     1       3.879   4.178  -1.824  1.00  0.00     0.254 C 
ATOM     17  N   UNL     1       4.282   5.122  -2.775  1.00  0.00    -0.333 N 
ATOM     18  O   UNL     1       4.595   3.796  -0.905  1.00  0.00    -0.269 OA
ATOM     19  C   UNL     1       3.450   5.391  -3.978  1.00  0.00     0.132 C 
ATOM     20  C   UNL     1       5.614   5.690  -2.686  1.00  0.00     0.147 C 
BRANCH  10  21
ATOM     21  O   UNL     1       0.718   0.464  -1.211  1.00  0.00    -0.493 OA
ATOM     22  C   UNL     1       1.139   0.181   0.120  1.00  0.00     0.278 C 
ENDBRANCH  10  21
BRANCH  12  23
ATOM     23  O   UNL     1      -1.271   2.000  -2.710  1.00  0.00    -0.493 OA
ATOM     24  C   UNL     1      -1.848   0.957  -1.938  1.00  0.00     0.278 C 
ENDBRANCH  12  23
BRANCH  19  25
ATOM     25  C   UNL     1       3.704   4.352  -5.088  1.00  0.00    -0.023 A 
ATOM     26  C   UNL     1       3.334   4.629  -6.415  1.00  0.00     0.006 A 
ATOM     27  C   UNL     1       4.296   3.097  -4.849  1.00  0.00     0.026 A 
ATOM     28  C   UNL     1       3.395   3.657  -7.417  1.00  0.00     0.002 A 
ATOM     29  C   UNL     1       4.397   2.138  -5.860  1.00  0.00     0.041 A 
ATOM     30  C   UNL     1       3.915   2.400  -7.136  1.00  0.00     0.020 A 
ATOM     31  Cl  UNL     1       5.122   0.614  -5.521  1.00  0.00    -0.084 Cl
ENDBRANCH  19  25
ENDBRANCH   6   9
ENDBRANCH   4   5
ENDBRANCH   3   4
ENDBRANCH   2   3
ENDBRANCH   1   2
BRANCH   1  32
ATOM     32  C   UNL     1      -3.923   8.345  -2.184  1.00  0.00     0.021 C 
BRANCH  32  33
ATOM     33  C   UNL     1      -4.180   9.755  -1.670  1.00  0.00     0.116 C 
BRANCH  33  34
ATOM     34  N   UNL     1      -5.095  10.495  -2.526  1.00  0.00    -0.352 N 
ATOM     35  C   UNL     1      -6.194  11.233  -2.165  1.00  0.00     0.251 C 
ATOM     36  H   UNL     1      -4.900  10.461  -3.490  1.00  0.00     0.163 HD
ATOM     37  O   UNL     1      -6.966  11.655  -3.022  1.00  0.00    -0.269 OA
BRANCH  35  38
ATOM     38  C   UNL     1      -6.452  11.494  -0.733  1.00  0.00     0.039 A 
ATOM     39  C   UNL     1      -7.735  11.284  -0.226  1.00  0.00     0.014 A 
ATOM     40  C   UNL     1      -5.419  11.918   0.109  1.00  0.00     0.014 A 
ATOM     41  C   UNL     1      -7.970  11.446   1.140  1.00  0.00     0.010 A 
ATOM     42  C   UNL     1      -5.638  12.002   1.480  1.00  0.00     0.010 A 
ATOM     43  C   UNL     1      -6.917  11.775   2.010  1.00  0.00    -0.014 A 
BRANCH  43  44
ATOM     44  C   UNL     1      -7.131  11.878   3.475  1.00  0.00     0.031 A 
ATOM     45  C   UNL     1      -6.902  13.186   4.184  1.00  0.00     0.074 A 
ATOM     46  C   UNL     1      -7.449  10.775   4.181  1.00  0.00     0.049 A 
ATOM     47  N   UNL     1      -6.987  13.456   5.461  1.00  0.00    -0.248 NA
ATOM     48  C   UNL     1      -6.499  14.334   3.355  1.00  0.00     0.031 C 
ATOM     49  C   UNL     1      -7.618   9.432   3.621  1.00  0.00     0.029 A 
ATOM     50  N   UNL     1      -7.659  10.601   5.526  1.00  0.00    -0.354 N 
ATOM     51  C   UNL     1      -6.613  14.788   5.593  1.00  0.00     0.074 A 
ATOM     52  C   UNL     1      -6.268  15.263   4.272  1.00  0.00     0.031 C 
ATOM     53  C   UNL     1      -7.909   8.575   4.612  1.00  0.00     0.029 A 
ATOM     54  C   UNL     1      -7.915   9.296   5.881  1.00  0.00     0.049 A 
ATOM     55  H   UNL     1      -7.629  11.339   6.176  1.00  0.00     0.167 HD
ATOM     56  C   UNL     1      -6.587  15.556   6.709  1.00  0.00     0.034 A 
ATOM     57  C   UNL     1      -8.121   8.741   7.091  1.00  0.00     0.034 A 
ATOM     58  C   UNL     1      -6.970  15.091   8.014  1.00  0.00     0.049 A 
ATOM     59  C   UNL     1      -8.125   9.625   8.309  1.00  0.00     0.074 A 
ATOM     60  C   UNL     1      -7.067  15.814   9.190  1.00  0.00     0.029 A 
ATOM     61  N   UNL     1      -7.309  13.782   8.321  1.00  0.00    -0.354 N 
ATOM     62  N   UNL     1      -7.929  10.918   8.391  1.00  0.00    -0.248 NA
ATOM     63  C   UNL     1      -8.416   8.980   9.598  1.00  0.00     0.031 C 
ATOM     64  C   UNL     1      -7.434  14.936  10.214  1.00  0.00     0.029 A 
ATOM     65  C   UNL     1      -7.603  13.673   9.669  1.00  0.00     0.049 A 
ATOM     66  H   UNL     1      -7.337  13.040   7.675  1.00  0.00     0.167 HD
ATOM     67  C   UNL     1      -8.110  11.248   9.729  1.00  0.00     0.074 A 
ATOM     68  C   UNL     1      -8.451  10.021  10.418  1.00  0.00     0.031 C 
ATOM     69  C   UNL     1      -7.992  12.456  10.334  1.00  0.00     0.034 A 
BRANCH  56  70
ATOM     70  C   UNL     1      -6.171  16.997   6.560  1.00  0.00     0.023 A 
ATOM     71  C   UNL     1      -7.027  17.906   5.904  1.00  0.00     0.012 A 
ATOM     72  C   UNL     1      -4.968  17.465   7.121  1.00  0.00     0.148 A 
ATOM     73  C   UNL     1      -6.675  19.249   5.777  1.00  0.00     0.002 A 
ATOM     74  C   UNL     1      -4.646  18.814   7.033  1.00  0.00     0.091 A 
ATOM     75  F   UNL     1      -4.157  16.583   7.724  1.00  0.00    -0.205 F 
ATOM     76  C   UNL     1      -5.491  19.704   6.351  1.00  0.00     0.022 A 
BRANCH  74  77
ATOM     77  S   UNL     1      -3.186  19.516   7.809  1.00  0.00     0.127 S 
ATOM     78  O   UNL     1      -2.365  19.849   6.645  1.00  0.00    -0.237 OA
ATOM     79  O   UNL     1      -3.739  20.671   8.516  1.00  0.00    -0.237 OA
ATOM     80  O   UNL     1      -2.649  18.474   8.673  1.00  0.00    -0.744 OA
ENDBRANCH  74  77
ENDBRANCH  56  70
BRANCH  57  81
ATOM     81  C   UNL     1      -8.399   7.281   7.204  1.00  0.00     0.023 A 
ATOM     82  C   UNL     1      -9.687   6.847   7.574  1.00  0.00     0.012 A 
ATOM     83  C   UNL     1      -7.405   6.324   6.925  1.00  0.00     0.148 A 
ATOM     84  C   UNL     1      -9.970   5.486   7.699  1.00  0.00     0.002 A 
ATOM     85  C   UNL     1      -7.710   4.969   6.995  1.00  0.00     0.091 A 
ATOM     86  F   UNL     1      -6.184   6.758   6.583  1.00  0.00    -0.205 F 
ATOM     87  C   UNL     1      -8.986   4.548   7.401  1.00  0.00     0.022 A 
BRANCH  85  88
ATOM     88  S   UNL     1      -6.545   3.694   6.500  1.00  0.00     0.127 S 
ATOM     89  O   UNL     1      -6.214   3.077   7.782  1.00  0.00    -0.237 OA
ATOM     90  O   UNL     1      -7.363   2.868   5.611  1.00  0.00    -0.237 OA
ATOM     91  O   UNL     1      -5.455   4.394   5.834  1.00  0.00    -0.744 OA
ENDBRANCH  85  88
ENDBRANCH  57  81
BRANCH  69  92
ATOM     92  C   UNL     1      -8.277  12.530  11.812  1.00  0.00     0.023 A 
ATOM     93  C   UNL     1      -7.368  11.975  12.734  1.00  0.00     0.012 A 
ATOM     94  C   UNL     1      -9.410  13.220  12.287  1.00  0.00     0.148 A 
ATOM     95  C   UNL     1      -7.601  12.076  14.105  1.00  0.00     0.002 A 
ATOM     96  C   UNL     1      -9.608  13.362  13.655  1.00  0.00     0.091 A 
ATOM     97  F   UNL     1     -10.272  13.726  11.393  1.00  0.00    -0.205 F 
ATOM     98  C   UNL     1      -8.712  12.779  14.565  1.00  0.00     0.022 A 
BRANCH  96  99
ATOM     99  S   UNL     1     -10.955  14.335  14.338  1.00  0.00     0.127 S 
ATOM    100  O   UNL     1     -11.820  13.296  14.894  1.00  0.00    -0.237 OA
ATOM    101  O   UNL     1     -10.269  15.156  15.335  1.00  0.00    -0.237 OA
ATOM    102  O   UNL     1     -11.517  15.084  13.222  1.00  0.00    -0.744 OA
ENDBRANCH  96  99
ENDBRANCH  69  92
ENDBRANCH  43  44
ENDBRANCH  35  38
ENDBRANCH  33  34
ENDBRANCH  32  33
ENDBRANCH   1  32
TORSDOF 19
