REMARK SMILES O=C(CN(CC(=O)NCc1ccccc1)c1ccccc1)NCCCCCCNC(=O)c1ccc(-c2c3nc(c(-c4cccc(S(=O)(=O)[O-])c4F)c4ccc([nH]4)c(-c4cccc(S(=O)(=O)[O-])c4F)c4nc(c(-c5cccc(S(=O)(=O)[O-])c5F)c5ccc2[nH]5)C=C4)C=C3)cc1
REMARK SMILES IDX 24 1 23 2 22 3 1 4 2 5 3 7 4 8 5 9 6 10 7 11 8 12 9 14 10 15
REMARK SMILES IDX 11 16 15 17 12 18 14 19 13 20 16 21 17 22 21 23 18 24 20 25
REMARK SMILES IDX 19 26 25 27 26 28 27 29 28 30 29 31 30 32 31 34 32 35 33 36
REMARK SMILES IDX 94 37 34 38 93 39 35 40 36 41 37 42 87 43 38 44 92 45 86 46
REMARK SMILES IDX 88 47 39 48 91 49 85 50 84 51 40 53 72 54 52 55 71 56 53 57
REMARK SMILES IDX 56 58 70 59 89 60 54 61 55 62 69 64 90 65 57 66 41 67 42 68
REMARK SMILES IDX 50 69 43 70 45 71 51 72 44 73 46 74 47 75 48 76 49 77 73 78
REMARK SMILES IDX 74 79 82 80 75 81 77 82 83 83 76 84 78 85 79 86 80 87 81 88
REMARK SMILES IDX 58 89 59 90 67 91 60 92 62 93 68 94 61 95 63 96 64 97 65 98
REMARK SMILES IDX 66 99
REMARK H PARENT 22 6 8 13 29 33 88 52 56 63
REMARK Flexibility Score: inf
ROOT
ATOM      1  C   UNL     1       2.705   1.181   3.313  1.00  0.00     0.021 C 
ENDROOT
BRANCH   1   2
ATOM      2  C   UNL     1       2.149   1.631   1.965  1.00  0.00     0.116 C 
BRANCH   2   3
ATOM      3  N   UNL     1       2.763   0.934   0.854  1.00  0.00    -0.355 N 
ATOM      4  O   UNL     1       1.044  -0.552   0.566  1.00  0.00    -0.273 OA
ATOM      5  C   UNL     1       2.121  -0.086   0.196  1.00  0.00     0.239 C 
ATOM      6  H   UNL     1       3.665   1.199   0.563  1.00  0.00     0.163 HD
BRANCH   5   7
ATOM      7  C   UNL     1       2.861  -0.675  -1.002  1.00  0.00     0.217 C 
BRANCH   7   8
ATOM      8  N   UNL     1       3.803   0.213  -1.738  1.00  0.00    -0.353 N 
BRANCH   8   9
ATOM      9  C   UNL     1       5.223  -0.224  -1.780  1.00  0.00     0.217 C 
BRANCH   9  10
ATOM     10  C   UNL     1       5.750  -0.812  -3.103  1.00  0.00     0.239 C 
ATOM     11  O   UNL     1       6.721  -0.297  -3.673  1.00  0.00    -0.273 OA
ATOM     12  N   UNL     1       5.223  -1.918  -3.694  1.00  0.00    -0.350 N 
ATOM     13  H   UNL     1       5.521  -2.072  -4.620  1.00  0.00     0.163 HD
BRANCH  12  14
ATOM     14  C   UNL     1       4.298  -2.901  -3.187  1.00  0.00     0.151 C 
BRANCH  14  15
ATOM     15  C   UNL     1       3.014  -2.997  -3.973  1.00  0.00    -0.029 A 
ATOM     16  C   UNL     1       2.318  -1.856  -4.393  1.00  0.00     0.005 A 
ATOM     17  C   UNL     1       2.431  -4.250  -4.213  1.00  0.00     0.005 A 
ATOM     18  C   UNL     1       1.070  -1.953  -5.010  1.00  0.00     0.000 A 
ATOM     19  C   UNL     1       1.189  -4.352  -4.848  1.00  0.00     0.000 A 
ATOM     20  C   UNL     1       0.504  -3.203  -5.236  1.00  0.00     0.000 A 
ENDBRANCH  14  15
ENDBRANCH  12  14
ENDBRANCH   9  10
ENDBRANCH   8   9
BRANCH   8  21
ATOM     21  C   UNL     1       3.303   1.228  -2.559  1.00  0.00     0.038 A 
ATOM     22  C   UNL     1       3.885   1.576  -3.790  1.00  0.00     0.026 A 
ATOM     23  C   UNL     1       2.146   1.954  -2.229  1.00  0.00     0.026 A 
ATOM     24  C   UNL     1       3.313   2.513  -4.666  1.00  0.00     0.002 A 
ATOM     25  C   UNL     1       1.589   2.928  -3.072  1.00  0.00     0.002 A 
ATOM     26  C   UNL     1       2.160   3.191  -4.306  1.00  0.00     0.000 A 
ENDBRANCH   8  21
ENDBRANCH   7   8
ENDBRANCH   5   7
ENDBRANCH   2   3
ENDBRANCH   1   2
BRANCH   1  27
ATOM     27  C   UNL     1       4.205   1.436   3.493  1.00  0.00     0.002 C 
BRANCH  27  28
ATOM     28  C   UNL     1       4.653   2.886   3.284  1.00  0.00     0.002 C 
BRANCH  28  29
ATOM     29  C   UNL     1       3.951   3.925   4.163  1.00  0.00     0.021 C 
BRANCH  29  30
ATOM     30  C   UNL     1       4.072   3.692   5.666  1.00  0.00     0.116 C 
BRANCH  30  31
ATOM     31  N   UNL     1       5.454   3.712   6.122  1.00  0.00    -0.352 N 
ATOM     32  C   UNL     1       6.027   4.410   7.154  1.00  0.00     0.251 C 
ATOM     33  H   UNL     1       6.071   3.137   5.613  1.00  0.00     0.163 HD
ATOM     34  O   UNL     1       7.254   4.416   7.273  1.00  0.00    -0.269 OA
BRANCH  32  35
ATOM     35  C   UNL     1       5.191   5.170   8.109  1.00  0.00     0.039 A 
ATOM     36  C   UNL     1       5.615   6.440   8.510  1.00  0.00     0.014 A 
ATOM     37  C   UNL     1       4.006   4.637   8.625  1.00  0.00     0.014 A 
ATOM     38  C   UNL     1       4.827   7.194   9.383  1.00  0.00     0.010 A 
ATOM     39  C   UNL     1       3.184   5.420   9.436  1.00  0.00     0.010 A 
ATOM     40  C   UNL     1       3.587   6.704   9.829  1.00  0.00    -0.014 A 
BRANCH  40  41
ATOM     41  C   UNL     1       2.699   7.547  10.672  1.00  0.00     0.031 A 
ATOM     42  C   UNL     1       2.337   7.133  12.074  1.00  0.00     0.074 A 
ATOM     43  C   UNL     1       2.163   8.668  10.148  1.00  0.00     0.049 A 
ATOM     44  N   UNL     1       1.611   7.769  12.958  1.00  0.00    -0.248 NA
ATOM     45  C   UNL     1       2.834   5.828  12.537  1.00  0.00     0.031 C 
ATOM     46  C   UNL     1       2.360   9.133   8.773  1.00  0.00     0.029 A 
ATOM     47  N   UNL     1       1.337   9.613  10.703  1.00  0.00    -0.354 N 
ATOM     48  C   UNL     1       1.532   6.930  14.063  1.00  0.00     0.074 A 
ATOM     49  C   UNL     1       2.260   5.726  13.727  1.00  0.00     0.031 C 
ATOM     50  C   UNL     1       1.698  10.288   8.601  1.00  0.00     0.029 A 
ATOM     51  C   UNL     1       1.008  10.632   9.840  1.00  0.00     0.049 A 
ATOM     52  H   UNL     1       1.011   9.566  11.630  1.00  0.00     0.167 HD
ATOM     53  C   UNL     1       0.932   7.151  15.258  1.00  0.00     0.034 A 
ATOM     54  C   UNL     1       0.245  11.726  10.026  1.00  0.00     0.034 A 
ATOM     55  C   UNL     1       0.240   8.365  15.602  1.00  0.00     0.049 A 
ATOM     56  C   UNL     1      -0.368  11.970  11.377  1.00  0.00     0.074 A 
ATOM     57  C   UNL     1      -0.305   8.730  16.822  1.00  0.00     0.029 A 
ATOM     58  N   UNL     1      -0.023   9.405  14.723  1.00  0.00    -0.354 N 
ATOM     59  N   UNL     1      -0.271  11.254  12.471  1.00  0.00    -0.248 NA
ATOM     60  C   UNL     1      -1.164  13.196  11.530  1.00  0.00     0.031 C 
ATOM     61  C   UNL     1      -0.928   9.974  16.669  1.00  0.00     0.029 A 
ATOM     62  C   UNL     1      -0.741  10.401  15.364  1.00  0.00     0.049 A 
ATOM     63  H   UNL     1       0.260   9.431  13.781  1.00  0.00     0.167 HD
ATOM     64  C   UNL     1      -0.966  11.956  13.449  1.00  0.00     0.074 A 
ATOM     65  C   UNL     1      -1.452  13.170  12.824  1.00  0.00     0.031 C 
ATOM     66  C   UNL     1      -1.193  11.621  14.744  1.00  0.00     0.034 A 
BRANCH  53  67
ATOM     67  C   UNL     1       1.030   6.065  16.301  1.00  0.00     0.023 A 
ATOM     68  C   UNL     1       2.271   5.793  16.915  1.00  0.00     0.012 A 
ATOM     69  C   UNL     1      -0.111   5.348  16.710  1.00  0.00     0.148 A 
ATOM     70  C   UNL     1       2.383   4.798  17.885  1.00  0.00     0.002 A 
ATOM     71  C   UNL     1      -0.001   4.389  17.712  1.00  0.00     0.091 A 
ATOM     72  F   UNL     1      -1.279   5.602  16.103  1.00  0.00    -0.205 F 
ATOM     73  C   UNL     1       1.246   4.104  18.290  1.00  0.00     0.022 A 
BRANCH  71  74
ATOM     74  S   UNL     1      -1.421   3.501  18.360  1.00  0.00     0.127 S 
ATOM     75  O   UNL     1      -1.217   2.167  17.797  1.00  0.00    -0.237 OA
ATOM     76  O   UNL     1      -1.208   3.590  19.805  1.00  0.00    -0.237 OA
ATOM     77  O   UNL     1      -2.595   4.213  17.876  1.00  0.00    -0.744 OA
ENDBRANCH  71  74
ENDBRANCH  53  67
BRANCH  54  78
ATOM     78  C   UNL     1       0.091  12.721   8.927  1.00  0.00     0.023 A 
ATOM     79  C   UNL     1       0.709  13.982   9.049  1.00  0.00     0.012 A 
ATOM     80  C   UNL     1      -0.630  12.420   7.756  1.00  0.00     0.148 A 
ATOM     81  C   UNL     1       0.585  14.936   8.039  1.00  0.00     0.002 A 
ATOM     82  C   UNL     1      -0.703  13.355   6.730  1.00  0.00     0.091 A 
ATOM     83  F   UNL     1      -1.218  11.219   7.664  1.00  0.00    -0.205 F 
ATOM     84  C   UNL     1      -0.112  14.619   6.876  1.00  0.00     0.022 A 
BRANCH  82  85
ATOM     85  S   UNL     1      -1.466  12.990   5.145  1.00  0.00     0.127 S 
ATOM     86  O   UNL     1      -2.637  13.865   5.169  1.00  0.00    -0.237 OA
ATOM     87  O   UNL     1      -0.416  13.392   4.208  1.00  0.00    -0.237 OA
ATOM     88  O   UNL     1      -1.745  11.562   5.160  1.00  0.00    -0.744 OA
ENDBRANCH  82  85
ENDBRANCH  54  78
BRANCH  66  89
ATOM     89  C   UNL     1      -1.989  12.591  15.581  1.00  0.00     0.023 A 
ATOM     90  C   UNL     1      -3.365  12.771  15.330  1.00  0.00     0.012 A 
ATOM     91  C   UNL     1      -1.384  13.300  16.637  1.00  0.00     0.148 A 
ATOM     92  C   UNL     1      -4.113  13.676  16.083  1.00  0.00     0.002 A 
ATOM     93  C   UNL     1      -2.148  14.159  17.419  1.00  0.00     0.091 A 
ATOM     94  F   UNL     1      -0.071  13.133  16.852  1.00  0.00    -0.205 F 
ATOM     95  C   UNL     1      -3.507  14.361  17.133  1.00  0.00     0.022 A 
BRANCH  93  96
ATOM     96  S   UNL     1      -1.473  15.007  18.852  1.00  0.00     0.127 S 
ATOM     97  O   UNL     1      -1.320  16.370  18.348  1.00  0.00    -0.237 OA
ATOM     98  O   UNL     1      -2.537  14.839  19.844  1.00  0.00    -0.237 OA
ATOM     99  O   UNL     1      -0.234  14.314  19.178  1.00  0.00    -0.744 OA
ENDBRANCH  93  96
ENDBRANCH  66  89
ENDBRANCH  40  41
ENDBRANCH  32  35
ENDBRANCH  30  31
ENDBRANCH  29  30
ENDBRANCH  28  29
ENDBRANCH  27  28
ENDBRANCH   1  27
TORSDOF 22
