REMARK SMILES O=C(NCCCCCCNC(=O)[C@@]1([NH2+]C2CC2)CCC[C@H]1CCn1ccnc1)c1ccc(-c2c3nc(c(-c4cccc(S(=O)(=O)[O-])c4F)c4ccc([nH]4)c(-c4cccc(S(=O)(=O)[O-])c4F)c4nc(c(-c5cccc(S(=O)(=O)[O-])c5F)c5ccc2[nH]5)C=C4)C=C3)cc1
REMARK SMILES IDX 6 1 5 2 4 3 3 4 1 5 2 6 29 8 30 9 91 10 31 11 90 12 32 13
REMARK SMILES IDX 33 14 34 15 84 16 35 17 89 18 83 19 85 20 36 21 88 22 82 23
REMARK SMILES IDX 81 24 37 26 69 27 49 28 68 29 50 30 53 31 67 32 86 33 51 34
REMARK SMILES IDX 52 35 66 37 87 38 54 39 38 40 39 41 47 42 40 43 42 44 48 45
REMARK SMILES IDX 41 46 43 47 44 48 45 49 46 50 70 51 71 52 79 53 72 54 74 55
REMARK SMILES IDX 80 56 73 57 75 58 76 59 77 60 78 61 55 62 56 63 64 64 57 65
REMARK SMILES IDX 59 66 65 67 58 68 60 69 61 70 62 71 63 72 7 73 8 74 9 75
REMARK SMILES IDX 10 76 11 77 12 79 13 80 18 81 21 82 19 83 20 84 14 85 15 88
REMARK SMILES IDX 16 89 17 90 22 91 23 92 24 93 25 94 28 95 26 96 27 97
REMARK H PARENT 3 7 85 25 53 36 10 78 14 86 14 87
REMARK Flexibility Score: inf
ROOT
ATOM      1  C   UNL     1       4.136  -1.808   3.086  1.00  0.00     0.002 C 
ENDROOT
BRANCH   1   2
ATOM      2  C   UNL     1       4.768  -0.756   2.165  1.00  0.00     0.021 C 
BRANCH   2   3
ATOM      3  C   UNL     1       4.560  -0.948   0.666  1.00  0.00     0.116 C 
BRANCH   3   4
ATOM      4  N   UNL     1       3.188  -1.127   0.257  1.00  0.00    -0.352 N 
ATOM      5  O   UNL     1       1.124  -0.848  -0.457  1.00  0.00    -0.269 OA
ATOM      6  C   UNL     1       2.146  -0.296  -0.040  1.00  0.00     0.251 C 
ATOM      7  H   UNL     1       2.944  -2.077   0.172  1.00  0.00     0.163 HD
BRANCH   6   8
ATOM      8  C   UNL     1       2.145   1.177   0.152  1.00  0.00     0.039 A 
ATOM      9  C   UNL     1       3.279   1.987   0.241  1.00  0.00     0.014 A 
ATOM     10  C   UNL     1       0.876   1.782   0.216  1.00  0.00     0.014 A 
ATOM     11  C   UNL     1       3.151   3.358   0.449  1.00  0.00     0.010 A 
ATOM     12  C   UNL     1       0.742   3.151   0.408  1.00  0.00     0.010 A 
ATOM     13  C   UNL     1       1.883   3.936   0.545  1.00  0.00    -0.014 A 
BRANCH  13  14
ATOM     14  C   UNL     1       1.791   5.391   0.636  1.00  0.00     0.031 A 
ATOM     15  C   UNL     1       2.206   6.137  -0.589  1.00  0.00     0.074 A 
ATOM     16  C   UNL     1       1.207   6.031   1.668  1.00  0.00     0.049 A 
ATOM     17  N   UNL     1       3.142   7.023  -0.711  1.00  0.00    -0.248 NA
ATOM     18  C   UNL     1       1.547   5.786  -1.856  1.00  0.00     0.031 C 
ATOM     19  C   UNL     1       0.457   5.431   2.773  1.00  0.00     0.029 A 
ATOM     20  N   UNL     1       1.028   7.371   1.857  1.00  0.00    -0.354 N 
ATOM     21  C   UNL     1       3.056   7.489  -2.025  1.00  0.00     0.074 A 
ATOM     22  C   UNL     1       2.168   6.593  -2.717  1.00  0.00     0.031 C 
ATOM     23  C   UNL     1      -0.302   6.385   3.356  1.00  0.00     0.029 A 
ATOM     24  C   UNL     1       0.006   7.669   2.752  1.00  0.00     0.049 A 
ATOM     25  H   UNL     1       1.569   8.059   1.404  1.00  0.00     0.167 HD
ATOM     26  C   UNL     1       3.560   8.696  -2.404  1.00  0.00     0.034 A 
ATOM     27  C   UNL     1      -0.607   8.866   2.913  1.00  0.00     0.034 A 
ATOM     28  C   UNL     1       4.456   9.239  -1.421  1.00  0.00     0.049 A 
ATOM     29  C   UNL     1       0.271   9.910   2.340  1.00  0.00     0.074 A 
ATOM     30  C   UNL     1       5.646   8.848  -0.844  1.00  0.00     0.029 A 
ATOM     31  N   UNL     1       3.980  10.268  -0.647  1.00  0.00    -0.354 N 
ATOM     32  N   UNL     1       1.416  10.259   2.853  1.00  0.00    -0.248 NA
ATOM     33  C   UNL     1       0.046  10.328   0.966  1.00  0.00     0.031 C 
ATOM     34  C   UNL     1       5.583   9.337   0.493  1.00  0.00     0.029 A 
ATOM     35  C   UNL     1       4.374  10.020   0.638  1.00  0.00     0.049 A 
ATOM     36  H   UNL     1       3.453  11.039  -0.959  1.00  0.00     0.167 HD
ATOM     37  C   UNL     1       2.217  10.536   1.754  1.00  0.00     0.074 A 
ATOM     38  C   UNL     1       1.288  10.690   0.639  1.00  0.00     0.031 C 
ATOM     39  C   UNL     1       3.565  10.324   1.796  1.00  0.00     0.034 A 
BRANCH  26  40
ATOM     40  C   UNL     1       3.005   9.574  -3.505  1.00  0.00     0.023 A 
ATOM     41  C   UNL     1       3.770  10.703  -3.883  1.00  0.00     0.012 A 
ATOM     42  C   UNL     1       1.673   9.520  -3.970  1.00  0.00     0.148 A 
ATOM     43  C   UNL     1       3.220  11.750  -4.631  1.00  0.00     0.002 A 
ATOM     44  C   UNL     1       1.155  10.524  -4.782  1.00  0.00     0.091 A 
ATOM     45  F   UNL     1       0.848   8.568  -3.524  1.00  0.00    -0.205 F 
ATOM     46  C   UNL     1       1.912  11.658  -5.087  1.00  0.00     0.022 A 
BRANCH  44  47
ATOM     47  S   UNL     1      -0.510  10.428  -5.449  1.00  0.00     0.127 S 
ATOM     48  O   UNL     1      -1.225  11.366  -4.590  1.00  0.00    -0.237 OA
ATOM     49  O   UNL     1      -0.309  10.877  -6.827  1.00  0.00    -0.237 OA
ATOM     50  O   UNL     1      -0.890   9.025  -5.332  1.00  0.00    -0.744 OA
ENDBRANCH  44  47
ENDBRANCH  26  40
BRANCH  27  51
ATOM     51  C   UNL     1      -2.003   9.160   3.311  1.00  0.00     0.023 A 
ATOM     52  C   UNL     1      -2.327  10.425   3.838  1.00  0.00     0.012 A 
ATOM     53  C   UNL     1      -3.061   8.304   2.932  1.00  0.00     0.148 A 
ATOM     54  C   UNL     1      -3.660  10.836   3.959  1.00  0.00     0.002 A 
ATOM     55  C   UNL     1      -4.385   8.711   3.066  1.00  0.00     0.091 A 
ATOM     56  F   UNL     1      -2.769   7.132   2.353  1.00  0.00    -0.205 F 
ATOM     57  C   UNL     1      -4.688   9.982   3.568  1.00  0.00     0.022 A 
BRANCH  55  58
ATOM     58  S   UNL     1      -5.760   7.666   2.565  1.00  0.00     0.127 S 
ATOM     59  O   UNL     1      -6.662   7.780   3.712  1.00  0.00    -0.237 OA
ATOM     60  O   UNL     1      -6.222   8.336   1.353  1.00  0.00    -0.237 OA
ATOM     61  O   UNL     1      -5.198   6.334   2.378  1.00  0.00    -0.744 OA
ENDBRANCH  55  58
ENDBRANCH  27  51
BRANCH  39  62
ATOM     62  C   UNL     1       4.210  10.080   3.135  1.00  0.00     0.023 A 
ATOM     63  C   UNL     1       3.870   8.973   3.940  1.00  0.00     0.012 A 
ATOM     64  C   UNL     1       5.310  10.875   3.501  1.00  0.00     0.148 A 
ATOM     65  C   UNL     1       4.593   8.682   5.099  1.00  0.00     0.002 A 
ATOM     66  C   UNL     1       6.059  10.551   4.626  1.00  0.00     0.091 A 
ATOM     67  F   UNL     1       5.626  11.920   2.722  1.00  0.00    -0.205 F 
ATOM     68  C   UNL     1       5.697   9.462   5.434  1.00  0.00     0.022 A 
BRANCH  66  69
ATOM     69  S   UNL     1       7.573  11.429   5.022  1.00  0.00     0.127 S 
ATOM     70  O   UNL     1       7.147  12.289   6.128  1.00  0.00    -0.237 OA
ATOM     71  O   UNL     1       8.475  10.340   5.411  1.00  0.00    -0.237 OA
ATOM     72  O   UNL     1       7.967  12.117   3.805  1.00  0.00    -0.744 OA
ENDBRANCH  66  69
ENDBRANCH  39  62
ENDBRANCH  13  14
ENDBRANCH   6   8
ENDBRANCH   3   4
ENDBRANCH   2   3
ENDBRANCH   1   2
BRANCH   1  73
ATOM     73  C   UNL     1       4.253  -3.288   2.697  1.00  0.00     0.002 C 
BRANCH  73  74
ATOM     74  C   UNL     1       5.644  -3.848   2.366  1.00  0.00     0.021 C 
BRANCH  74  75
ATOM     75  C   UNL     1       6.732  -3.547   3.386  1.00  0.00     0.116 C 
BRANCH  75  76
ATOM     76  N   UNL     1       6.516  -4.171   4.675  1.00  0.00    -0.351 N 
ATOM     77  C   UNL     1       7.278  -4.230   5.806  1.00  0.00     0.281 C 
ATOM     78  H   UNL     1       5.656  -4.644   4.749  1.00  0.00     0.163 HD
ATOM     79  O   UNL     1       6.610  -4.406   6.835  1.00  0.00    -0.268 OA
BRANCH  77  80
ATOM     80  C   UNL     1       8.840  -4.055   5.840  1.00  0.00     0.178 C 
ATOM     81  C   UNL     1       9.590  -4.870   4.766  1.00  0.00     0.079 C 
ATOM     82  C   UNL     1       9.413  -2.590   5.688  1.00  0.00     0.062 C 
ATOM     83  C   UNL     1      10.972  -4.247   4.677  1.00  0.00     0.008 C 
ATOM     84  C   UNL     1      10.728  -2.759   4.867  1.00  0.00     0.011 C 
BRANCH  80  85
ATOM     85  N   UNL     1       9.387  -4.488   7.169  1.00  0.00    -0.331 N 
ATOM     86  H   UNL     1       9.233  -3.705   7.804  1.00  0.00     0.347 HD
ATOM     87  H   UNL     1      10.336  -4.764   6.915  1.00  0.00     0.347 HD
BRANCH  85  88
ATOM     88  C   UNL     1       8.923  -5.676   7.878  1.00  0.00     0.183 C 
ATOM     89  C   UNL     1       8.299  -6.896   7.270  1.00  0.00     0.071 C 
ATOM     90  C   UNL     1       9.719  -6.951   7.741  1.00  0.00     0.071 C 
ENDBRANCH  85  88
ENDBRANCH  80  85
BRANCH  82  91
ATOM     91  C   UNL     1       8.618  -1.422   5.068  1.00  0.00     0.032 C 
BRANCH  91  92
ATOM     92  C   UNL     1       7.263  -1.052   5.680  1.00  0.00     0.123 C 
BRANCH  92  93
ATOM     93  N   UNL     1       7.300  -0.052   6.721  1.00  0.00    -0.337 N 
ATOM     94  C   UNL     1       7.173   1.295   6.531  1.00  0.00     0.107 A 
ATOM     95  C   UNL     1       7.230  -0.295   8.062  1.00  0.00     0.199 A 
ATOM     96  C   UNL     1       7.033   1.816   7.796  1.00  0.00     0.130 A 
ATOM     97  N   UNL     1       7.088   0.822   8.741  1.00  0.00    -0.245 NA
ENDBRANCH  92  93
ENDBRANCH  91  92
ENDBRANCH  82  91
ENDBRANCH  77  80
ENDBRANCH  75  76
ENDBRANCH  74  75
ENDBRANCH  73  74
ENDBRANCH   1  73
TORSDOF 21
