REMARK SMILES C[NH2+][C@]1(C(=O)NCCCCCCNC(=O)c2ccc(-c3c4nc(c(-c5cccc(S(=O)(=O)[O-])c5F)c5ccc([nH]5)c(-c5cccc(S(=O)(=O)[O-])c5F)c5nc(c(-c6cccc(S(=O)(=O)[O-])c6F)c6ccc3[nH]6)C=C5)C=C4)cc2)CCC[C@H]([NH+]2CCC[C@@H]2C2CCCC2)C1
REMARK SMILES IDX 10 1 9 2 8 3 7 4 6 5 4 6 5 7 3 9 79 10 93 11 80 12 82 13
REMARK SMILES IDX 81 14 2 15 1 16 83 19 84 20 87 21 85 23 86 24 88 25 89 26
REMARK SMILES IDX 92 27 90 28 91 29 11 30 12 31 13 32 14 33 15 35 16 36 17 37
REMARK SMILES IDX 78 38 18 39 77 40 19 41 20 42 21 43 71 44 22 45 76 46 70 47
REMARK SMILES IDX 72 48 23 49 75 50 69 51 68 52 24 54 56 55 36 56 55 57 37 58
REMARK SMILES IDX 40 59 54 60 73 61 38 62 39 63 53 65 74 66 41 67 25 68 26 69
REMARK SMILES IDX 34 70 27 71 29 72 35 73 28 74 30 75 31 76 32 77 33 78 57 79
REMARK SMILES IDX 58 80 66 81 59 82 61 83 67 84 60 85 62 86 63 87 64 88 65 89
REMARK SMILES IDX 42 90 43 91 51 92 44 93 46 94 52 95 45 96 47 97 48 98 49 99
REMARK SMILES IDX 50 100
REMARK H PARENT 6 8 2 17 2 18 83 22 13 34 72 53 40 64
REMARK Flexibility Score: inf
ROOT
ATOM      1  C   UNL     1       3.516  -2.850   4.263  1.00  0.00     0.002 C 
ENDROOT
BRANCH   1   2
ATOM      2  C   UNL     1       2.895  -3.365   2.958  1.00  0.00     0.002 C 
BRANCH   2   3
ATOM      3  C   UNL     1       1.506  -2.800   2.641  1.00  0.00     0.021 C 
BRANCH   3   4
ATOM      4  C   UNL     1       1.472  -1.266   2.572  1.00  0.00     0.116 C 
BRANCH   4   5
ATOM      5  N   UNL     1       1.577  -0.738   1.217  1.00  0.00    -0.351 N 
ATOM      6  C   UNL     1       0.683  -0.293   0.288  1.00  0.00     0.281 C 
ATOM      7  O   UNL     1       1.178   0.461  -0.569  1.00  0.00    -0.268 OA
ATOM      8  H   UNL     1       2.507  -0.692   0.900  1.00  0.00     0.163 HD
BRANCH   6   9
ATOM      9  C   UNL     1      -0.833  -0.747   0.151  1.00  0.00     0.181 C 
ATOM     10  C   UNL     1      -1.288  -1.762   1.260  1.00  0.00     0.079 C 
ATOM     11  C   UNL     1      -1.780   0.458   0.258  1.00  0.00     0.144 C 
ATOM     12  C   UNL     1      -2.694  -1.749   1.904  1.00  0.00     0.013 C 
ATOM     13  C   UNL     1      -3.284   0.070   0.410  1.00  0.00     0.191 C 
ATOM     14  C   UNL     1      -3.406  -0.426   1.847  1.00  0.00     0.065 C 
BRANCH   9  15
ATOM     15  N   UNL     1      -1.046  -1.080  -1.300  1.00  0.00    -0.336 N 
ATOM     16  C   UNL     1      -0.089  -1.911  -1.999  1.00  0.00     0.331 C 
ATOM     17  H   UNL     1      -1.948  -1.552  -1.364  1.00  0.00     0.346 HD
ATOM     18  H   UNL     1      -0.955  -0.177  -1.764  1.00  0.00     0.346 HD
ENDBRANCH   9  15
BRANCH  13  19
ATOM     19  N   UNL     1      -4.094  -0.817  -0.457  1.00  0.00    -0.330 N 
ATOM     20  C   UNL     1      -5.479  -0.375  -0.594  1.00  0.00     0.262 C 
ATOM     21  C   UNL     1      -3.902  -2.088  -1.226  1.00  0.00     0.187 C 
ATOM     22  H   UNL     1      -3.096  -1.011  -0.375  1.00  0.00     0.348 HD
ATOM     23  C   UNL     1      -6.225  -1.681  -0.610  1.00  0.00     0.067 C 
ATOM     24  C   UNL     1      -5.355  -2.556  -1.486  1.00  0.00     0.071 C 
BRANCH  21  25
ATOM     25  C   UNL     1      -3.021  -3.361  -0.905  1.00  0.00     0.047 C 
ATOM     26  C   UNL     1      -3.361  -4.476   0.110  1.00  0.00     0.010 C 
ATOM     27  C   UNL     1      -2.751  -4.273  -2.126  1.00  0.00     0.010 C 
ATOM     28  C   UNL     1      -2.201  -5.467  -0.084  1.00  0.00     0.001 C 
ATOM     29  C   UNL     1      -1.803  -5.334  -1.553  1.00  0.00     0.001 C 
ENDBRANCH  21  25
ENDBRANCH  13  19
ENDBRANCH   6   9
ENDBRANCH   4   5
ENDBRANCH   3   4
ENDBRANCH   2   3
ENDBRANCH   1   2
BRANCH   1  30
ATOM     30  C   UNL     1       2.677  -3.104   5.519  1.00  0.00     0.021 C 
BRANCH  30  31
ATOM     31  C   UNL     1       2.546  -4.581   5.877  1.00  0.00     0.116 C 
BRANCH  31  32
ATOM     32  N   UNL     1       3.855  -5.166   6.143  1.00  0.00    -0.352 N 
ATOM     33  C   UNL     1       4.365  -5.626   7.328  1.00  0.00     0.251 C 
ATOM     34  H   UNL     1       4.453  -5.241   5.365  1.00  0.00     0.163 HD
ATOM     35  O   UNL     1       5.581  -5.763   7.465  1.00  0.00    -0.269 OA
BRANCH  33  36
ATOM     36  C   UNL     1       3.447  -5.975   8.427  1.00  0.00     0.039 A 
ATOM     37  C   UNL     1       3.772  -5.618   9.737  1.00  0.00     0.014 A 
ATOM     38  C   UNL     1       2.273  -6.686   8.156  1.00  0.00     0.014 A 
ATOM     39  C   UNL     1       2.897  -5.944  10.775  1.00  0.00     0.010 A 
ATOM     40  C   UNL     1       1.369  -6.941   9.179  1.00  0.00     0.010 A 
ATOM     41  C   UNL     1       1.681  -6.590  10.500  1.00  0.00    -0.014 A 
BRANCH  41  42
ATOM     42  C   UNL     1       0.718  -6.915  11.580  1.00  0.00     0.031 A 
ATOM     43  C   UNL     1       0.374  -8.349  11.877  1.00  0.00     0.074 A 
ATOM     44  C   UNL     1       0.087  -5.916  12.225  1.00  0.00     0.049 A 
ATOM     45  N   UNL     1      -0.485  -8.828  12.738  1.00  0.00    -0.248 NA
ATOM     46  C   UNL     1       1.062  -9.381  11.082  1.00  0.00     0.031 C 
ATOM     47  C   UNL     1       0.275  -4.488  11.961  1.00  0.00     0.029 A 
ATOM     48  N   UNL     1      -0.863  -5.949  13.214  1.00  0.00    -0.354 N 
ATOM     49  C   UNL     1      -0.471 -10.206  12.562  1.00  0.00     0.074 A 
ATOM     50  C   UNL     1       0.457 -10.487  11.489  1.00  0.00     0.031 C 
ATOM     51  C   UNL     1      -0.532  -3.781  12.769  1.00  0.00     0.029 A 
ATOM     52  C   UNL     1      -1.314  -4.704  13.586  1.00  0.00     0.049 A 
ATOM     53  H   UNL     1      -1.190  -6.784  13.620  1.00  0.00     0.167 HD
ATOM     54  C   UNL     1      -1.149 -11.155  13.250  1.00  0.00     0.034 A 
ATOM     55  C   UNL     1      -2.258  -4.347  14.478  1.00  0.00     0.034 A 
ATOM     56  C   UNL     1      -2.034 -10.870  14.346  1.00  0.00     0.049 A 
ATOM     57  C   UNL     1      -2.955  -5.421  15.268  1.00  0.00     0.074 A 
ATOM     58  C   UNL     1      -2.690 -11.762  15.176  1.00  0.00     0.029 A 
ATOM     59  N   UNL     1      -2.394  -9.598  14.761  1.00  0.00    -0.354 N 
ATOM     60  N   UNL     1      -2.804  -6.722  15.203  1.00  0.00    -0.248 NA
ATOM     61  C   UNL     1      -3.924  -4.978  16.280  1.00  0.00     0.031 C 
ATOM     62  C   UNL     1      -3.469 -11.028  16.076  1.00  0.00     0.029 A 
ATOM     63  C   UNL     1      -3.273  -9.678  15.827  1.00  0.00     0.049 A 
ATOM     64  H   UNL     1      -2.073  -8.759  14.357  1.00  0.00     0.167 HD
ATOM     65  C   UNL     1      -3.631  -7.251  16.187  1.00  0.00     0.074 A 
ATOM     66  C   UNL     1      -4.263  -6.128  16.848  1.00  0.00     0.031 C 
ATOM     67  C   UNL     1      -3.856  -8.550  16.506  1.00  0.00     0.034 A 
BRANCH  54  68
ATOM     68  C   UNL     1      -0.922 -12.595  12.871  1.00  0.00     0.023 A 
ATOM     69  C   UNL     1       0.312 -13.209  13.168  1.00  0.00     0.012 A 
ATOM     70  C   UNL     1      -1.947 -13.358  12.278  1.00  0.00     0.148 A 
ATOM     71  C   UNL     1       0.536 -14.548  12.849  1.00  0.00     0.002 A 
ATOM     72  C   UNL     1      -1.733 -14.705  12.007  1.00  0.00     0.091 A 
ATOM     73  F   UNL     1      -3.106 -12.753  11.983  1.00  0.00    -0.205 F 
ATOM     74  C   UNL     1      -0.489 -15.298  12.280  1.00  0.00     0.022 A 
BRANCH  72  75
ATOM     75  S   UNL     1      -3.017 -15.776  11.349  1.00  0.00     0.127 S 
ATOM     76  O   UNL     1      -2.526 -16.026   9.993  1.00  0.00    -0.237 OA
ATOM     77  O   UNL     1      -2.941 -16.931  12.245  1.00  0.00    -0.237 OA
ATOM     78  O   UNL     1      -4.256 -15.020  11.435  1.00  0.00    -0.744 OA
ENDBRANCH  72  75
ENDBRANCH  54  68
BRANCH  55  79
ATOM     79  C   UNL     1      -2.546  -2.905  14.715  1.00  0.00     0.023 A 
ATOM     80  C   UNL     1      -2.152  -2.311  15.930  1.00  0.00     0.012 A 
ATOM     81  C   UNL     1      -3.168  -2.112  13.732  1.00  0.00     0.148 A 
ATOM     82  C   UNL     1      -2.402  -0.961  16.175  1.00  0.00     0.002 A 
ATOM     83  C   UNL     1      -3.363  -0.754  13.960  1.00  0.00     0.091 A 
ATOM     84  F   UNL     1      -3.542  -2.698  12.586  1.00  0.00    -0.205 F 
ATOM     85  C   UNL     1      -2.998  -0.181  15.187  1.00  0.00     0.022 A 
BRANCH  83  86
ATOM     86  S   UNL     1      -3.996   0.347  12.689  1.00  0.00     0.127 S 
ATOM     87  O   UNL     1      -5.322   0.680  13.220  1.00  0.00    -0.237 OA
ATOM     88  O   UNL     1      -3.026   1.449  12.740  1.00  0.00    -0.237 OA
ATOM     89  O   UNL     1      -3.978  -0.411  11.460  1.00  0.00    -0.744 OA
ENDBRANCH  83  86
ENDBRANCH  55  79
BRANCH  67  90
ATOM     90  C   UNL     1      -4.801  -8.835  17.643  1.00  0.00     0.023 A 
ATOM     91  C   UNL     1      -6.186  -8.637  17.473  1.00  0.00     0.012 A 
ATOM     92  C   UNL     1      -4.323  -9.375  18.854  1.00  0.00     0.148 A 
ATOM     93  C   UNL     1      -7.076  -8.940  18.502  1.00  0.00     0.002 A 
ATOM     94  C   UNL     1      -5.221  -9.723  19.855  1.00  0.00     0.091 A 
ATOM     95  F   UNL     1      -3.000  -9.539  19.002  1.00  0.00    -0.205 F 
ATOM     96  C   UNL     1      -6.596  -9.494  19.686  1.00  0.00     0.022 A 
BRANCH  94  97
ATOM     97  S   UNL     1      -4.703 -10.533  21.372  1.00  0.00     0.127 S 
ATOM     98  O   UNL     1      -4.865  -9.460  22.353  1.00  0.00    -0.237 OA
ATOM     99  O   UNL     1      -5.674 -11.620  21.491  1.00  0.00    -0.237 OA
ATOM    100  O   UNL     1      -3.332 -10.970  21.146  1.00  0.00    -0.744 OA
ENDBRANCH  94  97
ENDBRANCH  67  90
ENDBRANCH  41  42
ENDBRANCH  33  36
ENDBRANCH  31  32
ENDBRANCH  30  31
ENDBRANCH   1  30
TORSDOF 19
