REMARK SMILES O=C(Cn1c(SCCOc2ccccc2Cl)nc2ccccc21)NCCCCCCNC(=O)c1ccc(-c2c3nc(c(-c4cccc(S(=O)(=O)[O-])c4F)c4ccc([nH]4)c(-c4cccc(S(=O)(=O)[O-])c4F)c4nc(c(-c5cccc(S(=O)(=O)[O-])c5F)c5ccc2[nH]5)C=C4)C=C3)cc1
REMARK SMILES IDX 26 1 25 2 24 3 1 4 2 5 3 7 4 8 5 9 23 10 17 11 18 12 22 13
REMARK SMILES IDX 19 14 21 15 20 16 6 17 7 18 8 19 9 20 10 21 11 22 15 23
REMARK SMILES IDX 12 24 14 25 16 26 13 27 27 28 28 29 29 30 30 31 31 32 32 33
REMARK SMILES IDX 33 35 34 36 35 37 96 38 36 39 95 40 37 41 38 42 39 43 89 44
REMARK SMILES IDX 40 45 94 46 88 47 90 48 41 49 93 50 87 51 86 52 42 54 74 55
REMARK SMILES IDX 54 56 73 57 55 58 58 59 72 60 91 61 56 62 57 63 71 65 92 66
REMARK SMILES IDX 59 67 43 68 44 69 52 70 45 71 47 72 53 73 46 74 48 75 49 76
REMARK SMILES IDX 50 77 51 78 75 79 76 80 84 81 77 82 79 83 85 84 78 85 80 86
REMARK SMILES IDX 81 87 82 88 83 89 60 90 61 91 69 92 62 93 64 94 70 95 63 96
REMARK SMILES IDX 65 97 66 98 67 99 68 100
REMARK H PARENT 24 6 31 34 90 53 58 64
REMARK Flexibility Score: inf
ROOT
ATOM      1  C   UNL     1       2.248   1.656  -3.290  1.00  0.00     0.021 C 
ENDROOT
BRANCH   1   2
ATOM      2  C   UNL     1       1.536   0.656  -2.360  1.00  0.00     0.116 C 
BRANCH   2   3
ATOM      3  N   UNL     1       2.057   0.588  -0.992  1.00  0.00    -0.355 N 
ATOM      4  O   UNL     1       0.204  -0.423  -0.093  1.00  0.00    -0.273 OA
ATOM      5  C   UNL     1       1.354  -0.006   0.050  1.00  0.00     0.240 C 
ATOM      6  H   UNL     1       2.940   0.980  -0.803  1.00  0.00     0.163 HD
BRANCH   5   7
ATOM      7  C   UNL     1       2.018   0.002   1.433  1.00  0.00     0.224 C 
BRANCH   7   8
ATOM      8  N   UNL     1       2.957  -1.069   1.746  1.00  0.00    -0.309 N 
ATOM      9  C   UNL     1       4.224  -0.962   2.289  1.00  0.00     0.169 A 
ATOM     10  C   UNL     1       2.673  -2.428   1.685  1.00  0.00     0.069 A 
ATOM     11  N   UNL     1       4.775  -2.137   2.492  1.00  0.00    -0.222 NA
ATOM     12  C   UNL     1       3.851  -3.054   2.087  1.00  0.00     0.090 A 
ATOM     13  C   UNL     1       1.548  -3.166   1.295  1.00  0.00     0.028 A 
ATOM     14  C   UNL     1       3.964  -4.453   2.034  1.00  0.00     0.030 A 
ATOM     15  C   UNL     1       1.677  -4.562   1.246  1.00  0.00     0.002 A 
ATOM     16  C   UNL     1       2.869  -5.198   1.592  1.00  0.00     0.002 A 
BRANCH   9  17
ATOM     17  S   UNL     1       5.069   0.462   2.793  1.00  0.00    -0.084 SA
BRANCH  17  18
ATOM     18  C   UNL     1       5.059   1.646   1.433  1.00  0.00     0.119 C 
BRANCH  18  19
ATOM     19  C   UNL     1       5.339   1.258  -0.026  1.00  0.00     0.241 C 
BRANCH  19  20
ATOM     20  O   UNL     1       4.687   0.078  -0.507  1.00  0.00    -0.491 OA
BRANCH  20  21
ATOM     21  C   UNL     1       5.409  -1.088  -0.627  1.00  0.00     0.137 A 
ATOM     22  C   UNL     1       6.707  -1.238  -0.134  1.00  0.00     0.048 A 
ATOM     23  C   UNL     1       4.777  -2.228  -1.169  1.00  0.00     0.083 A 
ATOM     24  C   UNL     1       7.337  -2.486  -0.145  1.00  0.00     0.004 A 
ATOM     25  C   UNL     1       5.412  -3.472  -1.181  1.00  0.00     0.024 A 
ATOM     26  Cl  UNL     1       3.174  -2.237  -1.788  1.00  0.00    -0.080 Cl
ATOM     27  C   UNL     1       6.688  -3.603  -0.657  1.00  0.00     0.002 A 
ENDBRANCH  20  21
ENDBRANCH  19  20
ENDBRANCH  18  19
ENDBRANCH  17  18
ENDBRANCH   9  17
ENDBRANCH   7   8
ENDBRANCH   5   7
ENDBRANCH   2   3
ENDBRANCH   1   2
BRANCH   1  28
ATOM     28  C   UNL     1       3.734   1.443  -3.634  1.00  0.00     0.002 C 
BRANCH  28  29
ATOM     29  C   UNL     1       4.142   0.245  -4.503  1.00  0.00     0.002 C 
BRANCH  29  30
ATOM     30  C   UNL     1       3.571   0.140  -5.926  1.00  0.00     0.021 C 
BRANCH  30  31
ATOM     31  C   UNL     1       3.867   1.301  -6.880  1.00  0.00     0.116 C 
BRANCH  31  32
ATOM     32  N   UNL     1       5.277   1.551  -7.115  1.00  0.00    -0.352 N 
ATOM     33  C   UNL     1       6.153   1.347  -8.151  1.00  0.00     0.251 C 
ATOM     34  H   UNL     1       5.713   1.971  -6.338  1.00  0.00     0.163 HD
ATOM     35  O   UNL     1       7.189   2.018  -8.092  1.00  0.00    -0.269 OA
BRANCH  33  36
ATOM     36  C   UNL     1       6.010   0.362  -9.266  1.00  0.00     0.039 A 
ATOM     37  C   UNL     1       4.931  -0.494  -9.469  1.00  0.00     0.014 A 
ATOM     38  C   UNL     1       7.123   0.240 -10.133  1.00  0.00     0.014 A 
ATOM     39  C   UNL     1       5.004  -1.485 -10.457  1.00  0.00     0.010 A 
ATOM     40  C   UNL     1       7.199  -0.750 -11.117  1.00  0.00     0.010 A 
ATOM     41  C   UNL     1       6.151  -1.646 -11.260  1.00  0.00    -0.014 A 
BRANCH  41  42
ATOM     42  C   UNL     1       6.114  -2.636 -12.348  1.00  0.00     0.031 A 
ATOM     43  C   UNL     1       4.990  -2.395 -13.290  1.00  0.00     0.074 A 
ATOM     44  C   UNL     1       6.976  -3.657 -12.570  1.00  0.00     0.049 A 
ATOM     45  N   UNL     1       3.849  -3.002 -13.286  1.00  0.00    -0.248 NA
ATOM     46  C   UNL     1       5.051  -1.242 -14.198  1.00  0.00     0.031 C 
ATOM     47  C   UNL     1       8.262  -3.914 -11.916  1.00  0.00     0.029 A 
ATOM     48  N   UNL     1       6.910  -4.666 -13.501  1.00  0.00    -0.354 N 
ATOM     49  C   UNL     1       3.154  -2.491 -14.376  1.00  0.00     0.074 A 
ATOM     50  C   UNL     1       3.843  -1.290 -14.768  1.00  0.00     0.031 C 
ATOM     51  C   UNL     1       8.946  -4.860 -12.609  1.00  0.00     0.029 A 
ATOM     52  C   UNL     1       8.095  -5.392 -13.659  1.00  0.00     0.049 A 
ATOM     53  H   UNL     1       6.094  -4.862 -14.015  1.00  0.00     0.167 HD
ATOM     54  C   UNL     1       2.256  -3.266 -15.042  1.00  0.00     0.034 A 
ATOM     55  C   UNL     1       8.348  -6.351 -14.590  1.00  0.00     0.034 A 
ATOM     56  C   UNL     1       1.940  -4.456 -14.295  1.00  0.00     0.049 A 
ATOM     57  C   UNL     1       7.039  -6.932 -14.949  1.00  0.00     0.074 A 
ATOM     58  C   UNL     1       1.337  -4.763 -13.096  1.00  0.00     0.029 A 
ATOM     59  N   UNL     1       2.674  -5.547 -14.677  1.00  0.00    -0.354 N 
ATOM     60  N   UNL     1       6.315  -7.641 -14.131  1.00  0.00    -0.248 NA
ATOM     61  C   UNL     1       6.374  -6.486 -16.164  1.00  0.00     0.031 C 
ATOM     62  C   UNL     1       1.980  -5.952 -12.640  1.00  0.00     0.029 A 
ATOM     63  C   UNL     1       2.908  -6.353 -13.603  1.00  0.00     0.049 A 
ATOM     64  H   UNL     1       2.986  -5.724 -15.593  1.00  0.00     0.167 HD
ATOM     65  C   UNL     1       5.018  -7.329 -14.491  1.00  0.00     0.074 A 
ATOM     66  C   UNL     1       5.114  -6.777 -15.836  1.00  0.00     0.031 C 
ATOM     67  C   UNL     1       4.044  -7.244 -13.543  1.00  0.00     0.034 A 
BRANCH  54  68
ATOM     68  C   UNL     1       2.057  -3.251 -16.545  1.00  0.00     0.023 A 
ATOM     69  C   UNL     1       0.992  -4.023 -17.066  1.00  0.00     0.012 A 
ATOM     70  C   UNL     1       3.039  -2.815 -17.463  1.00  0.00     0.148 A 
ATOM     71  C   UNL     1       0.929  -4.367 -18.422  1.00  0.00     0.002 A 
ATOM     72  C   UNL     1       2.934  -3.099 -18.819  1.00  0.00     0.091 A 
ATOM     73  F   UNL     1       4.163  -2.250 -17.015  1.00  0.00    -0.205 F 
ATOM     74  C   UNL     1       1.895  -3.896 -19.302  1.00  0.00     0.022 A 
BRANCH  72  75
ATOM     75  S   UNL     1       4.154  -2.516 -20.003  1.00  0.00     0.127 S 
ATOM     76  O   UNL     1       4.821  -3.758 -20.369  1.00  0.00    -0.237 OA
ATOM     77  O   UNL     1       3.304  -1.931 -21.038  1.00  0.00    -0.237 OA
ATOM     78  O   UNL     1       4.968  -1.542 -19.276  1.00  0.00    -0.744 OA
ENDBRANCH  72  75
ENDBRANCH  54  68
BRANCH  55  79
ATOM     79  C   UNL     1       9.569  -6.747 -15.350  1.00  0.00     0.023 A 
ATOM     80  C   UNL     1       9.535  -7.921 -16.147  1.00  0.00     0.012 A 
ATOM     81  C   UNL     1      10.614  -5.832 -15.585  1.00  0.00     0.148 A 
ATOM     82  C   UNL     1      10.440  -8.123 -17.198  1.00  0.00     0.002 A 
ATOM     83  C   UNL     1      11.519  -6.042 -16.628  1.00  0.00     0.091 A 
ATOM     84  F   UNL     1      10.665  -4.712 -14.853  1.00  0.00    -0.205 F 
ATOM     85  C   UNL     1      11.419  -7.171 -17.452  1.00  0.00     0.022 A 
BRANCH  83  86
ATOM     86  S   UNL     1      12.814  -4.858 -17.024  1.00  0.00     0.127 S 
ATOM     87  O   UNL     1      13.973  -5.729 -17.232  1.00  0.00    -0.237 OA
ATOM     88  O   UNL     1      12.296  -4.232 -18.237  1.00  0.00    -0.237 OA
ATOM     89  O   UNL     1      12.923  -3.991 -15.858  1.00  0.00    -0.744 OA
ENDBRANCH  83  86
ENDBRANCH  55  79
BRANCH  67  90
ATOM     90  C   UNL     1       4.243  -7.980 -12.254  1.00  0.00     0.023 A 
ATOM     91  C   UNL     1       5.149  -7.569 -11.259  1.00  0.00     0.012 A 
ATOM     92  C   UNL     1       3.326  -9.008 -11.980  1.00  0.00     0.148 A 
ATOM     93  C   UNL     1       5.121  -8.170  -9.996  1.00  0.00     0.002 A 
ATOM     94  C   UNL     1       3.270  -9.567 -10.714  1.00  0.00     0.091 A 
ATOM     95  F   UNL     1       2.483  -9.377 -12.957  1.00  0.00    -0.205 F 
ATOM     96  C   UNL     1       4.169  -9.153  -9.718  1.00  0.00     0.022 A 
BRANCH  94  97
ATOM     97  S   UNL     1       1.993 -10.740 -10.263  1.00  0.00     0.127 S 
ATOM     98  O   UNL     1       2.771 -11.943  -9.972  1.00  0.00    -0.237 OA
ATOM     99  O   UNL     1       1.390 -10.101  -9.092  1.00  0.00    -0.237 OA
ATOM    100  O   UNL     1       1.105 -10.843 -11.415  1.00  0.00    -0.744 OA
ENDBRANCH  94  97
ENDBRANCH  67  90
ENDBRANCH  41  42
ENDBRANCH  33  36
ENDBRANCH  31  32
ENDBRANCH  30  31
ENDBRANCH  29  30
ENDBRANCH  28  29
ENDBRANCH   1  28
TORSDOF 22
