REMARK SMILES CC[C@](C)(NC(=O)CCSc1ccccc1Cl)C(=O)NCCCCCCNC(=O)c1ccc(-c2c3nc(c(-c4cccc(S(=O)(=O)[O-])c4F)c4ccc([nH]4)c(-c4cccc(S(=O)(=O)[O-])c4F)c4nc(c(-c5cccc(S(=O)(=O)[O-])c5F)c5ccc2[nH]5)C=C4)C=C3)cc1
REMARK SMILES IDX 22 1 21 2 20 3 18 4 19 5 3 7 4 8 2 9 1 10 5 11 6 12 7 14
REMARK SMILES IDX 8 15 9 16 10 17 11 18 12 19 16 20 13 21 15 22 17 23 14 24
REMARK SMILES IDX 23 25 24 26 25 27 26 28 27 29 28 30 29 32 30 33 31 34 92 35
REMARK SMILES IDX 32 36 91 37 33 38 34 39 35 40 85 41 36 42 90 43 84 44 86 45
REMARK SMILES IDX 37 46 89 47 83 48 82 49 38 51 70 52 50 53 69 54 51 55 54 56
REMARK SMILES IDX 68 57 87 58 52 59 53 60 67 62 88 63 55 64 39 65 40 66 48 67
REMARK SMILES IDX 41 68 43 69 49 70 42 71 44 72 45 73 46 74 47 75 71 76 72 77
REMARK SMILES IDX 80 78 73 79 75 80 81 81 74 82 76 83 77 84 78 85 79 86 56 87
REMARK SMILES IDX 57 88 65 89 58 90 60 91 66 92 59 93 61 94 62 95 63 96 64 97
REMARK H PARENT 20 6 5 13 27 31 86 50 54 61
REMARK Flexibility Score: inf
ROOT
ATOM      1  C   UNL     1       3.161   6.093  -0.476  1.00  0.00     0.021 C 
ENDROOT
BRANCH   1   2
ATOM      2  C   UNL     1       2.630   5.023  -1.425  1.00  0.00     0.116 C 
BRANCH   2   3
ATOM      3  N   UNL     1       3.277   3.740  -1.205  1.00  0.00    -0.354 N 
ATOM      4  C   UNL     1       2.777   2.549  -0.773  1.00  0.00     0.245 C 
ATOM      5  O   UNL     1       3.574   1.614  -0.652  1.00  0.00    -0.272 OA
ATOM      6  H   UNL     1       4.241   3.731  -1.403  1.00  0.00     0.163 HD
BRANCH   4   7
ATOM      7  C   UNL     1       1.257   2.360  -0.537  1.00  0.00     0.116 C 
ATOM      8  C   UNL     1       0.941   0.966   0.010  1.00  0.00     0.045 C 
BRANCH   7   9
ATOM      9  C   UNL     1       0.509   2.475  -1.908  1.00  0.00     0.035 C 
ATOM     10  C   UNL     1       1.103   1.656  -3.051  1.00  0.00     0.007 C 
ENDBRANCH   7   9
BRANCH   7  11
ATOM     11  N   UNL     1       0.739   3.424   0.354  1.00  0.00    -0.342 N 
ATOM     12  C   UNL     1       1.158   3.996   1.509  1.00  0.00     0.221 C 
ATOM     13  H   UNL     1      -0.109   3.805   0.031  1.00  0.00     0.164 HD
ATOM     14  O   UNL     1       0.507   4.981   1.881  1.00  0.00    -0.275 OA
BRANCH  12  15
ATOM     15  C   UNL     1       2.420   3.629   2.264  1.00  0.00     0.111 C 
BRANCH  15  16
ATOM     16  C   UNL     1       2.544   2.282   2.959  1.00  0.00     0.085 C 
BRANCH  16  17
ATOM     17  S   UNL     1       1.386   1.866   4.328  1.00  0.00    -0.124 SA
BRANCH  17  18
ATOM     18  C   UNL     1      -0.204   1.804   3.510  1.00  0.00     0.026 A 
ATOM     19  C   UNL     1      -0.928   3.001   3.461  1.00  0.00     0.016 A 
ATOM     20  C   UNL     1      -0.791   0.655   2.958  1.00  0.00     0.054 A 
ATOM     21  C   UNL     1      -2.128   3.096   2.753  1.00  0.00     0.001 A 
ATOM     22  C   UNL     1      -2.015   0.742   2.277  1.00  0.00     0.022 A 
ATOM     23  Cl  UNL     1      -0.053  -0.907   3.062  1.00  0.00    -0.083 Cl
ATOM     24  C   UNL     1      -2.667   1.969   2.148  1.00  0.00     0.002 A 
ENDBRANCH  17  18
ENDBRANCH  16  17
ENDBRANCH  15  16
ENDBRANCH  12  15
ENDBRANCH   7  11
ENDBRANCH   4   7
ENDBRANCH   2   3
ENDBRANCH   1   2
BRANCH   1  25
ATOM     25  C   UNL     1       4.677   6.288  -0.543  1.00  0.00     0.002 C 
BRANCH  25  26
ATOM     26  C   UNL     1       5.212   6.561  -1.951  1.00  0.00     0.002 C 
BRANCH  26  27
ATOM     27  C   UNL     1       4.508   7.704  -2.683  1.00  0.00     0.021 C 
BRANCH  27  28
ATOM     28  C   UNL     1       4.470   9.010  -1.901  1.00  0.00     0.116 C 
BRANCH  28  29
ATOM     29  N   UNL     1       5.809   9.507  -1.636  1.00  0.00    -0.352 N 
ATOM     30  C   UNL     1       6.359  10.706  -2.013  1.00  0.00     0.251 C 
ATOM     31  H   UNL     1       6.396   8.907  -1.121  1.00  0.00     0.163 HD
ATOM     32  O   UNL     1       7.567  10.889  -1.944  1.00  0.00    -0.269 OA
BRANCH  30  33
ATOM     33  C   UNL     1       5.462  11.763  -2.517  1.00  0.00     0.039 A 
ATOM     34  C   UNL     1       5.776  12.406  -3.715  1.00  0.00     0.014 A 
ATOM     35  C   UNL     1       4.290  12.080  -1.821  1.00  0.00     0.014 A 
ATOM     36  C   UNL     1       4.885  13.340  -4.242  1.00  0.00     0.010 A 
ATOM     37  C   UNL     1       3.368  12.951  -2.389  1.00  0.00     0.010 A 
ATOM     38  C   UNL     1       3.661  13.596  -3.599  1.00  0.00    -0.014 A 
BRANCH  38  39
ATOM     39  C   UNL     1       2.667  14.522  -4.193  1.00  0.00     0.031 A 
ATOM     40  C   UNL     1       2.265  15.774  -3.467  1.00  0.00     0.074 A 
ATOM     41  C   UNL     1       2.063  14.188  -5.351  1.00  0.00     0.049 A 
ATOM     42  N   UNL     1       1.391  16.683  -3.814  1.00  0.00    -0.248 NA
ATOM     43  C   UNL     1       2.908  16.025  -2.167  1.00  0.00     0.031 C 
ATOM     44  C   UNL     1       2.301  12.953  -6.100  1.00  0.00     0.029 A 
ATOM     45  N   UNL     1       1.106  14.843  -6.083  1.00  0.00    -0.354 N 
ATOM     46  C   UNL     1       1.359  17.597  -2.768  1.00  0.00     0.074 A 
ATOM     47  C   UNL     1       2.267  17.108  -1.754  1.00  0.00     0.031 C 
ATOM     48  C   UNL     1       1.510  12.938  -7.184  1.00  0.00     0.029 A 
ATOM     49  C   UNL     1       0.688  14.145  -7.190  1.00  0.00     0.049 A 
ATOM     50  H   UNL     1       0.752  15.729  -5.838  1.00  0.00     0.167 HD
ATOM     51  C   UNL     1       0.662  18.754  -2.673  1.00  0.00     0.034 A 
ATOM     52  C   UNL     1      -0.261  14.434  -8.101  1.00  0.00     0.034 A 
ATOM     53  C   UNL     1      -0.225  19.243  -3.695  1.00  0.00     0.049 A 
ATOM     54  C   UNL     1      -1.004  15.735  -7.994  1.00  0.00     0.074 A 
ATOM     55  C   UNL     1      -0.910  20.444  -3.738  1.00  0.00     0.029 A 
ATOM     56  N   UNL     1      -0.566  18.547  -4.845  1.00  0.00    -0.354 N 
ATOM     57  N   UNL     1      -0.894  16.673  -7.084  1.00  0.00    -0.248 NA
ATOM     58  C   UNL     1      -1.975  16.037  -9.055  1.00  0.00     0.031 C 
ATOM     59  C   UNL     1      -1.694  20.458  -4.898  1.00  0.00     0.029 A 
ATOM     60  C   UNL     1      -1.469  19.281  -5.596  1.00  0.00     0.049 A 
ATOM     61  H   UNL     1      -0.218  17.660  -5.092  1.00  0.00     0.167 HD
ATOM     62  C   UNL     1      -1.765  17.685  -7.471  1.00  0.00     0.074 A 
ATOM     63  C   UNL     1      -2.373  17.256  -8.715  1.00  0.00     0.031 C 
ATOM     64  C   UNL     1      -2.046  18.856  -6.846  1.00  0.00     0.034 A 
BRANCH  51  65
ATOM     65  C   UNL     1       0.870  19.588  -1.434  1.00  0.00     0.023 A 
ATOM     66  C   UNL     1       2.113  20.220  -1.219  1.00  0.00     0.012 A 
ATOM     67  C   UNL     1      -0.165  19.768  -0.496  1.00  0.00     0.148 A 
ATOM     68  C   UNL     1       2.340  20.975  -0.069  1.00  0.00     0.002 A 
ATOM     69  C   UNL     1       0.053  20.563   0.624  1.00  0.00     0.091 A 
ATOM     70  F   UNL     1      -1.333  19.144  -0.702  1.00  0.00    -0.205 F 
ATOM     71  C   UNL     1       1.308  21.153   0.847  1.00  0.00     0.022 A 
BRANCH  69  72
ATOM     72  S   UNL     1      -1.237  20.921   1.821  1.00  0.00     0.127 S 
ATOM     73  O   UNL     1      -0.812  20.113   2.964  1.00  0.00    -0.237 OA
ATOM     74  O   UNL     1      -1.092  22.365   2.009  1.00  0.00    -0.237 OA
ATOM     75  O   UNL     1      -2.487  20.515   1.195  1.00  0.00    -0.744 OA
ENDBRANCH  69  72
ENDBRANCH  51  65
BRANCH  52  76
ATOM     76  C   UNL     1      -0.519  13.480  -9.216  1.00  0.00     0.023 A 
ATOM     77  C   UNL     1      -0.118  13.810 -10.524  1.00  0.00     0.012 A 
ATOM     78  C   UNL     1      -1.098  12.219  -8.970  1.00  0.00     0.148 A 
ATOM     79  C   UNL     1      -0.310  12.909 -11.573  1.00  0.00     0.002 A 
ATOM     80  C   UNL     1      -1.232  11.305 -10.007  1.00  0.00     0.091 A 
ATOM     81  F   UNL     1      -1.477  11.930  -7.717  1.00  0.00    -0.205 F 
ATOM     82  C   UNL     1      -0.854  11.654 -11.313  1.00  0.00     0.022 A 
BRANCH  80  83
ATOM     83  S   UNL     1      -1.786   9.617  -9.739  1.00  0.00     0.127 S 
ATOM     84  O   UNL     1      -3.065   9.607 -10.444  1.00  0.00    -0.237 OA
ATOM     85  O   UNL     1      -0.721   8.847 -10.381  1.00  0.00    -0.237 OA
ATOM     86  O   UNL     1      -1.862   9.449  -8.294  1.00  0.00    -0.744 OA
ENDBRANCH  80  83
ENDBRANCH  52  76
BRANCH  64  87
ATOM     87  C   UNL     1      -3.052  19.769  -7.500  1.00  0.00     0.023 A 
ATOM     88  C   UNL     1      -4.418  19.420  -7.500  1.00  0.00     0.012 A 
ATOM     89  C   UNL     1      -2.654  21.003  -8.051  1.00  0.00     0.148 A 
ATOM     90  C   UNL     1      -5.366  20.270  -8.068  1.00  0.00     0.002 A 
ATOM     91  C   UNL     1      -3.610  21.867  -8.570  1.00  0.00     0.091 A 
ATOM     92  F   UNL     1      -1.348  21.308  -8.057  1.00  0.00    -0.205 F 
ATOM     93  C   UNL     1      -4.965  21.497  -8.591  1.00  0.00     0.022 A 
BRANCH  91  94
ATOM     94  S   UNL     1      -3.202  23.506  -9.180  1.00  0.00     0.127 S 
ATOM     95  O   UNL     1      -3.423  23.352 -10.617  1.00  0.00    -0.237 OA
ATOM     96  O   UNL     1      -4.189  24.344  -8.497  1.00  0.00    -0.237 OA
ATOM     97  O   UNL     1      -1.822  23.752  -8.784  1.00  0.00    -0.744 OA
ENDBRANCH  91  94
ENDBRANCH  64  87
ENDBRANCH  38  39
ENDBRANCH  30  33
ENDBRANCH  28  29
ENDBRANCH  27  28
ENDBRANCH  26  27
ENDBRANCH  25  26
ENDBRANCH   1  25
TORSDOF 22
