REMARK SMILES CC1(C)S[C@@H]2c3ccccc3C(=O)N2[C@H]1C(=O)N[C@H](Cc1c[nH]c2ccccc12)C(=O)NCCCCCCNC(=O)c1ccc(-c2c3nc(c(-c4cccc(S(=O)(=O)[O-])c4F)c4ccc([nH]4)c(-c4cccc(S(=O)(=O)[O-])c4F)c4nc(c(-c5cccc(S(=O)(=O)[O-])c5F)c5ccc2[nH]5)C=C4)C=C3)cc1
REMARK SMILES IDX 36 1 35 2 34 3 33 4 32 5 30 6 31 7 19 9 18 10 16 11 17 12
REMARK SMILES IDX 15 14 1 15 2 16 3 17 4 18 5 19 14 20 6 21 12 22 7 23 11 24
REMARK SMILES IDX 13 25 8 26 10 27 9 28 20 29 21 30 22 31 29 32 23 33 24 34
REMARK SMILES IDX 28 35 25 37 27 38 26 39 37 40 38 41 39 42 40 43 41 45 42 46
REMARK SMILES IDX 43 47 104 48 44 49 103 50 45 51 46 52 47 53 97 54 48 55
REMARK SMILES IDX 102 56 96 57 98 58 49 59 101 60 95 61 94 62 50 64 82 65
REMARK SMILES IDX 62 66 81 67 63 68 66 69 80 70 99 71 64 72 65 73 79 75 100 76
REMARK SMILES IDX 67 77 51 78 52 79 60 80 53 81 55 82 61 83 54 84 56 85 57 86
REMARK SMILES IDX 58 87 59 88 83 89 84 90 92 91 85 92 87 93 93 94 86 95 88 96
REMARK SMILES IDX 89 97 90 98 91 99 68 100 69 101 77 102 70 103 72 104 78 105
REMARK SMILES IDX 71 106 73 107 74 108 75 109 76 110
REMARK H PARENT 32 8 18 13 23 36 39 44 98 63 66 74
REMARK Flexibility Score: inf
ROOT
ATOM      1  C   UNL     1      -2.311  -5.343   6.259  1.00  0.00     0.002 C 
ENDROOT
BRANCH   1   2
ATOM      2  C   UNL     1      -2.866  -4.485   5.129  1.00  0.00     0.002 C 
BRANCH   2   3
ATOM      3  C   UNL     1      -2.208  -3.130   4.867  1.00  0.00     0.021 C 
BRANCH   3   4
ATOM      4  C   UNL     1      -0.691  -3.118   4.670  1.00  0.00     0.116 C 
BRANCH   4   5
ATOM      5  N   UNL     1      -0.127  -4.343   4.149  1.00  0.00    -0.354 N 
ATOM      6  C   UNL     1       0.143  -4.806   2.911  1.00  0.00     0.242 C 
ATOM      7  O   UNL     1       0.721  -5.900   2.862  1.00  0.00    -0.273 OA
ATOM      8  H   UNL     1       0.113  -4.984   4.857  1.00  0.00     0.163 HD
BRANCH   6   9
ATOM      9  C   UNL     1      -0.093  -3.999   1.626  1.00  0.00     0.175 C 
BRANCH   9  10
ATOM     10  N   UNL     1       0.981  -2.962   1.641  1.00  0.00    -0.342 N 
ATOM     11  C   UNL     1       2.217  -2.860   1.069  1.00  0.00     0.244 C 
ATOM     12  O   UNL     1       3.047  -2.239   1.749  1.00  0.00    -0.273 OA
ATOM     13  H   UNL     1       0.745  -2.176   2.185  1.00  0.00     0.164 HD
BRANCH  11  14
ATOM     14  C   UNL     1       2.595  -3.280  -0.383  1.00  0.00     0.191 C 
ATOM     15  C   UNL     1       2.369  -5.791   0.174  1.00  0.00     0.026 C 
ATOM     16  C   UNL     1       2.295  -4.703  -0.902  1.00  0.00     0.042 C 
ATOM     17  C   UNL     1       3.278  -5.102  -2.019  1.00  0.00     0.026 C 
ATOM     18  S   UNL     1       0.625  -4.542  -1.757  1.00  0.00    -0.123 SA
ATOM     19  C   UNL     1       0.542  -2.754  -1.557  1.00  0.00     0.176 C 
ATOM     20  N   UNL     1       1.890  -2.381  -1.285  1.00  0.00    -0.309 N 
ATOM     21  C   UNL     1       0.167  -1.897  -2.704  1.00  0.00    -0.002 A 
ATOM     22  C   UNL     1       2.390  -1.457  -2.176  1.00  0.00     0.256 C 
ATOM     23  C   UNL     1      -1.077  -1.696  -3.278  1.00  0.00     0.007 A 
ATOM     24  C   UNL     1       1.256  -1.097  -3.056  1.00  0.00     0.046 A 
ATOM     25  O   UNL     1       3.521  -1.044  -2.286  1.00  0.00    -0.269 OA
ATOM     26  C   UNL     1      -1.196  -0.697  -4.247  1.00  0.00     0.000 A 
ATOM     27  C   UNL     1       1.168  -0.123  -4.030  1.00  0.00     0.014 A 
ATOM     28  C   UNL     1      -0.081   0.074  -4.629  1.00  0.00     0.001 A 
ENDBRANCH  11  14
ENDBRANCH   9  10
BRANCH   9  29
ATOM     29  C   UNL     1      -1.487  -3.405   1.426  1.00  0.00     0.072 C 
BRANCH  29  30
ATOM     30  C   UNL     1      -2.739  -4.254   1.416  1.00  0.00    -0.020 A 
ATOM     31  C   UNL     1      -3.971  -3.685   1.117  1.00  0.00     0.087 A 
ATOM     32  C   UNL     1      -3.024  -5.613   1.811  1.00  0.00     0.003 A 
ATOM     33  N   UNL     1      -4.953  -4.604   1.344  1.00  0.00    -0.361 N 
ATOM     34  C   UNL     1      -4.413  -5.695   1.974  1.00  0.00     0.046 A 
ATOM     35  C   UNL     1      -2.278  -6.746   2.201  1.00  0.00     0.010 A 
ATOM     36  H   UNL     1      -5.899  -4.501   1.094  1.00  0.00     0.166 HD
ATOM     37  C   UNL     1      -5.050  -6.718   2.687  1.00  0.00     0.026 A 
ATOM     38  C   UNL     1      -2.892  -7.768   2.944  1.00  0.00     0.001 A 
ATOM     39  C   UNL     1      -4.251  -7.724   3.228  1.00  0.00     0.002 A 
ENDBRANCH  29  30
ENDBRANCH   9  29
ENDBRANCH   6   9
ENDBRANCH   4   5
ENDBRANCH   3   4
ENDBRANCH   2   3
ENDBRANCH   1   2
BRANCH   1  40
ATOM     40  C   UNL     1      -2.216  -4.621   7.587  1.00  0.00     0.021 C 
BRANCH  40  41
ATOM     41  C   UNL     1      -3.554  -4.091   8.060  1.00  0.00     0.116 C 
BRANCH  41  42
ATOM     42  N   UNL     1      -4.496  -5.158   8.381  1.00  0.00    -0.352 N 
ATOM     43  C   UNL     1      -5.276  -5.263   9.511  1.00  0.00     0.251 C 
ATOM     44  H   UNL     1      -4.584  -5.881   7.718  1.00  0.00     0.163 HD
ATOM     45  O   UNL     1      -5.912  -6.278   9.762  1.00  0.00    -0.269 OA
BRANCH  43  46
ATOM     46  C   UNL     1      -5.276  -4.104  10.423  1.00  0.00     0.039 A 
ATOM     47  C   UNL     1      -5.513  -2.840   9.881  1.00  0.00     0.014 A 
ATOM     48  C   UNL     1      -4.812  -4.253  11.730  1.00  0.00     0.014 A 
ATOM     49  C   UNL     1      -5.063  -1.725  10.568  1.00  0.00     0.010 A 
ATOM     50  C   UNL     1      -4.488  -3.111  12.468  1.00  0.00     0.010 A 
ATOM     51  C   UNL     1      -4.540  -1.842  11.869  1.00  0.00    -0.014 A 
BRANCH  51  52
ATOM     52  C   UNL     1      -4.044  -0.618  12.555  1.00  0.00     0.031 A 
ATOM     53  C   UNL     1      -2.614  -0.500  13.022  1.00  0.00     0.074 A 
ATOM     54  C   UNL     1      -4.883   0.428  12.694  1.00  0.00     0.049 A 
ATOM     55  N   UNL     1      -2.025   0.520  13.593  1.00  0.00    -0.248 NA
ATOM     56  C   UNL     1      -1.729  -1.663  12.834  1.00  0.00     0.031 C 
ATOM     57  C   UNL     1      -6.294   0.433  12.296  1.00  0.00     0.029 A 
ATOM     58  N   UNL     1      -4.675   1.693  13.181  1.00  0.00    -0.354 N 
ATOM     59  C   UNL     1      -0.728   0.108  13.877  1.00  0.00     0.074 A 
ATOM     60  C   UNL     1      -0.609  -1.257  13.419  1.00  0.00     0.031 C 
ATOM     61  C   UNL     1      -6.805   1.655  12.494  1.00  0.00     0.029 A 
ATOM     62  C   UNL     1      -5.787   2.499  13.107  1.00  0.00     0.049 A 
ATOM     63  H   UNL     1      -3.813   1.995  13.548  1.00  0.00     0.167 HD
ATOM     64  C   UNL     1       0.278   0.810  14.448  1.00  0.00     0.034 A 
ATOM     65  C   UNL     1      -5.983   3.770  13.503  1.00  0.00     0.034 A 
ATOM     66  C   UNL     1       0.180   2.188  14.846  1.00  0.00     0.049 A 
ATOM     67  C   UNL     1      -4.852   4.523  14.134  1.00  0.00     0.074 A 
ATOM     68  C   UNL     1       1.171   2.997  15.374  1.00  0.00     0.029 A 
ATOM     69  N   UNL     1      -0.968   2.958  14.762  1.00  0.00    -0.354 N 
ATOM     70  N   UNL     1      -3.613   4.136  14.314  1.00  0.00    -0.248 NA
ATOM     71  C   UNL     1      -5.137   5.883  14.611  1.00  0.00     0.031 C 
ATOM     72  C   UNL     1       0.616   4.252  15.632  1.00  0.00     0.029 A 
ATOM     73  C   UNL     1      -0.714   4.229  15.244  1.00  0.00     0.049 A 
ATOM     74  H   UNL     1      -1.834   2.648  14.412  1.00  0.00     0.167 HD
ATOM     75  C   UNL     1      -2.967   5.206  14.918  1.00  0.00     0.074 A 
ATOM     76  C   UNL     1      -3.945   6.266  15.056  1.00  0.00     0.031 C 
ATOM     77  C   UNL     1      -1.683   5.290  15.336  1.00  0.00     0.034 A 
BRANCH  64  78
ATOM     78  C   UNL     1       1.607   0.132  14.646  1.00  0.00     0.023 A 
ATOM     79  C   UNL     1       2.480  -0.013  13.551  1.00  0.00     0.012 A 
ATOM     80  C   UNL     1       2.040  -0.238  15.935  1.00  0.00     0.148 A 
ATOM     81  C   UNL     1       3.764  -0.524  13.733  1.00  0.00     0.002 A 
ATOM     82  C   UNL     1       3.331  -0.721  16.113  1.00  0.00     0.091 A 
ATOM     83  F   UNL     1       1.188  -0.093  16.960  1.00  0.00    -0.205 F 
ATOM     84  C   UNL     1       4.193  -0.866  15.014  1.00  0.00     0.022 A 
BRANCH  82  85
ATOM     85  S   UNL     1       4.001  -1.144  17.726  1.00  0.00     0.127 S 
ATOM     86  O   UNL     1       4.239  -2.580  17.576  1.00  0.00    -0.237 OA
ATOM     87  O   UNL     1       5.213  -0.327  17.778  1.00  0.00    -0.237 OA
ATOM     88  O   UNL     1       2.976  -0.788  18.696  1.00  0.00    -0.744 OA
ENDBRANCH  82  85
ENDBRANCH  64  78
BRANCH  65  89
ATOM     89  C   UNL     1      -7.312   4.399  13.282  1.00  0.00     0.023 A 
ATOM     90  C   UNL     1      -7.464   5.353  12.260  1.00  0.00     0.012 A 
ATOM     91  C   UNL     1      -8.440   3.983  14.018  1.00  0.00     0.148 A 
ATOM     92  C   UNL     1      -8.721   5.887  11.975  1.00  0.00     0.002 A 
ATOM     93  C   UNL     1      -9.694   4.488  13.701  1.00  0.00     0.091 A 
ATOM     94  F   UNL     1      -8.264   3.067  14.980  1.00  0.00    -0.205 F 
ATOM     95  C   UNL     1      -9.835   5.447  12.686  1.00  0.00     0.022 A 
BRANCH  93  96
ATOM     96  S   UNL     1     -11.199   3.910  14.491  1.00  0.00     0.127 S 
ATOM     97  O   UNL     1     -11.676   5.125  15.147  1.00  0.00    -0.237 OA
ATOM     98  O   UNL     1     -11.991   3.479  13.339  1.00  0.00    -0.237 OA
ATOM     99  O   UNL     1     -10.792   2.835  15.385  1.00  0.00    -0.744 OA
ENDBRANCH  93  96
ENDBRANCH  65  89
BRANCH  77 100
ATOM    100  C   UNL     1      -1.224   6.563  15.986  1.00  0.00     0.023 A 
ATOM    101  C   UNL     1      -1.519   6.784  17.345  1.00  0.00     0.012 A 
ATOM    102  C   UNL     1      -0.361   7.443  15.305  1.00  0.00     0.148 A 
ATOM    103  C   UNL     1      -0.950   7.861  18.021  1.00  0.00     0.002 A 
ATOM    104  C   UNL     1       0.227   8.495  15.994  1.00  0.00     0.091 A 
ATOM    105  F   UNL     1      -0.100   7.204  14.011  1.00  0.00    -0.205 F 
ATOM    106  C   UNL     1      -0.067   8.706  17.352  1.00  0.00     0.022 A 
BRANCH 104 107
ATOM    107  S   UNL     1       1.430   9.596  15.241  1.00  0.00     0.127 S 
ATOM    108  O   UNL     1       0.755  10.889  15.345  1.00  0.00    -0.237 OA
ATOM    109  O   UNL     1       2.586   9.436  16.123  1.00  0.00    -0.237 OA
ATOM    110  O   UNL     1       1.625   9.114  13.880  1.00  0.00    -0.744 OA
ENDBRANCH 104 107
ENDBRANCH  77 100
ENDBRANCH  51  52
ENDBRANCH  43  46
ENDBRANCH  41  42
ENDBRANCH  40  41
ENDBRANCH   1  40
TORSDOF 20
