REMARK SMILES CC(C)[C@H](NC(=O)[C@H](Cc1ccccc1)n1c(=O)[nH]c2ccccc2c1=O)C(=O)NCCCCCCNC(=O)c1ccc(-c2c3nc(c(-c4cccc(S(=O)(=O)[O-])c4F)c4ccc([nH]4)c(-c4cccc(S(=O)(=O)[O-])c4F)c4nc(c(-c5cccc(S(=O)(=O)[O-])c5F)c5ccc2[nH]5)C=C4)C=C3)cc1
REMARK SMILES IDX 33 1 32 2 31 3 30 4 28 5 29 6 4 8 2 9 1 10 3 11 5 12 6 13
REMARK SMILES IDX 7 15 8 16 16 17 17 18 26 19 18 20 19 21 25 22 27 23 20 24
REMARK SMILES IDX 24 26 21 27 23 28 22 29 9 30 10 31 11 32 15 33 12 34 14 35
REMARK SMILES IDX 13 36 34 37 35 38 36 39 37 40 38 41 39 43 40 44 41 45 102 46
REMARK SMILES IDX 42 47 101 48 43 49 44 50 45 51 95 52 46 53 100 54 94 55
REMARK SMILES IDX 96 56 47 57 99 58 93 59 92 60 48 62 80 63 60 64 79 65 61 66
REMARK SMILES IDX 64 67 78 68 97 69 62 70 63 71 77 73 98 74 65 75 49 76 50 77
REMARK SMILES IDX 58 78 51 79 53 80 59 81 52 82 54 83 55 84 56 85 57 86 81 87
REMARK SMILES IDX 82 88 90 89 83 90 85 91 91 92 84 93 86 94 87 95 88 96 89 97
REMARK SMILES IDX 66 98 67 99 75 100 68 101 70 102 76 103 69 104 71 105 72 106
REMARK SMILES IDX 73 107 74 108
REMARK H PARENT 30 7 5 14 19 25 37 42 96 61 64 72
REMARK Flexibility Score: inf
ROOT
ATOM      1  C   UNL     1      -6.683  -0.776  -4.390  1.00  0.00     0.002 C 
ENDROOT
BRANCH   1   2
ATOM      2  C   UNL     1      -5.407  -1.481  -4.864  1.00  0.00     0.021 C 
BRANCH   2   3
ATOM      3  C   UNL     1      -4.144  -0.679  -4.611  1.00  0.00     0.116 C 
BRANCH   3   4
ATOM      4  N   UNL     1      -3.941  -0.484  -3.200  1.00  0.00    -0.354 N 
ATOM      5  C   UNL     1      -2.809  -0.426  -2.470  1.00  0.00     0.242 C 
ATOM      6  O   UNL     1      -2.946  -0.150  -1.272  1.00  0.00    -0.273 OA
ATOM      7  H   UNL     1      -4.769  -0.376  -2.680  1.00  0.00     0.163 HD
BRANCH   5   8
ATOM      8  C   UNL     1      -1.409  -0.569  -3.092  1.00  0.00     0.173 C 
BRANCH   8   9
ATOM      9  C   UNL     1      -0.864   0.713  -3.772  1.00  0.00     0.015 C 
ATOM     10  C   UNL     1      -1.508   1.112  -5.097  1.00  0.00     0.010 C 
ATOM     11  C   UNL     1      -0.910   1.921  -2.826  1.00  0.00     0.010 C 
ENDBRANCH   8   9
BRANCH   8  12
ATOM     12  N   UNL     1      -1.126  -1.797  -3.829  1.00  0.00    -0.342 N 
ATOM     13  C   UNL     1      -0.153  -2.731  -3.626  1.00  0.00     0.244 C 
ATOM     14  H   UNL     1      -1.727  -1.978  -4.587  1.00  0.00     0.164 HD
ATOM     15  O   UNL     1      -0.381  -3.840  -4.130  1.00  0.00    -0.273 OA
BRANCH  13  16
ATOM     16  C   UNL     1       1.077  -2.559  -2.692  1.00  0.00     0.189 C 
BRANCH  16  17
ATOM     17  N   UNL     1       1.777  -1.245  -2.739  1.00  0.00    -0.247 N 
ATOM     18  C   UNL     1       1.545  -0.254  -1.806  1.00  0.00     0.329 A 
ATOM     19  C   UNL     1       2.698  -1.081  -3.783  1.00  0.00     0.264 A 
ATOM     20  O   UNL     1       0.690  -0.266  -0.924  1.00  0.00    -0.248 OA
ATOM     21  N   UNL     1       2.282   0.881  -1.879  1.00  0.00    -0.307 N 
ATOM     22  C   UNL     1       3.474   0.178  -3.822  1.00  0.00     0.064 A 
ATOM     23  O   UNL     1       2.898  -1.918  -4.660  1.00  0.00    -0.268 OA
ATOM     24  C   UNL     1       3.234   1.131  -2.844  1.00  0.00     0.055 A 
ATOM     25  H   UNL     1       2.126   1.575  -1.198  1.00  0.00     0.171 HD
ATOM     26  C   UNL     1       4.429   0.432  -4.808  1.00  0.00     0.016 A 
ATOM     27  C   UNL     1       3.926   2.339  -2.825  1.00  0.00     0.027 A 
ATOM     28  C   UNL     1       5.133   1.640  -4.795  1.00  0.00     0.001 A 
ATOM     29  C   UNL     1       4.882   2.592  -3.804  1.00  0.00     0.002 A 
ENDBRANCH  16  17
BRANCH  16  30
ATOM     30  C   UNL     1       0.761  -3.164  -1.290  1.00  0.00     0.071 C 
BRANCH  30  31
ATOM     31  C   UNL     1       1.885  -2.960  -0.290  1.00  0.00    -0.045 A 
ATOM     32  C   UNL     1       1.696  -2.073   0.780  1.00  0.00     0.004 A 
ATOM     33  C   UNL     1       3.167  -3.461  -0.536  1.00  0.00     0.004 A 
ATOM     34  C   UNL     1       2.792  -1.513   1.431  1.00  0.00     0.000 A 
ATOM     35  C   UNL     1       4.259  -2.947   0.165  1.00  0.00     0.000 A 
ATOM     36  C   UNL     1       4.076  -1.934   1.107  1.00  0.00     0.000 A 
ENDBRANCH  30  31
ENDBRANCH  16  30
ENDBRANCH  13  16
ENDBRANCH   8  12
ENDBRANCH   5   8
ENDBRANCH   3   4
ENDBRANCH   2   3
ENDBRANCH   1   2
BRANCH   1  37
ATOM     37  C   UNL     1      -6.823   0.689  -4.825  1.00  0.00     0.002 C 
BRANCH  37  38
ATOM     38  C   UNL     1      -6.653   0.941  -6.325  1.00  0.00     0.021 C 
BRANCH  38  39
ATOM     39  C   UNL     1      -7.494   0.037  -7.209  1.00  0.00     0.116 C 
BRANCH  39  40
ATOM     40  N   UNL     1      -8.907   0.137  -6.896  1.00  0.00    -0.352 N 
ATOM     41  C   UNL     1      -9.958   0.237  -7.766  1.00  0.00     0.251 C 
ATOM     42  H   UNL     1      -9.139   0.133  -5.940  1.00  0.00     0.163 HD
ATOM     43  O   UNL     1     -11.084   0.505  -7.349  1.00  0.00    -0.269 OA
BRANCH  41  44
ATOM     44  C   UNL     1      -9.715   0.039  -9.206  1.00  0.00     0.039 A 
ATOM     45  C   UNL     1     -10.270   0.941 -10.114  1.00  0.00     0.014 A 
ATOM     46  C   UNL     1      -8.926  -1.027  -9.653  1.00  0.00     0.014 A 
ATOM     47  C   UNL     1     -10.019   0.782 -11.475  1.00  0.00     0.010 A 
ATOM     48  C   UNL     1      -8.602  -1.127 -10.999  1.00  0.00     0.010 A 
ATOM     49  C   UNL     1      -9.173  -0.245 -11.927  1.00  0.00    -0.014 A 
BRANCH  49  50
ATOM     50  C   UNL     1      -8.920  -0.446 -13.373  1.00  0.00     0.031 A 
ATOM     51  C   UNL     1      -9.359  -1.726 -14.035  1.00  0.00     0.074 A 
ATOM     52  C   UNL     1      -8.255   0.492 -14.074  1.00  0.00     0.049 A 
ATOM     53  N   UNL     1      -9.202  -2.109 -15.274  1.00  0.00    -0.248 NA
ATOM     54  C   UNL     1     -10.041  -2.720 -13.185  1.00  0.00     0.031 C 
ATOM     55  C   UNL     1      -7.723   1.742 -13.525  1.00  0.00     0.029 A 
ATOM     56  N   UNL     1      -7.899   0.532 -15.398  1.00  0.00    -0.354 N 
ATOM     57  C   UNL     1      -9.732  -3.392 -15.345  1.00  0.00     0.074 A 
ATOM     58  C   UNL     1     -10.171  -3.744 -14.014  1.00  0.00     0.031 C 
ATOM     59  C   UNL     1      -7.120   2.431 -14.508  1.00  0.00     0.029 A 
ATOM     60  C   UNL     1      -7.194   1.661 -15.745  1.00  0.00     0.049 A 
ATOM     61  H   UNL     1      -8.126  -0.179 -16.039  1.00  0.00     0.167 HD
ATOM     62  C   UNL     1      -9.875  -4.192 -16.427  1.00  0.00     0.034 A 
ATOM     63  C   UNL     1      -6.664   2.027 -16.928  1.00  0.00     0.034 A 
ATOM     64  C   UNL     1      -9.472  -3.820 -17.755  1.00  0.00     0.049 A 
ATOM     65  C   UNL     1      -6.859   1.129 -18.120  1.00  0.00     0.074 A 
ATOM     66  C   UNL     1      -9.631  -4.527 -18.932  1.00  0.00     0.029 A 
ATOM     67  N   UNL     1      -8.827  -2.637 -18.080  1.00  0.00    -0.354 N 
ATOM     68  N   UNL     1      -7.484  -0.022 -18.194  1.00  0.00    -0.248 NA
ATOM     69  C   UNL     1      -6.310   1.597 -19.400  1.00  0.00     0.031 C 
ATOM     70  C   UNL     1      -9.055  -3.784 -19.967  1.00  0.00     0.029 A 
ATOM     71  C   UNL     1      -8.577  -2.594 -19.440  1.00  0.00     0.049 A 
ATOM     72  H   UNL     1      -8.583  -1.931 -17.439  1.00  0.00     0.167 HD
ATOM     73  C   UNL     1      -7.448  -0.389 -19.535  1.00  0.00     0.074 A 
ATOM     74  C   UNL     1      -6.751   0.669 -20.237  1.00  0.00     0.031 C 
ATOM     75  C   UNL     1      -7.937  -1.504 -20.130  1.00  0.00     0.034 A 
BRANCH  62  76
ATOM     76  C   UNL     1     -10.538  -5.530 -16.226  1.00  0.00     0.023 A 
ATOM     77  C   UNL     1     -11.915  -5.589 -15.926  1.00  0.00     0.012 A 
ATOM     78  C   UNL     1      -9.816  -6.729 -16.386  1.00  0.00     0.148 A 
ATOM     79  C   UNL     1     -12.554  -6.816 -15.750  1.00  0.00     0.002 A 
ATOM     80  C   UNL     1     -10.471  -7.948 -16.260  1.00  0.00     0.091 A 
ATOM     81  F   UNL     1      -8.504  -6.654 -16.651  1.00  0.00    -0.205 F 
ATOM     82  C   UNL     1     -11.835  -7.994 -15.928  1.00  0.00     0.022 A 
BRANCH  80  83
ATOM     83  S   UNL     1      -9.656  -9.522 -16.552  1.00  0.00     0.127 S 
ATOM     84  O   UNL     1      -9.647 -10.103 -15.210  1.00  0.00    -0.237 OA
ATOM     85  O   UNL     1     -10.573 -10.171 -17.490  1.00  0.00    -0.237 OA
ATOM     86  O   UNL     1      -8.346  -9.203 -17.101  1.00  0.00    -0.744 OA
ENDBRANCH  80  83
ENDBRANCH  62  76
BRANCH  63  87
ATOM     87  C   UNL     1      -5.956   3.332 -17.063  1.00  0.00     0.023 A 
ATOM     88  C   UNL     1      -6.533   4.357 -17.838  1.00  0.00     0.012 A 
ATOM     89  C   UNL     1      -4.720   3.564 -16.430  1.00  0.00     0.148 A 
ATOM     90  C   UNL     1      -5.871   5.572 -18.018  1.00  0.00     0.002 A 
ATOM     91  C   UNL     1      -4.093   4.797 -16.567  1.00  0.00     0.091 A 
ATOM     92  F   UNL     1      -4.184   2.575 -15.701  1.00  0.00    -0.205 F 
ATOM     93  C   UNL     1      -4.656   5.795 -17.377  1.00  0.00     0.022 A 
BRANCH  91  94
ATOM     94  S   UNL     1      -2.591   5.218 -15.677  1.00  0.00     0.127 S 
ATOM     95  O   UNL     1      -1.607   5.263 -16.755  1.00  0.00    -0.237 OA
ATOM     96  O   UNL     1      -2.936   6.518 -15.101  1.00  0.00    -0.237 OA
ATOM     97  O   UNL     1      -2.405   4.158 -14.695  1.00  0.00    -0.744 OA
ENDBRANCH  91  94
ENDBRANCH  63  87
BRANCH  75  98
ATOM     98  C   UNL     1      -7.803  -1.615 -21.626  1.00  0.00     0.023 A 
ATOM     99  C   UNL     1      -6.543  -1.843 -22.212  1.00  0.00     0.012 A 
ATOM    100  C   UNL     1      -8.948  -1.562 -22.446  1.00  0.00     0.148 A 
ATOM    101  C   UNL     1      -6.419  -1.979 -23.594  1.00  0.00     0.002 A 
ATOM    102  C   UNL     1      -8.825  -1.755 -23.816  1.00  0.00     0.091 A 
ATOM    103  F   UNL     1     -10.137  -1.326 -21.871  1.00  0.00    -0.205 F 
ATOM    104  C   UNL     1      -7.560  -1.948 -24.393  1.00  0.00     0.022 A 
BRANCH 102 105
ATOM    105  S   UNL     1     -10.248  -1.834 -24.908  1.00  0.00     0.127 S 
ATOM    106  O   UNL     1     -10.129  -0.576 -25.643  1.00  0.00    -0.237 OA
ATOM    107  O   UNL     1      -9.965  -3.032 -25.698  1.00  0.00    -0.237 OA
ATOM    108  O   UNL     1     -11.415  -1.943 -24.042  1.00  0.00    -0.744 OA
ENDBRANCH 102 105
ENDBRANCH  75  98
ENDBRANCH  49  50
ENDBRANCH  41  44
ENDBRANCH  39  40
ENDBRANCH  38  39
ENDBRANCH  37  38
ENDBRANCH   1  37
TORSDOF 22
