REMARK SMILES C[C@H]1OCC[C@@H]1C(=O)Nc1sc2c(c1C(=O)NCCCCCCNC(=O)c1ccc(-c3c4nc(c(-c5cccc(S(=O)(=O)[O-])c5F)c5ccc([nH]5)c(-c5cccc(S(=O)(=O)[O-])c5F)c5nc(c(-c6cccc(S(=O)(=O)[O-])c6F)c6ccc3[nH]6)C=C5)C=C4)cc1)CCC2
REMARK SMILES IDX 21 1 20 2 19 3 18 4 17 5 15 6 16 7 14 9 10 10 11 11 12 12
REMARK SMILES IDX 13 13 92 14 90 15 91 16 9 17 7 18 8 19 6 21 1 22 2 23 3 24
REMARK SMILES IDX 4 25 5 26 22 27 23 28 24 29 25 30 26 32 27 33 28 34 89 35
REMARK SMILES IDX 29 36 88 37 30 38 31 39 32 40 82 41 33 42 87 43 81 44 83 45
REMARK SMILES IDX 34 46 86 47 80 48 79 49 35 51 67 52 47 53 66 54 48 55 51 56
REMARK SMILES IDX 65 57 84 58 49 59 50 60 64 62 85 63 52 64 36 65 37 66 45 67
REMARK SMILES IDX 38 68 40 69 46 70 39 71 41 72 42 73 43 74 44 75 68 76 69 77
REMARK SMILES IDX 77 78 70 79 72 80 78 81 71 82 73 83 74 84 75 85 76 86 53 87
REMARK SMILES IDX 54 88 62 89 55 90 57 91 63 92 56 93 58 94 59 95 60 96 61 97
REMARK H PARENT 17 8 9 20 24 31 83 50 51 61
REMARK Flexibility Score: inf
ROOT
ATOM      1  C   UNL     1      -6.055   2.938  -1.136  1.00  0.00     0.002 C 
ENDROOT
BRANCH   1   2
ATOM      2  C   UNL     1      -4.527   2.789  -1.237  1.00  0.00     0.002 C 
BRANCH   2   3
ATOM      3  C   UNL     1      -3.789   2.813   0.107  1.00  0.00     0.021 C 
BRANCH   3   4
ATOM      4  C   UNL     1      -4.318   1.795   1.112  1.00  0.00     0.116 C 
BRANCH   4   5
ATOM      5  N   UNL     1      -3.887   0.445   0.880  1.00  0.00    -0.352 N 
ATOM      6  C   UNL     1      -3.063  -0.402   1.572  1.00  0.00     0.254 C 
ATOM      7  O   UNL     1      -3.274  -1.597   1.329  1.00  0.00    -0.269 OA
ATOM      8  H   UNL     1      -4.258   0.049   0.059  1.00  0.00     0.163 HD
BRANCH   6   9
ATOM      9  C   UNL     1      -2.013  -0.008   2.524  1.00  0.00     0.078 A 
ATOM     10  C   UNL     1      -0.995  -0.923   2.842  1.00  0.00     0.108 A 
ATOM     11  S   UNL     1      -0.211  -0.598   4.332  1.00  0.00    -0.122 S 
ATOM     12  C   UNL     1      -0.908   0.909   4.368  1.00  0.00     0.011 A 
ATOM     13  C   UNL     1      -1.808   1.153   3.358  1.00  0.00    -0.019 A 
ATOM     14  C   UNL     1      -0.752   2.001   5.359  1.00  0.00     0.047 C 
ATOM     15  C   UNL     1      -2.361   2.527   3.556  1.00  0.00     0.038 C 
ATOM     16  C   UNL     1      -1.415   3.174   4.606  1.00  0.00     0.010 C 
BRANCH  10  17
ATOM     17  N   UNL     1      -0.583  -2.131   2.333  1.00  0.00    -0.317 N 
ATOM     18  C   UNL     1      -0.118  -2.472   1.102  1.00  0.00     0.230 C 
ATOM     19  O   UNL     1       0.108  -3.682   0.924  1.00  0.00    -0.274 OA
ATOM     20  H   UNL     1      -0.633  -2.879   2.970  1.00  0.00     0.170 HD
BRANCH  18  21
ATOM     21  C   UNL     1       0.272  -1.507  -0.016  1.00  0.00     0.110 C 
ATOM     22  C   UNL     1       2.340  -0.105  -0.420  1.00  0.00     0.039 C 
ATOM     23  C   UNL     1       1.090  -0.306   0.438  1.00  0.00     0.127 C 
ATOM     24  O   UNL     1       0.226   0.826   0.279  1.00  0.00    -0.378 OA
ATOM     25  C   UNL     1      -0.654   0.552  -0.808  1.00  0.00     0.161 C 
ATOM     26  C   UNL     1      -0.854  -0.945  -0.851  1.00  0.00     0.044 C 
ENDBRANCH  18  21
ENDBRANCH  10  17
ENDBRANCH   6   9
ENDBRANCH   4   5
ENDBRANCH   3   4
ENDBRANCH   2   3
ENDBRANCH   1   2
BRANCH   1  27
ATOM     27  C   UNL     1      -6.553   4.066  -0.216  1.00  0.00     0.021 C 
BRANCH  27  28
ATOM     28  C   UNL     1      -6.204   5.454  -0.731  1.00  0.00     0.116 C 
BRANCH  28  29
ATOM     29  N   UNL     1      -6.952   5.755  -1.944  1.00  0.00    -0.352 N 
ATOM     30  C   UNL     1      -6.946   6.902  -2.701  1.00  0.00     0.251 C 
ATOM     31  H   UNL     1      -7.544   5.038  -2.265  1.00  0.00     0.163 HD
ATOM     32  O   UNL     1      -7.875   7.138  -3.460  1.00  0.00    -0.269 OA
BRANCH  30  33
ATOM     33  C   UNL     1      -5.817   7.843  -2.587  1.00  0.00     0.039 A 
ATOM     34  C   UNL     1      -6.065   9.219  -2.624  1.00  0.00     0.014 A 
ATOM     35  C   UNL     1      -4.514   7.355  -2.476  1.00  0.00     0.014 A 
ATOM     36  C   UNL     1      -5.002  10.102  -2.482  1.00  0.00     0.010 A 
ATOM     37  C   UNL     1      -3.472   8.227  -2.246  1.00  0.00     0.010 A 
ATOM     38  C   UNL     1      -3.710   9.599  -2.274  1.00  0.00    -0.014 A 
BRANCH  38  39
ATOM     39  C   UNL     1      -2.631  10.508  -1.902  1.00  0.00     0.031 A 
ATOM     40  C   UNL     1      -2.896  11.285  -0.661  1.00  0.00     0.074 A 
ATOM     41  C   UNL     1      -1.417  10.492  -2.493  1.00  0.00     0.049 A 
ATOM     42  N   UNL     1      -3.040  12.564  -0.558  1.00  0.00    -0.248 NA
ATOM     43  C   UNL     1      -3.194  10.553   0.580  1.00  0.00     0.031 C 
ATOM     44  C   UNL     1      -0.953   9.579  -3.542  1.00  0.00     0.029 A 
ATOM     45  N   UNL     1      -0.287  11.183  -2.168  1.00  0.00    -0.354 N 
ATOM     46  C   UNL     1      -3.193  12.818   0.803  1.00  0.00     0.074 A 
ATOM     47  C   UNL     1      -3.503  11.552   1.409  1.00  0.00     0.031 C 
ATOM     48  C   UNL     1       0.396   9.591  -3.577  1.00  0.00     0.029 A 
ATOM     49  C   UNL     1       0.883  10.604  -2.659  1.00  0.00     0.049 A 
ATOM     50  H   UNL     1      -0.296  12.011  -1.637  1.00  0.00     0.167 HD
ATOM     51  C   UNL     1      -2.780  14.000   1.342  1.00  0.00     0.034 A 
ATOM     52  C   UNL     1       2.156  10.893  -2.290  1.00  0.00     0.034 A 
ATOM     53  C   UNL     1      -2.529  14.976   0.308  1.00  0.00     0.049 A 
ATOM     54  C   UNL     1       2.137  12.243  -1.685  1.00  0.00     0.074 A 
ATOM     55  C   UNL     1      -3.269  15.529  -0.718  1.00  0.00     0.029 A 
ATOM     56  N   UNL     1      -1.211  15.230   0.009  1.00  0.00    -0.354 N 
ATOM     57  N   UNL     1       1.905  13.327  -2.369  1.00  0.00    -0.248 NA
ATOM     58  C   UNL     1       1.963  12.361  -0.247  1.00  0.00     0.031 C 
ATOM     59  C   UNL     1      -2.350  15.667  -1.799  1.00  0.00     0.029 A 
ATOM     60  C   UNL     1      -1.089  15.269  -1.351  1.00  0.00     0.049 A 
ATOM     61  H   UNL     1      -0.484  15.361   0.660  1.00  0.00     0.167 HD
ATOM     62  C   UNL     1       1.089  14.078  -1.536  1.00  0.00     0.074 A 
ATOM     63  C   UNL     1       1.279  13.508  -0.204  1.00  0.00     0.031 C 
ATOM     64  C   UNL     1       0.108  14.873  -2.058  1.00  0.00     0.034 A 
BRANCH  51  65
ATOM     65  C   UNL     1      -2.201  14.185   2.733  1.00  0.00     0.023 A 
ATOM     66  C   UNL     1      -1.861  15.508   3.107  1.00  0.00     0.012 A 
ATOM     67  C   UNL     1      -1.701  13.148   3.553  1.00  0.00     0.148 A 
ATOM     68  C   UNL     1      -0.989  15.777   4.167  1.00  0.00     0.002 A 
ATOM     69  C   UNL     1      -0.893  13.424   4.652  1.00  0.00     0.091 A 
ATOM     70  F   UNL     1      -1.891  11.871   3.219  1.00  0.00    -0.205 F 
ATOM     71  C   UNL     1      -0.501  14.732   4.939  1.00  0.00     0.022 A 
BRANCH  69  72
ATOM     72  S   UNL     1      -0.272  12.115   5.718  1.00  0.00     0.127 S 
ATOM     73  O   UNL     1       1.144  12.096   5.362  1.00  0.00    -0.237 OA
ATOM     74  O   UNL     1      -0.572  12.647   7.047  1.00  0.00    -0.237 OA
ATOM     75  O   UNL     1      -1.033  10.922   5.367  1.00  0.00    -0.744 OA
ENDBRANCH  69  72
ENDBRANCH  51  65
BRANCH  52  76
ATOM     76  C   UNL     1       3.366  10.037  -2.242  1.00  0.00     0.023 A 
ATOM     77  C   UNL     1       4.636  10.637  -2.110  1.00  0.00     0.012 A 
ATOM     78  C   UNL     1       3.268   8.645  -2.033  1.00  0.00     0.148 A 
ATOM     79  C   UNL     1       5.757   9.887  -1.732  1.00  0.00     0.002 A 
ATOM     80  C   UNL     1       4.386   7.902  -1.661  1.00  0.00     0.091 A 
ATOM     81  F   UNL     1       2.065   8.060  -2.096  1.00  0.00    -0.205 F 
ATOM     82  C   UNL     1       5.630   8.522  -1.495  1.00  0.00     0.022 A 
BRANCH  80  83
ATOM     83  S   UNL     1       4.274   6.145  -1.296  1.00  0.00     0.127 S 
ATOM     84  O   UNL     1       5.462   5.615  -1.967  1.00  0.00    -0.237 OA
ATOM     85  O   UNL     1       4.338   6.138   0.163  1.00  0.00    -0.237 OA
ATOM     86  O   UNL     1       3.013   5.702  -1.878  1.00  0.00    -0.744 OA
ENDBRANCH  80  83
ENDBRANCH  52  76
BRANCH  64  87
ATOM     87  C   UNL     1       0.120  15.141  -3.542  1.00  0.00     0.023 A 
ATOM     88  C   UNL     1      -0.019  14.115  -4.500  1.00  0.00     0.012 A 
ATOM     89  C   UNL     1       0.081  16.478  -3.970  1.00  0.00     0.148 A 
ATOM     90  C   UNL     1      -0.169  14.416  -5.856  1.00  0.00     0.002 A 
ATOM     91  C   UNL     1      -0.125  16.774  -5.310  1.00  0.00     0.091 A 
ATOM     92  F   UNL     1       0.215  17.444  -3.047  1.00  0.00    -0.205 F 
ATOM     93  C   UNL     1      -0.239  15.746  -6.259  1.00  0.00     0.022 A 
BRANCH  91  94
ATOM     94  S   UNL     1      -0.369  18.463  -5.862  1.00  0.00     0.127 S 
ATOM     95  O   UNL     1       0.924  18.777  -6.466  1.00  0.00    -0.237 OA
ATOM     96  O   UNL     1      -1.474  18.329  -6.813  1.00  0.00    -0.237 OA
ATOM     97  O   UNL     1      -0.708  19.227  -4.667  1.00  0.00    -0.744 OA
ENDBRANCH  91  94
ENDBRANCH  64  87
ENDBRANCH  38  39
ENDBRANCH  30  33
ENDBRANCH  28  29
ENDBRANCH  27  28
ENDBRANCH   1  27
TORSDOF 18
