REMARK SMILES C[C@H](C(=O)NCCCCCCNC(=O)c1ccc(-c2c3nc(c(-c4cccc(S(=O)(=O)[O-])c4F)c4ccc([nH]4)c(-c4cccc(S(=O)(=O)[O-])c4F)c4nc(c(-c5cccc(S(=O)(=O)[O-])c5F)c5ccc2[nH]5)C=C4)C=C3)cc1)N1C(=O)C[C@@H](N2C(=O)/C(=C/c3ccccc3)SC2=S)C1=O
REMARK SMILES IDX 8 1 7 2 6 3 5 4 3 5 4 6 2 8 1 9 78 10 79 11 97 12 80 13
REMARK SMILES IDX 81 14 82 15 98 16 83 17 84 18 95 19 85 20 86 21 94 22 96 23
REMARK SMILES IDX 87 24 88 25 89 26 93 27 90 28 92 29 91 30 9 31 10 32 11 33
REMARK SMILES IDX 12 34 13 35 14 37 15 38 16 39 77 40 17 41 76 42 18 43 19 44
REMARK SMILES IDX 20 45 70 46 21 47 75 48 69 49 71 50 22 51 74 52 68 53 67 54
REMARK SMILES IDX 23 56 55 57 35 58 54 59 36 60 39 61 53 62 72 63 37 64 38 65
REMARK SMILES IDX 52 67 73 68 40 69 24 70 25 71 33 72 26 73 28 74 34 75 27 76
REMARK SMILES IDX 29 77 30 78 31 79 32 80 56 81 57 82 65 83 58 84 60 85 66 86
REMARK SMILES IDX 59 87 61 88 62 89 63 90 64 91 41 92 42 93 50 94 43 95 45 96
REMARK SMILES IDX 51 97 44 98 46 99 47 100 48 101 49 102
REMARK H PARENT 5 7 12 36 71 55 39 66
REMARK Flexibility Score: inf
ROOT
ATOM      1  C   UNL     1      -0.757   2.245   3.060  1.00  0.00     0.002 C 
ENDROOT
BRANCH   1   2
ATOM      2  C   UNL     1      -1.011   2.256   1.548  1.00  0.00     0.021 C 
BRANCH   2   3
ATOM      3  C   UNL     1       0.278   2.232   0.729  1.00  0.00     0.116 C 
BRANCH   3   4
ATOM      4  N   UNL     1       0.893   0.921   0.789  1.00  0.00    -0.354 N 
ATOM      5  C   UNL     1       0.989  -0.040  -0.177  1.00  0.00     0.243 C 
ATOM      6  O   UNL     1       1.563  -1.088   0.123  1.00  0.00    -0.273 OA
ATOM      7  H   UNL     1       1.301   0.688   1.654  1.00  0.00     0.163 HD
BRANCH   5   8
ATOM      8  C   UNL     1       0.429   0.231  -1.587  1.00  0.00     0.179 C 
ATOM      9  C   UNL     1       1.008  -0.741  -2.615  1.00  0.00     0.042 C 
BRANCH   8  10
ATOM     10  N   UNL     1      -1.035   0.259  -1.578  1.00  0.00    -0.268 N 
ATOM     11  C   UNL     1      -1.759   1.386  -1.860  1.00  0.00     0.232 C 
ATOM     12  C   UNL     1      -1.838  -0.839  -1.424  1.00  0.00     0.253 C 
ATOM     13  O   UNL     1      -1.322   2.488  -2.153  1.00  0.00    -0.274 OA
ATOM     14  C   UNL     1      -3.220   1.099  -1.689  1.00  0.00     0.136 C 
ATOM     15  C   UNL     1      -3.279  -0.418  -1.649  1.00  0.00     0.191 C 
ATOM     16  O   UNL     1      -1.489  -1.996  -1.238  1.00  0.00    -0.272 OA
BRANCH  15  17
ATOM     17  N   UNL     1      -3.817  -1.042  -2.870  1.00  0.00    -0.280 N 
ATOM     18  C   UNL     1      -3.256  -0.726  -4.097  1.00  0.00     0.266 C 
ATOM     19  C   UNL     1      -4.868  -1.936  -2.901  1.00  0.00     0.149 C 
ATOM     20  O   UNL     1      -2.271  -0.027  -4.272  1.00  0.00    -0.268 OA
ATOM     21  C   UNL     1      -4.020  -1.348  -5.202  1.00  0.00     0.081 C 
ATOM     22  S   UNL     1      -5.243  -2.365  -4.569  1.00  0.00    -0.054 SA
ATOM     23  S   UNL     1      -5.746  -2.545  -1.621  1.00  0.00    -0.052 S 
ATOM     24  C   UNL     1      -3.732  -1.063  -6.478  1.00  0.00     0.029 C 
BRANCH  24  25
ATOM     25  C   UNL     1      -4.463  -1.538  -7.655  1.00  0.00    -0.024 A 
ATOM     26  C   UNL     1      -3.798  -2.298  -8.622  1.00  0.00     0.008 A 
ATOM     27  C   UNL     1      -5.803  -1.189  -7.856  1.00  0.00     0.008 A 
ATOM     28  C   UNL     1      -4.476  -2.728  -9.764  1.00  0.00     0.001 A 
ATOM     29  C   UNL     1      -6.480  -1.621  -8.996  1.00  0.00     0.001 A 
ATOM     30  C   UNL     1      -5.817  -2.393  -9.948  1.00  0.00     0.000 A 
ENDBRANCH  24  25
ENDBRANCH  15  17
ENDBRANCH   8  10
ENDBRANCH   5   8
ENDBRANCH   3   4
ENDBRANCH   2   3
ENDBRANCH   1   2
BRANCH   1  31
ATOM     31  C   UNL     1       0.090   3.417   3.571  1.00  0.00     0.002 C 
BRANCH  31  32
ATOM     32  C   UNL     1      -0.462   4.802   3.224  1.00  0.00     0.021 C 
BRANCH  32  33
ATOM     33  C   UNL     1      -1.843   5.081   3.804  1.00  0.00     0.116 C 
BRANCH  33  34
ATOM     34  N   UNL     1      -1.826   5.055   5.258  1.00  0.00    -0.352 N 
ATOM     35  C   UNL     1      -2.278   5.997   6.145  1.00  0.00     0.251 C 
ATOM     36  H   UNL     1      -1.435   4.247   5.662  1.00  0.00     0.163 HD
ATOM     37  O   UNL     1      -1.971   5.917   7.331  1.00  0.00    -0.269 OA
BRANCH  35  38
ATOM     38  C   UNL     1      -3.132   7.106   5.669  1.00  0.00     0.039 A 
ATOM     39  C   UNL     1      -2.929   8.387   6.184  1.00  0.00     0.014 A 
ATOM     40  C   UNL     1      -4.151   6.874   4.740  1.00  0.00     0.014 A 
ATOM     41  C   UNL     1      -3.738   9.440   5.754  1.00  0.00     0.010 A 
ATOM     42  C   UNL     1      -4.895   7.939   4.247  1.00  0.00     0.010 A 
ATOM     43  C   UNL     1      -4.722   9.226   4.774  1.00  0.00    -0.014 A 
BRANCH  43  44
ATOM     44  C   UNL     1      -5.611  10.328   4.329  1.00  0.00     0.031 A 
ATOM     45  C   UNL     1      -7.096  10.238   4.565  1.00  0.00     0.074 A 
ATOM     46  C   UNL     1      -5.094  11.382   3.668  1.00  0.00     0.049 A 
ATOM     47  N   UNL     1      -8.036  11.089   4.244  1.00  0.00    -0.248 NA
ATOM     48  C   UNL     1      -7.598   9.018   5.221  1.00  0.00     0.031 C 
ATOM     49  C   UNL     1      -3.683  11.550   3.314  1.00  0.00     0.029 A 
ATOM     50  N   UNL     1      -5.699  12.504   3.162  1.00  0.00    -0.354 N 
ATOM     51  C   UNL     1      -9.234  10.492   4.617  1.00  0.00     0.074 A 
ATOM     52  C   UNL     1      -8.909   9.190   5.152  1.00  0.00     0.031 C 
ATOM     53  C   UNL     1      -3.528  12.716   2.666  1.00  0.00     0.029 A 
ATOM     54  C   UNL     1      -4.829  13.363   2.532  1.00  0.00     0.049 A 
ATOM     55  H   UNL     1      -6.664  12.678   3.242  1.00  0.00     0.167 HD
ATOM     56  C   UNL     1     -10.491  10.992   4.550  1.00  0.00     0.034 A 
ATOM     57  C   UNL     1      -5.057  14.540   1.917  1.00  0.00     0.034 A 
ATOM     58  C   UNL     1     -10.803  12.307   4.060  1.00  0.00     0.049 A 
ATOM     59  C   UNL     1      -6.456  15.094   1.897  1.00  0.00     0.074 A 
ATOM     60  C   UNL     1     -12.030  12.947   4.035  1.00  0.00     0.029 A 
ATOM     61  N   UNL     1      -9.885  13.180   3.498  1.00  0.00    -0.354 N 
ATOM     62  N   UNL     1      -7.555  14.583   2.396  1.00  0.00    -0.248 NA
ATOM     63  C   UNL     1      -6.639  16.410   1.267  1.00  0.00     0.031 C 
ATOM     64  C   UNL     1     -11.859  14.192   3.423  1.00  0.00     0.029 A 
ATOM     65  C   UNL     1     -10.518  14.348   3.112  1.00  0.00     0.049 A 
ATOM     66  H   UNL     1      -8.924  12.996   3.390  1.00  0.00     0.167 HD
ATOM     67  C   UNL     1      -8.548  15.533   2.186  1.00  0.00     0.074 A 
ATOM     68  C   UNL     1      -7.915  16.657   1.526  1.00  0.00     0.031 C 
ATOM     69  C   UNL     1      -9.865  15.480   2.506  1.00  0.00     0.034 A 
BRANCH  56  70
ATOM     70  C   UNL     1     -11.620  10.126   5.048  1.00  0.00     0.023 A 
ATOM     71  C   UNL     1     -11.741   9.850   6.425  1.00  0.00     0.012 A 
ATOM     72  C   UNL     1     -12.589   9.626   4.156  1.00  0.00     0.148 A 
ATOM     73  C   UNL     1     -12.783   9.055   6.902  1.00  0.00     0.002 A 
ATOM     74  C   UNL     1     -13.654   8.879   4.645  1.00  0.00     0.091 A 
ATOM     75  F   UNL     1     -12.446   9.881   2.848  1.00  0.00    -0.205 F 
ATOM     76  C   UNL     1     -13.744   8.580   6.015  1.00  0.00     0.022 A 
BRANCH  74  77
ATOM     77  S   UNL     1     -14.989   8.294   3.596  1.00  0.00     0.127 S 
ATOM     78  O   UNL     1     -14.750   6.852   3.592  1.00  0.00    -0.237 OA
ATOM     79  O   UNL     1     -16.174   8.714   4.345  1.00  0.00    -0.237 OA
ATOM     80  O   UNL     1     -14.813   8.959   2.312  1.00  0.00    -0.744 OA
ENDBRANCH  74  77
ENDBRANCH  56  70
BRANCH  57  81
ATOM     81  C   UNL     1      -3.922  15.313   1.337  1.00  0.00     0.023 A 
ATOM     82  C   UNL     1      -3.526  16.522   1.943  1.00  0.00     0.012 A 
ATOM     83  C   UNL     1      -3.229  14.856   0.201  1.00  0.00     0.148 A 
ATOM     84  C   UNL     1      -2.488  17.282   1.404  1.00  0.00     0.002 A 
ATOM     85  C   UNL     1      -2.159  15.589  -0.298  1.00  0.00     0.091 A 
ATOM     86  F   UNL     1      -3.624  13.706  -0.364  1.00  0.00    -0.205 F 
ATOM     87  C   UNL     1      -1.800  16.813   0.289  1.00  0.00     0.022 A 
BRANCH  85  88
ATOM     88  S   UNL     1      -1.135  15.004  -1.652  1.00  0.00     0.127 S 
ATOM     89  O   UNL     1      -1.465  15.955  -2.710  1.00  0.00    -0.237 OA
ATOM     90  O   UNL     1       0.210  15.144  -1.093  1.00  0.00    -0.237 OA
ATOM     91  O   UNL     1      -1.546  13.627  -1.891  1.00  0.00    -0.744 OA
ENDBRANCH  85  88
ENDBRANCH  57  81
BRANCH  69  92
ATOM     92  C   UNL     1     -10.706  16.695   2.210  1.00  0.00     0.023 A 
ATOM     93  C   UNL     1     -11.018  17.040   0.881  1.00  0.00     0.012 A 
ATOM     94  C   UNL     1     -11.241  17.459   3.267  1.00  0.00     0.148 A 
ATOM     95  C   UNL     1     -11.811  18.153   0.606  1.00  0.00     0.002 A 
ATOM     96  C   UNL     1     -12.078  18.532   2.987  1.00  0.00     0.091 A 
ATOM     97  F   UNL     1     -10.919  17.126   4.525  1.00  0.00    -0.205 F 
ATOM     98  C   UNL     1     -12.351  18.891   1.658  1.00  0.00     0.022 A 
BRANCH  96  99
ATOM     99  S   UNL     1     -12.900  19.469   4.280  1.00  0.00     0.127 S 
ATOM    100  O   UNL     1     -12.155  20.727   4.256  1.00  0.00    -0.237 OA
ATOM    101  O   UNL     1     -14.269  19.562   3.772  1.00  0.00    -0.237 OA
ATOM    102  O   UNL     1     -12.760  18.682   5.497  1.00  0.00    -0.744 OA
ENDBRANCH  96  99
ENDBRANCH  69  92
ENDBRANCH  43  44
ENDBRANCH  35  38
ENDBRANCH  33  34
ENDBRANCH  32  33
ENDBRANCH  31  32
ENDBRANCH   1  31
TORSDOF 19
