REMARK SMILES COc1cc(/C=C2\SC(=S)N(CC(=O)NCCCCCCNC(=O)c3ccc(-c4c5nc(c(-c6cccc(S(=O)(=O)[O-])c6F)c6ccc([nH]6)c(-c6cccc(S(=O)(=O)[O-])c6F)c6nc(c(-c7cccc(S(=O)(=O)[O-])c7F)c7ccc4[nH]7)C=C6)C=C5)cc3)C2=O)cc2c1OCO2
REMARK SMILES IDX 18 1 17 2 16 3 15 4 13 5 14 6 12 8 11 9 6 10 7 11 8 12 88 13
REMARK SMILES IDX 9 14 89 15 10 16 5 17 3 18 4 19 92 20 91 21 93 22 90 23
REMARK SMILES IDX 95 24 94 25 2 26 1 27 19 28 20 29 21 30 22 31 23 32 24 34
REMARK SMILES IDX 25 35 26 36 87 37 27 38 86 39 28 40 29 41 30 42 80 43 31 44
REMARK SMILES IDX 85 45 79 46 81 47 32 48 84 49 78 50 77 51 33 53 65 54 45 55
REMARK SMILES IDX 64 56 46 57 49 58 63 59 82 60 47 61 48 62 62 64 83 65 50 66
REMARK SMILES IDX 34 67 35 68 43 69 36 70 38 71 44 72 37 73 39 74 40 75 41 76
REMARK SMILES IDX 42 77 66 78 67 79 75 80 68 81 70 82 76 83 69 84 71 85 72 86
REMARK SMILES IDX 73 87 74 88 51 89 52 90 60 91 53 92 55 93 61 94 54 95 56 96
REMARK SMILES IDX 57 97 58 98 59 99
REMARK H PARENT 15 7 22 33 81 52 49 63
REMARK Flexibility Score: inf
ROOT
ATOM      1  C   UNL     1      -3.739   6.987   4.835  1.00  0.00     0.002 C 
ENDROOT
BRANCH   1   2
ATOM      2  C   UNL     1      -2.504   6.463   5.581  1.00  0.00     0.021 C 
BRANCH   2   3
ATOM      3  C   UNL     1      -2.485   6.820   7.065  1.00  0.00     0.116 C 
BRANCH   3   4
ATOM      4  N   UNL     1      -3.499   6.094   7.800  1.00  0.00    -0.355 N 
ATOM      5  C   UNL     1      -3.384   5.133   8.758  1.00  0.00     0.240 C 
ATOM      6  O   UNL     1      -4.412   4.829   9.373  1.00  0.00    -0.273 OA
ATOM      7  H   UNL     1      -4.425   6.335   7.569  1.00  0.00     0.163 HD
BRANCH   5   8
ATOM      8  C   UNL     1      -2.023   4.587   9.206  1.00  0.00     0.227 C 
BRANCH   8   9
ATOM      9  N   UNL     1      -1.131   4.162   8.130  1.00  0.00    -0.283 N 
ATOM     10  C   UNL     1      -0.608   1.734   5.498  1.00  0.00     0.029 C 
ATOM     11  C   UNL     1      -0.477   2.756   6.356  1.00  0.00     0.081 C 
ATOM     12  S   UNL     1       0.838   3.850   6.507  1.00  0.00    -0.054 SA
ATOM     13  C   UNL     1      -1.526   3.082   7.357  1.00  0.00     0.266 C 
ATOM     14  C   UNL     1       0.151   4.627   7.924  1.00  0.00     0.148 C 
ATOM     15  O   UNL     1      -2.562   2.452   7.481  1.00  0.00    -0.268 OA
ATOM     16  S   UNL     1       1.017   5.726   8.831  1.00  0.00    -0.052 S 
BRANCH  10  17
ATOM     17  C   UNL     1       0.386   1.334   4.495  1.00  0.00    -0.017 A 
ATOM     18  C   UNL     1       0.935   0.935   2.140  1.00  0.00     0.165 A 
ATOM     19  C   UNL     1       0.015   1.296   3.136  1.00  0.00     0.058 A 
ATOM     20  C   UNL     1       2.231   0.657   2.534  1.00  0.00     0.207 A 
ATOM     21  C   UNL     1       2.587   0.680   3.866  1.00  0.00     0.170 A 
ATOM     22  O   UNL     1       3.300   0.361   1.744  1.00  0.00    -0.450 OA
ATOM     23  C   UNL     1       1.689   0.984   4.866  1.00  0.00     0.059 A 
ATOM     24  O   UNL     1       3.903   0.395   4.067  1.00  0.00    -0.453 OA
ATOM     25  C   UNL     1       4.370   0.332   2.707  1.00  0.00     0.468 C 
BRANCH  18  26
ATOM     26  O   UNL     1       0.446   0.953   0.866  1.00  0.00    -0.493 OA
ATOM     27  C   UNL     1       1.043   0.021  -0.030  1.00  0.00     0.278 C 
ENDBRANCH  18  26
ENDBRANCH  10  17
ENDBRANCH   8   9
ENDBRANCH   5   8
ENDBRANCH   3   4
ENDBRANCH   2   3
ENDBRANCH   1   2
BRANCH   1  28
ATOM     28  C   UNL     1      -3.944   8.505   4.902  1.00  0.00     0.002 C 
BRANCH  28  29
ATOM     29  C   UNL     1      -2.755   9.342   4.424  1.00  0.00     0.021 C 
BRANCH  29  30
ATOM     30  C   UNL     1      -2.347   9.095   2.975  1.00  0.00     0.116 C 
BRANCH  30  31
ATOM     31  N   UNL     1      -3.409   9.447   2.044  1.00  0.00    -0.352 N 
ATOM     32  C   UNL     1      -3.372  10.294   0.964  1.00  0.00     0.251 C 
ATOM     33  H   UNL     1      -4.278   9.016   2.212  1.00  0.00     0.163 HD
ATOM     34  O   UNL     1      -4.417  10.632   0.415  1.00  0.00    -0.269 OA
BRANCH  32  35
ATOM     35  C   UNL     1      -2.075  10.809   0.476  1.00  0.00     0.039 A 
ATOM     36  C   UNL     1      -1.965  12.162   0.145  1.00  0.00     0.014 A 
ATOM     37  C   UNL     1      -0.973   9.960   0.338  1.00  0.00     0.014 A 
ATOM     38  C   UNL     1      -0.734  12.674  -0.272  1.00  0.00     0.010 A 
ATOM     39  C   UNL     1       0.269  10.488  -0.003  1.00  0.00     0.010 A 
ATOM     40  C   UNL     1       0.402  11.848  -0.320  1.00  0.00    -0.014 A 
BRANCH  40  41
ATOM     41  C   UNL     1       1.735  12.392  -0.686  1.00  0.00     0.031 A 
ATOM     42  C   UNL     1       2.455  11.885  -1.908  1.00  0.00     0.074 A 
ATOM     43  C   UNL     1       2.337  13.281   0.130  1.00  0.00     0.049 A 
ATOM     44  N   UNL     1       3.641  12.204  -2.356  1.00  0.00    -0.248 NA
ATOM     45  C   UNL     1       1.765  10.867  -2.719  1.00  0.00     0.031 C 
ATOM     46  C   UNL     1       1.780  13.789   1.386  1.00  0.00     0.029 A 
ATOM     47  N   UNL     1       3.564  13.892   0.042  1.00  0.00    -0.354 N 
ATOM     48  C   UNL     1       3.858  11.399  -3.468  1.00  0.00     0.074 A 
ATOM     49  C   UNL     1       2.690  10.560  -3.616  1.00  0.00     0.031 C 
ATOM     50  C   UNL     1       2.659  14.632   1.950  1.00  0.00     0.029 A 
ATOM     51  C   UNL     1       3.856  14.700   1.117  1.00  0.00     0.049 A 
ATOM     52  H   UNL     1       4.176  13.765  -0.718  1.00  0.00     0.167 HD
ATOM     53  C   UNL     1       4.924  11.376  -4.303  1.00  0.00     0.034 A 
ATOM     54  C   UNL     1       4.968  15.403   1.409  1.00  0.00     0.034 A 
ATOM     55  C   UNL     1       6.063  12.245  -4.180  1.00  0.00     0.049 A 
ATOM     56  C   UNL     1       6.118  15.390   0.438  1.00  0.00     0.074 A 
ATOM     57  C   UNL     1       7.139  12.376  -5.040  1.00  0.00     0.029 A 
ATOM     58  N   UNL     1       6.285  13.117  -3.126  1.00  0.00    -0.354 N 
ATOM     59  N   UNL     1       6.226  14.758  -0.706  1.00  0.00    -0.248 NA
ATOM     60  C   UNL     1       7.286  16.216   0.778  1.00  0.00     0.031 C 
ATOM     61  C   UNL     1       8.032  13.297  -4.484  1.00  0.00     0.029 A 
ATOM     62  C   UNL     1       7.491  13.772  -3.301  1.00  0.00     0.049 A 
ATOM     63  H   UNL     1       5.675  13.250  -2.365  1.00  0.00     0.167 HD
ATOM     64  C   UNL     1       7.451  15.141  -1.238  1.00  0.00     0.074 A 
ATOM     65  C   UNL     1       8.040  16.077  -0.304  1.00  0.00     0.031 C 
ATOM     66  C   UNL     1       8.043  14.743  -2.392  1.00  0.00     0.034 A 
BRANCH  53  67
ATOM     67  C   UNL     1       4.903  10.403  -5.453  1.00  0.00     0.023 A 
ATOM     68  C   UNL     1       4.034  10.620  -6.541  1.00  0.00     0.012 A 
ATOM     69  C   UNL     1       5.806   9.322  -5.494  1.00  0.00     0.148 A 
ATOM     70  C   UNL     1       4.042   9.759  -7.638  1.00  0.00     0.002 A 
ATOM     71  C   UNL     1       5.842   8.497  -6.611  1.00  0.00     0.091 A 
ATOM     72  F   UNL     1       6.611   9.121  -4.441  1.00  0.00    -0.205 F 
ATOM     73  C   UNL     1       4.954   8.707  -7.679  1.00  0.00     0.022 A 
BRANCH  71  74
ATOM     74  S   UNL     1       7.035   7.168  -6.798  1.00  0.00     0.127 S 
ATOM     75  O   UNL     1       6.175   5.987  -6.729  1.00  0.00    -0.237 OA
ATOM     76  O   UNL     1       7.591   7.439  -8.124  1.00  0.00    -0.237 OA
ATOM     77  O   UNL     1       7.980   7.315  -5.700  1.00  0.00    -0.744 OA
ENDBRANCH  71  74
ENDBRANCH  53  67
BRANCH  54  78
ATOM     78  C   UNL     1       5.038  16.216   2.658  1.00  0.00     0.023 A 
ATOM     79  C   UNL     1       5.069  17.622   2.573  1.00  0.00     0.012 A 
ATOM     80  C   UNL     1       5.073  15.604   3.926  1.00  0.00     0.148 A 
ATOM     81  C   UNL     1       5.181  18.402   3.724  1.00  0.00     0.002 A 
ATOM     82  C   UNL     1       5.124  16.389   5.072  1.00  0.00     0.091 A 
ATOM     83  F   UNL     1       5.053  14.266   3.987  1.00  0.00    -0.205 F 
ATOM     84  C   UNL     1       5.199  17.787   4.973  1.00  0.00     0.022 A 
BRANCH  82  85
ATOM     85  S   UNL     1       5.016  15.687   6.721  1.00  0.00     0.127 S 
ATOM     86  O   UNL     1       6.380  15.866   7.212  1.00  0.00    -0.237 OA
ATOM     87  O   UNL     1       4.016  16.549   7.352  1.00  0.00    -0.237 OA
ATOM     88  O   UNL     1       4.584  14.309   6.533  1.00  0.00    -0.744 OA
ENDBRANCH  82  85
ENDBRANCH  54  78
BRANCH  66  89
ATOM     89  C   UNL     1       9.375  15.351  -2.743  1.00  0.00     0.023 A 
ATOM     90  C   UNL     1      10.528  14.998  -2.014  1.00  0.00     0.012 A 
ATOM     91  C   UNL     1       9.494  16.220  -3.846  1.00  0.00     0.148 A 
ATOM     92  C   UNL     1      11.772  15.528  -2.356  1.00  0.00     0.002 A 
ATOM     93  C   UNL     1      10.745  16.700  -4.214  1.00  0.00     0.091 A 
ATOM     94  F   UNL     1       8.383  16.557  -4.517  1.00  0.00    -0.205 F 
ATOM     95  C   UNL     1      11.882  16.367  -3.462  1.00  0.00     0.022 A 
BRANCH  93  96
ATOM     96  S   UNL     1      10.997  17.704  -5.682  1.00  0.00     0.127 S 
ATOM     97  O   UNL     1      11.302  19.010  -5.101  1.00  0.00    -0.237 OA
ATOM     98  O   UNL     1      12.135  17.039  -6.319  1.00  0.00    -0.237 OA
ATOM     99  O   UNL     1       9.754  17.632  -6.439  1.00  0.00    -0.744 OA
ENDBRANCH  93  96
ENDBRANCH  66  89
ENDBRANCH  40  41
ENDBRANCH  32  35
ENDBRANCH  30  31
ENDBRANCH  29  30
ENDBRANCH  28  29
ENDBRANCH   1  28
TORSDOF 19
