REMARK SMILES Cn1ccnc(N[C@H]2C=C[C@H](C(=O)NCCCCCCNC(=O)c3ccc(-c4c5nc(c(-c6cccc(S(=O)(=O)[O-])c6F)c6ccc([nH]6)c(-c6cccc(S(=O)(=O)[O-])c6F)c6nc(c(-c7cccc(S(=O)(=O)[O-])c7F)c7ccc4[nH]7)C=C6)C=C5)cc3)C2)c1=O
REMARK SMILES IDX 18 1 17 2 16 3 15 4 14 5 12 6 13 7 11 9 8 10 9 11 87 12
REMARK SMILES IDX 10 13 7 14 6 16 1 17 2 18 3 19 88 20 4 21 89 22 5 23 19 24
REMARK SMILES IDX 20 25 21 26 22 27 23 29 24 30 25 31 86 32 26 33 85 34 27 35
REMARK SMILES IDX 28 36 29 37 79 38 30 39 84 40 78 41 80 42 31 43 83 44 77 45
REMARK SMILES IDX 76 46 32 48 64 49 44 50 63 51 45 52 48 53 62 54 81 55 46 56
REMARK SMILES IDX 47 57 61 59 82 60 49 61 33 62 34 63 42 64 35 65 37 66 43 67
REMARK SMILES IDX 36 68 38 69 39 70 40 71 41 72 65 73 66 74 74 75 67 76 69 77
REMARK SMILES IDX 75 78 68 79 70 80 71 81 72 82 73 83 50 84 51 85 59 86 52 87
REMARK SMILES IDX 54 88 60 89 53 90 55 91 56 92 57 93 58 94
REMARK H PARENT 14 8 7 15 21 28 80 47 48 58
REMARK Flexibility Score: inf
ROOT
ATOM      1  C   UNL     1      -8.100  -5.314   0.029  1.00  0.00     0.002 C 
ENDROOT
BRANCH   1   2
ATOM      2  C   UNL     1      -7.755  -4.530  -1.240  1.00  0.00     0.002 C 
BRANCH   2   3
ATOM      3  C   UNL     1      -6.823  -3.334  -1.030  1.00  0.00     0.021 C 
BRANCH   3   4
ATOM      4  C   UNL     1      -5.511  -3.671  -0.329  1.00  0.00     0.116 C 
BRANCH   4   5
ATOM      5  N   UNL     1      -4.729  -4.645  -1.073  1.00  0.00    -0.356 N 
ATOM      6  C   UNL     1      -3.378  -4.663  -1.287  1.00  0.00     0.227 C 
ATOM      7  O   UNL     1      -2.886  -5.620  -1.885  1.00  0.00    -0.274 OA
ATOM      8  H   UNL     1      -5.237  -5.387  -1.475  1.00  0.00     0.163 HD
BRANCH   6   9
ATOM      9  C   UNL     1      -2.561  -3.486  -0.768  1.00  0.00     0.103 C 
ATOM     10  C   UNL     1      -0.208  -3.568  -0.079  1.00  0.00     0.104 C 
ATOM     11  C   UNL     1      -1.113  -3.617   1.096  1.00  0.00    -0.006 C 
ATOM     12  C   UNL     1      -1.117  -3.436  -1.301  1.00  0.00     0.046 C 
ATOM     13  C   UNL     1      -2.396  -3.599   0.725  1.00  0.00    -0.016 C 
BRANCH  10  14
ATOM     14  N   UNL     1       0.775  -2.528   0.051  1.00  0.00    -0.359 N 
ATOM     15  H   UNL     1       1.693  -2.870   0.154  1.00  0.00     0.162 HD
BRANCH  14  16
ATOM     16  C   UNL     1       0.700  -1.152   0.060  1.00  0.00     0.193 A 
ATOM     17  C   UNL     1      -1.639   1.897   0.034  1.00  0.00     0.153 C 
ATOM     18  N   UNL     1      -0.455   1.061   0.041  1.00  0.00    -0.314 N 
ATOM     19  C   UNL     1       0.803   1.606   0.035  1.00  0.00     0.109 A 
ATOM     20  C   UNL     1      -0.627  -0.320   0.057  1.00  0.00     0.293 A 
ATOM     21  C   UNL     1       1.884   0.821   0.049  1.00  0.00     0.131 A 
ATOM     22  O   UNL     1      -1.731  -0.846   0.051  1.00  0.00    -0.265 OA
ATOM     23  N   UNL     1       1.869  -0.547   0.062  1.00  0.00    -0.233 NA
ENDBRANCH  14  16
ENDBRANCH  10  14
ENDBRANCH   6   9
ENDBRANCH   4   5
ENDBRANCH   3   4
ENDBRANCH   2   3
ENDBRANCH   1   2
BRANCH   1  24
ATOM     24  C   UNL     1      -8.731  -4.486   1.151  1.00  0.00     0.021 C 
BRANCH  24  25
ATOM     25  C   UNL     1      -9.981  -3.713   0.747  1.00  0.00     0.116 C 
BRANCH  25  26
ATOM     26  N   UNL     1     -11.042  -4.589   0.275  1.00  0.00    -0.352 N 
ATOM     27  C   UNL     1     -12.357  -4.646   0.665  1.00  0.00     0.251 C 
ATOM     28  H   UNL     1     -10.781  -5.231  -0.424  1.00  0.00     0.163 HD
ATOM     29  O   UNL     1     -13.071  -5.570   0.288  1.00  0.00    -0.269 OA
BRANCH  27  30
ATOM     30  C   UNL     1     -12.901  -3.601   1.559  1.00  0.00     0.039 A 
ATOM     31  C   UNL     1     -13.688  -3.985   2.646  1.00  0.00     0.014 A 
ATOM     32  C   UNL     1     -12.628  -2.249   1.329  1.00  0.00     0.014 A 
ATOM     33  C   UNL     1     -14.155  -3.016   3.536  1.00  0.00     0.010 A 
ATOM     34  C   UNL     1     -13.027  -1.295   2.260  1.00  0.00     0.010 A 
ATOM     35  C   UNL     1     -13.801  -1.666   3.370  1.00  0.00    -0.014 A 
BRANCH  35  36
ATOM     36  C   UNL     1     -14.220  -0.634   4.353  1.00  0.00     0.031 A 
ATOM     37  C   UNL     1     -15.105   0.507   3.928  1.00  0.00     0.074 A 
ATOM     38  C   UNL     1     -13.742  -0.682   5.613  1.00  0.00     0.049 A 
ATOM     39  N   UNL     1     -15.533   1.523   4.630  1.00  0.00    -0.248 NA
ATOM     40  C   UNL     1     -15.547   0.523   2.523  1.00  0.00     0.031 C 
ATOM     41  C   UNL     1     -12.816  -1.694   6.128  1.00  0.00     0.029 A 
ATOM     42  N   UNL     1     -13.945   0.155   6.682  1.00  0.00    -0.354 N 
ATOM     43  C   UNL     1     -16.262   2.315   3.751  1.00  0.00     0.074 A 
ATOM     44  C   UNL     1     -16.191   1.680   2.454  1.00  0.00     0.031 C 
ATOM     45  C   UNL     1     -12.538  -1.422   7.413  1.00  0.00     0.029 A 
ATOM     46  C   UNL     1     -13.232  -0.200   7.804  1.00  0.00     0.049 A 
ATOM     47  H   UNL     1     -14.545   0.935   6.649  1.00  0.00     0.167 HD
ATOM     48  C   UNL     1     -16.950   3.453   4.004  1.00  0.00     0.034 A 
ATOM     49  C   UNL     1     -13.135   0.399   9.007  1.00  0.00     0.034 A 
ATOM     50  C   UNL     1     -17.047   4.064   5.303  1.00  0.00     0.049 A 
ATOM     51  C   UNL     1     -13.931   1.650   9.268  1.00  0.00     0.074 A 
ATOM     52  C   UNL     1     -17.790   5.169   5.678  1.00  0.00     0.029 A 
ATOM     53  N   UNL     1     -16.371   3.634   6.433  1.00  0.00    -0.354 N 
ATOM     54  N   UNL     1     -14.739   2.296   8.464  1.00  0.00    -0.248 NA
ATOM     55  C   UNL     1     -13.829   2.234  10.613  1.00  0.00     0.031 C 
ATOM     56  C   UNL     1     -17.533   5.431   7.028  1.00  0.00     0.029 A 
ATOM     57  C   UNL     1     -16.665   4.461   7.504  1.00  0.00     0.049 A 
ATOM     58  H   UNL     1     -15.769   2.856   6.470  1.00  0.00     0.167 HD
ATOM     59  C   UNL     1     -15.271   3.338   9.215  1.00  0.00     0.074 A 
ATOM     60  C   UNL     1     -14.709   3.223  10.545  1.00  0.00     0.031 C 
ATOM     61  C   UNL     1     -16.139   4.308   8.836  1.00  0.00     0.034 A 
BRANCH  48  62
ATOM     62  C   UNL     1     -17.690   4.098   2.860  1.00  0.00     0.023 A 
ATOM     63  C   UNL     1     -18.837   3.474   2.327  1.00  0.00     0.012 A 
ATOM     64  C   UNL     1     -17.292   5.353   2.359  1.00  0.00     0.148 A 
ATOM     65  C   UNL     1     -19.555   4.071   1.292  1.00  0.00     0.002 A 
ATOM     66  C   UNL     1     -18.041   5.965   1.361  1.00  0.00     0.091 A 
ATOM     67  F   UNL     1     -16.189   5.923   2.865  1.00  0.00    -0.205 F 
ATOM     68  C   UNL     1     -19.164   5.320   0.818  1.00  0.00     0.022 A 
BRANCH  66  69
ATOM     69  S   UNL     1     -17.672   7.609   0.740  1.00  0.00     0.127 S 
ATOM     70  O   UNL     1     -17.241   7.318  -0.627  1.00  0.00    -0.237 OA
ATOM     71  O   UNL     1     -18.971   8.274   0.842  1.00  0.00    -0.237 OA
ATOM     72  O   UNL     1     -16.640   8.149   1.614  1.00  0.00    -0.744 OA
ENDBRANCH  66  69
ENDBRANCH  48  62
BRANCH  49  73
ATOM     73  C   UNL     1     -12.286  -0.201  10.075  1.00  0.00     0.023 A 
ATOM     74  C   UNL     1     -12.894  -0.756  11.219  1.00  0.00     0.012 A 
ATOM     75  C   UNL     1     -10.883  -0.233   9.960  1.00  0.00     0.148 A 
ATOM     76  C   UNL     1     -12.118  -1.295  12.246  1.00  0.00     0.002 A 
ATOM     77  C   UNL     1     -10.119  -0.824  10.959  1.00  0.00     0.091 A 
ATOM     78  F   UNL     1     -10.323   0.309   8.869  1.00  0.00    -0.205 F 
ATOM     79  C   UNL     1     -10.733  -1.338  12.112  1.00  0.00     0.022 A 
BRANCH  77  80
ATOM     80  S   UNL     1      -8.342  -1.040  10.812  1.00  0.00     0.127 S 
ATOM     81  O   UNL     1      -7.844  -0.113  11.825  1.00  0.00    -0.237 OA
ATOM     82  O   UNL     1      -8.184  -2.457  11.141  1.00  0.00    -0.237 OA
ATOM     83  O   UNL     1      -8.017  -0.704   9.433  1.00  0.00    -0.744 OA
ENDBRANCH  77  80
ENDBRANCH  49  73
BRANCH  61  84
ATOM     84  C   UNL     1     -16.579   5.302   9.880  1.00  0.00     0.023 A 
ATOM     85  C   UNL     1     -15.678   6.273  10.358  1.00  0.00     0.012 A 
ATOM     86  C   UNL     1     -17.914   5.315  10.332  1.00  0.00     0.148 A 
ATOM     87  C   UNL     1     -16.087   7.217  11.299  1.00  0.00     0.002 A 
ATOM     88  C   UNL     1     -18.329   6.293  11.227  1.00  0.00     0.091 A 
ATOM     89  F   UNL     1     -18.753   4.373   9.877  1.00  0.00    -0.205 F 
ATOM     90  C   UNL     1     -17.414   7.235  11.724  1.00  0.00     0.022 A 
BRANCH  88  91
ATOM     91  S   UNL     1     -20.039   6.456  11.753  1.00  0.00     0.127 S 
ATOM     92  O   UNL     1     -19.961   6.042  13.153  1.00  0.00    -0.237 OA
ATOM     93  O   UNL     1     -20.288   7.884  11.551  1.00  0.00    -0.237 OA
ATOM     94  O   UNL     1     -20.813   5.578  10.886  1.00  0.00    -0.744 OA
ENDBRANCH  88  91
ENDBRANCH  61  84
ENDBRANCH  35  36
ENDBRANCH  27  30
ENDBRANCH  25  26
ENDBRANCH  24  25
ENDBRANCH   1  24
TORSDOF 18
