REMARK SMILES Cc1ccc(-c2nn(CCC(=O)NCCCCCCNC(=O)c3ccc(-c4c5nc(c(-c6cccc(S(=O)(=O)[O-])c6F)c6ccc([nH]6)c(-c6cccc(S(=O)(=O)[O-])c6F)c6nc(c(-c7cccc(S(=O)(=O)[O-])c7F)c7ccc4[nH]7)C=C6)C=C5)cc3)c(=O)c3noc(C)c23)cc1C
REMARK SMILES IDX 16 1 15 2 14 3 13 4 11 5 12 6 10 8 9 9 8 10 6 11 7 12 93 13
REMARK SMILES IDX 88 14 91 15 86 16 89 17 90 18 92 19 87 20 5 21 1 22 2 23
REMARK SMILES IDX 3 24 95 25 4 26 94 27 96 28 17 29 18 30 19 31 20 32 21 33
REMARK SMILES IDX 22 35 23 36 24 37 85 38 25 39 84 40 26 41 27 42 28 43 78 44
REMARK SMILES IDX 29 45 83 46 77 47 79 48 30 49 82 50 76 51 75 52 31 54 63 55
REMARK SMILES IDX 43 56 62 57 44 58 47 59 61 60 80 61 45 62 46 63 60 65 81 66
REMARK SMILES IDX 48 67 32 68 33 69 41 70 34 71 36 72 42 73 35 74 37 75 38 76
REMARK SMILES IDX 39 77 40 78 64 79 65 80 73 81 66 82 68 83 74 84 67 85 69 86
REMARK SMILES IDX 70 87 71 88 72 89 49 90 50 91 58 92 51 93 53 94 59 95 52 96
REMARK SMILES IDX 54 97 55 98 56 99 57 100
REMARK H PARENT 13 7 20 34 79 53 47 64
REMARK Flexibility Score: inf
ROOT
ATOM      1  C   UNL     1      -5.406  -5.370   2.152  1.00  0.00     0.002 C 
ENDROOT
BRANCH   1   2
ATOM      2  C   UNL     1      -5.399  -4.398   0.972  1.00  0.00     0.021 C 
BRANCH   2   3
ATOM      3  C   UNL     1      -5.201  -4.970  -0.433  1.00  0.00     0.116 C 
BRANCH   3   4
ATOM      4  N   UNL     1      -6.434  -4.914  -1.204  1.00  0.00    -0.356 N 
ATOM      5  C   UNL     1      -6.805  -4.089  -2.223  1.00  0.00     0.221 C 
ATOM      6  O   UNL     1      -7.957  -4.177  -2.655  1.00  0.00    -0.275 OA
ATOM      7  H   UNL     1      -7.112  -5.581  -0.947  1.00  0.00     0.163 HD
BRANCH   5   8
ATOM      8  C   UNL     1      -5.819  -3.131  -2.861  1.00  0.00     0.124 C 
BRANCH   8   9
ATOM      9  C   UNL     1      -5.929  -1.704  -2.331  1.00  0.00     0.158 C 
BRANCH   9  10
ATOM     10  N   UNL     1      -5.092  -1.443  -1.161  1.00  0.00    -0.227 N 
ATOM     11  C   UNL     1      -2.904  -0.973  -0.420  1.00  0.00     0.104 A 
ATOM     12  N   UNL     1      -3.716  -1.201  -1.417  1.00  0.00    -0.169 NA
ATOM     13  C   UNL     1      -3.381  -1.093   0.926  1.00  0.00     0.078 A 
ATOM     14  C   UNL     1      -4.752  -1.167   1.185  1.00  0.00     0.183 A 
ATOM     15  C   UNL     1      -2.777  -1.205   2.154  1.00  0.00     0.143 A 
ATOM     16  C   UNL     1      -5.716  -1.284   0.105  1.00  0.00     0.296 A 
ATOM     17  N   UNL     1      -5.005  -1.270   2.495  1.00  0.00    -0.074 NA
ATOM     18  O   UNL     1      -3.755  -1.284   3.105  1.00  0.00    -0.360 OA
ATOM     19  C   UNL     1      -1.385  -1.312   2.638  1.00  0.00     0.091 C 
ATOM     20  O   UNL     1      -6.927  -1.328   0.275  1.00  0.00    -0.265 OA
BRANCH  11  21
ATOM     21  C   UNL     1      -1.556  -0.412  -0.599  1.00  0.00     0.003 A 
ATOM     22  C   UNL     1       2.241   1.530  -0.054  1.00  0.00     0.044 C 
ATOM     23  C   UNL     1       0.943   0.806  -0.301  1.00  0.00    -0.048 A 
ATOM     24  C   UNL     1      -0.228   1.579  -0.342  1.00  0.00     0.004 A 
ATOM     25  C   UNL     1       0.856  -0.601  -0.408  1.00  0.00    -0.048 A 
ATOM     26  C   UNL     1      -1.470   0.978  -0.494  1.00  0.00     0.011 A 
ATOM     27  C   UNL     1      -0.406  -1.205  -0.582  1.00  0.00     0.014 A 
ATOM     28  C   UNL     1       2.054  -1.491  -0.209  1.00  0.00     0.044 C 
ENDBRANCH  11  21
ENDBRANCH   9  10
ENDBRANCH   8   9
ENDBRANCH   5   8
ENDBRANCH   3   4
ENDBRANCH   2   3
ENDBRANCH   1   2
BRANCH   1  29
ATOM     29  C   UNL     1      -4.079  -6.080   2.448  1.00  0.00     0.002 C 
BRANCH  29  30
ATOM     30  C   UNL     1      -2.832  -5.204   2.704  1.00  0.00     0.021 C 
BRANCH  30  31
ATOM     31  C   UNL     1      -2.749  -4.431   4.040  1.00  0.00     0.116 C 
BRANCH  31  32
ATOM     32  N   UNL     1      -2.715  -5.322   5.183  1.00  0.00    -0.352 N 
ATOM     33  C   UNL     1      -1.946  -5.383   6.315  1.00  0.00     0.251 C 
ATOM     34  H   UNL     1      -3.390  -6.037   5.135  1.00  0.00     0.163 HD
ATOM     35  O   UNL     1      -2.049  -6.413   6.988  1.00  0.00    -0.269 OA
BRANCH  33  36
ATOM     36  C   UNL     1      -0.996  -4.335   6.787  1.00  0.00     0.039 A 
ATOM     37  C   UNL     1       0.150  -4.802   7.453  1.00  0.00     0.014 A 
ATOM     38  C   UNL     1      -1.261  -2.961   6.805  1.00  0.00     0.014 A 
ATOM     39  C   UNL     1       1.003  -3.929   8.136  1.00  0.00     0.010 A 
ATOM     40  C   UNL     1      -0.392  -2.078   7.491  1.00  0.00     0.010 A 
ATOM     41  C   UNL     1       0.741  -2.554   8.172  1.00  0.00    -0.014 A 
BRANCH  41  42
ATOM     42  C   UNL     1       1.753  -1.694   8.844  1.00  0.00     0.031 A 
ATOM     43  C   UNL     1       2.235  -0.512   8.056  1.00  0.00     0.074 A 
ATOM     44  C   UNL     1       1.914  -1.694  10.191  1.00  0.00     0.049 A 
ATOM     45  N   UNL     1       1.586   0.613   7.982  1.00  0.00    -0.248 NA
ATOM     46  C   UNL     1       3.364  -0.590   7.128  1.00  0.00     0.031 C 
ATOM     47  C   UNL     1       0.783  -1.726  11.129  1.00  0.00     0.029 A 
ATOM     48  N   UNL     1       3.004  -1.410  10.995  1.00  0.00    -0.354 N 
ATOM     49  C   UNL     1       2.196   1.396   7.011  1.00  0.00     0.074 A 
ATOM     50  C   UNL     1       3.287   0.596   6.497  1.00  0.00     0.031 C 
ATOM     51  C   UNL     1       1.209  -1.313  12.342  1.00  0.00     0.029 A 
ATOM     52  C   UNL     1       2.660  -1.120  12.320  1.00  0.00     0.049 A 
ATOM     53  H   UNL     1       3.933  -1.411  10.666  1.00  0.00     0.167 HD
ATOM     54  C   UNL     1       1.792   2.667   6.727  1.00  0.00     0.034 A 
ATOM     55  C   UNL     1       3.338  -0.258  13.138  1.00  0.00     0.034 A 
ATOM     56  C   UNL     1       0.733   3.152   7.570  1.00  0.00     0.049 A 
ATOM     57  C   UNL     1       2.938   1.066  12.534  1.00  0.00     0.074 A 
ATOM     58  C   UNL     1      -0.635   3.307   7.521  1.00  0.00     0.029 A 
ATOM     59  N   UNL     1       1.074   3.576   8.832  1.00  0.00    -0.354 N 
ATOM     60  N   UNL     1       1.776   1.651  12.673  1.00  0.00    -0.248 NA
ATOM     61  C   UNL     1       3.726   1.526  11.391  1.00  0.00     0.031 C 
ATOM     62  C   UNL     1      -1.062   3.355   8.889  1.00  0.00     0.029 A 
ATOM     63  C   UNL     1       0.071   3.201   9.685  1.00  0.00     0.049 A 
ATOM     64  H   UNL     1       1.894   4.062   9.079  1.00  0.00     0.167 HD
ATOM     65  C   UNL     1       1.550   2.306  11.459  1.00  0.00     0.074 A 
ATOM     66  C   UNL     1       2.791   2.179  10.716  1.00  0.00     0.031 C 
ATOM     67  C   UNL     1       0.333   2.768  11.042  1.00  0.00     0.034 A 
BRANCH  54  68
ATOM     68  C   UNL     1       2.496   3.651   5.855  1.00  0.00     0.023 A 
ATOM     69  C   UNL     1       3.263   4.627   6.527  1.00  0.00     0.012 A 
ATOM     70  C   UNL     1       2.226   3.823   4.485  1.00  0.00     0.148 A 
ATOM     71  C   UNL     1       3.686   5.788   5.886  1.00  0.00     0.002 A 
ATOM     72  C   UNL     1       2.670   4.982   3.842  1.00  0.00     0.091 A 
ATOM     73  F   UNL     1       1.510   2.886   3.847  1.00  0.00    -0.205 F 
ATOM     74  C   UNL     1       3.379   5.971   4.547  1.00  0.00     0.022 A 
BRANCH  72  75
ATOM     75  S   UNL     1       2.338   5.352   2.114  1.00  0.00     0.127 S 
ATOM     76  O   UNL     1       1.634   6.631   2.196  1.00  0.00    -0.237 OA
ATOM     77  O   UNL     1       3.689   5.433   1.559  1.00  0.00    -0.237 OA
ATOM     78  O   UNL     1       1.537   4.243   1.614  1.00  0.00    -0.744 OA
ENDBRANCH  72  75
ENDBRANCH  54  68
BRANCH  55  79
ATOM     79  C   UNL     1       4.761  -0.624  13.472  1.00  0.00     0.023 A 
ATOM     80  C   UNL     1       4.979  -1.938  13.950  1.00  0.00     0.012 A 
ATOM     81  C   UNL     1       5.890   0.210  13.352  1.00  0.00     0.148 A 
ATOM     82  C   UNL     1       6.264  -2.444  14.165  1.00  0.00     0.002 A 
ATOM     83  C   UNL     1       7.176  -0.317  13.494  1.00  0.00     0.091 A 
ATOM     84  F   UNL     1       5.717   1.514  13.104  1.00  0.00    -0.205 F 
ATOM     85  C   UNL     1       7.365  -1.645  13.895  1.00  0.00     0.022 A 
BRANCH  83  86
ATOM     86  S   UNL     1       8.660   0.609  13.070  1.00  0.00     0.127 S 
ATOM     87  O   UNL     1       9.469   0.462  14.278  1.00  0.00    -0.237 OA
ATOM     88  O   UNL     1       9.142  -0.139  11.909  1.00  0.00    -0.237 OA
ATOM     89  O   UNL     1       8.212   1.965  12.786  1.00  0.00    -0.744 OA
ENDBRANCH  83  86
ENDBRANCH  55  79
BRANCH  67  90
ATOM     90  C   UNL     1      -0.805   2.672  12.015  1.00  0.00     0.023 A 
ATOM     91  C   UNL     1      -0.754   3.439  13.193  1.00  0.00     0.012 A 
ATOM     92  C   UNL     1      -1.967   1.920  11.738  1.00  0.00     0.148 A 
ATOM     93  C   UNL     1      -1.842   3.489  14.062  1.00  0.00     0.002 A 
ATOM     94  C   UNL     1      -3.067   2.009  12.584  1.00  0.00     0.091 A 
ATOM     95  F   UNL     1      -1.991   1.144  10.644  1.00  0.00    -0.205 F 
ATOM     96  C   UNL     1      -3.005   2.791  13.748  1.00  0.00     0.022 A 
BRANCH  94  97
ATOM     97  S   UNL     1      -4.642   1.219  12.230  1.00  0.00     0.127 S 
ATOM     98  O   UNL     1      -4.858   0.415  13.433  1.00  0.00    -0.237 OA
ATOM     99  O   UNL     1      -5.534   2.372  12.102  1.00  0.00    -0.237 OA
ATOM    100  O   UNL     1      -4.452   0.452  11.007  1.00  0.00    -0.744 OA
ENDBRANCH  94  97
ENDBRANCH  67  90
ENDBRANCH  41  42
ENDBRANCH  33  36
ENDBRANCH  31  32
ENDBRANCH  30  31
ENDBRANCH  29  30
ENDBRANCH   1  29
TORSDOF 19
