REMARK SMILES CC(C)[C@H](NC(=O)OCc1ccccc1)C(=O)NCC(=O)NCCCCCCNC(=O)c1ccc(-c2c3nc(c(-c4cccc(S(=O)(=O)[O-])c4F)c4ccc([nH]4)c(-c4cccc(S(=O)(=O)[O-])c4F)c4nc(c(-c5cccc(S(=O)(=O)[O-])c5F)c5ccc2[nH]5)C=C4)C=C3)cc1
REMARK SMILES IDX 24 1 23 2 22 3 20 4 21 5 19 7 18 8 16 9 17 10 4 12 2 13 1 14
REMARK SMILES IDX 3 15 5 16 6 17 7 19 8 20 9 21 10 22 11 23 15 24 12 25 14 26
REMARK SMILES IDX 13 27 25 28 26 29 27 30 28 31 29 32 30 33 31 35 32 36 33 37
REMARK SMILES IDX 94 38 34 39 93 40 35 41 36 42 37 43 87 44 38 45 92 46 86 47
REMARK SMILES IDX 88 48 39 49 91 50 85 51 84 52 40 54 72 55 52 56 71 57 53 58
REMARK SMILES IDX 56 59 70 60 89 61 54 62 55 63 69 65 90 66 57 67 41 68 42 69
REMARK SMILES IDX 50 70 43 71 45 72 51 73 44 74 46 75 47 76 48 77 49 78 73 79
REMARK SMILES IDX 74 80 82 81 75 82 77 83 83 84 76 85 78 86 79 87 80 88 81 89
REMARK SMILES IDX 58 90 59 91 67 92 60 93 62 94 68 95 61 96 63 97 64 98 65 99
REMARK SMILES IDX 66 100
REMARK H PARENT 22 6 18 11 5 18 29 34 88 53 56 64
REMARK Flexibility Score: inf
ROOT
ATOM      1  C   UNL     1       2.303  -2.970   2.931  1.00  0.00     0.021 C 
ENDROOT
BRANCH   1   2
ATOM      2  C   UNL     1       2.438  -3.300   1.448  1.00  0.00     0.116 C 
BRANCH   2   3
ATOM      3  N   UNL     1       2.025  -4.670   1.179  1.00  0.00    -0.355 N 
ATOM      4  C   UNL     1       0.761  -5.129   0.917  1.00  0.00     0.239 C 
ATOM      5  O   UNL     1       0.543  -6.342   0.932  1.00  0.00    -0.273 OA
ATOM      6  H   UNL     1       2.739  -5.348   1.188  1.00  0.00     0.163 HD
BRANCH   4   7
ATOM      7  C   UNL     1      -0.353  -4.116   0.648  1.00  0.00     0.216 C 
BRANCH   7   8
ATOM      8  N   UNL     1      -1.013  -3.631   1.836  1.00  0.00    -0.345 N 
ATOM      9  C   UNL     1      -1.565  -2.425   2.123  1.00  0.00     0.243 C 
ATOM     10  O   UNL     1      -2.253  -2.387   3.151  1.00  0.00    -0.273 OA
ATOM     11  H   UNL     1      -1.072  -4.289   2.566  1.00  0.00     0.164 HD
BRANCH   9  12
ATOM     12  C   UNL     1      -1.349  -1.126   1.290  1.00  0.00     0.177 C 
BRANCH  12  13
ATOM     13  C   UNL     1      -1.867  -1.057  -0.180  1.00  0.00     0.015 C 
ATOM     14  C   UNL     1      -0.972  -1.586  -1.308  1.00  0.00     0.010 C 
ATOM     15  C   UNL     1      -3.271  -1.647  -0.324  1.00  0.00     0.010 C 
ENDBRANCH  12  13
BRANCH  12  16
ATOM     16  N   UNL     1      -0.004  -0.569   1.430  1.00  0.00    -0.309 N 
ATOM     17  C   UNL     1       0.500   0.052   2.539  1.00  0.00     0.408 C 
ATOM     18  H   UNL     1       0.595  -0.649   0.653  1.00  0.00     0.167 HD
ATOM     19  O   UNL     1       1.518   0.735   2.430  1.00  0.00    -0.225 OA
BRANCH  17  20
ATOM     20  O   UNL     1      -0.165  -0.192   3.692  1.00  0.00    -0.445 OA
BRANCH  20  21
ATOM     21  C   UNL     1       0.266   0.560   4.847  1.00  0.00     0.270 C 
BRANCH  21  22
ATOM     22  C   UNL     1       0.604  -0.287   6.065  1.00  0.00    -0.011 A 
ATOM     23  C   UNL     1       1.068  -1.600   5.956  1.00  0.00     0.007 A 
ATOM     24  C   UNL     1       0.604   0.299   7.341  1.00  0.00     0.007 A 
ATOM     25  C   UNL     1       1.615  -2.275   7.054  1.00  0.00     0.000 A 
ATOM     26  C   UNL     1       1.112  -0.389   8.451  1.00  0.00     0.000 A 
ATOM     27  C   UNL     1       1.654  -1.662   8.300  1.00  0.00     0.000 A 
ENDBRANCH  21  22
ENDBRANCH  20  21
ENDBRANCH  17  20
ENDBRANCH  12  16
ENDBRANCH   9  12
ENDBRANCH   7   8
ENDBRANCH   4   7
ENDBRANCH   2   3
ENDBRANCH   1   2
BRANCH   1  28
ATOM     28  C   UNL     1       3.530  -3.257   3.804  1.00  0.00     0.002 C 
BRANCH  28  29
ATOM     29  C   UNL     1       4.702  -2.259   3.739  1.00  0.00     0.002 C 
BRANCH  29  30
ATOM     30  C   UNL     1       4.440  -0.745   3.880  1.00  0.00     0.021 C 
BRANCH  30  31
ATOM     31  C   UNL     1       4.341  -0.099   5.275  1.00  0.00     0.116 C 
BRANCH  31  32
ATOM     32  N   UNL     1       5.487  -0.308   6.145  1.00  0.00    -0.352 N 
ATOM     33  C   UNL     1       5.954   0.456   7.195  1.00  0.00     0.251 C 
ATOM     34  H   UNL     1       6.010  -1.120   5.955  1.00  0.00     0.163 HD
ATOM     35  O   UNL     1       6.958   0.078   7.798  1.00  0.00    -0.269 OA
BRANCH  33  36
ATOM     36  C   UNL     1       5.308   1.734   7.608  1.00  0.00     0.039 A 
ATOM     37  C   UNL     1       6.119   2.846   7.863  1.00  0.00     0.014 A 
ATOM     38  C   UNL     1       3.936   1.846   7.830  1.00  0.00     0.014 A 
ATOM     39  C   UNL     1       5.552   4.067   8.266  1.00  0.00     0.010 A 
ATOM     40  C   UNL     1       3.362   3.075   8.207  1.00  0.00     0.010 A 
ATOM     41  C   UNL     1       4.159   4.212   8.409  1.00  0.00    -0.014 A 
BRANCH  41  42
ATOM     42  C   UNL     1       3.553   5.566   8.619  1.00  0.00     0.031 A 
ATOM     43  C   UNL     1       2.777   5.944   9.857  1.00  0.00     0.074 A 
ATOM     44  C   UNL     1       3.641   6.472   7.621  1.00  0.00     0.049 A 
ATOM     45  N   UNL     1       2.254   7.104  10.180  1.00  0.00    -0.248 NA
ATOM     46  C   UNL     1       2.532   4.887  10.848  1.00  0.00     0.031 C 
ATOM     47  C   UNL     1       4.253   6.221   6.315  1.00  0.00     0.029 A 
ATOM     48  N   UNL     1       3.202   7.772   7.535  1.00  0.00    -0.354 N 
ATOM     49  C   UNL     1       1.600   6.916  11.394  1.00  0.00     0.074 A 
ATOM     50  C   UNL     1       1.772   5.518  11.736  1.00  0.00     0.031 C 
ATOM     51  C   UNL     1       4.163   7.330   5.566  1.00  0.00     0.029 A 
ATOM     52  C   UNL     1       3.472   8.368   6.325  1.00  0.00     0.049 A 
ATOM     53  H   UNL     1       2.737   8.233   8.271  1.00  0.00     0.167 HD
ATOM     54  C   UNL     1       0.940   7.821  12.164  1.00  0.00     0.034 A 
ATOM     55  C   UNL     1       3.207   9.608   5.865  1.00  0.00     0.034 A 
ATOM     56  C   UNL     1       0.790   9.221  11.843  1.00  0.00     0.049 A 
ATOM     57  C   UNL     1       2.542  10.613   6.763  1.00  0.00     0.074 A 
ATOM     58  C   UNL     1       0.246  10.229  12.623  1.00  0.00     0.029 A 
ATOM     59  N   UNL     1       1.162   9.810  10.645  1.00  0.00    -0.354 N 
ATOM     60  N   UNL     1       2.124  10.467   7.996  1.00  0.00    -0.248 NA
ATOM     61  C   UNL     1       2.352  11.967   6.222  1.00  0.00     0.031 C 
ATOM     62  C   UNL     1       0.262  11.420  11.887  1.00  0.00     0.029 A 
ATOM     63  C   UNL     1       0.843  11.161  10.657  1.00  0.00     0.049 A 
ATOM     64  H   UNL     1       1.590   9.339   9.894  1.00  0.00     0.167 HD
ATOM     65  C   UNL     1       1.648  11.713   8.388  1.00  0.00     0.074 A 
ATOM     66  C   UNL     1       1.853  12.610   7.270  1.00  0.00     0.031 C 
ATOM     67  C   UNL     1       1.079  12.072   9.565  1.00  0.00     0.034 A 
BRANCH  54  68
ATOM     68  C   UNL     1       0.371   7.348  13.482  1.00  0.00     0.023 A 
ATOM     69  C   UNL     1       1.249   7.030  14.539  1.00  0.00     0.012 A 
ATOM     70  C   UNL     1      -1.021   7.307  13.712  1.00  0.00     0.148 A 
ATOM     71  C   UNL     1       0.757   6.642  15.785  1.00  0.00     0.002 A 
ATOM     72  C   UNL     1      -1.504   6.960  14.971  1.00  0.00     0.091 A 
ATOM     73  F   UNL     1      -1.847   7.605  12.699  1.00  0.00    -0.205 F 
ATOM     74  C   UNL     1      -0.617   6.615  16.004  1.00  0.00     0.022 A 
BRANCH  72  75
ATOM     75  S   UNL     1      -3.255   6.980  15.378  1.00  0.00     0.127 S 
ATOM     76  O   UNL     1      -3.567   5.552  15.409  1.00  0.00    -0.237 OA
ATOM     77  O   UNL     1      -3.263   7.633  16.688  1.00  0.00    -0.237 OA
ATOM     78  O   UNL     1      -3.902   7.742  14.319  1.00  0.00    -0.744 OA
ENDBRANCH  72  75
ENDBRANCH  54  68
BRANCH  55  79
ATOM     79  C   UNL     1       3.660   9.989   4.497  1.00  0.00     0.023 A 
ATOM     80  C   UNL     1       4.747  10.873   4.351  1.00  0.00     0.012 A 
ATOM     81  C   UNL     1       3.061   9.436   3.349  1.00  0.00     0.148 A 
ATOM     82  C   UNL     1       5.216  11.216   3.083  1.00  0.00     0.002 A 
ATOM     83  C   UNL     1       3.571   9.737   2.092  1.00  0.00     0.091 A 
ATOM     84  F   UNL     1       2.021   8.606   3.513  1.00  0.00    -0.205 F 
ATOM     85  C   UNL     1       4.638  10.639   1.956  1.00  0.00     0.022 A 
BRANCH  83  86
ATOM     86  S   UNL     1       2.983   8.935   0.596  1.00  0.00     0.127 S 
ATOM     87  O   UNL     1       2.317  10.037  -0.093  1.00  0.00    -0.237 OA
ATOM     88  O   UNL     1       4.235   8.490  -0.019  1.00  0.00    -0.237 OA
ATOM     89  O   UNL     1       2.116   7.853   1.042  1.00  0.00    -0.744 OA
ENDBRANCH  83  86
ENDBRANCH  55  79
BRANCH  67  90
ATOM     90  C   UNL     1       0.644  13.509   9.727  1.00  0.00     0.023 A 
ATOM     91  C   UNL     1      -0.478  13.985   9.019  1.00  0.00     0.012 A 
ATOM     92  C   UNL     1       1.312  14.373  10.619  1.00  0.00     0.148 A 
ATOM     93  C   UNL     1      -0.907  15.305   9.170  1.00  0.00     0.002 A 
ATOM     94  C   UNL     1       0.850  15.673  10.799  1.00  0.00     0.091 A 
ATOM     95  F   UNL     1       2.390  13.912  11.269  1.00  0.00    -0.205 F 
ATOM     96  C   UNL     1      -0.251  16.144  10.066  1.00  0.00     0.022 A 
BRANCH  94  97
ATOM     97  S   UNL     1       1.578  16.799  11.996  1.00  0.00     0.127 S 
ATOM     98  O   UNL     1       2.291  17.736  11.129  1.00  0.00    -0.237 OA
ATOM     99  O   UNL     1       0.397  17.358  12.656  1.00  0.00    -0.237 OA
ATOM    100  O   UNL     1       2.419  15.979  12.857  1.00  0.00    -0.744 OA
ENDBRANCH  94  97
ENDBRANCH  67  90
ENDBRANCH  41  42
ENDBRANCH  33  36
ENDBRANCH  31  32
ENDBRANCH  30  31
ENDBRANCH  29  30
ENDBRANCH  28  29
ENDBRANCH   1  28
TORSDOF 23
