REMARK SMILES C[C@H]([NH2+][C@@H]1CC(=O)N(C)C1=O)[C@H](C)C(=O)NCCCCCCNC(=O)c1ccc(-c2c3nc(c(-c4cccc(S(=O)(=O)[O-])c4F)c4ccc([nH]4)c(-c4cccc(S(=O)(=O)[O-])c4F)c4nc(c(-c5cccc(S(=O)(=O)[O-])c5F)c5ccc2[nH]5)C=C4)C=C3)cc1
REMARK SMILES IDX 19 1 18 2 17 3 16 4 14 5 15 6 12 8 13 9 2 10 1 11 3 12 4 15
REMARK SMILES IDX 5 16 10 17 6 18 8 19 11 20 7 21 9 22 20 23 21 24 22 25 23 26
REMARK SMILES IDX 24 27 25 29 26 30 27 31 88 32 28 33 87 34 29 35 30 36 31 37
REMARK SMILES IDX 81 38 32 39 86 40 80 41 82 42 33 43 85 44 79 45 78 46 34 48
REMARK SMILES IDX 66 49 46 50 65 51 47 52 50 53 64 54 83 55 48 56 49 57 63 59
REMARK SMILES IDX 84 60 51 61 35 62 36 63 44 64 37 65 39 66 45 67 38 68 40 69
REMARK SMILES IDX 41 70 42 71 43 72 67 73 68 74 76 75 69 76 71 77 77 78 70 79
REMARK SMILES IDX 72 80 73 81 74 82 75 83 52 84 53 85 61 86 54 87 56 88 62 89
REMARK SMILES IDX 55 90 57 91 58 92 59 93 60 94
REMARK H PARENT 16 7 3 13 3 14 23 28 82 47 50 58
REMARK Flexibility Score: inf
ROOT
ATOM      1  C   UNL     1       0.431  -4.439   4.773  1.00  0.00     0.002 C 
ENDROOT
BRANCH   1   2
ATOM      2  C   UNL     1       0.749  -3.579   3.550  1.00  0.00     0.021 C 
BRANCH   2   3
ATOM      3  C   UNL     1      -0.447  -3.334   2.642  1.00  0.00     0.116 C 
BRANCH   3   4
ATOM      4  N   UNL     1      -1.478  -2.538   3.265  1.00  0.00    -0.356 N 
ATOM      5  C   UNL     1      -2.068  -1.387   2.867  1.00  0.00     0.228 C 
ATOM      6  O   UNL     1      -3.044  -1.008   3.528  1.00  0.00    -0.275 OA
ATOM      7  H   UNL     1      -1.807  -2.892   4.123  1.00  0.00     0.163 HD
BRANCH   5   8
ATOM      8  C   UNL     1      -1.521  -0.483   1.757  1.00  0.00     0.133 C 
ATOM      9  C   UNL     1      -0.459   0.432   2.371  1.00  0.00     0.024 C 
BRANCH   8  10
ATOM     10  C   UNL     1      -1.308  -1.036   0.300  1.00  0.00     0.192 C 
ATOM     11  C   UNL     1      -2.438  -2.034  -0.029  1.00  0.00     0.076 C 
BRANCH  10  12
ATOM     12  N   UNL     1      -0.068  -1.658  -0.188  1.00  0.00    -0.333 N 
ATOM     13  H   UNL     1      -0.051  -1.531  -1.200  1.00  0.00     0.347 HD
ATOM     14  H   UNL     1      -0.128  -2.615   0.159  1.00  0.00     0.347 HD
BRANCH  12  15
ATOM     15  C   UNL     1       1.210  -1.196   0.315  1.00  0.00     0.282 C 
ATOM     16  C   UNL     1       1.881   0.009  -0.309  1.00  0.00     0.176 C 
ATOM     17  C   UNL     1       2.330  -2.222   0.248  1.00  0.00     0.287 C 
ATOM     18  C   UNL     1       3.260  -0.155   0.279  1.00  0.00     0.235 C 
ATOM     19  N   UNL     1       3.479  -1.497   0.449  1.00  0.00    -0.280 N 
ATOM     20  O   UNL     1       2.224  -3.438   0.203  1.00  0.00    -0.267 OA
ATOM     21  O   UNL     1       4.013   0.765   0.554  1.00  0.00    -0.274 OA
ATOM     22  C   UNL     1       4.696  -2.086   0.949  1.00  0.00     0.156 C 
ENDBRANCH  12  15
ENDBRANCH  10  12
ENDBRANCH   8  10
ENDBRANCH   5   8
ENDBRANCH   3   4
ENDBRANCH   2   3
ENDBRANCH   1   2
BRANCH   1  23
ATOM     23  C   UNL     1      -0.284  -5.758   4.459  1.00  0.00     0.002 C 
BRANCH  23  24
ATOM     24  C   UNL     1       0.432  -6.658   3.447  1.00  0.00     0.021 C 
BRANCH  24  25
ATOM     25  C   UNL     1       1.852  -7.047   3.845  1.00  0.00     0.116 C 
BRANCH  25  26
ATOM     26  N   UNL     1       1.880  -7.741   5.125  1.00  0.00    -0.352 N 
ATOM     27  C   UNL     1       2.353  -8.994   5.419  1.00  0.00     0.251 C 
ATOM     28  H   UNL     1       1.507  -7.240   5.887  1.00  0.00     0.163 HD
ATOM     29  O   UNL     1       2.085  -9.521   6.495  1.00  0.00    -0.269 OA
BRANCH  27  30
ATOM     30  C   UNL     1       3.179  -9.705   4.425  1.00  0.00     0.039 A 
ATOM     31  C   UNL     1       2.894 -11.040   4.130  1.00  0.00     0.014 A 
ATOM     32  C   UNL     1       4.223  -9.042   3.774  1.00  0.00     0.014 A 
ATOM     33  C   UNL     1       3.616 -11.691   3.129  1.00  0.00     0.010 A 
ATOM     34  C   UNL     1       4.891  -9.669   2.729  1.00  0.00     0.010 A 
ATOM     35  C   UNL     1       4.592 -10.998   2.394  1.00  0.00    -0.014 A 
BRANCH  35  36
ATOM     36  C   UNL     1       5.284 -11.628   1.242  1.00  0.00     0.031 A 
ATOM     37  C   UNL     1       6.773 -11.829   1.267  1.00  0.00     0.074 A 
ATOM     38  C   UNL     1       4.579 -11.921   0.131  1.00  0.00     0.049 A 
ATOM     39  N   UNL     1       7.559 -12.282   0.326  1.00  0.00    -0.248 NA
ATOM     40  C   UNL     1       7.476 -11.447   2.504  1.00  0.00     0.031 C 
ATOM     41  C   UNL     1       3.140 -11.701  -0.039  1.00  0.00     0.029 A 
ATOM     42  N   UNL     1       4.980 -12.434  -1.077  1.00  0.00    -0.354 N 
ATOM     43  C   UNL     1       8.848 -12.209   0.839  1.00  0.00     0.074 A 
ATOM     44  C   UNL     1       8.743 -11.641   2.165  1.00  0.00     0.031 C 
ATOM     45  C   UNL     1       2.781 -12.074  -1.277  1.00  0.00     0.029 A 
ATOM     46  C   UNL     1       3.966 -12.521  -2.002  1.00  0.00     0.049 A 
ATOM     47  H   UNL     1       5.906 -12.713  -1.264  1.00  0.00     0.167 HD
ATOM     48  C   UNL     1      10.010 -12.602   0.266  1.00  0.00     0.034 A 
ATOM     49  C   UNL     1       3.990 -12.896  -3.296  1.00  0.00     0.034 A 
ATOM     50  C   UNL     1      10.103 -13.192  -1.042  1.00  0.00     0.049 A 
ATOM     51  C   UNL     1       5.294 -13.336  -3.904  1.00  0.00     0.074 A 
ATOM     52  C   UNL     1      11.220 -13.706  -1.675  1.00  0.00     0.029 A 
ATOM     53  N   UNL     1       9.044 -13.330  -1.926  1.00  0.00    -0.354 N 
ATOM     54  N   UNL     1       6.478 -13.414  -3.348  1.00  0.00    -0.248 NA
ATOM     55  C   UNL     1       5.261 -13.766  -5.309  1.00  0.00     0.031 C 
ATOM     56  C   UNL     1      10.844 -14.119  -2.957  1.00  0.00     0.029 A 
ATOM     57  C   UNL     1       9.485 -13.899  -3.109  1.00  0.00     0.049 A 
ATOM     58  H   UNL     1       8.114 -13.062  -1.740  1.00  0.00     0.167 HD
ATOM     59  C   UNL     1       7.324 -13.930  -4.323  1.00  0.00     0.074 A 
ATOM     60  C   UNL     1       6.511 -14.168  -5.497  1.00  0.00     0.031 C 
ATOM     61  C   UNL     1       8.656 -14.171  -4.256  1.00  0.00     0.034 A 
BRANCH  48  62
ATOM     62  C   UNL     1      11.277 -12.441   1.065  1.00  0.00     0.023 A 
ATOM     63  C   UNL     1      11.505 -13.266   2.186  1.00  0.00     0.012 A 
ATOM     64  C   UNL     1      12.270 -11.522   0.671  1.00  0.00     0.148 A 
ATOM     65  C   UNL     1      12.684 -13.154   2.922  1.00  0.00     0.002 A 
ATOM     66  C   UNL     1      13.462 -11.450   1.382  1.00  0.00     0.091 A 
ATOM     67  F   UNL     1      12.027 -10.733  -0.385  1.00  0.00    -0.205 F 
ATOM     68  C   UNL     1      13.665 -12.255   2.514  1.00  0.00     0.022 A 
BRANCH  66  69
ATOM     69  S   UNL     1      14.821 -10.382   0.891  1.00  0.00     0.127 S 
ATOM     70  O   UNL     1      14.819  -9.391   1.966  1.00  0.00    -0.237 OA
ATOM     71  O   UNL     1      15.957 -11.303   0.914  1.00  0.00    -0.237 OA
ATOM     72  O   UNL     1      14.477  -9.872  -0.428  1.00  0.00    -0.744 OA
ENDBRANCH  66  69
ENDBRANCH  48  62
BRANCH  49  73
ATOM     73  C   UNL     1       2.729 -12.911  -4.091  1.00  0.00     0.023 A 
ATOM     74  C   UNL     1       2.177 -14.143  -4.490  1.00  0.00     0.012 A 
ATOM     75  C   UNL     1       2.063 -11.717  -4.432  1.00  0.00     0.148 A 
ATOM     76  C   UNL     1       1.002 -14.186  -5.242  1.00  0.00     0.002 A 
ATOM     77  C   UNL     1       0.864 -11.769  -5.132  1.00  0.00     0.091 A 
ATOM     78  F   UNL     1       2.610 -10.555  -4.051  1.00  0.00    -0.205 F 
ATOM     79  C   UNL     1       0.341 -13.001  -5.554  1.00  0.00     0.022 A 
BRANCH  77  80
ATOM     80  S   UNL     1      -0.123 -10.306  -5.467  1.00  0.00     0.127 S 
ATOM     81  O   UNL     1       0.001 -10.188  -6.918  1.00  0.00    -0.237 OA
ATOM     82  O   UNL     1      -1.444 -10.719  -4.992  1.00  0.00    -0.237 OA
ATOM     83  O   UNL     1       0.486  -9.233  -4.692  1.00  0.00    -0.744 OA
ENDBRANCH  77  80
ENDBRANCH  49  73
BRANCH  61  84
ATOM     84  C   UNL     1       9.326 -14.751  -5.475  1.00  0.00     0.023 A 
ATOM     85  C   UNL     1       9.529 -13.945  -6.613  1.00  0.00     0.012 A 
ATOM     86  C   UNL     1       9.830 -16.066  -5.459  1.00  0.00     0.148 A 
ATOM     87  C   UNL     1      10.197 -14.450  -7.728  1.00  0.00     0.002 A 
ATOM     88  C   UNL     1      10.540 -16.545  -6.553  1.00  0.00     0.091 A 
ATOM     89  F   UNL     1       9.613 -16.820  -4.371  1.00  0.00    -0.205 F 
ATOM     90  C   UNL     1      10.714 -15.743  -7.692  1.00  0.00     0.022 A 
BRANCH  88  91
ATOM     91  S   UNL     1      11.326 -18.160  -6.564  1.00  0.00     0.127 S 
ATOM     92  O   UNL     1      10.538 -18.868  -7.571  1.00  0.00    -0.237 OA
ATOM     93  O   UNL     1      12.692 -17.835  -6.976  1.00  0.00    -0.237 OA
ATOM     94  O   UNL     1      11.208 -18.677  -5.207  1.00  0.00    -0.744 OA
ENDBRANCH  88  91
ENDBRANCH  61  84
ENDBRANCH  35  36
ENDBRANCH  27  30
ENDBRANCH  25  26
ENDBRANCH  24  25
ENDBRANCH  23  24
ENDBRANCH   1  23
TORSDOF 19
