REMARK SMILES Cc1ccc(NC(=O)[C@H]2CC(Cl)=CC[C@@H]2C(=O)NCCCCCCNC(=O)c2ccc(-c3c4nc(c(-c5cccc(S(=O)(=O)[O-])c5F)c5ccc([nH]5)c(-c5cccc(S(=O)(=O)[O-])c5F)c5nc(c(-c6cccc(S(=O)(=O)[O-])c6F)c6ccc3[nH]6)C=C5)C=C4)cc2)cc1[N+](=O)[O-]
REMARK SMILES IDX 21 1 20 2 19 3 18 4 16 5 17 6 15 8 9 9 10 10 11 11 14 12
REMARK SMILES IDX 12 13 13 14 7 15 6 16 8 18 5 19 1 20 2 21 3 22 92 23 4 24
REMARK SMILES IDX 91 25 93 26 94 27 95 28 22 29 23 30 24 31 25 32 26 33 27 35
REMARK SMILES IDX 28 36 29 37 90 38 30 39 89 40 31 41 32 42 33 43 83 44 34 45
REMARK SMILES IDX 88 46 82 47 84 48 35 49 87 50 81 51 80 52 36 54 68 55 48 56
REMARK SMILES IDX 67 57 49 58 52 59 66 60 85 61 50 62 51 63 65 65 86 66 53 67
REMARK SMILES IDX 37 68 38 69 46 70 39 71 41 72 47 73 40 74 42 75 43 76 44 77
REMARK SMILES IDX 45 78 69 79 70 80 78 81 71 82 73 83 79 84 72 85 74 86 75 87
REMARK SMILES IDX 76 88 77 89 54 90 55 91 63 92 56 93 58 94 64 95 57 96 59 97
REMARK SMILES IDX 60 98 61 99 62 100
REMARK H PARENT 18 7 6 17 25 34 84 53 52 64
REMARK Flexibility Score: inf
ROOT
ATOM      1  C   UNL     1      -1.549   2.421  -1.390  1.00  0.00     0.002 C 
ENDROOT
BRANCH   1   2
ATOM      2  C   UNL     1      -2.865   1.641  -1.252  1.00  0.00     0.021 C 
BRANCH   2   3
ATOM      3  C   UNL     1      -3.027   0.457  -2.206  1.00  0.00     0.116 C 
BRANCH   3   4
ATOM      4  N   UNL     1      -1.884  -0.439  -2.166  1.00  0.00    -0.356 N 
ATOM      5  C   UNL     1      -1.762  -1.753  -1.860  1.00  0.00     0.224 C 
ATOM      6  O   UNL     1      -0.626  -2.235  -1.905  1.00  0.00    -0.275 OA
ATOM      7  H   UNL     1      -1.033  -0.007  -2.409  1.00  0.00     0.163 HD
BRANCH   5   8
ATOM      8  C   UNL     1      -2.966  -2.603  -1.465  1.00  0.00     0.095 C 
ATOM      9  C   UNL     1      -2.942  -2.842   0.063  1.00  0.00     0.097 C 
ATOM     10  C   UNL     1      -3.919  -3.959   0.479  1.00  0.00     0.062 C 
ATOM     11  C   UNL     1      -3.680  -5.210  -0.299  1.00  0.00     0.015 C 
ATOM     12  C   UNL     1      -2.873  -3.927  -2.279  1.00  0.00     0.043 C 
ATOM     13  Cl  UNL     1      -4.010  -6.699   0.501  1.00  0.00    -0.089 Cl
ATOM     14  C   UNL     1      -3.206  -5.194  -1.548  1.00  0.00    -0.010 C 
BRANCH   9  15
ATOM     15  C   UNL     1      -3.342  -1.597   0.843  1.00  0.00     0.228 C 
ATOM     16  N   UNL     1      -2.460  -0.738   1.430  1.00  0.00    -0.326 N 
ATOM     17  H   UNL     1      -2.895  -0.046   1.980  1.00  0.00     0.169 HD
ATOM     18  O   UNL     1      -4.535  -1.272   0.890  1.00  0.00    -0.274 OA
BRANCH  16  19
ATOM     19  C   UNL     1      -1.060  -0.637   1.411  1.00  0.00     0.048 A 
ATOM     20  C   UNL     1       3.088  -0.064   0.331  1.00  0.00     0.052 C 
ATOM     21  C   UNL     1       1.684  -0.207   0.839  1.00  0.00     0.027 A 
ATOM     22  C   UNL     1       1.164  -1.499   0.977  1.00  0.00     0.012 A 
ATOM     23  C   UNL     1       0.821   0.863   1.117  1.00  0.00     0.274 A 
ATOM     24  C   UNL     1      -0.184  -1.708   1.284  1.00  0.00     0.027 A 
ATOM     25  C   UNL     1      -0.529   0.655   1.446  1.00  0.00     0.112 A 
BRANCH  23  26
ATOM     26  N   UNL     1       1.260   2.246   0.972  1.00  0.00     0.063 N 
ATOM     27  O   UNL     1       1.054   3.004   1.926  1.00  0.00    -0.258 OA
ATOM     28  O   UNL     1       1.782   2.567  -0.105  1.00  0.00    -0.258 OA
ENDBRANCH  23  26
ENDBRANCH  16  19
ENDBRANCH   9  15
ENDBRANCH   5   8
ENDBRANCH   3   4
ENDBRANCH   2   3
ENDBRANCH   1   2
BRANCH   1  29
ATOM     29  C   UNL     1      -1.337   3.173  -2.707  1.00  0.00     0.002 C 
BRANCH  29  30
ATOM     30  C   UNL     1      -2.483   4.088  -3.135  1.00  0.00     0.021 C 
BRANCH  30  31
ATOM     31  C   UNL     1      -2.862   5.130  -2.094  1.00  0.00     0.116 C 
BRANCH  31  32
ATOM     32  N   UNL     1      -2.035   6.314  -2.136  1.00  0.00    -0.352 N 
ATOM     33  C   UNL     1      -2.183   7.523  -1.489  1.00  0.00     0.251 C 
ATOM     34  H   UNL     1      -1.242   6.247  -2.717  1.00  0.00     0.163 HD
ATOM     35  O   UNL     1      -1.569   8.482  -1.956  1.00  0.00    -0.269 OA
BRANCH  33  36
ATOM     36  C   UNL     1      -2.917   7.646  -0.195  1.00  0.00     0.039 A 
ATOM     37  C   UNL     1      -2.538   8.690   0.669  1.00  0.00     0.014 A 
ATOM     38  C   UNL     1      -3.791   6.671   0.278  1.00  0.00     0.014 A 
ATOM     39  C   UNL     1      -2.829   8.622   2.033  1.00  0.00     0.010 A 
ATOM     40  C   UNL     1      -4.020   6.557   1.630  1.00  0.00     0.010 A 
ATOM     41  C   UNL     1      -3.477   7.492   2.510  1.00  0.00    -0.014 A 
BRANCH  41  42
ATOM     42  C   UNL     1      -3.583   7.100   3.903  1.00  0.00     0.031 A 
ATOM     43  C   UNL     1      -4.830   7.335   4.649  1.00  0.00     0.074 A 
ATOM     44  C   UNL     1      -2.644   6.241   4.361  1.00  0.00     0.049 A 
ATOM     45  N   UNL     1      -4.957   7.098   5.908  1.00  0.00    -0.248 NA
ATOM     46  C   UNL     1      -6.035   7.891   4.041  1.00  0.00     0.031 C 
ATOM     47  C   UNL     1      -2.752   5.306   5.473  1.00  0.00     0.029 A 
ATOM     48  N   UNL     1      -1.292   6.191   4.007  1.00  0.00    -0.354 N 
ATOM     49  C   UNL     1      -6.299   7.160   6.200  1.00  0.00     0.074 A 
ATOM     50  C   UNL     1      -6.903   7.792   5.055  1.00  0.00     0.031 C 
ATOM     51  C   UNL     1      -1.516   5.000   5.898  1.00  0.00     0.029 A 
ATOM     52  C   UNL     1      -0.602   5.881   5.191  1.00  0.00     0.049 A 
ATOM     53  H   UNL     1      -0.904   6.341   3.115  1.00  0.00     0.167 HD
ATOM     54  C   UNL     1      -6.745   6.530   7.320  1.00  0.00     0.034 A 
ATOM     55  C   UNL     1       0.284   6.737   5.782  1.00  0.00     0.034 A 
ATOM     56  C   UNL     1      -5.620   6.120   8.169  1.00  0.00     0.049 A 
ATOM     57  C   UNL     1      -0.110   7.110   7.202  1.00  0.00     0.074 A 
ATOM     58  C   UNL     1      -5.011   4.905   8.428  1.00  0.00     0.029 A 
ATOM     59  N   UNL     1      -4.787   7.099   8.700  1.00  0.00    -0.354 N 
ATOM     60  N   UNL     1      -1.253   6.802   7.753  1.00  0.00    -0.248 NA
ATOM     61  C   UNL     1       0.743   7.869   8.113  1.00  0.00     0.031 C 
ATOM     62  C   UNL     1      -3.737   5.175   9.007  1.00  0.00     0.029 A 
ATOM     63  C   UNL     1      -3.599   6.547   9.149  1.00  0.00     0.049 A 
ATOM     64  H   UNL     1      -5.012   8.056   8.750  1.00  0.00     0.167 HD
ATOM     65  C   UNL     1      -1.365   7.400   8.980  1.00  0.00     0.074 A 
ATOM     66  C   UNL     1      -0.052   7.988   9.192  1.00  0.00     0.031 C 
ATOM     67  C   UNL     1      -2.545   7.411   9.677  1.00  0.00     0.034 A 
BRANCH  54  68
ATOM     68  C   UNL     1      -8.177   6.119   7.612  1.00  0.00     0.023 A 
ATOM     69  C   UNL     1      -8.430   5.542   8.878  1.00  0.00     0.012 A 
ATOM     70  C   UNL     1      -9.272   6.144   6.712  1.00  0.00     0.148 A 
ATOM     71  C   UNL     1      -9.678   5.010   9.227  1.00  0.00     0.002 A 
ATOM     72  C   UNL     1     -10.537   5.676   7.086  1.00  0.00     0.091 A 
ATOM     73  F   UNL     1      -9.093   6.526   5.446  1.00  0.00    -0.205 F 
ATOM     74  C   UNL     1     -10.738   5.091   8.338  1.00  0.00     0.022 A 
BRANCH  72  75
ATOM     75  S   UNL     1     -11.971   5.802   6.000  1.00  0.00     0.127 S 
ATOM     76  O   UNL     1     -12.176   4.411   5.596  1.00  0.00    -0.237 OA
ATOM     77  O   UNL     1     -13.000   6.333   6.894  1.00  0.00    -0.237 OA
ATOM     78  O   UNL     1     -11.587   6.711   4.926  1.00  0.00    -0.744 OA
ENDBRANCH  72  75
ENDBRANCH  54  68
BRANCH  55  79
ATOM     79  C   UNL     1       1.010   7.608   4.809  1.00  0.00     0.023 A 
ATOM     80  C   UNL     1       1.851   6.946   3.881  1.00  0.00     0.012 A 
ATOM     81  C   UNL     1       0.590   8.920   4.522  1.00  0.00     0.148 A 
ATOM     82  C   UNL     1       2.151   7.518   2.644  1.00  0.00     0.002 A 
ATOM     83  C   UNL     1       0.901   9.489   3.285  1.00  0.00     0.091 A 
ATOM     84  F   UNL     1      -0.175   9.557   5.418  1.00  0.00    -0.205 F 
ATOM     85  C   UNL     1       1.646   8.774   2.332  1.00  0.00     0.022 A 
BRANCH  83  86
ATOM     86  S   UNL     1       0.262  11.097   2.789  1.00  0.00     0.127 S 
ATOM     87  O   UNL     1       1.394  11.968   3.091  1.00  0.00    -0.237 OA
ATOM     88  O   UNL     1      -0.005  10.908   1.363  1.00  0.00    -0.237 OA
ATOM     89  O   UNL     1      -0.934  11.290   3.596  1.00  0.00    -0.744 OA
ENDBRANCH  83  86
ENDBRANCH  55  79
BRANCH  67  90
ATOM     90  C   UNL     1      -2.844   8.266  10.901  1.00  0.00     0.023 A 
ATOM     91  C   UNL     1      -2.100   9.419  11.220  1.00  0.00     0.012 A 
ATOM     92  C   UNL     1      -4.001   8.027  11.690  1.00  0.00     0.148 A 
ATOM     93  C   UNL     1      -2.447  10.258  12.287  1.00  0.00     0.002 A 
ATOM     94  C   UNL     1      -4.407   8.927  12.673  1.00  0.00     0.091 A 
ATOM     95  F   UNL     1      -4.720   6.910  11.505  1.00  0.00    -0.205 F 
ATOM     96  C   UNL     1      -3.615  10.028  12.998  1.00  0.00     0.022 A 
BRANCH  94  97
ATOM     97  S   UNL     1      -6.038   8.788  13.420  1.00  0.00     0.127 S 
ATOM     98  O   UNL     1      -5.783   7.910  14.559  1.00  0.00    -0.237 OA
ATOM     99  O   UNL     1      -6.346  10.175  13.780  1.00  0.00    -0.237 OA
ATOM    100  O   UNL     1      -6.882   8.250  12.361  1.00  0.00    -0.744 OA
ENDBRANCH  94  97
ENDBRANCH  67  90
ENDBRANCH  41  42
ENDBRANCH  33  36
ENDBRANCH  31  32
ENDBRANCH  30  31
ENDBRANCH  29  30
ENDBRANCH   1  29
TORSDOF 19
