REMARK SMILES NC(=O)C[C@@H](C(=O)NCCCCCCNC(=O)c1ccc(-c2c3nc(c(-c4cccc(S(=O)(=O)[O-])c4F)c4ccc([nH]4)c(-c4cccc(S(=O)(=O)[O-])c4F)c4nc(c(-c5cccc(S(=O)(=O)[O-])c5F)c5ccc2[nH]5)C=C4)C=C3)cc1)N1C(=O)/C(=C/c2ccccc2)SC1=S
REMARK SMILES IDX 12 1 11 2 10 3 9 4 8 5 6 6 7 7 5 9 4 10 2 11 1 12 3 15 81 16
REMARK SMILES IDX 82 17 93 18 83 19 84 20 92 21 94 22 85 23 86 24 87 25 91 26
REMARK SMILES IDX 88 27 90 28 89 29 13 30 14 31 15 32 16 33 17 35 18 36 19 37
REMARK SMILES IDX 80 38 20 39 79 40 21 41 22 42 23 43 73 44 24 45 78 46 72 47
REMARK SMILES IDX 74 48 25 49 77 50 71 51 70 52 26 54 58 55 38 56 57 57 39 58
REMARK SMILES IDX 42 59 56 60 75 61 40 62 41 63 55 65 76 66 43 67 27 68 28 69
REMARK SMILES IDX 36 70 29 71 31 72 37 73 30 74 32 75 33 76 34 77 35 78 59 79
REMARK SMILES IDX 60 80 68 81 61 82 63 83 69 84 62 85 64 86 65 87 66 88 67 89
REMARK SMILES IDX 44 90 45 91 53 92 46 93 48 94 54 95 47 96 49 97 50 98 51 99
REMARK SMILES IDX 52 100
REMARK H PARENT 8 8 1 13 1 14 15 34 74 53 42 64
REMARK Flexibility Score: inf
ROOT
ATOM      1  C   UNL     1       1.128   0.308  -3.881  1.00  0.00     0.002 C 
ENDROOT
BRANCH   1   2
ATOM      2  C   UNL     1       1.643   0.898  -2.565  1.00  0.00     0.002 C 
BRANCH   2   3
ATOM      3  C   UNL     1       0.932   0.399  -1.302  1.00  0.00     0.021 C 
BRANCH   3   4
ATOM      4  C   UNL     1       1.159  -1.082  -0.995  1.00  0.00     0.116 C 
BRANCH   4   5
ATOM      5  N   UNL     1       2.442  -1.267  -0.345  1.00  0.00    -0.354 N 
ATOM      6  C   UNL     1       2.779  -1.769   0.872  1.00  0.00     0.243 C 
ATOM      7  O   UNL     1       3.995  -1.881   1.074  1.00  0.00    -0.273 OA
ATOM      8  H   UNL     1       3.211  -0.976  -0.887  1.00  0.00     0.163 HD
BRANCH   6   9
ATOM      9  C   UNL     1       1.723  -2.212   1.923  1.00  0.00     0.190 C 
BRANCH   9  10
ATOM     10  C   UNL     1       0.991  -1.083   2.659  1.00  0.00     0.135 C 
BRANCH  10  11
ATOM     11  C   UNL     1      -0.142  -0.453   1.909  1.00  0.00     0.220 C 
ATOM     12  N   UNL     1      -0.035   0.898   1.760  1.00  0.00    -0.370 N 
ATOM     13  H   UNL     1      -0.735   1.397   1.280  1.00  0.00     0.159 HD
ATOM     14  H   UNL     1       0.742   1.375   2.132  1.00  0.00     0.159 HD
ATOM     15  O   UNL     1      -1.101  -1.076   1.480  1.00  0.00    -0.275 OA
ENDBRANCH  10  11
ENDBRANCH   9  10
BRANCH   9  16
ATOM     16  N   UNL     1       2.486  -3.028   2.923  1.00  0.00    -0.280 N 
ATOM     17  C   UNL     1       3.315  -2.375   3.826  1.00  0.00     0.266 C 
ATOM     18  C   UNL     1       2.513  -4.405   2.980  1.00  0.00     0.149 C 
ATOM     19  O   UNL     1       3.507  -1.167   3.909  1.00  0.00    -0.268 OA
ATOM     20  C   UNL     1       3.949  -3.336   4.756  1.00  0.00     0.081 C 
ATOM     21  S   UNL     1       3.521  -4.935   4.332  1.00  0.00    -0.054 SA
ATOM     22  S   UNL     1       1.729  -5.496   1.994  1.00  0.00    -0.052 S 
ATOM     23  C   UNL     1       4.669  -2.874   5.787  1.00  0.00     0.029 C 
BRANCH  23  24
ATOM     24  C   UNL     1       5.304  -3.627   6.868  1.00  0.00    -0.024 A 
ATOM     25  C   UNL     1       5.075  -3.214   8.188  1.00  0.00     0.008 A 
ATOM     26  C   UNL     1       6.188  -4.682   6.626  1.00  0.00     0.008 A 
ATOM     27  C   UNL     1       5.701  -3.863   9.252  1.00  0.00     0.001 A 
ATOM     28  C   UNL     1       6.813  -5.332   7.692  1.00  0.00     0.001 A 
ATOM     29  C   UNL     1       6.568  -4.925   9.003  1.00  0.00     0.000 A 
ENDBRANCH  23  24
ENDBRANCH   9  16
ENDBRANCH   6   9
ENDBRANCH   4   5
ENDBRANCH   3   4
ENDBRANCH   2   3
ENDBRANCH   1   2
BRANCH   1  30
ATOM     30  C   UNL     1      -0.383   0.420  -4.104  1.00  0.00     0.021 C 
BRANCH  30  31
ATOM     31  C   UNL     1      -0.958   1.826  -3.960  1.00  0.00     0.116 C 
BRANCH  31  32
ATOM     32  N   UNL     1      -0.379   2.760  -4.912  1.00  0.00    -0.352 N 
ATOM     33  C   UNL     1      -0.999   3.511  -5.880  1.00  0.00     0.251 C 
ATOM     34  H   UNL     1       0.598   2.870  -4.854  1.00  0.00     0.163 HD
ATOM     35  O   UNL     1      -0.328   4.106  -6.719  1.00  0.00    -0.269 OA
BRANCH  33  36
ATOM     36  C   UNL     1      -2.474   3.590  -5.917  1.00  0.00     0.039 A 
ATOM     37  C   UNL     1      -3.131   3.414  -7.137  1.00  0.00     0.014 A 
ATOM     38  C   UNL     1      -3.206   3.838  -4.752  1.00  0.00     0.014 A 
ATOM     39  C   UNL     1      -4.527   3.433  -7.179  1.00  0.00     0.010 A 
ATOM     40  C   UNL     1      -4.597   3.786  -4.785  1.00  0.00     0.010 A 
ATOM     41  C   UNL     1      -5.273   3.591  -5.999  1.00  0.00    -0.014 A 
BRANCH  41  42
ATOM     42  C   UNL     1      -6.758   3.546  -6.015  1.00  0.00     0.031 A 
ATOM     43  C   UNL     1      -7.559   4.754  -5.611  1.00  0.00     0.074 A 
ATOM     44  C   UNL     1      -7.385   2.391  -6.315  1.00  0.00     0.049 A 
ATOM     45  N   UNL     1      -8.857   4.890  -5.521  1.00  0.00    -0.248 NA
ATOM     46  C   UNL     1      -6.804   5.961  -5.234  1.00  0.00     0.031 C 
ATOM     47  C   UNL     1      -6.720   1.129  -6.648  1.00  0.00     0.029 A 
ATOM     48  N   UNL     1      -8.722   2.083  -6.363  1.00  0.00    -0.354 N 
ATOM     49  C   UNL     1      -9.073   6.177  -5.043  1.00  0.00     0.074 A 
ATOM     50  C   UNL     1      -7.772   6.772  -4.832  1.00  0.00     0.031 C 
ATOM     51  C   UNL     1      -7.650   0.187  -6.871  1.00  0.00     0.029 A 
ATOM     52  C   UNL     1      -8.975   0.765  -6.669  1.00  0.00     0.049 A 
ATOM     53  H   UNL     1      -9.433   2.743  -6.195  1.00  0.00     0.167 HD
ATOM     54  C   UNL     1     -10.247   6.816  -4.825  1.00  0.00     0.034 A 
ATOM     55  C   UNL     1     -10.140   0.097  -6.768  1.00  0.00     0.034 A 
ATOM     56  C   UNL     1     -11.538   6.235  -5.077  1.00  0.00     0.049 A 
ATOM     57  C   UNL     1     -11.431   0.842  -6.557  1.00  0.00     0.074 A 
ATOM     58  C   UNL     1     -12.783   6.832  -4.981  1.00  0.00     0.029 A 
ATOM     59  N   UNL     1     -11.754   4.922  -5.465  1.00  0.00    -0.354 N 
ATOM     60  N   UNL     1     -11.616   2.107  -6.268  1.00  0.00    -0.248 NA
ATOM     61  C   UNL     1     -12.675   0.076  -6.722  1.00  0.00     0.031 C 
ATOM     62  C   UNL     1     -13.753   5.871  -5.282  1.00  0.00     0.029 A 
ATOM     63  C   UNL     1     -13.111   4.685  -5.598  1.00  0.00     0.049 A 
ATOM     64  H   UNL     1     -11.046   4.256  -5.622  1.00  0.00     0.167 HD
ATOM     65  C   UNL     1     -12.993   2.298  -6.254  1.00  0.00     0.074 A 
ATOM     66  C   UNL     1     -13.594   1.022  -6.584  1.00  0.00     0.031 C 
ATOM     67  C   UNL     1     -13.696   3.425  -5.980  1.00  0.00     0.034 A 
BRANCH  54  68
ATOM     68  C   UNL     1     -10.191   8.239  -4.331  1.00  0.00     0.023 A 
ATOM     69  C   UNL     1      -9.754   9.261  -5.198  1.00  0.00     0.012 A 
ATOM     70  C   UNL     1     -10.627   8.573  -3.034  1.00  0.00     0.148 A 
ATOM     71  C   UNL     1      -9.717  10.588  -4.771  1.00  0.00     0.002 A 
ATOM     72  C   UNL     1     -10.632   9.904  -2.631  1.00  0.00     0.091 A 
ATOM     73  F   UNL     1     -11.020   7.586  -2.216  1.00  0.00    -0.205 F 
ATOM     74  C   UNL     1     -10.166  10.910  -3.493  1.00  0.00     0.022 A 
BRANCH  72  75
ATOM     75  S   UNL     1     -11.264  10.431  -1.035  1.00  0.00     0.127 S 
ATOM     76  O   UNL     1     -10.036  10.823  -0.345  1.00  0.00    -0.237 OA
ATOM     77  O   UNL     1     -12.138  11.546  -1.403  1.00  0.00    -0.237 OA
ATOM     78  O   UNL     1     -11.955   9.278  -0.475  1.00  0.00    -0.744 OA
ENDBRANCH  72  75
ENDBRANCH  54  68
BRANCH  55  79
ATOM     79  C   UNL     1     -10.144  -1.344  -7.151  1.00  0.00     0.023 A 
ATOM     80  C   UNL     1     -10.632  -1.721  -8.417  1.00  0.00     0.012 A 
ATOM     81  C   UNL     1      -9.649  -2.336  -6.282  1.00  0.00     0.148 A 
ATOM     82  C   UNL     1     -10.660  -3.063  -8.799  1.00  0.00     0.002 A 
ATOM     83  C   UNL     1      -9.628  -3.664  -6.691  1.00  0.00     0.091 A 
ATOM     84  F   UNL     1      -9.200  -1.958  -5.078  1.00  0.00    -0.205 F 
ATOM     85  C   UNL     1     -10.149  -4.032  -7.941  1.00  0.00     0.022 A 
BRANCH  83  86
ATOM     86  S   UNL     1      -8.870  -4.963  -5.707  1.00  0.00     0.127 S 
ATOM     87  O   UNL     1     -10.036  -5.729  -5.276  1.00  0.00    -0.237 OA
ATOM     88  O   UNL     1      -8.022  -5.632  -6.694  1.00  0.00    -0.237 OA
ATOM     89  O   UNL     1      -8.136  -4.278  -4.652  1.00  0.00    -0.744 OA
ENDBRANCH  83  86
ENDBRANCH  55  79
BRANCH  67  90
ATOM     90  C   UNL     1     -15.199   3.350  -6.063  1.00  0.00     0.023 A 
ATOM     91  C   UNL     1     -15.924   2.653  -5.077  1.00  0.00     0.012 A 
ATOM     92  C   UNL     1     -15.895   4.035  -7.079  1.00  0.00     0.148 A 
ATOM     93  C   UNL     1     -17.317   2.611  -5.119  1.00  0.00     0.002 A 
ATOM     94  C   UNL     1     -17.284   4.032  -7.085  1.00  0.00     0.091 A 
ATOM     95  F   UNL     1     -15.186   4.676  -8.019  1.00  0.00    -0.205 F 
ATOM     96  C   UNL     1     -17.997   3.310  -6.114  1.00  0.00     0.022 A 
BRANCH  94  97
ATOM     97  S   UNL     1     -18.244   4.984  -8.269  1.00  0.00     0.127 S 
ATOM     98  O   UNL     1     -18.788   3.932  -9.126  1.00  0.00    -0.237 OA
ATOM     99  O   UNL     1     -19.230   5.641  -7.410  1.00  0.00    -0.237 OA
ATOM    100  O   UNL     1     -17.303   5.890  -8.912  1.00  0.00    -0.744 OA
ENDBRANCH  94  97
ENDBRANCH  67  90
ENDBRANCH  41  42
ENDBRANCH  33  36
ENDBRANCH  31  32
ENDBRANCH  30  31
ENDBRANCH   1  30
TORSDOF 20
