REMARK SMILES CC1=C(C(=O)Nc2ccccc2)[C@@H](c2ccc(C(=O)NCCCCCCNC(=O)c3ccc(-c4c5nc(c(-c6cccc(S(=O)(=O)[O-])c6F)c6ccc([nH]6)c(-c6cccc(S(=O)(=O)[O-])c6F)c6nc(c(-c7cccc(S(=O)(=O)[O-])c7F)c7ccc4[nH]7)C=C6)C=C5)cc3)cc2)n2ncnc2N1
REMARK SMILES IDX 23 1 22 2 21 3 20 4 18 5 19 6 17 8 14 9 15 10 94 11 16 12
REMARK SMILES IDX 93 13 13 14 1 15 2 16 3 17 100 18 99 19 95 21 98 22 96 23
REMARK SMILES IDX 97 24 4 25 5 26 6 27 7 29 8 30 12 31 9 32 11 33 10 34 24 35
REMARK SMILES IDX 25 36 26 37 27 38 28 39 29 41 30 42 31 43 92 44 32 45 91 46
REMARK SMILES IDX 33 47 34 48 35 49 85 50 36 51 90 52 84 53 86 54 37 55 89 56
REMARK SMILES IDX 83 57 82 58 38 60 70 61 50 62 69 63 51 64 54 65 68 66 87 67
REMARK SMILES IDX 52 68 53 69 67 71 88 72 55 73 39 74 40 75 48 76 41 77 43 78
REMARK SMILES IDX 49 79 42 80 44 81 45 82 46 83 47 84 71 85 72 86 80 87 73 88
REMARK SMILES IDX 75 89 81 90 74 91 76 92 77 93 78 94 79 95 56 96 57 97 65 98
REMARK SMILES IDX 58 99 60 100 66 101 59 102 61 103 62 104 63 105 64 106
REMARK H PARENT 20 7 100 20 6 28 27 40 86 59 54 70
REMARK Flexibility Score: inf
ROOT
ATOM      1  C   UNL     1      -6.976   4.866   6.494  1.00  0.00     0.002 C 
ENDROOT
BRANCH   1   2
ATOM      2  C   UNL     1      -5.704   4.105   6.101  1.00  0.00     0.021 C 
BRANCH   2   3
ATOM      3  C   UNL     1      -5.877   2.584   6.126  1.00  0.00     0.116 C 
BRANCH   3   4
ATOM      4  N   UNL     1      -6.551   2.130   4.922  1.00  0.00    -0.352 N 
ATOM      5  C   UNL     1      -6.094   1.498   3.791  1.00  0.00     0.251 C 
ATOM      6  O   UNL     1      -6.921   1.187   2.933  1.00  0.00    -0.269 OA
ATOM      7  H   UNL     1      -7.519   2.309   4.915  1.00  0.00     0.163 HD
BRANCH   5   8
ATOM      8  C   UNL     1      -4.669   1.108   3.605  1.00  0.00     0.039 A 
ATOM      9  C   UNL     1      -2.034   0.123   3.346  1.00  0.00    -0.019 A 
ATOM     10  C   UNL     1      -3.084  -0.495   2.660  1.00  0.00     0.007 A 
ATOM     11  C   UNL     1      -2.316   1.279   4.095  1.00  0.00     0.007 A 
ATOM     12  C   UNL     1      -4.393  -0.014   2.806  1.00  0.00     0.014 A 
ATOM     13  C   UNL     1      -3.604   1.796   4.175  1.00  0.00     0.014 A 
BRANCH   9  14
ATOM     14  C   UNL     1      -0.594  -0.369   3.318  1.00  0.00     0.179 C 
ATOM     15  C   UNL     1       2.449  -0.410   0.885  1.00  0.00     0.065 C 
ATOM     16  C   UNL     1       1.242  -0.815   1.694  1.00  0.00     0.026 C 
ATOM     17  C   UNL     1       0.248   0.023   2.092  1.00  0.00     0.065 C 
ATOM     18  N   UNL     1       1.284  -2.129   2.149  1.00  0.00    -0.328 N 
ATOM     19  C   UNL     1       0.451  -2.626   3.077  1.00  0.00     0.226 A 
ATOM     20  H   UNL     1       1.965  -2.730   1.768  1.00  0.00     0.169 HD
ATOM     21  N   UNL     1      -0.494  -1.805   3.630  1.00  0.00    -0.219 N 
ATOM     22  N   UNL     1       0.402  -3.805   3.643  1.00  0.00    -0.200 NA
ATOM     23  N   UNL     1      -1.131  -2.427   4.649  1.00  0.00    -0.157 NA
ATOM     24  C   UNL     1      -0.560  -3.634   4.602  1.00  0.00     0.248 A 
BRANCH  17  25
ATOM     25  C   UNL     1       0.084   1.450   1.690  1.00  0.00     0.255 C 
ATOM     26  O   UNL     1      -0.020   2.291   2.585  1.00  0.00    -0.269 OA
ATOM     27  N   UNL     1       0.056   1.891   0.399  1.00  0.00    -0.322 N 
ATOM     28  H   UNL     1      -0.275   2.812   0.288  1.00  0.00     0.170 HD
BRANCH  27  29
ATOM     29  C   UNL     1       0.419   1.255  -0.794  1.00  0.00     0.041 A 
ATOM     30  C   UNL     1       1.387   1.916  -1.560  1.00  0.00     0.026 A 
ATOM     31  C   UNL     1      -0.023  -0.010  -1.177  1.00  0.00     0.026 A 
ATOM     32  C   UNL     1       2.026   1.254  -2.607  1.00  0.00     0.002 A 
ATOM     33  C   UNL     1       0.585  -0.653  -2.262  1.00  0.00     0.002 A 
ATOM     34  C   UNL     1       1.635  -0.038  -2.948  1.00  0.00     0.000 A 
ENDBRANCH  27  29
ENDBRANCH  17  25
ENDBRANCH   9  14
ENDBRANCH   5   8
ENDBRANCH   3   4
ENDBRANCH   2   3
ENDBRANCH   1   2
BRANCH   1  35
ATOM     35  C   UNL     1      -7.515   4.550   7.897  1.00  0.00     0.002 C 
BRANCH  35  36
ATOM     36  C   UNL     1      -6.497   4.679   9.040  1.00  0.00     0.021 C 
BRANCH  36  37
ATOM     37  C   UNL     1      -6.055   6.115   9.289  1.00  0.00     0.116 C 
BRANCH  37  38
ATOM     38  N   UNL     1      -7.161   6.919   9.798  1.00  0.00    -0.352 N 
ATOM     39  C   UNL     1      -7.198   8.264  10.084  1.00  0.00     0.251 C 
ATOM     40  H   UNL     1      -8.000   6.429   9.958  1.00  0.00     0.163 HD
ATOM     41  O   UNL     1      -8.064   8.710  10.820  1.00  0.00    -0.269 OA
BRANCH  39  42
ATOM     42  C   UNL     1      -6.177   9.157   9.506  1.00  0.00     0.039 A 
ATOM     43  C   UNL     1      -5.617  10.159  10.302  1.00  0.00     0.014 A 
ATOM     44  C   UNL     1      -5.787   8.999   8.175  1.00  0.00     0.014 A 
ATOM     45  C   UNL     1      -4.603  10.949   9.774  1.00  0.00     0.010 A 
ATOM     46  C   UNL     1      -4.719   9.721   7.681  1.00  0.00     0.010 A 
ATOM     47  C   UNL     1      -4.134  10.707   8.472  1.00  0.00    -0.014 A 
BRANCH  47  48
ATOM     48  C   UNL     1      -2.890  11.344   8.035  1.00  0.00     0.031 A 
ATOM     49  C   UNL     1      -1.756  11.106   8.969  1.00  0.00     0.074 A 
ATOM     50  C   UNL     1      -2.705  11.921   6.828  1.00  0.00     0.049 A 
ATOM     51  N   UNL     1      -1.191  11.967   9.749  1.00  0.00    -0.248 NA
ATOM     52  C   UNL     1      -1.320   9.719   9.201  1.00  0.00     0.031 C 
ATOM     53  C   UNL     1      -3.655  11.944   5.710  1.00  0.00     0.029 A 
ATOM     54  N   UNL     1      -1.584  12.486   6.287  1.00  0.00    -0.354 N 
ATOM     55  C   UNL     1      -0.138  11.280  10.348  1.00  0.00     0.074 A 
ATOM     56  C   UNL     1      -0.418   9.882  10.172  1.00  0.00     0.031 C 
ATOM     57  C   UNL     1      -2.999  12.252   4.570  1.00  0.00     0.029 A 
ATOM     58  C   UNL     1      -1.631  12.606   4.898  1.00  0.00     0.049 A 
ATOM     59  H   UNL     1      -0.815  12.781   6.827  1.00  0.00     0.167 HD
ATOM     60  C   UNL     1       1.031  11.923  10.625  1.00  0.00     0.034 A 
ATOM     61  C   UNL     1      -0.616  12.944   4.067  1.00  0.00     0.034 A 
ATOM     62  C   UNL     1       0.860  13.352  10.530  1.00  0.00     0.049 A 
ATOM     63  C   UNL     1       0.388  13.670   4.869  1.00  0.00     0.074 A 
ATOM     64  C   UNL     1       0.154  14.329  11.194  1.00  0.00     0.029 A 
ATOM     65  N   UNL     1       1.226  13.864   9.313  1.00  0.00    -0.354 N 
ATOM     66  N   UNL     1       0.185  14.859   5.359  1.00  0.00    -0.248 NA
ATOM     67  C   UNL     1       1.544  12.961   5.398  1.00  0.00     0.031 C 
ATOM     68  C   UNL     1      -0.096  15.349  10.228  1.00  0.00     0.029 A 
ATOM     69  C   UNL     1       0.508  14.987   9.023  1.00  0.00     0.049 A 
ATOM     70  H   UNL     1       1.913  13.473   8.727  1.00  0.00     0.167 HD
ATOM     71  C   UNL     1       0.861  14.834   6.565  1.00  0.00     0.074 A 
ATOM     72  C   UNL     1       1.831  13.755   6.432  1.00  0.00     0.031 C 
ATOM     73  C   UNL     1       0.333  15.450   7.662  1.00  0.00     0.034 A 
BRANCH  60  74
ATOM     74  C   UNL     1       2.422  11.322  10.467  1.00  0.00     0.023 A 
ATOM     75  C   UNL     1       3.515  12.146  10.833  1.00  0.00     0.012 A 
ATOM     76  C   UNL     1       2.729  10.173   9.703  1.00  0.00     0.148 A 
ATOM     77  C   UNL     1       4.821  11.878  10.405  1.00  0.00     0.002 A 
ATOM     78  C   UNL     1       4.039   9.868   9.346  1.00  0.00     0.091 A 
ATOM     79  F   UNL     1       1.752   9.426   9.188  1.00  0.00    -0.205 F 
ATOM     80  C   UNL     1       5.085  10.735   9.664  1.00  0.00     0.022 A 
BRANCH  78  81
ATOM     81  S   UNL     1       4.439   8.380   8.418  1.00  0.00     0.127 S 
ATOM     82  O   UNL     1       4.796   8.935   7.116  1.00  0.00    -0.237 OA
ATOM     83  O   UNL     1       5.557   7.841   9.192  1.00  0.00    -0.237 OA
ATOM     84  O   UNL     1       3.236   7.557   8.454  1.00  0.00    -0.744 OA
ENDBRANCH  78  81
ENDBRANCH  60  74
BRANCH  61  85
ATOM     85  C   UNL     1      -0.358  12.618   2.645  1.00  0.00     0.023 A 
ATOM     86  C   UNL     1       0.520  13.430   1.897  1.00  0.00     0.012 A 
ATOM     87  C   UNL     1      -0.720  11.362   2.115  1.00  0.00     0.148 A 
ATOM     88  C   UNL     1       1.071  12.981   0.693  1.00  0.00     0.002 A 
ATOM     89  C   UNL     1      -0.168  10.918   0.916  1.00  0.00     0.091 A 
ATOM     90  F   UNL     1      -1.528  10.569   2.832  1.00  0.00    -0.205 F 
ATOM     91  C   UNL     1       0.740  11.719   0.210  1.00  0.00     0.022 A 
BRANCH  89  92
ATOM     92  S   UNL     1      -0.515   9.287   0.244  1.00  0.00     0.127 S 
ATOM     93  O   UNL     1      -0.835   9.594  -1.151  1.00  0.00    -0.237 OA
ATOM     94  O   UNL     1       0.759   8.600   0.440  1.00  0.00    -0.237 OA
ATOM     95  O   UNL     1      -1.637   8.769   1.016  1.00  0.00    -0.744 OA
ENDBRANCH  89  92
ENDBRANCH  61  85
BRANCH  73  96
ATOM     96  C   UNL     1      -0.643  16.567   7.427  1.00  0.00     0.023 A 
ATOM     97  C   UNL     1      -1.884  16.392   6.783  1.00  0.00     0.012 A 
ATOM     98  C   UNL     1      -0.320  17.829   7.952  1.00  0.00     0.148 A 
ATOM     99  C   UNL     1      -2.766  17.466   6.634  1.00  0.00     0.002 A 
ATOM    100  C   UNL     1      -1.220  18.880   7.849  1.00  0.00     0.091 A 
ATOM    101  F   UNL     1       0.871  17.984   8.552  1.00  0.00    -0.205 F 
ATOM    102  C   UNL     1      -2.439  18.708   7.178  1.00  0.00     0.022 A 
BRANCH 100 103
ATOM    103  S   UNL     1      -0.888  20.454   8.639  1.00  0.00     0.127 S 
ATOM    104  O   UNL     1      -0.380  21.254   7.527  1.00  0.00    -0.237 OA
ATOM    105  O   UNL     1      -2.211  20.852   9.126  1.00  0.00    -0.237 OA
ATOM    106  O   UNL     1       0.068  20.166   9.702  1.00  0.00    -0.744 OA
ENDBRANCH 100 103
ENDBRANCH  73  96
ENDBRANCH  47  48
ENDBRANCH  39  42
ENDBRANCH  37  38
ENDBRANCH  36  37
ENDBRANCH  35  36
ENDBRANCH   1  35
TORSDOF 19
