REMARK SMILES CC1(C)CCC[C@@]1(CC(=O)NCCCCCCNC(=O)c1ccc(-c2c3nc(c(-c4cccc(S(=O)(=O)[O-])c4F)c4ccc([nH]4)c(-c4cccc(S(=O)(=O)[O-])c4F)c4nc(c(-c5cccc(S(=O)(=O)[O-])c5F)c5ccc2[nH]5)C=C4)C=C3)cc1)[NH+]1CCCCC1
REMARK SMILES IDX 15 1 14 2 13 3 12 4 11 5 9 6 10 7 8 9 7 10 1 11 2 12 3 13
REMARK SMILES IDX 4 14 5 15 6 16 84 17 85 18 89 19 86 21 88 22 87 23 16 24
REMARK SMILES IDX 17 25 18 26 19 27 20 29 21 30 22 31 83 32 23 33 82 34 24 35
REMARK SMILES IDX 25 36 26 37 76 38 27 39 81 40 75 41 77 42 28 43 80 44 74 45
REMARK SMILES IDX 73 46 29 48 61 49 41 50 60 51 42 52 45 53 59 54 78 55 43 56
REMARK SMILES IDX 44 57 58 59 79 60 46 61 30 62 31 63 39 64 32 65 34 66 40 67
REMARK SMILES IDX 33 68 35 69 36 70 37 71 38 72 62 73 63 74 71 75 64 76 66 77
REMARK SMILES IDX 72 78 65 79 67 80 68 81 69 82 70 83 47 84 48 85 56 86 49 87
REMARK SMILES IDX 51 88 57 89 50 90 52 91 53 92 54 93 55 94
REMARK H PARENT 11 8 84 20 18 28 77 47 45 58
REMARK Flexibility Score: inf
ROOT
ATOM      1  C   UNL     1      -4.383   1.283  -4.892  1.00  0.00     0.002 C 
ENDROOT
BRANCH   1   2
ATOM      2  C   UNL     1      -4.489   1.643  -3.411  1.00  0.00     0.002 C 
BRANCH   2   3
ATOM      3  C   UNL     1      -3.343   1.110  -2.559  1.00  0.00     0.021 C 
BRANCH   3   4
ATOM      4  C   UNL     1      -1.975   1.727  -2.887  1.00  0.00     0.116 C 
BRANCH   4   5
ATOM      5  N   UNL     1      -1.792   2.933  -2.103  1.00  0.00    -0.356 N 
ATOM      6  C   UNL     1      -1.003   3.198  -1.025  1.00  0.00     0.226 C 
ATOM      7  O   UNL     1      -1.137   4.319  -0.526  1.00  0.00    -0.275 OA
ATOM      8  H   UNL     1      -2.334   3.697  -2.405  1.00  0.00     0.163 HD
BRANCH   6   9
ATOM      9  C   UNL     1       0.091   2.227  -0.559  1.00  0.00     0.169 C 
BRANCH   9  10
ATOM     10  C   UNL     1      -0.172   1.026   0.453  1.00  0.00     0.112 C 
ATOM     11  C   UNL     1       2.242   0.031   0.994  1.00  0.00     0.018 C 
ATOM     12  C   UNL     1       0.948  -0.131   0.182  1.00  0.00     0.020 C 
ATOM     13  C   UNL     1       1.407  -0.272  -1.303  1.00  0.00     0.018 C 
ATOM     14  C   UNL     1       0.224  -1.453   0.514  1.00  0.00     0.013 C 
ATOM     15  C   UNL     1      -1.178  -1.245  -0.014  1.00  0.00     0.007 C 
ATOM     16  C   UNL     1      -1.461   0.244   0.115  1.00  0.00     0.070 C 
BRANCH  10  17
ATOM     17  N   UNL     1      -0.172   1.518   1.885  1.00  0.00    -0.329 N 
ATOM     18  C   UNL     1      -0.446   0.603   3.004  1.00  0.00     0.262 C 
ATOM     19  C   UNL     1      -0.887   2.770   2.186  1.00  0.00     0.262 C 
ATOM     20  H   UNL     1       0.837   1.662   1.857  1.00  0.00     0.348 HD
ATOM     21  C   UNL     1      -1.920   0.305   3.294  1.00  0.00     0.062 C 
ATOM     22  C   UNL     1      -2.404   2.613   2.246  1.00  0.00     0.062 C 
ATOM     23  C   UNL     1      -2.827   1.538   3.250  1.00  0.00     0.012 C 
ENDBRANCH  10  17
ENDBRANCH   9  10
ENDBRANCH   6   9
ENDBRANCH   4   5
ENDBRANCH   3   4
ENDBRANCH   2   3
ENDBRANCH   1   2
BRANCH   1  24
ATOM     24  C   UNL     1      -4.177  -0.207  -5.176  1.00  0.00     0.021 C 
BRANCH  24  25
ATOM     25  C   UNL     1      -5.215  -1.121  -4.531  1.00  0.00     0.116 C 
BRANCH  25  26
ATOM     26  N   UNL     1      -6.561  -0.798  -4.983  1.00  0.00    -0.352 N 
ATOM     27  C   UNL     1      -7.430  -1.580  -5.698  1.00  0.00     0.251 C 
ATOM     28  H   UNL     1      -6.889   0.098  -4.744  1.00  0.00     0.163 HD
ATOM     29  O   UNL     1      -8.421  -1.083  -6.232  1.00  0.00    -0.269 OA
BRANCH  27  30
ATOM     30  C   UNL     1      -7.159  -3.024  -5.819  1.00  0.00     0.039 A 
ATOM     31  C   UNL     1      -7.232  -3.636  -7.071  1.00  0.00     0.014 A 
ATOM     32  C   UNL     1      -6.819  -3.765  -4.683  1.00  0.00     0.014 A 
ATOM     33  C   UNL     1      -6.921  -4.991  -7.192  1.00  0.00     0.010 A 
ATOM     34  C   UNL     1      -6.434  -5.092  -4.819  1.00  0.00     0.010 A 
ATOM     35  C   UNL     1      -6.499  -5.724  -6.070  1.00  0.00    -0.014 A 
BRANCH  35  36
ATOM     36  C   UNL     1      -6.150  -7.163  -6.163  1.00  0.00     0.031 A 
ATOM     37  C   UNL     1      -6.953  -8.171  -5.385  1.00  0.00     0.074 A 
ATOM     38  C   UNL     1      -5.063  -7.550  -6.859  1.00  0.00     0.049 A 
ATOM     39  N   UNL     1      -6.741  -9.451  -5.228  1.00  0.00    -0.248 NA
ATOM     40  C   UNL     1      -8.132  -7.666  -4.659  1.00  0.00     0.031 C 
ATOM     41  C   UNL     1      -4.172  -6.659  -7.605  1.00  0.00     0.029 A 
ATOM     42  N   UNL     1      -4.501  -8.792  -7.022  1.00  0.00    -0.354 N 
ATOM     43  C   UNL     1      -7.726  -9.893  -4.353  1.00  0.00     0.074 A 
ATOM     44  C   UNL     1      -8.520  -8.741  -3.989  1.00  0.00     0.031 C 
ATOM     45  C   UNL     1      -3.173  -7.381  -8.139  1.00  0.00     0.029 A 
ATOM     46  C   UNL     1      -3.329  -8.777  -7.742  1.00  0.00     0.049 A 
ATOM     47  H   UNL     1      -4.899  -9.616  -6.658  1.00  0.00     0.167 HD
ATOM     48  C   UNL     1      -7.965 -11.150  -3.912  1.00  0.00     0.034 A 
ATOM     49  C   UNL     1      -2.466  -9.772  -8.031  1.00  0.00     0.034 A 
ATOM     50  C   UNL     1      -7.202 -12.298  -4.316  1.00  0.00     0.049 A 
ATOM     51  C   UNL     1      -2.773 -11.166  -7.552  1.00  0.00     0.074 A 
ATOM     52  C   UNL     1      -7.414 -13.626  -3.993  1.00  0.00     0.029 A 
ATOM     53  N   UNL     1      -6.077 -12.255  -5.124  1.00  0.00    -0.354 N 
ATOM     54  N   UNL     1      -3.788 -11.587  -6.837  1.00  0.00    -0.248 NA
ATOM     55  C   UNL     1      -1.838 -12.229  -7.948  1.00  0.00     0.031 C 
ATOM     56  C   UNL     1      -6.397 -14.384  -4.580  1.00  0.00     0.029 A 
ATOM     57  C   UNL     1      -5.580 -13.532  -5.306  1.00  0.00     0.049 A 
ATOM     58  H   UNL     1      -5.690 -11.437  -5.511  1.00  0.00     0.167 HD
ATOM     59  C   UNL     1      -3.642 -12.967  -6.743  1.00  0.00     0.074 A 
ATOM     60  C   UNL     1      -2.444 -13.312  -7.479  1.00  0.00     0.031 C 
ATOM     61  C   UNL     1      -4.426 -13.866  -6.101  1.00  0.00     0.034 A 
BRANCH  48  62
ATOM     62  C   UNL     1      -9.123 -11.362  -2.973  1.00  0.00     0.023 A 
ATOM     63  C   UNL     1     -10.444 -11.242  -3.450  1.00  0.00     0.012 A 
ATOM     64  C   UNL     1      -8.903 -11.752  -1.637  1.00  0.00     0.148 A 
ATOM     65  C   UNL     1     -11.528 -11.473  -2.605  1.00  0.00     0.002 A 
ATOM     66  C   UNL     1      -9.988 -12.030  -0.815  1.00  0.00     0.091 A 
ATOM     67  F   UNL     1      -7.640 -11.841  -1.197  1.00  0.00    -0.205 F 
ATOM     68  C   UNL     1     -11.300 -11.879  -1.293  1.00  0.00     0.022 A 
BRANCH  66  69
ATOM     69  S   UNL     1      -9.802 -12.641   0.864  1.00  0.00     0.127 S 
ATOM     70  O   UNL     1     -10.305 -11.512   1.645  1.00  0.00    -0.237 OA
ATOM     71  O   UNL     1     -10.672 -13.816   0.860  1.00  0.00    -0.237 OA
ATOM     72  O   UNL     1      -8.385 -12.931   1.033  1.00  0.00    -0.744 OA
ENDBRANCH  66  69
ENDBRANCH  48  62
BRANCH  49  73
ATOM     73  C   UNL     1      -1.252  -9.499  -8.851  1.00  0.00     0.023 A 
ATOM     74  C   UNL     1      -1.158 -10.032 -10.152  1.00  0.00     0.012 A 
ATOM     75  C   UNL     1      -0.193  -8.716  -8.354  1.00  0.00     0.148 A 
ATOM     76  C   UNL     1      -0.014  -9.828 -10.925  1.00  0.00     0.002 A 
ATOM     77  C   UNL     1       0.919  -8.467  -9.150  1.00  0.00     0.091 A 
ATOM     78  F   UNL     1      -0.296  -8.223  -7.111  1.00  0.00    -0.205 F 
ATOM     79  C   UNL     1       1.020  -9.040 -10.428  1.00  0.00     0.022 A 
BRANCH  77  80
ATOM     80  S   UNL     1       2.239  -7.360  -8.642  1.00  0.00     0.127 S 
ATOM     81  O   UNL     1       3.339  -8.292  -8.412  1.00  0.00    -0.237 OA
ATOM     82  O   UNL     1       2.388  -6.508  -9.822  1.00  0.00    -0.237 OA
ATOM     83  O   UNL     1       1.738  -6.667  -7.463  1.00  0.00    -0.744 OA
ENDBRANCH  77  80
ENDBRANCH  49  73
BRANCH  61  84
ATOM     84  C   UNL     1      -4.077 -15.325  -6.221  1.00  0.00     0.023 A 
ATOM     85  C   UNL     1      -2.969 -15.851  -5.531  1.00  0.00     0.012 A 
ATOM     86  C   UNL     1      -4.924 -16.193  -6.939  1.00  0.00     0.148 A 
ATOM     87  C   UNL     1      -2.695 -17.218  -5.573  1.00  0.00     0.002 A 
ATOM     88  C   UNL     1      -4.677 -17.559  -6.933  1.00  0.00     0.091 A 
ATOM     89  F   UNL     1      -5.964 -15.667  -7.603  1.00  0.00    -0.205 F 
ATOM     90  C   UNL     1      -3.556 -18.072  -6.260  1.00  0.00     0.022 A 
BRANCH  88  91
ATOM     91  S   UNL     1      -5.788 -18.744  -7.699  1.00  0.00     0.127 S 
ATOM     92  O   UNL     1      -4.981 -19.228  -8.818  1.00  0.00    -0.237 OA
ATOM     93  O   UNL     1      -5.989 -19.717  -6.624  1.00  0.00    -0.237 OA
ATOM     94  O   UNL     1      -6.982 -17.997  -8.071  1.00  0.00    -0.744 OA
ENDBRANCH  88  91
ENDBRANCH  61  84
ENDBRANCH  35  36
ENDBRANCH  27  30
ENDBRANCH  25  26
ENDBRANCH  24  25
ENDBRANCH   1  24
TORSDOF 18
