REMARK SMILES CCCc1cc(OC(F)(F)F)cc2c1O[C@@H](C(F)(F)F)C(C(=O)NCCCCCCNC(=O)c1ccc(-c3c4nc(c(-c5cccc(S(=O)(=O)[O-])c5F)c5ccc([nH]5)c(-c5cccc(S(=O)(=O)[O-])c5F)c5nc(c(-c6cccc(S(=O)(=O)[O-])c6F)c6ccc3[nH]6)C=C5)C=C4)cc1)=C2
REMARK SMILES IDX 28 1 27 2 26 3 25 4 24 5 22 6 23 7 21 9 4 10 5 11 14 12 6 13
REMARK SMILES IDX 13 14 15 15 12 16 97 17 16 18 3 19 2 20 1 21 7 22 8 23 9 24
REMARK SMILES IDX 10 25 11 26 17 27 18 28 19 29 20 30 29 31 30 32 31 33 32 34
REMARK SMILES IDX 33 36 34 37 35 38 96 39 36 40 95 41 37 42 38 43 39 44 89 45
REMARK SMILES IDX 40 46 94 47 88 48 90 49 41 50 93 51 87 52 86 53 42 55 74 56
REMARK SMILES IDX 54 57 73 58 55 59 58 60 72 61 91 62 56 63 57 64 71 66 92 67
REMARK SMILES IDX 59 68 43 69 44 70 52 71 45 72 47 73 53 74 46 75 48 76 49 77
REMARK SMILES IDX 50 78 51 79 75 80 76 81 84 82 77 83 79 84 85 85 78 86 80 87
REMARK SMILES IDX 81 88 82 89 83 90 60 91 61 92 69 93 62 94 64 95 70 96 63 97
REMARK SMILES IDX 65 98 66 99 67 100 68 101
REMARK H PARENT 24 8 31 35 90 54 58 65
REMARK Flexibility Score: inf
ROOT
ATOM      1  C   UNL     1      -4.476   4.912  -6.918  1.00  0.00     0.002 C 
ENDROOT
BRANCH   1   2
ATOM      2  C   UNL     1      -3.089   4.264  -6.842  1.00  0.00     0.002 C 
BRANCH   2   3
ATOM      3  C   UNL     1      -2.414   4.378  -5.468  1.00  0.00     0.021 C 
BRANCH   3   4
ATOM      4  C   UNL     1      -3.199   3.663  -4.362  1.00  0.00     0.116 C 
BRANCH   4   5
ATOM      5  N   UNL     1      -2.970   2.235  -4.474  1.00  0.00    -0.352 N 
ATOM      6  C   UNL     1      -2.035   1.425  -3.920  1.00  0.00     0.251 C 
ATOM      7  O   UNL     1      -1.881   0.304  -4.398  1.00  0.00    -0.270 OA
ATOM      8  H   UNL     1      -3.611   1.769  -5.059  1.00  0.00     0.163 HD
BRANCH   6   9
ATOM      9  C   UNL     1      -1.274   1.805  -2.704  1.00  0.00     0.067 C 
ATOM     10  C   UNL     1       0.718   2.530   0.931  1.00  0.00    -0.002 A 
ATOM     11  C   UNL     1       1.194   3.836   1.185  1.00  0.00     0.054 A 
ATOM     12  C   UNL     1       0.009   2.309  -0.258  1.00  0.00     0.131 A 
ATOM     13  C   UNL     1       1.012   4.871   0.265  1.00  0.00     0.130 A 
ATOM     14  C   UNL     1      -0.106   3.314  -1.222  1.00  0.00     0.021 A 
ATOM     15  O   UNL     1      -0.654   1.127  -0.410  1.00  0.00    -0.475 OA
ATOM     16  C   UNL     1       0.389   4.592  -0.952  1.00  0.00     0.058 A 
ATOM     17  C   UNL     1      -0.799   3.039  -2.475  1.00  0.00     0.025 C 
ATOM     18  C   UNL     1      -0.914   0.666  -1.762  1.00  0.00     0.314 C 
BRANCH  10  19
ATOM     19  C   UNL     1       0.995   1.479   1.992  1.00  0.00     0.039 C 
BRANCH  19  20
ATOM     20  C   UNL     1       0.870  -0.014   1.658  1.00  0.00     0.001 C 
ATOM     21  C   UNL     1       1.815  -0.496   0.563  1.00  0.00     0.004 C 
ENDBRANCH  19  20
ENDBRANCH  10  19
BRANCH  13  22
ATOM     22  O   UNL     1       1.385   6.175   0.420  1.00  0.00    -0.406 OA
BRANCH  22  23
ATOM     23  C   UNL     1       1.924   6.571   1.670  1.00  0.00     0.573 C 
ATOM     24  F   UNL     1       1.069   6.306   2.681  1.00  0.00    -0.132 F 
ATOM     25  F   UNL     1       3.098   5.944   1.904  1.00  0.00    -0.132 F 
ATOM     26  F   UNL     1       2.156   7.901   1.648  1.00  0.00    -0.132 F 
ENDBRANCH  22  23
ENDBRANCH  13  22
BRANCH  18  27
ATOM     27  C   UNL     1      -1.912  -0.510  -1.648  1.00  0.00     0.429 C 
ATOM     28  F   UNL     1      -1.737  -1.442  -2.614  1.00  0.00    -0.167 F 
ATOM     29  F   UNL     1      -1.736  -1.182  -0.476  1.00  0.00    -0.167 F 
ATOM     30  F   UNL     1      -3.203  -0.107  -1.672  1.00  0.00    -0.167 F 
ENDBRANCH  18  27
ENDBRANCH   6   9
ENDBRANCH   4   5
ENDBRANCH   3   4
ENDBRANCH   2   3
ENDBRANCH   1   2
BRANCH   1  31
ATOM     31  C   UNL     1      -4.516   6.379  -6.479  1.00  0.00     0.021 C 
BRANCH  31  32
ATOM     32  C   UNL     1      -3.641   7.299  -7.323  1.00  0.00     0.116 C 
BRANCH  32  33
ATOM     33  N   UNL     1      -4.113   7.356  -8.696  1.00  0.00    -0.352 N 
ATOM     34  C   UNL     1      -4.453   8.454  -9.444  1.00  0.00     0.251 C 
ATOM     35  H   UNL     1      -4.200   6.488  -9.152  1.00  0.00     0.163 HD
ATOM     36  O   UNL     1      -5.082   8.312 -10.488  1.00  0.00    -0.269 OA
BRANCH  34  37
ATOM     37  C   UNL     1      -4.052   9.802  -8.990  1.00  0.00     0.039 A 
ATOM     38  C   UNL     1      -4.959  10.857  -9.118  1.00  0.00     0.014 A 
ATOM     39  C   UNL     1      -2.769  10.032  -8.483  1.00  0.00     0.014 A 
ATOM     40  C   UNL     1      -4.582  12.142  -8.725  1.00  0.00     0.010 A 
ATOM     41  C   UNL     1      -2.422  11.297  -8.024  1.00  0.00     0.010 A 
ATOM     42  C   UNL     1      -3.313  12.371  -8.169  1.00  0.00    -0.014 A 
BRANCH  42  43
ATOM     43  C   UNL     1      -2.877  13.736  -7.786  1.00  0.00     0.031 A 
ATOM     44  C   UNL     1      -1.729  14.387  -8.511  1.00  0.00     0.074 A 
ATOM     45  C   UNL     1      -3.466  14.360  -6.748  1.00  0.00     0.049 A 
ATOM     46  N   UNL     1      -1.173  15.550  -8.299  1.00  0.00    -0.248 NA
ATOM     47  C   UNL     1      -1.103  13.615  -9.599  1.00  0.00     0.031 C 
ATOM     48  C   UNL     1      -4.536  13.800  -5.920  1.00  0.00     0.029 A 
ATOM     49  N   UNL     1      -3.230  15.594  -6.197  1.00  0.00    -0.354 N 
ATOM     50  C   UNL     1      -0.112  15.633  -9.194  1.00  0.00     0.074 A 
ATOM     51  C   UNL     1      -0.078  14.388  -9.926  1.00  0.00     0.031 C 
ATOM     52  C   UNL     1      -4.866  14.689  -4.969  1.00  0.00     0.029 A 
ATOM     53  C   UNL     1      -4.020  15.870  -5.105  1.00  0.00     0.049 A 
ATOM     54  H   UNL     1      -2.559  16.222  -6.550  1.00  0.00     0.167 HD
ATOM     55  C   UNL     1       0.736  16.666  -9.412  1.00  0.00     0.034 A 
ATOM     56  C   UNL     1      -4.055  16.955  -4.307  1.00  0.00     0.034 A 
ATOM     57  C   UNL     1       0.659  17.924  -8.721  1.00  0.00     0.049 A 
ATOM     58  C   UNL     1      -3.145  18.114  -4.611  1.00  0.00     0.074 A 
ATOM     59  C   UNL     1       1.411  19.067  -8.928  1.00  0.00     0.029 A 
ATOM     60  N   UNL     1      -0.223  18.206  -7.689  1.00  0.00    -0.354 N 
ATOM     61  N   UNL     1      -2.253  18.235  -5.566  1.00  0.00    -0.248 NA
ATOM     62  C   UNL     1      -3.274  19.303  -3.757  1.00  0.00     0.031 C 
ATOM     63  C   UNL     1       0.993  20.035  -8.009  1.00  0.00     0.029 A 
ATOM     64  C   UNL     1      -0.034  19.503  -7.247  1.00  0.00     0.049 A 
ATOM     65  H   UNL     1      -0.885  17.575  -7.325  1.00  0.00     0.167 HD
ATOM     66  C   UNL     1      -1.746  19.524  -5.453  1.00  0.00     0.074 A 
ATOM     67  C   UNL     1      -2.443  20.151  -4.349  1.00  0.00     0.031 C 
ATOM     68  C   UNL     1      -0.780  20.131  -6.187  1.00  0.00     0.034 A 
BRANCH  55  69
ATOM     69  C   UNL     1       1.781  16.499 -10.484  1.00  0.00     0.023 A 
ATOM     70  C   UNL     1       1.391  16.482 -11.839  1.00  0.00     0.012 A 
ATOM     71  C   UNL     1       3.149  16.409 -10.159  1.00  0.00     0.148 A 
ATOM     72  C   UNL     1       2.339  16.340 -12.851  1.00  0.00     0.002 A 
ATOM     73  C   UNL     1       4.093  16.314 -11.176  1.00  0.00     0.091 A 
ATOM     74  F   UNL     1       3.500  16.404  -8.865  1.00  0.00    -0.205 F 
ATOM     75  C   UNL     1       3.689  16.267 -12.520  1.00  0.00     0.022 A 
BRANCH  73  76
ATOM     76  S   UNL     1       5.861  16.294 -10.857  1.00  0.00     0.127 S 
ATOM     77  O   UNL     1       6.200  14.905 -11.166  1.00  0.00    -0.237 OA
ATOM     78  O   UNL     1       6.359  17.272 -11.824  1.00  0.00    -0.237 OA
ATOM     79  O   UNL     1       6.021  16.683  -9.463  1.00  0.00    -0.744 OA
ENDBRANCH  73  76
ENDBRANCH  55  69
BRANCH  56  80
ATOM     80  C   UNL     1      -5.044  17.027  -3.194  1.00  0.00     0.023 A 
ATOM     81  C   UNL     1      -6.133  17.914  -3.295  1.00  0.00     0.012 A 
ATOM     82  C   UNL     1      -4.931  16.205  -2.057  1.00  0.00     0.148 A 
ATOM     83  C   UNL     1      -7.073  18.007  -2.268  1.00  0.00     0.002 A 
ATOM     84  C   UNL     1      -5.901  16.263  -1.062  1.00  0.00     0.091 A 
ATOM     85  F   UNL     1      -3.882  15.374  -1.975  1.00  0.00    -0.205 F 
ATOM     86  C   UNL     1      -6.963  17.176  -1.157  1.00  0.00     0.022 A 
BRANCH  84  87
ATOM     87  S   UNL     1      -5.910  15.138   0.339  1.00  0.00     0.127 S 
ATOM     88  O   UNL     1      -5.522  16.021   1.435  1.00  0.00    -0.237 OA
ATOM     89  O   UNL     1      -7.305  14.698   0.365  1.00  0.00    -0.237 OA
ATOM     90  O   UNL     1      -4.958  14.087   0.003  1.00  0.00    -0.744 OA
ENDBRANCH  84  87
ENDBRANCH  56  80
BRANCH  68  91
ATOM     91  C   UNL     1      -0.445  21.561  -5.856  1.00  0.00     0.023 A 
ATOM     92  C   UNL     1       0.275  21.859  -4.682  1.00  0.00     0.012 A 
ATOM     93  C   UNL     1      -0.774  22.599  -6.750  1.00  0.00     0.148 A 
ATOM     94  C   UNL     1       0.633  23.174  -4.387  1.00  0.00     0.002 A 
ATOM     95  C   UNL     1      -0.370  23.899  -6.473  1.00  0.00     0.091 A 
ATOM     96  F   UNL     1      -1.477  22.297  -7.851  1.00  0.00    -0.205 F 
ATOM     97  C   UNL     1       0.323  24.191  -5.288  1.00  0.00     0.022 A 
BRANCH  95  98
ATOM     98  S   UNL     1      -0.641  25.252  -7.624  1.00  0.00     0.127 S 
ATOM     99  O   UNL     1      -1.729  25.982  -6.976  1.00  0.00    -0.237 OA
ATOM    100  O   UNL     1       0.650  25.940  -7.606  1.00  0.00    -0.237 OA
ATOM    101  O   UNL     1      -0.974  24.631  -8.899  1.00  0.00    -0.744 OA
ENDBRANCH  95  98
ENDBRANCH  68  91
ENDBRANCH  42  43
ENDBRANCH  34  37
ENDBRANCH  32  33
ENDBRANCH  31  32
ENDBRANCH   1  31
TORSDOF 21
