REMARK SMILES O=C(NCCCCCCNC(=O)[C@@H]1CS[C@H](c2ncc(-c3ccccc3)s2)[NH2+]1)c1ccc(-c2c3nc(c(-c4cccc(S(=O)(=O)[O-])c4F)c4ccc([nH]4)c(-c4cccc(S(=O)(=O)[O-])c4F)c4nc(c(-c5cccc(S(=O)(=O)[O-])c5F)c5ccc2[nH]5)C=C4)C=C3)cc1
REMARK SMILES IDX 6 1 5 2 4 3 3 4 1 5 2 6 29 8 30 9 91 10 31 11 90 12 32 13
REMARK SMILES IDX 33 14 34 15 84 16 35 17 89 18 83 19 85 20 36 21 88 22 82 23
REMARK SMILES IDX 81 24 37 26 69 27 49 28 68 29 50 30 53 31 67 32 86 33 51 34
REMARK SMILES IDX 52 35 66 37 87 38 54 39 38 40 39 41 47 42 40 43 42 44 48 45
REMARK SMILES IDX 41 46 43 47 44 48 45 49 46 50 70 51 71 52 79 53 72 54 74 55
REMARK SMILES IDX 80 56 73 57 75 58 76 59 77 60 78 61 55 62 56 63 64 64 57 65
REMARK SMILES IDX 59 66 65 67 58 68 60 69 61 70 62 71 63 72 7 73 8 74 9 75
REMARK SMILES IDX 10 76 11 77 12 79 13 80 14 81 28 82 15 83 16 84 17 87 18 88
REMARK SMILES IDX 27 89 19 90 20 91 21 92 22 93 26 94 23 95 25 96 24 97
REMARK H PARENT 3 7 85 25 53 36 10 78 28 85 28 86
REMARK Flexibility Score: inf
ROOT
ATOM      1  C   UNL     1       6.862   7.184  -2.340  1.00  0.00     0.002 C 
ENDROOT
BRANCH   1   2
ATOM      2  C   UNL     1       5.758   8.241  -2.306  1.00  0.00     0.021 C 
BRANCH   2   3
ATOM      3  C   UNL     1       6.070   9.509  -3.087  1.00  0.00     0.116 C 
BRANCH   3   4
ATOM      4  N   UNL     1       6.105   9.275  -4.518  1.00  0.00    -0.352 N 
ATOM      5  O   UNL     1       5.423   9.515  -6.652  1.00  0.00    -0.269 OA
ATOM      6  C   UNL     1       5.446   9.961  -5.509  1.00  0.00     0.251 C 
ATOM      7  H   UNL     1       6.673   8.528  -4.818  1.00  0.00     0.163 HD
BRANCH   6   8
ATOM      8  C   UNL     1       4.752  11.227  -5.178  1.00  0.00     0.039 A 
ATOM      9  C   UNL     1       5.380  12.193  -4.386  1.00  0.00     0.014 A 
ATOM     10  C   UNL     1       3.469  11.456  -5.681  1.00  0.00     0.014 A 
ATOM     11  C   UNL     1       4.690  13.342  -4.015  1.00  0.00     0.010 A 
ATOM     12  C   UNL     1       2.805  12.646  -5.370  1.00  0.00     0.010 A 
ATOM     13  C   UNL     1       3.407  13.594  -4.528  1.00  0.00    -0.014 A 
BRANCH  13  14
ATOM     14  C   UNL     1       2.780  14.918  -4.292  1.00  0.00     0.031 A 
ATOM     15  C   UNL     1       1.516  15.064  -3.495  1.00  0.00     0.074 A 
ATOM     16  C   UNL     1       3.364  15.997  -4.850  1.00  0.00     0.049 A 
ATOM     17  N   UNL     1       0.858  16.156  -3.203  1.00  0.00    -0.248 NA
ATOM     18  C   UNL     1       0.905  13.836  -2.961  1.00  0.00     0.031 C 
ATOM     19  C   UNL     1       4.560  15.960  -5.698  1.00  0.00     0.029 A 
ATOM     20  N   UNL     1       3.031  17.326  -4.808  1.00  0.00    -0.354 N 
ATOM     21  C   UNL     1      -0.263  15.751  -2.489  1.00  0.00     0.074 A 
ATOM     22  C   UNL     1      -0.195  14.308  -2.385  1.00  0.00     0.031 C 
ATOM     23  C   UNL     1       4.863  17.205  -6.089  1.00  0.00     0.029 A 
ATOM     24  C   UNL     1       3.860  18.122  -5.564  1.00  0.00     0.049 A 
ATOM     25  H   UNL     1       2.273  17.677  -4.287  1.00  0.00     0.167 HD
ATOM     26  C   UNL     1      -1.248  16.517  -1.962  1.00  0.00     0.034 A 
ATOM     27  C   UNL     1       3.806  19.440  -5.832  1.00  0.00     0.034 A 
ATOM     28  C   UNL     1      -1.283  17.954  -2.038  1.00  0.00     0.049 A 
ATOM     29  C   UNL     1       2.712  20.259  -5.210  1.00  0.00     0.074 A 
ATOM     30  C   UNL     1      -2.181  18.823  -1.442  1.00  0.00     0.029 A 
ATOM     31  N   UNL     1      -0.399  18.733  -2.768  1.00  0.00    -0.354 N 
ATOM     32  N   UNL     1       1.765  19.877  -4.389  1.00  0.00    -0.248 NA
ATOM     33  C   UNL     1       2.693  21.692  -5.532  1.00  0.00     0.031 C 
ATOM     34  C   UNL     1      -1.855  20.126  -1.833  1.00  0.00     0.029 A 
ATOM     35  C   UNL     1      -0.745  20.070  -2.659  1.00  0.00     0.049 A 
ATOM     36  H   UNL     1       0.362  18.387  -3.287  1.00  0.00     0.167 HD
ATOM     37  C   UNL     1       1.043  21.024  -4.086  1.00  0.00     0.074 A 
ATOM     38  C   UNL     1       1.688  22.120  -4.780  1.00  0.00     0.031 C 
ATOM     39  C   UNL     1      -0.070  21.154  -3.325  1.00  0.00     0.034 A 
BRANCH  26  40
ATOM     40  C   UNL     1      -2.362  15.836  -1.212  1.00  0.00     0.023 A 
ATOM     41  C   UNL     1      -2.136  15.380   0.101  1.00  0.00     0.012 A 
ATOM     42  C   UNL     1      -3.660  15.764  -1.757  1.00  0.00     0.148 A 
ATOM     43  C   UNL     1      -3.182  14.853   0.859  1.00  0.00     0.002 A 
ATOM     44  C   UNL     1      -4.705  15.269  -0.984  1.00  0.00     0.091 A 
ATOM     45  F   UNL     1      -3.849  16.190  -3.014  1.00  0.00    -0.205 F 
ATOM     46  C   UNL     1      -4.466  14.810   0.321  1.00  0.00     0.022 A 
BRANCH  44  47
ATOM     47  S   UNL     1      -6.408  15.235  -1.555  1.00  0.00     0.127 S 
ATOM     48  O   UNL     1      -6.649  13.798  -1.674  1.00  0.00    -0.237 OA
ATOM     49  O   UNL     1      -7.115  15.882  -0.450  1.00  0.00    -0.237 OA
ATOM     50  O   UNL     1      -6.428  15.974  -2.809  1.00  0.00    -0.744 OA
ENDBRANCH  44  47
ENDBRANCH  26  40
BRANCH  27  51
ATOM     51  C   UNL     1       4.834  20.060  -6.712  1.00  0.00     0.023 A 
ATOM     52  C   UNL     1       5.772  20.954  -6.163  1.00  0.00     0.012 A 
ATOM     53  C   UNL     1       4.911  19.739  -8.081  1.00  0.00     0.148 A 
ATOM     54  C   UNL     1       6.753  21.536  -6.968  1.00  0.00     0.002 A 
ATOM     55  C   UNL     1       5.927  20.274  -8.863  1.00  0.00     0.091 A 
ATOM     56  F   UNL     1       3.995  18.904  -8.594  1.00  0.00    -0.205 F 
ATOM     57  C   UNL     1       6.839  21.186  -8.314  1.00  0.00     0.022 A 
BRANCH  55  58
ATOM     58  S   UNL     1       6.183  19.744 -10.560  1.00  0.00     0.127 S 
ATOM     59  O   UNL     1       5.508  20.799 -11.310  1.00  0.00    -0.237 OA
ATOM     60  O   UNL     1       7.643  19.746 -10.671  1.00  0.00    -0.237 OA
ATOM     61  O   UNL     1       5.586  18.417 -10.635  1.00  0.00    -0.744 OA
ENDBRANCH  55  58
ENDBRANCH  27  51
BRANCH  39  62
ATOM     62  C   UNL     1      -0.664  22.531  -3.204  1.00  0.00     0.023 A 
ATOM     63  C   UNL     1      -1.357  23.082  -4.300  1.00  0.00     0.012 A 
ATOM     64  C   UNL     1      -0.587  23.252  -1.998  1.00  0.00     0.148 A 
ATOM     65  C   UNL     1      -1.938  24.345  -4.208  1.00  0.00     0.002 A 
ATOM     66  C   UNL     1      -1.208  24.492  -1.898  1.00  0.00     0.091 A 
ATOM     67  F   UNL     1       0.095  22.718  -0.974  1.00  0.00    -0.205 F 
ATOM     68  C   UNL     1      -1.874  25.044  -3.005  1.00  0.00     0.022 A 
BRANCH  66  69
ATOM     69  S   UNL     1      -1.251  25.424  -0.364  1.00  0.00     0.127 S 
ATOM     70  O   UNL     1      -0.295  26.494  -0.638  1.00  0.00    -0.237 OA
ATOM     71  O   UNL     1      -2.648  25.854  -0.299  1.00  0.00    -0.237 OA
ATOM     72  O   UNL     1      -0.861  24.488   0.683  1.00  0.00    -0.744 OA
ENDBRANCH  66  69
ENDBRANCH  39  62
ENDBRANCH  13  14
ENDBRANCH   6   8
ENDBRANCH   3   4
ENDBRANCH   2   3
ENDBRANCH   1   2
BRANCH   1  73
ATOM     73  C   UNL     1       8.226   7.642  -1.813  1.00  0.00     0.002 C 
BRANCH  73  74
ATOM     74  C   UNL     1       8.219   8.295  -0.422  1.00  0.00     0.021 C 
BRANCH  74  75
ATOM     75  C   UNL     1       7.526   7.476   0.665  1.00  0.00     0.116 C 
BRANCH  75  76
ATOM     76  N   UNL     1       8.162   6.190   0.842  1.00  0.00    -0.351 N 
ATOM     77  C   UNL     1       8.761   5.628   1.926  1.00  0.00     0.279 C 
ATOM     78  H   UNL     1       8.163   5.622   0.038  1.00  0.00     0.163 HD
ATOM     79  O   UNL     1       9.078   4.442   1.805  1.00  0.00    -0.268 OA
BRANCH  77  80
ATOM     80  C   UNL     1       8.938   6.431   3.238  1.00  0.00     0.284 C 
ATOM     81  C   UNL     1       9.721   7.734   3.055  1.00  0.00     0.151 C 
ATOM     82  N   UNL     1       9.571   5.562   4.288  1.00  0.00    -0.319 N 
ATOM     83  S   UNL     1      10.608   7.921   4.608  1.00  0.00    -0.085 SA
ATOM     84  C   UNL     1      10.868   6.127   4.700  1.00  0.00     0.303 C 
ATOM     85  H   UNL     1       9.716   4.627   3.909  1.00  0.00     0.348 HD
ATOM     86  H   UNL     1       8.954   5.517   5.099  1.00  0.00     0.348 HD
BRANCH  84  87
ATOM     87  C   UNL     1      12.082   5.712   3.870  1.00  0.00     0.162 A 
ATOM     88  N   UNL     1      13.234   6.366   3.862  1.00  0.00    -0.242 NA
ATOM     89  S   UNL     1      12.072   4.303   2.874  1.00  0.00    -0.112 S 
ATOM     90  C   UNL     1      14.080   5.832   2.910  1.00  0.00     0.132 A 
ATOM     91  C   UNL     1      13.585   4.750   2.216  1.00  0.00     0.055 A 
BRANCH  91  92
ATOM     92  C   UNL     1      14.148   4.017   1.093  1.00  0.00    -0.007 A 
ATOM     93  C   UNL     1      13.639   4.216  -0.198  1.00  0.00     0.009 A 
ATOM     94  C   UNL     1      15.205   3.120   1.282  1.00  0.00     0.009 A 
ATOM     95  C   UNL     1      14.175   3.524  -1.284  1.00  0.00     0.001 A 
ATOM     96  C   UNL     1      15.737   2.424   0.194  1.00  0.00     0.001 A 
ATOM     97  C   UNL     1      15.222   2.626  -1.087  1.00  0.00     0.000 A 
ENDBRANCH  91  92
ENDBRANCH  84  87
ENDBRANCH  77  80
ENDBRANCH  75  76
ENDBRANCH  74  75
ENDBRANCH  73  74
ENDBRANCH   1  73
TORSDOF 18
