REMARK SMILES O=C(NCCCCCCNC(=O)c1ccccc1NC(=O)c1ccc(N2C(=O)[C@H]3CC=CC[C@H]3C2=O)cc1)c1ccc(-c2c3nc(c(-c4cccc(S(=O)(=O)[O-])c4F)c4ccc([nH]4)c(-c4cccc(S(=O)(=O)[O-])c4F)c4nc(c(-c5cccc(S(=O)(=O)[O-])c5F)c5ccc2[nH]5)C=C4)C=C3)cc1
REMARK SMILES IDX 6 1 5 2 4 3 3 4 1 5 2 6 39 8 40 9 101 10 41 11 100 12 42 13
REMARK SMILES IDX 43 14 44 15 94 16 45 17 99 18 93 19 95 20 46 21 98 22 92 23
REMARK SMILES IDX 91 24 47 26 79 27 59 28 78 29 60 30 63 31 77 32 96 33 61 34
REMARK SMILES IDX 62 35 76 37 97 38 64 39 48 40 49 41 57 42 50 43 52 44 58 45
REMARK SMILES IDX 51 46 53 47 54 48 55 49 56 50 80 51 81 52 89 53 82 54 84 55
REMARK SMILES IDX 90 56 83 57 85 58 86 59 87 60 88 61 65 62 66 63 74 64 67 65
REMARK SMILES IDX 69 66 75 67 68 68 70 69 71 70 72 71 73 72 7 73 8 74 9 75
REMARK SMILES IDX 10 76 11 77 12 79 13 80 14 81 18 82 15 83 17 84 16 85 19 86
REMARK SMILES IDX 20 87 21 89 22 90 23 91 38 92 24 93 37 94 25 95 26 96 27 97
REMARK SMILES IDX 35 98 28 99 29 100 34 101 36 102 30 103 33 104 31 105 32 106
REMARK H PARENT 3 7 95 25 63 36 10 78 19 88
REMARK Flexibility Score: inf
ROOT
ATOM      1  C   UNL     1       4.291   3.862  -0.571  1.00  0.00     0.002 C 
ENDROOT
BRANCH   1   2
ATOM      2  C   UNL     1       4.751   2.479  -1.031  1.00  0.00     0.021 C 
BRANCH   2   3
ATOM      3  C   UNL     1       4.476   1.346  -0.053  1.00  0.00     0.116 C 
BRANCH   3   4
ATOM      4  N   UNL     1       3.058   1.129   0.174  1.00  0.00    -0.352 N 
ATOM      5  O   UNL     1       1.122  -0.026   0.193  1.00  0.00    -0.269 OA
ATOM      6  C   UNL     1       2.348  -0.047   0.117  1.00  0.00     0.251 C 
ATOM      7  H   UNL     1       2.534   1.932   0.399  1.00  0.00     0.163 HD
BRANCH   6   8
ATOM      8  C   UNL     1       3.067  -1.327  -0.063  1.00  0.00     0.039 A 
ATOM      9  C   UNL     1       4.217  -1.608   0.680  1.00  0.00     0.014 A 
ATOM     10  C   UNL     1       2.588  -2.256  -0.990  1.00  0.00     0.014 A 
ATOM     11  C   UNL     1       4.960  -2.751   0.402  1.00  0.00     0.010 A 
ATOM     12  C   UNL     1       3.290  -3.445  -1.208  1.00  0.00     0.010 A 
ATOM     13  C   UNL     1       4.496  -3.691  -0.533  1.00  0.00    -0.014 A 
BRANCH  13  14
ATOM     14  C   UNL     1       5.241  -4.963  -0.716  1.00  0.00     0.031 A 
ATOM     15  C   UNL     1       5.881  -5.319  -2.030  1.00  0.00     0.074 A 
ATOM     16  C   UNL     1       5.325  -5.809   0.330  1.00  0.00     0.049 A 
ATOM     17  N   UNL     1       6.576  -6.384  -2.340  1.00  0.00    -0.248 NA
ATOM     18  C   UNL     1       5.718  -4.368  -3.141  1.00  0.00     0.031 C 
ATOM     19  C   UNL     1       4.699  -5.593   1.638  1.00  0.00     0.029 A 
ATOM     20  N   UNL     1       5.960  -7.018   0.464  1.00  0.00    -0.354 N 
ATOM     21  C   UNL     1       6.900  -6.254  -3.685  1.00  0.00     0.074 A 
ATOM     22  C   UNL     1       6.322  -5.006  -4.136  1.00  0.00     0.031 C 
ATOM     23  C   UNL     1       4.997  -6.621   2.445  1.00  0.00     0.029 A 
ATOM     24  C   UNL     1       5.788  -7.593   1.701  1.00  0.00     0.049 A 
ATOM     25  H   UNL     1       6.487  -7.433  -0.257  1.00  0.00     0.167 HD
ATOM     26  C   UNL     1       7.624  -7.092  -4.466  1.00  0.00     0.034 A 
ATOM     27  C   UNL     1       6.204  -8.779   2.182  1.00  0.00     0.034 A 
ATOM     28  C   UNL     1       8.228  -8.313  -3.998  1.00  0.00     0.049 A 
ATOM     29  C   UNL     1       7.029  -9.670   1.299  1.00  0.00     0.074 A 
ATOM     30  C   UNL     1       9.041  -9.191  -4.695  1.00  0.00     0.029 A 
ATOM     31  N   UNL     1       8.081  -8.835  -2.723  1.00  0.00    -0.354 N 
ATOM     32  N   UNL     1       7.443  -9.460   0.074  1.00  0.00    -0.248 NA
ATOM     33  C   UNL     1       7.469 -10.949   1.874  1.00  0.00     0.031 C 
ATOM     34  C   UNL     1       9.367 -10.254  -3.847  1.00  0.00     0.029 A 
ATOM     35  C   UNL     1       8.777 -10.028  -2.614  1.00  0.00     0.049 A 
ATOM     36  H   UNL     1       7.558  -8.419  -2.000  1.00  0.00     0.167 HD
ATOM     37  C   UNL     1       8.213 -10.566  -0.262  1.00  0.00     0.074 A 
ATOM     38  C   UNL     1       8.233 -11.429   0.901  1.00  0.00     0.031 C 
ATOM     39  C   UNL     1       8.831 -10.851  -1.434  1.00  0.00     0.034 A 
BRANCH  26  40
ATOM     40  C   UNL     1       7.849  -6.708  -5.906  1.00  0.00     0.023 A 
ATOM     41  C   UNL     1       8.770  -5.687  -6.216  1.00  0.00     0.012 A 
ATOM     42  C   UNL     1       7.231  -7.422  -6.952  1.00  0.00     0.148 A 
ATOM     43  C   UNL     1       9.058  -5.369  -7.543  1.00  0.00     0.002 A 
ATOM     44  C   UNL     1       7.552  -7.125  -8.272  1.00  0.00     0.091 A 
ATOM     45  F   UNL     1       6.346  -8.378  -6.637  1.00  0.00    -0.205 F 
ATOM     46  C   UNL     1       8.459  -6.095  -8.569  1.00  0.00     0.022 A 
BRANCH  44  47
ATOM     47  S   UNL     1       6.896  -8.053  -9.665  1.00  0.00     0.127 S 
ATOM     48  O   UNL     1       6.003  -7.072 -10.279  1.00  0.00    -0.237 OA
ATOM     49  O   UNL     1       8.104  -8.345 -10.437  1.00  0.00    -0.237 OA
ATOM     50  O   UNL     1       6.241  -9.223  -9.096  1.00  0.00    -0.744 OA
ENDBRANCH  44  47
ENDBRANCH  26  40
BRANCH  27  51
ATOM     51  C   UNL     1       5.878  -9.166   3.583  1.00  0.00     0.023 A 
ATOM     52  C   UNL     1       6.907  -9.233   4.542  1.00  0.00     0.012 A 
ATOM     53  C   UNL     1       4.552  -9.426   3.979  1.00  0.00     0.148 A 
ATOM     54  C   UNL     1       6.624  -9.581   5.863  1.00  0.00     0.002 A 
ATOM     55  C   UNL     1       4.269  -9.711   5.309  1.00  0.00     0.091 A 
ATOM     56  F   UNL     1       3.587  -9.375   3.049  1.00  0.00    -0.205 F 
ATOM     57  C   UNL     1       5.305  -9.807   6.250  1.00  0.00     0.022 A 
BRANCH  55  58
ATOM     58  S   UNL     1       2.583  -9.867   5.910  1.00  0.00     0.127 S 
ATOM     59  O   UNL     1       2.442 -11.315   6.030  1.00  0.00    -0.237 OA
ATOM     60  O   UNL     1       2.642  -9.145   7.182  1.00  0.00    -0.237 OA
ATOM     61  O   UNL     1       1.754  -9.224   4.899  1.00  0.00    -0.744 OA
ENDBRANCH  55  58
ENDBRANCH  27  51
BRANCH  39  62
ATOM     62  C   UNL     1       9.605 -12.139  -1.512  1.00  0.00     0.023 A 
ATOM     63  C   UNL     1       8.914 -13.364  -1.585  1.00  0.00     0.012 A 
ATOM     64  C   UNL     1      11.012 -12.132  -1.574  1.00  0.00     0.148 A 
ATOM     65  C   UNL     1       9.613 -14.567  -1.685  1.00  0.00     0.002 A 
ATOM     66  C   UNL     1      11.700 -13.330  -1.721  1.00  0.00     0.091 A 
ATOM     67  F   UNL     1      11.652 -10.957  -1.481  1.00  0.00    -0.205 F 
ATOM     68  C   UNL     1      11.004 -14.549  -1.765  1.00  0.00     0.022 A 
BRANCH  66  69
ATOM     69  S   UNL     1      13.484 -13.394  -1.923  1.00  0.00     0.127 S 
ATOM     70  O   UNL     1      13.915 -13.883  -0.614  1.00  0.00    -0.237 OA
ATOM     71  O   UNL     1      13.641 -14.354  -3.015  1.00  0.00    -0.237 OA
ATOM     72  O   UNL     1      13.898 -12.036  -2.251  1.00  0.00    -0.744 OA
ENDBRANCH  66  69
ENDBRANCH  39  62
ENDBRANCH  13  14
ENDBRANCH   6   8
ENDBRANCH   3   4
ENDBRANCH   2   3
ENDBRANCH   1   2
BRANCH   1  73
ATOM     73  C   UNL     1       4.799   4.307   0.804  1.00  0.00     0.002 C 
BRANCH  73  74
ATOM     74  C   UNL     1       6.318   4.253   1.012  1.00  0.00     0.021 C 
BRANCH  74  75
ATOM     75  C   UNL     1       7.150   4.971  -0.048  1.00  0.00     0.116 C 
BRANCH  75  76
ATOM     76  N   UNL     1       6.792   6.375  -0.161  1.00  0.00    -0.352 N 
ATOM     77  C   UNL     1       7.593   7.484  -0.153  1.00  0.00     0.253 C 
ATOM     78  H   UNL     1       5.829   6.554  -0.257  1.00  0.00     0.163 HD
ATOM     79  O   UNL     1       7.087   8.601  -0.077  1.00  0.00    -0.269 OA
BRANCH  77  80
ATOM     80  C   UNL     1       9.063   7.365  -0.243  1.00  0.00     0.063 A 
ATOM     81  C   UNL     1       9.790   8.011   0.771  1.00  0.00     0.016 A 
ATOM     82  C   UNL     1       9.721   6.734  -1.321  1.00  0.00     0.054 A 
ATOM     83  C   UNL     1      11.179   8.043   0.727  1.00  0.00     0.001 A 
ATOM     84  C   UNL     1      11.115   6.850  -1.379  1.00  0.00     0.027 A 
ATOM     85  C   UNL     1      11.839   7.478  -0.357  1.00  0.00     0.002 A 
BRANCH  82  86
ATOM     86  N   UNL     1       8.957   6.050  -2.297  1.00  0.00    -0.321 N 
ATOM     87  C   UNL     1       9.255   5.114  -3.261  1.00  0.00     0.255 C 
ATOM     88  H   UNL     1       8.004   6.299  -2.283  1.00  0.00     0.170 HD
ATOM     89  O   UNL     1       8.371   4.717  -4.018  1.00  0.00    -0.269 OA
BRANCH  87  90
ATOM     90  C   UNL     1      10.606   4.554  -3.411  1.00  0.00     0.040 A 
ATOM     91  C   UNL     1      11.277   4.799  -4.606  1.00  0.00     0.016 A 
ATOM     92  C   UNL     1      11.235   3.857  -2.380  1.00  0.00     0.016 A 
ATOM     93  C   UNL     1      12.631   4.480  -4.712  1.00  0.00     0.027 A 
ATOM     94  C   UNL     1      12.593   3.531  -2.499  1.00  0.00     0.027 A 
ATOM     95  C   UNL     1      13.329   3.897  -3.641  1.00  0.00     0.052 A 
BRANCH  95  96
ATOM     96  N   UNL     1      14.750   3.772  -3.675  1.00  0.00    -0.250 N 
ATOM     97  C   UNL     1      15.569   4.585  -4.426  1.00  0.00     0.238 C 
ATOM     98  C   UNL     1      15.472   2.900  -2.898  1.00  0.00     0.238 C 
ATOM     99  O   UNL     1      15.254   5.478  -5.204  1.00  0.00    -0.274 OA
ATOM    100  C   UNL     1      17.014   4.273  -4.119  1.00  0.00     0.096 C 
ATOM    101  C   UNL     1      16.947   3.177  -3.058  1.00  0.00     0.096 C 
ATOM    102  O   UNL     1      15.055   1.998  -2.182  1.00  0.00    -0.274 OA
ATOM    103  C   UNL     1      17.745   5.556  -3.707  1.00  0.00     0.041 C 
ATOM    104  C   UNL     1      17.547   3.517  -1.689  1.00  0.00     0.041 C 
ATOM    105  C   UNL     1      17.518   5.918  -2.269  1.00  0.00    -0.030 C 
ATOM    106  C   UNL     1      17.422   4.968  -1.332  1.00  0.00    -0.030 C 
ENDBRANCH  95  96
ENDBRANCH  87  90
ENDBRANCH  82  86
ENDBRANCH  77  80
ENDBRANCH  75  76
ENDBRANCH  74  75
ENDBRANCH  73  74
ENDBRANCH   1  73
TORSDOF 19
