REMARK SMILES Cc1cscc1C(=O)N1C[C@@H](C(=O)NCCCCCCNC(=O)c2ccc(-c3c4nc(c(-c5cccc(S(=O)(=O)[O-])c5F)c5ccc([nH]5)c(-c5cccc(S(=O)(=O)[O-])c5F)c5nc(c(-c6cccc(S(=O)(=O)[O-])c6F)c6ccc3[nH]6)C=C5)C=C4)cc2)Oc2ccccc21
REMARK SMILES IDX 18 1 17 2 16 3 15 4 14 5 12 6 13 7 11 9 9 10 10 11 93 12
REMARK SMILES IDX 88 13 92 14 87 15 89 16 91 17 90 18 7 19 8 20 6 21 1 22 2 23
REMARK SMILES IDX 3 24 4 25 5 26 19 27 20 28 21 29 22 30 23 32 24 33 25 34
REMARK SMILES IDX 86 35 26 36 85 37 27 38 28 39 29 40 79 41 30 42 84 43 78 44
REMARK SMILES IDX 80 45 31 46 83 47 77 48 76 49 32 51 64 52 44 53 63 54 45 55
REMARK SMILES IDX 48 56 62 57 81 58 46 59 47 60 61 62 82 63 49 64 33 65 34 66
REMARK SMILES IDX 42 67 35 68 37 69 43 70 36 71 38 72 39 73 40 74 41 75 65 76
REMARK SMILES IDX 66 77 74 78 67 79 69 80 75 81 68 82 70 83 71 84 72 85 73 86
REMARK SMILES IDX 50 87 51 88 59 89 52 90 54 91 60 92 53 93 55 94 56 95 57 96
REMARK SMILES IDX 58 97
REMARK H PARENT 14 8 21 31 80 50 48 61
REMARK Flexibility Score: inf
ROOT
ATOM      1  C   UNL     1       3.672   8.355   0.364  1.00  0.00     0.002 C 
ENDROOT
BRANCH   1   2
ATOM      2  C   UNL     1       4.486   8.321  -0.931  1.00  0.00     0.002 C 
BRANCH   2   3
ATOM      3  C   UNL     1       5.612   7.283  -1.002  1.00  0.00     0.021 C 
BRANCH   3   4
ATOM      4  C   UNL     1       5.197   5.832  -0.771  1.00  0.00     0.116 C 
BRANCH   4   5
ATOM      5  N   UNL     1       4.261   5.338  -1.760  1.00  0.00    -0.353 N 
ATOM      6  C   UNL     1       3.863   4.061  -2.014  1.00  0.00     0.262 C 
ATOM      7  O   UNL     1       2.963   3.912  -2.851  1.00  0.00    -0.271 OA
ATOM      8  H   UNL     1       3.854   6.027  -2.334  1.00  0.00     0.163 HD
BRANCH   6   9
ATOM      9  C   UNL     1       4.542   2.822  -1.376  1.00  0.00     0.281 C 
ATOM     10  N   UNL     1       2.797   2.218   0.262  1.00  0.00    -0.301 N 
ATOM     11  C   UNL     1       3.463   1.803  -0.977  1.00  0.00     0.181 C 
ATOM     12  C   UNL     1       3.655   2.808   1.238  1.00  0.00     0.086 A 
ATOM     13  C   UNL     1       4.997   3.061   0.916  1.00  0.00     0.144 A 
ATOM     14  C   UNL     1       3.221   3.079   2.542  1.00  0.00     0.030 A 
ATOM     15  O   UNL     1       5.516   2.937  -0.349  1.00  0.00    -0.477 OA
ATOM     16  C   UNL     1       5.893   3.517   1.887  1.00  0.00     0.049 A 
ATOM     17  C   UNL     1       4.109   3.570   3.504  1.00  0.00     0.002 A 
ATOM     18  C   UNL     1       5.447   3.777   3.180  1.00  0.00     0.004 A 
BRANCH  10  19
ATOM     19  C   UNL     1       1.414   2.211   0.408  1.00  0.00     0.259 C 
ATOM     20  O   UNL     1       0.804   3.160   0.910  1.00  0.00    -0.269 OA
BRANCH  19  21
ATOM     21  C   UNL     1       0.662   1.019  -0.024  1.00  0.00     0.053 A 
ATOM     22  C   UNL     1       2.346  -0.968   0.426  1.00  0.00     0.046 C 
ATOM     23  C   UNL     1       1.038  -0.386  -0.004  1.00  0.00    -0.028 A 
ATOM     24  C   UNL     1      -0.020  -1.192  -0.392  1.00  0.00     0.069 A 
ATOM     25  S   UNL     1      -1.437  -0.320  -0.753  1.00  0.00    -0.151 S 
ATOM     26  C   UNL     1      -0.669   1.155  -0.394  1.00  0.00     0.079 A 
ENDBRANCH  19  21
ENDBRANCH  10  19
ENDBRANCH   6   9
ENDBRANCH   4   5
ENDBRANCH   3   4
ENDBRANCH   2   3
ENDBRANCH   1   2
BRANCH   1  27
ATOM     27  C   UNL     1       4.461   8.545   1.662  1.00  0.00     0.021 C 
BRANCH  27  28
ATOM     28  C   UNL     1       5.439   9.717   1.697  1.00  0.00     0.116 C 
BRANCH  28  29
ATOM     29  N   UNL     1       4.818  11.000   1.419  1.00  0.00    -0.352 N 
ATOM     30  C   UNL     1       5.059  12.231   1.980  1.00  0.00     0.251 C 
ATOM     31  H   UNL     1       4.120  10.986   0.726  1.00  0.00     0.163 HD
ATOM     32  O   UNL     1       4.363  13.189   1.650  1.00  0.00    -0.269 OA
BRANCH  30  33
ATOM     33  C   UNL     1       6.124  12.413   2.996  1.00  0.00     0.039 A 
ATOM     34  C   UNL     1       5.846  13.210   4.112  1.00  0.00     0.014 A 
ATOM     35  C   UNL     1       7.393  11.845   2.851  1.00  0.00     0.014 A 
ATOM     36  C   UNL     1       6.816  13.394   5.102  1.00  0.00     0.010 A 
ATOM     37  C   UNL     1       8.342  11.984   3.865  1.00  0.00     0.010 A 
ATOM     38  C   UNL     1       8.067  12.766   4.997  1.00  0.00    -0.014 A 
BRANCH  38  39
ATOM     39  C   UNL     1       9.086  12.914   6.069  1.00  0.00     0.031 A 
ATOM     40  C   UNL     1      10.374  13.646   5.806  1.00  0.00     0.074 A 
ATOM     41  C   UNL     1       8.884  12.324   7.264  1.00  0.00     0.049 A 
ATOM     42  N   UNL     1      11.373  13.872   6.621  1.00  0.00    -0.248 NA
ATOM     43  C   UNL     1      10.579  14.172   4.447  1.00  0.00     0.031 C 
ATOM     44  C   UNL     1       7.724  11.504   7.616  1.00  0.00     0.029 A 
ATOM     45  N   UNL     1       9.662  12.303   8.395  1.00  0.00    -0.354 N 
ATOM     46  C   UNL     1      12.337  14.532   5.868  1.00  0.00     0.074 A 
ATOM     47  C   UNL     1      11.815  14.648   4.524  1.00  0.00     0.031 C 
ATOM     48  C   UNL     1       7.867  11.058   8.875  1.00  0.00     0.029 A 
ATOM     49  C   UNL     1       9.128  11.554   9.418  1.00  0.00     0.049 A 
ATOM     50  H   UNL     1      10.521  12.778   8.468  1.00  0.00     0.167 HD
ATOM     51  C   UNL     1      13.533  15.027   6.266  1.00  0.00     0.034 A 
ATOM     52  C   UNL     1       9.595  11.303  10.657  1.00  0.00     0.034 A 
ATOM     53  C   UNL     1      14.022  14.974   7.617  1.00  0.00     0.049 A 
ATOM     54  C   UNL     1      10.883  11.943  11.101  1.00  0.00     0.074 A 
ATOM     55  C   UNL     1      15.166  15.551   8.142  1.00  0.00     0.029 A 
ATOM     56  N   UNL     1      13.398  14.307   8.659  1.00  0.00    -0.354 N 
ATOM     57  N   UNL     1      11.685  12.732  10.428  1.00  0.00    -0.248 NA
ATOM     58  C   UNL     1      11.308  11.695  12.487  1.00  0.00     0.031 C 
ATOM     59  C   UNL     1      15.233  15.229   9.503  1.00  0.00     0.029 A 
ATOM     60  C   UNL     1      14.132  14.452   9.823  1.00  0.00     0.049 A 
ATOM     61  H   UNL     1      12.555  13.803   8.582  1.00  0.00     0.167 HD
ATOM     62  C   UNL     1      12.693  13.096  11.314  1.00  0.00     0.074 A 
ATOM     63  C   UNL     1      12.386  12.462  12.580  1.00  0.00     0.031 C 
ATOM     64  C   UNL     1      13.786  13.866  11.092  1.00  0.00     0.034 A 
BRANCH  51  65
ATOM     65  C   UNL     1      14.366  15.746   5.240  1.00  0.00     0.023 A 
ATOM     66  C   UNL     1      13.996  17.048   4.846  1.00  0.00     0.012 A 
ATOM     67  C   UNL     1      15.539  15.171   4.714  1.00  0.00     0.148 A 
ATOM     68  C   UNL     1      14.765  17.757   3.925  1.00  0.00     0.002 A 
ATOM     69  C   UNL     1      16.319  15.898   3.821  1.00  0.00     0.091 A 
ATOM     70  F   UNL     1      15.861  13.922   5.081  1.00  0.00    -0.205 F 
ATOM     71  C   UNL     1      15.930  17.186   3.421  1.00  0.00     0.022 A 
BRANCH  69  72
ATOM     72  S   UNL     1      17.871  15.269   3.169  1.00  0.00     0.127 S 
ATOM     73  O   UNL     1      17.482  14.867   1.817  1.00  0.00    -0.237 OA
ATOM     74  O   UNL     1      18.736  16.449   3.227  1.00  0.00    -0.237 OA
ATOM     75  O   UNL     1      18.266  14.188   4.059  1.00  0.00    -0.744 OA
ENDBRANCH  69  72
ENDBRANCH  51  65
BRANCH  52  76
ATOM     76  C   UNL     1       8.785  10.481  11.598  1.00  0.00     0.023 A 
ATOM     77  C   UNL     1       8.122  11.114  12.668  1.00  0.00     0.012 A 
ATOM     78  C   UNL     1       8.629   9.094  11.419  1.00  0.00     0.148 A 
ATOM     79  C   UNL     1       7.339  10.377  13.556  1.00  0.00     0.002 A 
ATOM     80  C   UNL     1       7.807   8.373  12.278  1.00  0.00     0.091 A 
ATOM     81  F   UNL     1       9.283   8.503  10.408  1.00  0.00    -0.205 F 
ATOM     82  C   UNL     1       7.171   9.009  13.355  1.00  0.00     0.022 A 
BRANCH  80  83
ATOM     83  S   UNL     1       7.442   6.636  11.998  1.00  0.00     0.127 S 
ATOM     84  O   UNL     1       8.379   5.980  12.905  1.00  0.00    -0.237 OA
ATOM     85  O   UNL     1       6.035   6.544  12.393  1.00  0.00    -0.237 OA
ATOM     86  O   UNL     1       7.671   6.425  10.574  1.00  0.00    -0.744 OA
ENDBRANCH  80  83
ENDBRANCH  52  76
BRANCH  64  87
ATOM     87  C   UNL     1      14.735  14.078  12.241  1.00  0.00     0.023 A 
ATOM     88  C   UNL     1      15.603  13.034  12.619  1.00  0.00     0.012 A 
ATOM     89  C   UNL     1      14.825  15.323  12.893  1.00  0.00     0.148 A 
ATOM     90  C   UNL     1      16.528  13.218  13.645  1.00  0.00     0.002 A 
ATOM     91  C   UNL     1      15.777  15.511  13.889  1.00  0.00     0.091 A 
ATOM     92  F   UNL     1      13.975  16.298  12.538  1.00  0.00    -0.205 F 
ATOM     93  C   UNL     1      16.624  14.459  14.272  1.00  0.00     0.022 A 
BRANCH  91  94
ATOM     94  S   UNL     1      16.014  17.107  14.680  1.00  0.00     0.127 S 
ATOM     95  O   UNL     1      15.220  16.961  15.898  1.00  0.00    -0.237 OA
ATOM     96  O   UNL     1      17.461  17.145  14.898  1.00  0.00    -0.237 OA
ATOM     97  O   UNL     1      15.530  18.091  13.720  1.00  0.00    -0.744 OA
ENDBRANCH  91  94
ENDBRANCH  64  87
ENDBRANCH  38  39
ENDBRANCH  30  33
ENDBRANCH  28  29
ENDBRANCH  27  28
ENDBRANCH   1  27
TORSDOF 18
