REMARK SMILES O=C(NCCCCCCNC(=O)c1cc(S(=O)(=O)Nc2cc(F)ccc2F)cc2c1OCCO2)c1ccc(-c2c3nc(c(-c4cccc(S(=O)(=O)[O-])c4F)c4ccc([nH]4)c(-c4cccc(S(=O)(=O)[O-])c4F)c4nc(c(-c5cccc(S(=O)(=O)[O-])c5F)c5ccc2[nH]5)C=C4)C=C3)cc1
REMARK SMILES IDX 6 1 5 2 4 3 3 4 1 5 2 6 35 8 36 9 97 10 37 11 96 12 38 13
REMARK SMILES IDX 39 14 40 15 90 16 41 17 95 18 89 19 91 20 42 21 94 22 88 23
REMARK SMILES IDX 87 24 43 26 75 27 55 28 74 29 56 30 59 31 73 32 92 33 57 34
REMARK SMILES IDX 58 35 72 37 93 38 60 39 44 40 45 41 53 42 46 43 48 44 54 45
REMARK SMILES IDX 47 46 49 47 50 48 51 49 52 50 76 51 77 52 85 53 78 54 80 55
REMARK SMILES IDX 86 56 79 57 81 58 82 59 83 60 84 61 61 62 62 63 70 64 63 65
REMARK SMILES IDX 65 66 71 67 64 68 66 69 67 70 68 71 69 72 7 73 8 74 9 75
REMARK SMILES IDX 10 76 11 77 12 79 13 80 14 81 30 82 15 83 29 84 31 85 28 86
REMARK SMILES IDX 34 87 32 88 33 89 16 90 17 91 18 92 19 93 20 95 21 96 26 97
REMARK SMILES IDX 22 98 25 99 27 100 23 101 24 102
REMARK H PARENT 3 7 91 25 59 36 10 78 19 94
REMARK Flexibility Score: inf
ROOT
ATOM      1  C   UNL     1       4.148  -3.451  -2.160  1.00  0.00     0.002 C 
ENDROOT
BRANCH   1   2
ATOM      2  C   UNL     1       4.642  -2.710  -0.917  1.00  0.00     0.021 C 
BRANCH   2   3
ATOM      3  C   UNL     1       4.401  -1.204  -0.896  1.00  0.00     0.116 C 
BRANCH   3   4
ATOM      4  N   UNL     1       2.993  -0.845  -0.890  1.00  0.00    -0.352 N 
ATOM      5  O   UNL     1       1.077   0.069  -0.140  1.00  0.00    -0.269 OA
ATOM      6  C   UNL     1       2.299  -0.013  -0.041  1.00  0.00     0.251 C 
ATOM      7  H   UNL     1       2.454  -1.260  -1.602  1.00  0.00     0.163 HD
BRANCH   6   8
ATOM      8  C   UNL     1       3.012   0.747   1.014  1.00  0.00     0.039 A 
ATOM      9  C   UNL     1       4.216   1.401   0.747  1.00  0.00     0.014 A 
ATOM     10  C   UNL     1       2.462   0.805   2.299  1.00  0.00     0.014 A 
ATOM     11  C   UNL     1       4.948   1.960   1.792  1.00  0.00     0.010 A 
ATOM     12  C   UNL     1       3.160   1.443   3.332  1.00  0.00     0.010 A 
ATOM     13  C   UNL     1       4.434   1.982   3.099  1.00  0.00    -0.014 A 
BRANCH  13  14
ATOM     14  C   UNL     1       5.238   2.598   4.190  1.00  0.00     0.031 A 
ATOM     15  C   UNL     1       5.745   1.778   5.348  1.00  0.00     0.074 A 
ATOM     16  C   UNL     1       5.536   3.911   4.120  1.00  0.00     0.049 A 
ATOM     17  N   UNL     1       6.531   2.143   6.330  1.00  0.00    -0.248 NA
ATOM     18  C   UNL     1       5.312   0.374   5.424  1.00  0.00     0.031 C 
ATOM     19  C   UNL     1       5.060   4.826   3.081  1.00  0.00     0.029 A 
ATOM     20  N   UNL     1       6.314   4.702   4.927  1.00  0.00    -0.354 N 
ATOM     21  C   UNL     1       6.651   1.034   7.160  1.00  0.00     0.074 A 
ATOM     22  C   UNL     1       5.851  -0.018   6.571  1.00  0.00     0.031 C 
ATOM     23  C   UNL     1       5.588   6.041   3.289  1.00  0.00     0.029 A 
ATOM     24  C   UNL     1       6.409   6.004   4.494  1.00  0.00     0.049 A 
ATOM     25  H   UNL     1       6.762   4.369   5.738  1.00  0.00     0.167 HD
ATOM     26  C   UNL     1       7.377   0.896   8.297  1.00  0.00     0.034 A 
ATOM     27  C   UNL     1       7.086   7.051   5.003  1.00  0.00     0.034 A 
ATOM     28  C   UNL     1       8.216   1.924   8.853  1.00  0.00     0.049 A 
ATOM     29  C   UNL     1       7.928   6.852   6.231  1.00  0.00     0.074 A 
ATOM     30  C   UNL     1       9.051   1.850   9.955  1.00  0.00     0.029 A 
ATOM     31  N   UNL     1       8.327   3.213   8.355  1.00  0.00    -0.354 N 
ATOM     32  N   UNL     1       8.146   5.753   6.911  1.00  0.00    -0.248 NA
ATOM     33  C   UNL     1       8.643   8.030   6.743  1.00  0.00     0.031 C 
ATOM     34  C   UNL     1       9.660   3.099  10.128  1.00  0.00     0.029 A 
ATOM     35  C   UNL     1       9.212   3.946   9.129  1.00  0.00     0.049 A 
ATOM     36  H   UNL     1       7.848   3.557   7.567  1.00  0.00     0.167 HD
ATOM     37  C   UNL     1       9.043   6.099   7.915  1.00  0.00     0.074 A 
ATOM     38  C   UNL     1       9.349   7.504   7.736  1.00  0.00     0.031 C 
ATOM     39  C   UNL     1       9.551   5.328   8.907  1.00  0.00     0.034 A 
BRANCH  26  40
ATOM     40  C   UNL     1       7.340  -0.438   8.998  1.00  0.00     0.023 A 
ATOM     41  C   UNL     1       8.059  -1.523   8.459  1.00  0.00     0.012 A 
ATOM     42  C   UNL     1       6.662  -0.598  10.222  1.00  0.00     0.148 A 
ATOM     43  C   UNL     1       8.084  -2.755   9.113  1.00  0.00     0.002 A 
ATOM     44  C   UNL     1       6.721  -1.818  10.887  1.00  0.00     0.091 A 
ATOM     45  F   UNL     1       5.964   0.438  10.709  1.00  0.00    -0.205 F 
ATOM     46  C   UNL     1       7.424  -2.899  10.331  1.00  0.00     0.022 A 
BRANCH  44  47
ATOM     47  S   UNL     1       5.963  -2.074  12.497  1.00  0.00     0.127 S 
ATOM     48  O   UNL     1       4.759  -2.822  12.140  1.00  0.00    -0.237 OA
ATOM     49  O   UNL     1       6.980  -2.857  13.201  1.00  0.00    -0.237 OA
ATOM     50  O   UNL     1       5.741  -0.743  13.045  1.00  0.00    -0.744 OA
ENDBRANCH  44  47
ENDBRANCH  26  40
BRANCH  27  51
ATOM     51  C   UNL     1       7.055   8.362   4.295  1.00  0.00     0.023 A 
ATOM     52  C   UNL     1       8.213   8.814   3.633  1.00  0.00     0.012 A 
ATOM     53  C   UNL     1       5.879   9.132   4.227  1.00  0.00     0.148 A 
ATOM     54  C   UNL     1       8.205  10.020   2.932  1.00  0.00     0.002 A 
ATOM     55  C   UNL     1       5.862  10.304   3.479  1.00  0.00     0.091 A 
ATOM     56  F   UNL     1       4.793   8.697   4.881  1.00  0.00    -0.205 F 
ATOM     57  C   UNL     1       7.028  10.757   2.843  1.00  0.00     0.022 A 
BRANCH  55  58
ATOM     58  S   UNL     1       4.348  11.229   3.197  1.00  0.00     0.127 S 
ATOM     59  O   UNL     1       4.505  12.348   4.121  1.00  0.00    -0.237 OA
ATOM     60  O   UNL     1       4.461  11.579   1.780  1.00  0.00    -0.237 OA
ATOM     61  O   UNL     1       3.268  10.299   3.495  1.00  0.00    -0.744 OA
ENDBRANCH  55  58
ENDBRANCH  27  51
BRANCH  39  62
ATOM     62  C   UNL     1      10.510   5.978   9.869  1.00  0.00     0.023 A 
ATOM     63  C   UNL     1      10.019   6.869  10.844  1.00  0.00     0.012 A 
ATOM     64  C   UNL     1      11.882   5.663   9.848  1.00  0.00     0.148 A 
ATOM     65  C   UNL     1      10.884   7.460  11.763  1.00  0.00     0.002 A 
ATOM     66  C   UNL     1      12.732   6.223  10.794  1.00  0.00     0.091 A 
ATOM     67  F   UNL     1      12.336   4.832   8.898  1.00  0.00    -0.205 F 
ATOM     68  C   UNL     1      12.238   7.129  11.746  1.00  0.00     0.022 A 
BRANCH  66  69
ATOM     69  S   UNL     1      14.470   5.776  10.891  1.00  0.00     0.127 S 
ATOM     70  O   UNL     1      15.105   6.886  10.185  1.00  0.00    -0.237 OA
ATOM     71  O   UNL     1      14.712   5.753  12.334  1.00  0.00    -0.237 OA
ATOM     72  O   UNL     1      14.574   4.473  10.247  1.00  0.00    -0.744 OA
ENDBRANCH  66  69
ENDBRANCH  39  62
ENDBRANCH  13  14
ENDBRANCH   6   8
ENDBRANCH   3   4
ENDBRANCH   2   3
ENDBRANCH   1   2
BRANCH   1  73
ATOM     73  C   UNL     1       4.658  -2.935  -3.508  1.00  0.00     0.002 C 
BRANCH  73  74
ATOM     74  C   UNL     1       6.176  -2.807  -3.663  1.00  0.00     0.021 C 
BRANCH  74  75
ATOM     75  C   UNL     1       7.002  -4.048  -3.328  1.00  0.00     0.116 C 
BRANCH  75  76
ATOM     76  N   UNL     1       6.693  -5.205  -4.153  1.00  0.00    -0.352 N 
ATOM     77  C   UNL     1       7.550  -6.171  -4.632  1.00  0.00     0.255 C 
ATOM     78  H   UNL     1       5.747  -5.311  -4.403  1.00  0.00     0.163 HD
ATOM     79  O   UNL     1       7.130  -7.082  -5.342  1.00  0.00    -0.269 OA
BRANCH  77  80
ATOM     80  C   UNL     1       9.009  -6.030  -4.426  1.00  0.00     0.087 A 
ATOM     81  C   UNL     1       9.776  -5.865  -5.587  1.00  0.00     0.040 A 
ATOM     82  C   UNL     1       9.603  -5.936  -3.168  1.00  0.00     0.174 A 
ATOM     83  C   UNL     1      11.088  -5.410  -5.496  1.00  0.00     0.092 A 
ATOM     84  C   UNL     1      10.960  -5.602  -3.085  1.00  0.00     0.163 A 
ATOM     85  O   UNL     1       8.833  -6.168  -2.058  1.00  0.00    -0.485 OA
ATOM     86  C   UNL     1      11.689  -5.297  -4.237  1.00  0.00     0.072 A 
ATOM     87  O   UNL     1      11.635  -5.489  -1.897  1.00  0.00    -0.486 OA
ATOM     88  C   UNL     1       9.444  -5.654  -0.869  1.00  0.00     0.271 C 
ATOM     89  C   UNL     1      10.903  -6.068  -0.810  1.00  0.00     0.271 C 
BRANCH  83  90
ATOM     90  S   UNL     1      12.007  -4.766  -6.883  1.00  0.00     0.262 S 
ATOM     91  O   UNL     1      12.052  -3.328  -6.703  1.00  0.00    -0.201 OA
ATOM     92  O   UNL     1      13.217  -5.551  -6.969  1.00  0.00    -0.201 OA
BRANCH  90  93
ATOM     93  N   UNL     1      11.187  -5.082  -8.304  1.00  0.00    -0.277 N 
ATOM     94  H   UNL     1      11.700  -5.495  -9.036  1.00  0.00     0.180 HD
BRANCH  93  95
ATOM     95  C   UNL     1       9.811  -4.807  -8.551  1.00  0.00     0.087 A 
ATOM     96  C   UNL     1       9.101  -3.764  -7.958  1.00  0.00     0.069 A 
ATOM     97  C   UNL     1       9.129  -5.727  -9.362  1.00  0.00     0.147 A 
ATOM     98  C   UNL     1       7.710  -3.750  -8.071  1.00  0.00     0.125 A 
ATOM     99  C   UNL     1       7.745  -5.699  -9.484  1.00  0.00     0.044 A 
ATOM    100  F   UNL     1       9.816  -6.713  -9.960  1.00  0.00    -0.205 F 
ATOM    101  F   UNL     1       7.008  -2.817  -7.415  1.00  0.00    -0.207 F 
ATOM    102  C   UNL     1       7.027  -4.717  -8.808  1.00  0.00     0.042 A 
ENDBRANCH  93  95
ENDBRANCH  90  93
ENDBRANCH  83  90
ENDBRANCH  77  80
ENDBRANCH  75  76
ENDBRANCH  74  75
ENDBRANCH  73  74
ENDBRANCH   1  73
TORSDOF 19
