REMARK SMILES COc1ccc(S(=O)(=O)N2CCC[C@H](C(=O)N3CCC[C@H](C(=O)NCCCCCCNC(=O)c4ccc(-c5c6nc(c(-c7cccc(S(=O)(=O)[O-])c7F)c7ccc([nH]7)c(-c7cccc(S(=O)(=O)[O-])c7F)c7nc(c(-c8cccc(S(=O)(=O)[O-])c8F)c8ccc5[nH]8)C=C7)C=C6)cc4)C3)C2)cc1
REMARK SMILES IDX 26 1 25 2 24 3 22 4 23 5 21 7 17 8 18 9 97 10 19 11 20 12
REMARK SMILES IDX 15 13 16 14 14 15 10 16 11 17 98 18 12 19 13 20 7 21 8 22
REMARK SMILES IDX 9 23 6 24 3 25 4 26 100 27 5 28 99 29 2 30 1 31 27 32 28 33
REMARK SMILES IDX 29 34 30 35 31 36 32 37 33 39 34 40 35 41 96 42 36 43 95 44
REMARK SMILES IDX 37 45 38 46 39 47 89 48 40 49 94 50 88 51 90 52 41 53 93 54
REMARK SMILES IDX 87 55 86 56 42 58 74 59 54 60 73 61 55 62 58 63 72 64 91 65
REMARK SMILES IDX 56 66 57 67 71 69 92 70 59 71 43 72 44 73 52 74 45 75 47 76
REMARK SMILES IDX 53 77 46 78 48 79 49 80 50 81 51 82 75 83 76 84 84 85 77 86
REMARK SMILES IDX 79 87 85 88 78 89 80 90 81 91 82 92 83 93 60 94 61 95 69 96
REMARK SMILES IDX 62 97 64 98 70 99 63 100 65 101 66 102 67 103 68 104
REMARK H PARENT 24 6 31 38 90 57 58 68
REMARK Flexibility Score: inf
ROOT
ATOM      1  C   UNL     1       8.135   9.443  -7.298  1.00  0.00     0.021 C 
ENDROOT
BRANCH   1   2
ATOM      2  C   UNL     1       8.173   8.786  -5.923  1.00  0.00     0.116 C 
BRANCH   2   3
ATOM      3  N   UNL     1       8.625   9.670  -4.875  1.00  0.00    -0.356 N 
ATOM      4  C   UNL     1       8.072   9.938  -3.667  1.00  0.00     0.224 C 
ATOM      5  O   UNL     1       8.767  10.583  -2.871  1.00  0.00    -0.275 OA
ATOM      6  H   UNL     1       9.462  10.152  -5.067  1.00  0.00     0.163 HD
BRANCH   4   7
ATOM      7  C   UNL     1       6.662   9.503  -3.249  1.00  0.00     0.098 C 
ATOM      8  N   UNL     1       5.825   7.280  -4.067  1.00  0.00    -0.342 N 
ATOM      9  C   UNL     1       4.629   7.872  -4.652  1.00  0.00     0.119 C 
ATOM     10  C   UNL     1       6.492   8.003  -3.000  1.00  0.00     0.133 C 
ATOM     11  C   UNL     1       4.828   9.322  -5.077  1.00  0.00     0.022 C 
ATOM     12  C   UNL     1       5.510  10.172  -4.008  1.00  0.00     0.017 C 
BRANCH   8  13
ATOM     13  C   UNL     1       6.343   6.126  -4.618  1.00  0.00     0.227 C 
ATOM     14  O   UNL     1       6.779   6.111  -5.772  1.00  0.00    -0.275 OA
BRANCH  13  15
ATOM     15  C   UNL     1       6.162   4.810  -3.868  1.00  0.00     0.094 C 
ATOM     16  N   UNL     1       3.783   5.022  -3.236  1.00  0.00    -0.197 NA
ATOM     17  C   UNL     1       4.077   5.291  -1.821  1.00  0.00     0.102 C 
ATOM     18  C   UNL     1       4.749   4.294  -4.078  1.00  0.00     0.116 C 
ATOM     19  C   UNL     1       5.532   5.167  -1.389  1.00  0.00     0.018 C 
ATOM     20  C   UNL     1       6.571   4.725  -2.409  1.00  0.00     0.016 C 
BRANCH  16  21
ATOM     21  S   UNL     1       2.134   4.908  -3.661  1.00  0.00     0.243 S 
ATOM     22  O   UNL     1       2.045   4.868  -5.099  1.00  0.00    -0.207 OA
ATOM     23  O   UNL     1       1.447   5.930  -2.891  1.00  0.00    -0.207 OA
BRANCH  21  24
ATOM     24  C   UNL     1       1.561   3.344  -3.027  1.00  0.00     0.082 A 
ATOM     25  C   UNL     1       0.498   1.083  -1.775  1.00  0.00     0.118 A 
ATOM     26  C   UNL     1      -0.333   1.938  -2.500  1.00  0.00     0.048 A 
ATOM     27  C   UNL     1       1.872   1.313  -1.749  1.00  0.00     0.048 A 
ATOM     28  C   UNL     1       0.192   3.076  -3.117  1.00  0.00     0.025 A 
ATOM     29  C   UNL     1       2.403   2.445  -2.369  1.00  0.00     0.025 A 
BRANCH  25  30
ATOM     30  O   UNL     1      -0.115   0.039  -1.137  1.00  0.00    -0.497 OA
ATOM     31  C   UNL     1       0.483  -0.315   0.108  1.00  0.00     0.278 C 
ENDBRANCH  25  30
ENDBRANCH  21  24
ENDBRANCH  16  21
ENDBRANCH  13  15
ENDBRANCH   8  13
ENDBRANCH   4   7
ENDBRANCH   2   3
ENDBRANCH   1   2
BRANCH   1  32
ATOM     32  C   UNL     1       9.300   9.051  -8.209  1.00  0.00     0.002 C 
BRANCH  32  33
ATOM     33  C   UNL     1       9.437   7.552  -8.509  1.00  0.00     0.002 C 
BRANCH  33  34
ATOM     34  C   UNL     1       8.192   6.852  -9.064  1.00  0.00     0.021 C 
BRANCH  34  35
ATOM     35  C   UNL     1       7.590   7.465 -10.325  1.00  0.00     0.116 C 
BRANCH  35  36
ATOM     36  N   UNL     1       8.563   7.606 -11.397  1.00  0.00    -0.352 N 
ATOM     37  C   UNL     1       8.507   7.190 -12.703  1.00  0.00     0.251 C 
ATOM     38  H   UNL     1       9.392   8.073 -11.146  1.00  0.00     0.163 HD
ATOM     39  O   UNL     1       9.511   7.272 -13.407  1.00  0.00    -0.269 OA
BRANCH  37  40
ATOM     40  C   UNL     1       7.257   6.635 -13.266  1.00  0.00     0.039 A 
ATOM     41  C   UNL     1       7.336   5.502 -14.084  1.00  0.00     0.014 A 
ATOM     42  C   UNL     1       6.021   7.245 -13.035  1.00  0.00     0.014 A 
ATOM     43  C   UNL     1       6.173   4.953 -14.630  1.00  0.00     0.010 A 
ATOM     44  C   UNL     1       4.856   6.665 -13.535  1.00  0.00     0.010 A 
ATOM     45  C   UNL     1       4.921   5.520 -14.342  1.00  0.00    -0.014 A 
BRANCH  45  46
ATOM     46  C   UNL     1       3.667   4.934 -14.878  1.00  0.00     0.031 A 
ATOM     47  C   UNL     1       2.840   5.704 -15.871  1.00  0.00     0.074 A 
ATOM     48  C   UNL     1       3.230   3.751 -14.404  1.00  0.00     0.049 A 
ATOM     49  N   UNL     1       1.675   5.403 -16.384  1.00  0.00    -0.248 NA
ATOM     50  C   UNL     1       3.382   6.995 -16.328  1.00  0.00     0.031 C 
ATOM     51  C   UNL     1       3.908   2.947 -13.385  1.00  0.00     0.029 A 
ATOM     52  N   UNL     1       2.093   3.037 -14.688  1.00  0.00    -0.354 N 
ATOM     53  C   UNL     1       1.329   6.476 -17.197  1.00  0.00     0.074 A 
ATOM     54  C   UNL     1       2.395   7.449 -17.088  1.00  0.00     0.031 C 
ATOM     55  C   UNL     1       3.167   1.859 -13.118  1.00  0.00     0.029 A 
ATOM     56  C   UNL     1       1.955   1.896 -13.932  1.00  0.00     0.049 A 
ATOM     57  H   UNL     1       1.438   3.315 -15.369  1.00  0.00     0.167 HD
ATOM     58  C   UNL     1       0.240   6.624 -17.988  1.00  0.00     0.034 A 
ATOM     59  C   UNL     1       0.961   0.987 -13.894  1.00  0.00     0.034 A 
ATOM     60  C   UNL     1      -0.792   5.633 -18.131  1.00  0.00     0.049 A 
ATOM     61  C   UNL     1      -0.206   1.144 -14.831  1.00  0.00     0.074 A 
ATOM     62  C   UNL     1      -1.905   5.662 -18.951  1.00  0.00     0.029 A 
ATOM     63  N   UNL     1      -0.832   4.431 -17.443  1.00  0.00    -0.354 N 
ATOM     64  N   UNL     1      -0.443   2.097 -15.701  1.00  0.00    -0.248 NA
ATOM     65  C   UNL     1      -1.223   0.082 -14.814  1.00  0.00     0.031 C 
ATOM     66  C   UNL     1      -2.617   4.472 -18.763  1.00  0.00     0.029 A 
ATOM     67  C   UNL     1      -1.944   3.702 -17.828  1.00  0.00     0.049 A 
ATOM     68  H   UNL     1      -0.167   4.138 -16.779  1.00  0.00     0.167 HD
ATOM     69  C   UNL     1      -1.615   1.735 -16.355  1.00  0.00     0.074 A 
ATOM     70  C   UNL     1      -2.028   0.463 -15.798  1.00  0.00     0.031 C 
ATOM     71  C   UNL     1      -2.300   2.405 -17.313  1.00  0.00     0.034 A 
BRANCH  58  72
ATOM     72  C   UNL     1       0.150   7.873 -18.825  1.00  0.00     0.023 A 
ATOM     73  C   UNL     1       0.984   7.999 -19.955  1.00  0.00     0.012 A 
ATOM     74  C   UNL     1      -0.785   8.886 -18.539  1.00  0.00     0.148 A 
ATOM     75  C   UNL     1       0.910   9.126 -20.772  1.00  0.00     0.002 A 
ATOM     76  C   UNL     1      -0.878   9.991 -19.380  1.00  0.00     0.091 A 
ATOM     77  F   UNL     1      -1.554   8.760 -17.449  1.00  0.00    -0.205 F 
ATOM     78  C   UNL     1      -0.027  10.116 -20.490  1.00  0.00     0.022 A 
BRANCH  76  79
ATOM     79  S   UNL     1      -2.099  11.288 -19.144  1.00  0.00     0.127 S 
ATOM     80  O   UNL     1      -1.271  12.386 -18.647  1.00  0.00    -0.237 OA
ATOM     81  O   UNL     1      -2.615  11.480 -20.500  1.00  0.00    -0.237 OA
ATOM     82  O   UNL     1      -3.070  10.756 -18.197  1.00  0.00    -0.744 OA
ENDBRANCH  76  79
ENDBRANCH  58  72
BRANCH  59  83
ATOM     83  C   UNL     1       1.072  -0.197 -12.995  1.00  0.00     0.023 A 
ATOM     84  C   UNL     1       1.313  -1.466 -13.556  1.00  0.00     0.012 A 
ATOM     85  C   UNL     1       0.978  -0.074 -11.595  1.00  0.00     0.148 A 
ATOM     86  C   UNL     1       1.427  -2.595 -12.744  1.00  0.00     0.002 A 
ATOM     87  C   UNL     1       1.145  -1.196 -10.788  1.00  0.00     0.091 A 
ATOM     88  F   UNL     1       0.729   1.136 -11.075  1.00  0.00    -0.205 F 
ATOM     89  C   UNL     1       1.355  -2.459 -11.361  1.00  0.00     0.022 A 
BRANCH  87  90
ATOM     90  S   UNL     1       1.200  -1.073  -8.996  1.00  0.00     0.127 S 
ATOM     91  O   UNL     1      -0.165  -1.437  -8.627  1.00  0.00    -0.237 OA
ATOM     92  O   UNL     1       2.217  -2.065  -8.644  1.00  0.00    -0.237 OA
ATOM     93  O   UNL     1       1.597   0.302  -8.723  1.00  0.00    -0.744 OA
ENDBRANCH  87  90
ENDBRANCH  59  83
BRANCH  71  94
ATOM     94  C   UNL     1      -3.554   1.769 -17.849  1.00  0.00     0.023 A 
ATOM     95  C   UNL     1      -4.728   1.789 -17.070  1.00  0.00     0.012 A 
ATOM     96  C   UNL     1      -3.594   1.232 -19.150  1.00  0.00     0.148 A 
ATOM     97  C   UNL     1      -5.918   1.263 -17.570  1.00  0.00     0.002 A 
ATOM     98  C   UNL     1      -4.793   0.744 -19.657  1.00  0.00     0.091 A 
ATOM     99  F   UNL     1      -2.461   1.202 -19.867  1.00  0.00    -0.205 F 
ATOM    100  C   UNL     1      -5.954   0.752 -18.866  1.00  0.00     0.022 A 
BRANCH  98 101
ATOM    101  S   UNL     1      -4.947   0.148 -21.345  1.00  0.00     0.127 S 
ATOM    102  O   UNL     1      -4.951  -1.300 -21.151  1.00  0.00    -0.237 OA
ATOM    103  O   UNL     1      -6.233   0.711 -21.761  1.00  0.00    -0.237 OA
ATOM    104  O   UNL     1      -3.797   0.685 -22.061  1.00  0.00    -0.744 OA
ENDBRANCH  98 101
ENDBRANCH  71  94
ENDBRANCH  45  46
ENDBRANCH  37  40
ENDBRANCH  35  36
ENDBRANCH  34  35
ENDBRANCH  33  34
ENDBRANCH  32  33
ENDBRANCH   1  32
TORSDOF 21
