REMARK SMILES Cc1cc(OCC(=O)N[C@@H](CO)C(=O)NCCCCCCNC(=O)c2ccc(-c3c4nc(c(-c5cccc(S(=O)(=O)[O-])c5F)c5ccc([nH]5)c(-c5cccc(S(=O)(=O)[O-])c5F)c5nc(c(-c6cccc(S(=O)(=O)[O-])c6F)c6ccc3[nH]6)C=C5)C=C4)cc2)no1
REMARK SMILES IDX 18 1 17 2 16 3 15 4 13 5 14 6 10 8 9 9 7 10 8 11 6 13 5 14
REMARK SMILES IDX 4 15 1 16 2 17 3 18 89 19 88 20 11 21 12 22 19 24 20 25
REMARK SMILES IDX 21 26 22 27 23 28 24 30 25 31 26 32 87 33 27 34 86 35 28 36
REMARK SMILES IDX 29 37 30 38 80 39 31 40 85 41 79 42 81 43 32 44 84 45 78 46
REMARK SMILES IDX 77 47 33 49 65 50 45 51 64 52 46 53 49 54 63 55 82 56 47 57
REMARK SMILES IDX 48 58 62 60 83 61 50 62 34 63 35 64 43 65 36 66 38 67 44 68
REMARK SMILES IDX 37 69 39 70 40 71 41 72 42 73 66 74 67 75 75 76 68 77 70 78
REMARK SMILES IDX 76 79 69 80 71 81 72 82 73 83 74 84 51 85 52 86 60 87 53 88
REMARK SMILES IDX 55 89 61 90 54 91 56 92 57 93 58 94 59 95
REMARK H PARENT 15 7 9 12 12 23 22 29 81 48 49 59
REMARK Flexibility Score: inf
ROOT
ATOM      1  C   UNL     1      -3.350  -5.519  -6.856  1.00  0.00     0.002 C 
ENDROOT
BRANCH   1   2
ATOM      2  C   UNL     1      -2.460  -4.799  -5.839  1.00  0.00     0.021 C 
BRANCH   2   3
ATOM      3  C   UNL     1      -2.972  -3.423  -5.427  1.00  0.00     0.116 C 
BRANCH   3   4
ATOM      4  N   UNL     1      -4.178  -3.524  -4.626  1.00  0.00    -0.354 N 
ATOM      5  C   UNL     1      -4.503  -2.974  -3.424  1.00  0.00     0.244 C 
ATOM      6  O   UNL     1      -5.670  -3.111  -3.037  1.00  0.00    -0.273 OA
ATOM      7  H   UNL     1      -4.883  -4.088  -5.020  1.00  0.00     0.163 HD
BRANCH   5   8
ATOM      8  C   UNL     1      -3.503  -2.160  -2.583  1.00  0.00     0.197 C 
BRANCH   8   9
ATOM      9  N   UNL     1      -2.274  -2.918  -2.322  1.00  0.00    -0.339 N 
ATOM     10  C   UNL     1      -1.791  -3.356  -1.128  1.00  0.00     0.258 C 
ATOM     11  O   UNL     1      -0.871  -4.176  -1.122  1.00  0.00    -0.271 OA
ATOM     12  H   UNL     1      -1.729  -3.138  -3.112  1.00  0.00     0.164 HD
BRANCH  10  13
ATOM     13  C   UNL     1      -2.377  -2.812   0.176  1.00  0.00     0.331 C 
BRANCH  13  14
ATOM     14  O   UNL     1      -2.448  -1.401   0.270  1.00  0.00    -0.465 OA
BRANCH  14  15
ATOM     15  C   UNL     1      -1.255  -0.770   0.220  1.00  0.00     0.254 A 
ATOM     16  C   UNL     1       2.269   0.164   0.001  1.00  0.00     0.091 C 
ATOM     17  C   UNL     1       0.823  -0.103   0.095  1.00  0.00     0.137 A 
ATOM     18  C   UNL     1       0.069  -1.243   0.229  1.00  0.00     0.116 A 
ATOM     19  O   UNL     1      -0.001   0.979   0.034  1.00  0.00    -0.358 OA
ATOM     20  N   UNL     1      -1.320   0.557   0.116  1.00  0.00    -0.041 NA
ENDBRANCH  14  15
ENDBRANCH  13  14
ENDBRANCH  10  13
ENDBRANCH   8   9
BRANCH   8  21
ATOM     21  C   UNL     1      -3.281  -0.748  -3.147  1.00  0.00     0.191 C 
BRANCH  21  22
ATOM     22  O   UNL     1      -2.442  -0.714  -4.296  1.00  0.00    -0.394 OA
ATOM     23  H   UNL     1      -1.560  -1.042  -4.063  1.00  0.00     0.210 HD
ENDBRANCH  21  22
ENDBRANCH   8  21
ENDBRANCH   5   8
ENDBRANCH   3   4
ENDBRANCH   2   3
ENDBRANCH   1   2
BRANCH   1  24
ATOM     24  C   UNL     1      -3.634  -4.731  -8.139  1.00  0.00     0.002 C 
BRANCH  24  25
ATOM     25  C   UNL     1      -2.393  -4.212  -8.870  1.00  0.00     0.021 C 
BRANCH  25  26
ATOM     26  C   UNL     1      -1.377  -5.285  -9.241  1.00  0.00     0.116 C 
BRANCH  26  27
ATOM     27  N   UNL     1      -1.944  -6.294 -10.123  1.00  0.00    -0.352 N 
ATOM     28  C   UNL     1      -1.481  -6.744 -11.332  1.00  0.00     0.251 C 
ATOM     29  H   UNL     1      -2.777  -6.713  -9.806  1.00  0.00     0.163 HD
ATOM     30  O   UNL     1      -2.190  -7.463 -12.034  1.00  0.00    -0.269 OA
BRANCH  28  31
ATOM     31  C   UNL     1      -0.135  -6.347 -11.794  1.00  0.00     0.039 A 
ATOM     32  C   UNL     1       0.030  -5.921 -13.114  1.00  0.00     0.014 A 
ATOM     33  C   UNL     1       0.959  -6.391 -10.925  1.00  0.00     0.014 A 
ATOM     34  C   UNL     1       1.284  -5.488 -13.547  1.00  0.00     0.010 A 
ATOM     35  C   UNL     1       2.188  -5.885 -11.336  1.00  0.00     0.010 A 
ATOM     36  C   UNL     1       2.367  -5.438 -12.654  1.00  0.00    -0.014 A 
BRANCH  36  37
ATOM     37  C   UNL     1       3.692  -4.917 -13.077  1.00  0.00     0.031 A 
ATOM     38  C   UNL     1       4.901  -5.813 -13.052  1.00  0.00     0.074 A 
ATOM     39  C   UNL     1       3.822  -3.617 -13.406  1.00  0.00     0.049 A 
ATOM     40  N   UNL     1       6.146  -5.525 -13.329  1.00  0.00    -0.248 NA
ATOM     41  C   UNL     1       4.689  -7.209 -12.635  1.00  0.00     0.031 C 
ATOM     42  C   UNL     1       2.740  -2.630 -13.400  1.00  0.00     0.029 A 
ATOM     43  N   UNL     1       4.926  -2.894 -13.785  1.00  0.00    -0.354 N 
ATOM     44  C   UNL     1       6.869  -6.687 -13.088  1.00  0.00     0.074 A 
ATOM     45  C   UNL     1       5.929  -7.676 -12.607  1.00  0.00     0.031 C 
ATOM     46  C   UNL     1       3.232  -1.435 -13.764  1.00  0.00     0.029 A 
ATOM     47  C   UNL     1       4.667  -1.560 -13.994  1.00  0.00     0.049 A 
ATOM     48  H   UNL     1       5.819  -3.294 -13.897  1.00  0.00     0.167 HD
ATOM     49  C   UNL     1       8.190  -6.921 -13.277  1.00  0.00     0.034 A 
ATOM     50  C   UNL     1       5.494  -0.548 -14.323  1.00  0.00     0.034 A 
ATOM     51  C   UNL     1       9.114  -5.945 -13.788  1.00  0.00     0.049 A 
ATOM     52  C   UNL     1       6.953  -0.840 -14.547  1.00  0.00     0.074 A 
ATOM     53  C   UNL     1      10.454  -6.107 -14.093  1.00  0.00     0.029 A 
ATOM     54  N   UNL     1       8.800  -4.622 -14.059  1.00  0.00    -0.354 N 
ATOM     55  N   UNL     1       7.590  -1.982 -14.460  1.00  0.00    -0.248 NA
ATOM     56  C   UNL     1       7.803   0.291 -14.950  1.00  0.00     0.031 C 
ATOM     57  C   UNL     1      10.958  -4.873 -14.515  1.00  0.00     0.029 A 
ATOM     58  C   UNL     1       9.923  -3.953 -14.513  1.00  0.00     0.049 A 
ATOM     59  H   UNL     1       7.909  -4.219 -13.944  1.00  0.00     0.167 HD
ATOM     60  C   UNL     1       8.902  -1.718 -14.835  1.00  0.00     0.074 A 
ATOM     61  C   UNL     1       8.964  -0.310 -15.168  1.00  0.00     0.031 C 
ATOM     62  C   UNL     1       9.961  -2.562 -14.890  1.00  0.00     0.034 A 
BRANCH  49  63
ATOM     63  C   UNL     1       8.708  -8.302 -12.966  1.00  0.00     0.023 A 
ATOM     64  C   UNL     1       8.344  -9.387 -13.790  1.00  0.00     0.012 A 
ATOM     65  C   UNL     1       9.598  -8.517 -11.896  1.00  0.00     0.148 A 
ATOM     66  C   UNL     1       8.824 -10.670 -13.531  1.00  0.00     0.002 A 
ATOM     67  C   UNL     1      10.112  -9.789 -11.674  1.00  0.00     0.091 A 
ATOM     68  F   UNL     1       9.919  -7.478 -11.112  1.00  0.00    -0.205 F 
ATOM     69  C   UNL     1       9.716 -10.869 -12.480  1.00  0.00     0.022 A 
BRANCH  67  70
ATOM     70  S   UNL     1      11.330 -10.134 -10.399  1.00  0.00     0.127 S 
ATOM     71  O   UNL     1      10.550 -10.933  -9.455  1.00  0.00    -0.237 OA
ATOM     72  O   UNL     1      12.345 -10.884 -11.139  1.00  0.00    -0.237 OA
ATOM     73  O   UNL     1      11.772  -8.839  -9.903  1.00  0.00    -0.744 OA
ENDBRANCH  67  70
ENDBRANCH  49  63
BRANCH  50  74
ATOM     74  C   UNL     1       4.952   0.827 -14.514  1.00  0.00     0.023 A 
ATOM     75  C   UNL     1       4.921   1.387 -15.807  1.00  0.00     0.012 A 
ATOM     76  C   UNL     1       4.453   1.575 -13.431  1.00  0.00     0.148 A 
ATOM     77  C   UNL     1       4.438   2.679 -16.011  1.00  0.00     0.002 A 
ATOM     78  C   UNL     1       3.920   2.840 -13.649  1.00  0.00     0.091 A 
ATOM     79  F   UNL     1       4.499   1.028 -12.208  1.00  0.00    -0.205 F 
ATOM     80  C   UNL     1       3.929   3.402 -14.935  1.00  0.00     0.022 A 
BRANCH  78  81
ATOM     81  S   UNL     1       3.128   3.790 -12.348  1.00  0.00     0.127 S 
ATOM     82  O   UNL     1       4.067   4.894 -12.170  1.00  0.00    -0.237 OA
ATOM     83  O   UNL     1       1.857   4.155 -12.974  1.00  0.00    -0.237 OA
ATOM     84  O   UNL     1       3.001   2.881 -11.217  1.00  0.00    -0.744 OA
ENDBRANCH  78  81
ENDBRANCH  50  74
BRANCH  62  85
ATOM     85  C   UNL     1      11.276  -2.007 -15.372  1.00  0.00     0.023 A 
ATOM     86  C   UNL     1      12.012  -1.123 -14.559  1.00  0.00     0.012 A 
ATOM     87  C   UNL     1      11.817  -2.424 -16.605  1.00  0.00     0.148 A 
ATOM     88  C   UNL     1      13.248  -0.635 -14.980  1.00  0.00     0.002 A 
ATOM     89  C   UNL     1      13.073  -1.978 -16.994  1.00  0.00     0.091 A 
ATOM     90  F   UNL     1      11.094  -3.253 -17.372  1.00  0.00    -0.205 F 
ATOM     91  C   UNL     1      13.784  -1.072 -16.190  1.00  0.00     0.022 A 
BRANCH  89  92
ATOM     92  S   UNL     1      13.887  -2.563 -18.484  1.00  0.00     0.127 S 
ATOM     93  O   UNL     1      13.848  -1.373 -19.332  1.00  0.00    -0.237 OA
ATOM     94  O   UNL     1      15.217  -2.918 -17.991  1.00  0.00    -0.237 OA
ATOM     95  O   UNL     1      13.097  -3.692 -18.958  1.00  0.00    -0.744 OA
ENDBRANCH  89  92
ENDBRANCH  62  85
ENDBRANCH  36  37
ENDBRANCH  28  31
ENDBRANCH  26  27
ENDBRANCH  25  26
ENDBRANCH  24  25
ENDBRANCH   1  24
TORSDOF 22
