REMARK SMILES C[C@H]1CN(C(=O)N2CC[NH+]([C@@H](C)C(=O)NCCCCCCNC(=O)c3ccc(-c4c5nc(c(-c6cccc(S(=O)(=O)[O-])c6F)c6ccc([nH]6)c(-c6cccc(S(=O)(=O)[O-])c6F)c6nc(c(-c7cccc(S(=O)(=O)[O-])c7F)c7ccc4[nH]7)C=C6)C=C5)cc3)CC2)C[C@@H]1C
REMARK SMILES IDX 19 1 18 2 17 3 16 4 15 5 13 6 14 7 11 9 12 10 10 11 1 12
REMARK SMILES IDX 2 13 3 14 91 15 4 16 90 17 92 18 5 19 6 20 7 21 8 22 89 23
REMARK SMILES IDX 9 24 88 25 20 27 21 28 22 29 23 30 24 32 25 33 26 34 87 35
REMARK SMILES IDX 27 36 86 37 28 38 29 39 30 40 80 41 31 42 85 43 79 44 81 45
REMARK SMILES IDX 32 46 84 47 78 48 77 49 33 51 65 52 45 53 64 54 46 55 49 56
REMARK SMILES IDX 63 57 82 58 47 59 48 60 62 62 83 63 50 64 34 65 35 66 43 67
REMARK SMILES IDX 36 68 38 69 44 70 37 71 39 72 40 73 41 74 42 75 66 76 67 77
REMARK SMILES IDX 75 78 68 79 70 80 76 81 69 82 71 83 72 84 73 85 74 86 51 87
REMARK SMILES IDX 52 88 60 89 53 90 55 91 61 92 54 93 56 94 57 95 58 96 59 97
REMARK H PARENT 15 8 10 26 22 31 81 50 49 61
REMARK Flexibility Score: inf
ROOT
ATOM      1  C   UNL     1       7.391   8.860   1.236  1.00  0.00     0.002 C 
ENDROOT
BRANCH   1   2
ATOM      2  C   UNL     1       7.785   7.670   0.357  1.00  0.00     0.002 C 
BRANCH   2   3
ATOM      3  C   UNL     1       6.610   6.961  -0.314  1.00  0.00     0.021 C 
BRANCH   3   4
ATOM      4  C   UNL     1       5.891   7.805  -1.376  1.00  0.00     0.116 C 
BRANCH   4   5
ATOM      5  N   UNL     1       6.348   7.453  -2.707  1.00  0.00    -0.351 N 
ATOM      6  C   UNL     1       5.747   6.815  -3.749  1.00  0.00     0.278 C 
ATOM      7  O   UNL     1       6.485   6.538  -4.705  1.00  0.00    -0.268 OA
ATOM      8  H   UNL     1       7.274   7.730  -2.893  1.00  0.00     0.163 HD
BRANCH   6   9
ATOM      9  C   UNL     1       4.229   6.483  -3.817  1.00  0.00     0.271 C 
ATOM     10  C   UNL     1       3.334   7.703  -3.611  1.00  0.00     0.086 C 
BRANCH   9  11
ATOM     11  N   UNL     1       3.873   5.180  -3.204  1.00  0.00    -0.322 N 
ATOM     12  C   UNL     1      -0.909   0.916  -0.724  1.00  0.00     0.010 C 
ATOM     13  C   UNL     1       0.345   1.275   0.078  1.00  0.00     0.010 C 
ATOM     14  C   UNL     1       1.064   2.463  -0.546  1.00  0.00     0.125 C 
ATOM     15  C   UNL     1       0.007   1.797   1.490  1.00  0.00     0.010 C 
ATOM     16  N   UNL     1       0.464   3.630   0.076  1.00  0.00    -0.324 N 
ATOM     17  C   UNL     1      -0.337   3.273   1.237  1.00  0.00     0.125 C 
ATOM     18  C   UNL     1       1.209   1.680   2.437  1.00  0.00     0.010 C 
ATOM     19  C   UNL     1       0.833   4.926  -0.187  1.00  0.00     0.320 C 
ATOM     20  O   UNL     1       0.478   5.895   0.480  1.00  0.00    -0.248 OA
ATOM     21  N   UNL     1       1.773   5.031  -1.183  1.00  0.00    -0.313 N 
ATOM     22  C   UNL     1       3.058   5.595  -0.842  1.00  0.00     0.183 C 
ATOM     23  C   UNL     1       1.377   5.143  -2.578  1.00  0.00     0.183 C 
ATOM     24  C   UNL     1       4.122   4.997  -1.770  1.00  0.00     0.284 C 
ATOM     25  C   UNL     1       2.511   4.698  -3.532  1.00  0.00     0.284 C 
ATOM     26  H   UNL     1       4.567   4.597  -3.671  1.00  0.00     0.348 HD
ENDBRANCH   9  11
ENDBRANCH   6   9
ENDBRANCH   4   5
ENDBRANCH   3   4
ENDBRANCH   2   3
ENDBRANCH   1   2
BRANCH   1  27
ATOM     27  C   UNL     1       6.392   8.548   2.355  1.00  0.00     0.021 C 
BRANCH  27  28
ATOM     28  C   UNL     1       6.813   7.426   3.301  1.00  0.00     0.116 C 
BRANCH  28  29
ATOM     29  N   UNL     1       8.101   7.697   3.922  1.00  0.00    -0.352 N 
ATOM     30  C   UNL     1       8.416   7.869   5.247  1.00  0.00     0.251 C 
ATOM     31  H   UNL     1       8.859   7.769   3.298  1.00  0.00     0.163 HD
ATOM     32  O   UNL     1       9.504   8.335   5.561  1.00  0.00    -0.269 OA
BRANCH  30  33
ATOM     33  C   UNL     1       7.441   7.487   6.291  1.00  0.00     0.039 A 
ATOM     34  C   UNL     1       7.252   8.334   7.385  1.00  0.00     0.014 A 
ATOM     35  C   UNL     1       6.742   6.279   6.206  1.00  0.00     0.014 A 
ATOM     36  C   UNL     1       6.330   7.989   8.375  1.00  0.00     0.010 A 
ATOM     37  C   UNL     1       5.770   5.973   7.154  1.00  0.00     0.010 A 
ATOM     38  C   UNL     1       5.566   6.816   8.257  1.00  0.00    -0.014 A 
BRANCH  38  39
ATOM     39  C   UNL     1       4.558   6.448   9.284  1.00  0.00     0.031 A 
ATOM     40  C   UNL     1       4.727   5.191  10.094  1.00  0.00     0.074 A 
ATOM     41  C   UNL     1       3.455   7.206   9.434  1.00  0.00     0.049 A 
ATOM     42  N   UNL     1       3.938   4.684  11.006  1.00  0.00    -0.248 NA
ATOM     43  C   UNL     1       5.927   4.380   9.826  1.00  0.00     0.031 C 
ATOM     44  C   UNL     1       3.140   8.405   8.653  1.00  0.00     0.029 A 
ATOM     45  N   UNL     1       2.382   7.069  10.278  1.00  0.00    -0.354 N 
ATOM     46  C   UNL     1       4.525   3.486  11.396  1.00  0.00     0.074 A 
ATOM     47  C   UNL     1       5.716   3.320  10.592  1.00  0.00     0.031 C 
ATOM     48  C   UNL     1       1.961   8.900   9.063  1.00  0.00     0.029 A 
ATOM     49  C   UNL     1       1.423   8.040  10.113  1.00  0.00     0.049 A 
ATOM     50  H   UNL     1       2.307   6.345  10.940  1.00  0.00     0.167 HD
ATOM     51  C   UNL     1       4.129   2.619  12.357  1.00  0.00     0.034 A 
ATOM     52  C   UNL     1       0.241   8.217  10.736  1.00  0.00     0.034 A 
ATOM     53  C   UNL     1       2.965   2.810  13.180  1.00  0.00     0.049 A 
ATOM     54  C   UNL     1      -0.158   7.259  11.826  1.00  0.00     0.074 A 
ATOM     55  C   UNL     1       2.518   2.033  14.234  1.00  0.00     0.029 A 
ATOM     56  N   UNL     1       2.059   3.850  13.039  1.00  0.00    -0.354 N 
ATOM     57  N   UNL     1       0.489   6.215  12.285  1.00  0.00    -0.248 NA
ATOM     58  C   UNL     1      -1.431   7.526  12.510  1.00  0.00     0.031 C 
ATOM     59  C   UNL     1       1.329   2.591  14.715  1.00  0.00     0.029 A 
ATOM     60  C   UNL     1       1.052   3.733  13.981  1.00  0.00     0.049 A 
ATOM     61  H   UNL     1       2.123   4.567  12.367  1.00  0.00     0.167 HD
ATOM     62  C   UNL     1      -0.276   5.725  13.338  1.00  0.00     0.074 A 
ATOM     63  C   UNL     1      -1.425   6.600  13.460  1.00  0.00     0.031 C 
ATOM     64  C   UNL     1      -0.055   4.643  14.125  1.00  0.00     0.034 A 
BRANCH  51  65
ATOM     65  C   UNL     1       4.994   1.409  12.606  1.00  0.00     0.023 A 
ATOM     66  C   UNL     1       6.263   1.572  13.199  1.00  0.00     0.012 A 
ATOM     67  C   UNL     1       4.538   0.112  12.300  1.00  0.00     0.148 A 
ATOM     68  C   UNL     1       7.082   0.471  13.445  1.00  0.00     0.002 A 
ATOM     69  C   UNL     1       5.341  -0.986  12.592  1.00  0.00     0.091 A 
ATOM     70  F   UNL     1       3.338  -0.025  11.718  1.00  0.00    -0.205 F 
ATOM     71  C   UNL     1       6.617  -0.808  13.151  1.00  0.00     0.022 A 
BRANCH  69  72
ATOM     72  S   UNL     1       4.802  -2.679  12.325  1.00  0.00     0.127 S 
ATOM     73  O   UNL     1       5.634  -3.078  11.191  1.00  0.00    -0.237 OA
ATOM     74  O   UNL     1       5.154  -3.318  13.593  1.00  0.00    -0.237 OA
ATOM     75  O   UNL     1       3.373  -2.608  12.058  1.00  0.00    -0.744 OA
ENDBRANCH  69  72
ENDBRANCH  51  65
BRANCH  52  76
ATOM     76  C   UNL     1      -0.611   9.393  10.401  1.00  0.00     0.023 A 
ATOM     77  C   UNL     1      -0.752  10.432  11.342  1.00  0.00     0.012 A 
ATOM     78  C   UNL     1      -1.262   9.500   9.157  1.00  0.00     0.148 A 
ATOM     79  C   UNL     1      -1.552  11.541  11.064  1.00  0.00     0.002 A 
ATOM     80  C   UNL     1      -2.014  10.633   8.866  1.00  0.00     0.091 A 
ATOM     81  F   UNL     1      -1.122   8.497   8.279  1.00  0.00    -0.205 F 
ATOM     82  C   UNL     1      -2.175  11.645   9.824  1.00  0.00     0.022 A 
BRANCH  80  83
ATOM     83  S   UNL     1      -2.749  10.915   7.251  1.00  0.00     0.127 S 
ATOM     84  O   UNL     1      -4.173  10.776   7.544  1.00  0.00    -0.237 OA
ATOM     85  O   UNL     1      -2.310  12.279   6.955  1.00  0.00    -0.237 OA
ATOM     86  O   UNL     1      -2.180   9.897   6.378  1.00  0.00    -0.744 OA
ENDBRANCH  80  83
ENDBRANCH  52  76
BRANCH  64  87
ATOM     87  C   UNL     1      -1.050   4.364  15.222  1.00  0.00     0.023 A 
ATOM     88  C   UNL     1      -2.334   3.881  14.902  1.00  0.00     0.012 A 
ATOM     89  C   UNL     1      -0.686   4.518  16.574  1.00  0.00     0.148 A 
ATOM     90  C   UNL     1      -3.253   3.590  15.909  1.00  0.00     0.002 A 
ATOM     91  C   UNL     1      -1.589   4.178  17.574  1.00  0.00     0.091 A 
ATOM     92  F   UNL     1       0.533   4.998  16.859  1.00  0.00    -0.205 F 
ATOM     93  C   UNL     1      -2.878   3.727  17.244  1.00  0.00     0.022 A 
BRANCH  91  94
ATOM     94  S   UNL     1      -1.157   4.227  19.317  1.00  0.00     0.127 S 
ATOM     95  O   UNL     1      -1.900   5.400  19.775  1.00  0.00    -0.237 OA
ATOM     96  O   UNL     1      -1.678   2.948  19.802  1.00  0.00    -0.237 OA
ATOM     97  O   UNL     1       0.294   4.345  19.367  1.00  0.00    -0.744 OA
ENDBRANCH  91  94
ENDBRANCH  64  87
ENDBRANCH  38  39
ENDBRANCH  30  33
ENDBRANCH  28  29
ENDBRANCH  27  28
ENDBRANCH   1  27
TORSDOF 17
