REMARK SMILES C[N@H+]1CCO[C@H](c2noc(-c3ccccc3C(=O)NCCCCCCNC(=O)c3ccc(-c4c5nc(c(-c6cccc(S(=O)(=O)[O-])c6F)c6ccc([nH]6)c(-c6cccc(S(=O)(=O)[O-])c6F)c6nc(c(-c7cccc(S(=O)(=O)[O-])c7F)c7ccc4[nH]7)C=C6)C=C5)cc3)n2)C1
REMARK SMILES IDX 23 1 22 2 21 3 20 4 19 5 17 6 18 7 16 9 11 10 12 11 13 12
REMARK SMILES IDX 15 13 14 14 10 15 7 16 8 17 92 18 9 19 6 20 1 21 2 22 3 23
REMARK SMILES IDX 93 24 4 26 5 27 24 28 25 29 26 30 27 31 28 33 29 34 30 35
REMARK SMILES IDX 91 36 31 37 90 38 32 39 33 40 34 41 84 42 35 43 89 44 83 45
REMARK SMILES IDX 85 46 36 47 88 48 82 49 81 50 37 52 69 53 49 54 68 55 50 56
REMARK SMILES IDX 53 57 67 58 86 59 51 60 52 61 66 63 87 64 54 65 38 66 39 67
REMARK SMILES IDX 47 68 40 69 42 70 48 71 41 72 43 73 44 74 45 75 46 76 70 77
REMARK SMILES IDX 71 78 79 79 72 80 74 81 80 82 73 83 75 84 76 85 77 86 78 87
REMARK SMILES IDX 55 88 56 89 64 90 57 91 59 92 65 93 58 94 60 95 61 96 62 97
REMARK SMILES IDX 63 98
REMARK H PARENT 19 8 2 25 26 32 85 51 53 62
REMARK Flexibility Score: inf
ROOT
ATOM      1  C   UNL     1       1.116  -2.759  -1.519  1.00  0.00     0.002 C 
ENDROOT
BRANCH   1   2
ATOM      2  C   UNL     1       1.775  -3.984  -2.525  1.00  0.00     0.002 C 
BRANCH   2   3
ATOM      3  C   UNL     1       1.001  -5.289  -2.658  1.00  0.00     0.021 C 
BRANCH   3   4
ATOM      4  C   UNL     1      -0.499  -5.110  -2.774  1.00  0.00     0.116 C 
BRANCH   4   5
ATOM      5  N   UNL     1      -1.093  -6.257  -3.382  1.00  0.00    -0.352 N 
ATOM      6  C   UNL     1      -1.486  -7.493  -3.000  1.00  0.00     0.252 C 
ATOM      7  O   UNL     1      -1.990  -8.100  -3.961  1.00  0.00    -0.269 OA
ATOM      8  H   UNL     1      -1.262  -6.107  -4.341  1.00  0.00     0.163 HD
BRANCH   6   9
ATOM      9  C   UNL     1      -1.412  -8.200  -1.663  1.00  0.00     0.052 A 
ATOM     10  C   UNL     1      -0.923  -7.871  -0.373  1.00  0.00     0.053 A 
ATOM     11  C   UNL     1      -1.059  -8.852   0.664  1.00  0.00     0.015 A 
ATOM     12  C   UNL     1      -1.585 -10.127   0.457  1.00  0.00     0.001 A 
ATOM     13  C   UNL     1      -1.939  -9.526  -1.819  1.00  0.00     0.014 A 
ATOM     14  C   UNL     1      -2.013 -10.473  -0.801  1.00  0.00     0.001 A 
BRANCH  10  15
ATOM     15  C   UNL     1      -0.139  -6.710   0.063  1.00  0.00     0.258 A 
ATOM     16  C   UNL     1       0.884  -4.917   0.542  1.00  0.00     0.206 A 
ATOM     17  N   UNL     1       1.741  -5.873   0.924  1.00  0.00    -0.059 NA
ATOM     18  N   UNL     1      -0.342  -5.408   0.109  1.00  0.00    -0.189 NA
ATOM     19  O   UNL     1       1.078  -7.052   0.607  1.00  0.00    -0.334 OA
BRANCH  16  20
ATOM     20  C   UNL     1       1.341  -3.460   0.480  1.00  0.00     0.245 C 
ATOM     21  C   UNL     1      -0.571   0.392  -0.528  1.00  0.00     0.332 C 
ATOM     22  N   UNL     1      -0.070  -0.883  -1.054  1.00  0.00    -0.333 N 
ATOM     23  C   UNL     1       1.480  -0.608  -1.984  1.00  0.00     0.290 C 
ATOM     24  C   UNL     1      -0.121  -2.163   0.237  1.00  0.00     0.303 C 
ATOM     25  H   UNL     1      -0.679  -1.285  -1.766  1.00  0.00     0.348 HD
ATOM     26  C   UNL     1       2.952  -1.849  -1.849  1.00  0.00     0.222 C 
ATOM     27  O   UNL     1       2.847  -3.201  -0.566  1.00  0.00    -0.358 OA
ENDBRANCH  16  20
ENDBRANCH  10  15
ENDBRANCH   6   9
ENDBRANCH   4   5
ENDBRANCH   3   4
ENDBRANCH   2   3
ENDBRANCH   1   2
BRANCH   1  28
ATOM     28  C   UNL     1       1.945  -1.470  -0.051  1.00  0.00     0.021 C 
BRANCH  28  29
ATOM     29  C   UNL     1       3.473  -1.156   0.502  1.00  0.00     0.116 C 
BRANCH  29  30
ATOM     30  N   UNL     1       3.958   0.173   0.072  1.00  0.00    -0.352 N 
ATOM     31  C   UNL     1       4.495   1.182   0.824  1.00  0.00     0.251 C 
ATOM     32  H   UNL     1       3.885   0.358  -0.892  1.00  0.00     0.163 HD
ATOM     33  O   UNL     1       4.722   2.280   0.324  1.00  0.00    -0.269 OA
BRANCH  31  34
ATOM     34  C   UNL     1       4.756   0.924   2.244  1.00  0.00     0.039 A 
ATOM     35  C   UNL     1       4.314   1.843   3.195  1.00  0.00     0.014 A 
ATOM     36  C   UNL     1       5.364  -0.276   2.618  1.00  0.00     0.014 A 
ATOM     37  C   UNL     1       4.460   1.536   4.544  1.00  0.00     0.010 A 
ATOM     38  C   UNL     1       5.384  -0.635   3.949  1.00  0.00     0.010 A 
ATOM     39  C   UNL     1       4.983   0.290   4.922  1.00  0.00    -0.014 A 
BRANCH  39  40
ATOM     40  C   UNL     1       5.250  -0.042   6.334  1.00  0.00     0.031 A 
ATOM     41  C   UNL     1       6.676  -0.292   6.743  1.00  0.00     0.074 A 
ATOM     42  C   UNL     1       4.228  -0.207   7.192  1.00  0.00     0.049 A 
ATOM     43  N   UNL     1       7.144  -0.729   7.879  1.00  0.00    -0.248 NA
ATOM     44  C   UNL     1       7.713  -0.076   5.713  1.00  0.00     0.031 C 
ATOM     45  C   UNL     1       2.808  -0.062   6.861  1.00  0.00     0.029 A 
ATOM     46  N   UNL     1       4.228  -0.560   8.514  1.00  0.00    -0.354 N 
ATOM     47  C   UNL     1       8.509  -0.899   7.678  1.00  0.00     0.074 A 
ATOM     48  C   UNL     1       8.788  -0.573   6.301  1.00  0.00     0.031 C 
ATOM     49  C   UNL     1       2.074  -0.316   7.957  1.00  0.00     0.029 A 
ATOM     50  C   UNL     1       2.968  -0.669   9.054  1.00  0.00     0.049 A 
ATOM     51  H   UNL     1       5.051  -0.721   9.029  1.00  0.00     0.167 HD
ATOM     52  C   UNL     1       9.454  -1.252   8.578  1.00  0.00     0.034 A 
ATOM     53  C   UNL     1       2.592  -1.018  10.299  1.00  0.00     0.034 A 
ATOM     54  C   UNL     1       9.160  -1.486   9.962  1.00  0.00     0.049 A 
ATOM     55  C   UNL     1       3.669  -1.317  11.307  1.00  0.00     0.074 A 
ATOM     56  C   UNL     1      10.035  -1.752  10.996  1.00  0.00     0.029 A 
ATOM     57  N   UNL     1       7.883  -1.463  10.504  1.00  0.00    -0.354 N 
ATOM     58  N   UNL     1       4.971  -1.343  11.139  1.00  0.00    -0.248 NA
ATOM     59  C   UNL     1       3.236  -1.594  12.682  1.00  0.00     0.031 C 
ATOM     60  C   UNL     1       9.284  -1.903  12.166  1.00  0.00     0.029 A 
ATOM     61  C   UNL     1       7.944  -1.704  11.862  1.00  0.00     0.049 A 
ATOM     62  H   UNL     1       7.056  -1.299   9.996  1.00  0.00     0.167 HD
ATOM     63  C   UNL     1       5.514  -1.594  12.392  1.00  0.00     0.074 A 
ATOM     64  C   UNL     1       4.399  -1.701  13.312  1.00  0.00     0.031 C 
ATOM     65  C   UNL     1       6.813  -1.735  12.753  1.00  0.00     0.034 A 
BRANCH  52  66
ATOM     66  C   UNL     1      10.879  -1.342   8.100  1.00  0.00     0.023 A 
ATOM     67  C   UNL     1      11.566  -0.169   7.723  1.00  0.00     0.012 A 
ATOM     68  C   UNL     1      11.546  -2.580   8.043  1.00  0.00     0.148 A 
ATOM     69  C   UNL     1      12.877  -0.231   7.252  1.00  0.00     0.002 A 
ATOM     70  C   UNL     1      12.871  -2.627   7.622  1.00  0.00     0.091 A 
ATOM     71  F   UNL     1      10.871  -3.687   8.380  1.00  0.00    -0.205 F 
ATOM     72  C   UNL     1      13.532  -1.458   7.212  1.00  0.00     0.022 A 
BRANCH  70  73
ATOM     73  S   UNL     1      13.831  -4.145   7.613  1.00  0.00     0.127 S 
ATOM     74  O   UNL     1      13.989  -4.386   6.179  1.00  0.00    -0.237 OA
ATOM     75  O   UNL     1      15.056  -3.736   8.301  1.00  0.00    -0.237 OA
ATOM     76  O   UNL     1      13.032  -5.131   8.328  1.00  0.00    -0.744 OA
ENDBRANCH  70  73
ENDBRANCH  52  66
BRANCH  53  77
ATOM     77  C   UNL     1       1.150  -1.011  10.673  1.00  0.00     0.023 A 
ATOM     78  C   UNL     1       0.667  -0.011  11.540  1.00  0.00     0.012 A 
ATOM     79  C   UNL     1       0.247  -1.953  10.143  1.00  0.00     0.148 A 
ATOM     80  C   UNL     1      -0.680   0.030  11.901  1.00  0.00     0.002 A 
ATOM     81  C   UNL     1      -1.104  -1.874  10.465  1.00  0.00     0.091 A 
ATOM     82  F   UNL     1       0.724  -2.899   9.323  1.00  0.00    -0.205 F 
ATOM     83  C   UNL     1      -1.567  -0.895  11.357  1.00  0.00     0.022 A 
BRANCH  81  84
ATOM     84  S   UNL     1      -2.337  -2.939   9.706  1.00  0.00     0.127 S 
ATOM     85  O   UNL     1      -2.694  -3.820  10.815  1.00  0.00    -0.237 OA
ATOM     86  O   UNL     1      -3.373  -1.978   9.324  1.00  0.00    -0.237 OA
ATOM     87  O   UNL     1      -1.667  -3.574   8.580  1.00  0.00    -0.744 OA
ENDBRANCH  81  84
ENDBRANCH  53  77
BRANCH  65  88
ATOM     88  C   UNL     1       7.110  -1.962  14.209  1.00  0.00     0.023 A 
ATOM     89  C   UNL     1       6.861  -3.221  14.787  1.00  0.00     0.012 A 
ATOM     90  C   UNL     1       7.743  -0.957  14.966  1.00  0.00     0.148 A 
ATOM     91  C   UNL     1       7.218  -3.469  16.111  1.00  0.00     0.002 A 
ATOM     92  C   UNL     1       8.142  -1.229  16.267  1.00  0.00     0.091 A 
ATOM     93  F   UNL     1       7.952   0.238  14.394  1.00  0.00    -0.205 F 
ATOM     94  C   UNL     1       7.871  -2.480  16.845  1.00  0.00     0.022 A 
BRANCH  92  95
ATOM     95  S   UNL     1       9.083  -0.054  17.246  1.00  0.00     0.127 S 
ATOM     96  O   UNL     1       8.091   0.373  18.231  1.00  0.00    -0.237 OA
ATOM     97  O   UNL     1      10.157  -0.889  17.783  1.00  0.00    -0.237 OA
ATOM     98  O   UNL     1       9.527   0.978  16.319  1.00  0.00    -0.744 OA
ENDBRANCH  92  95
ENDBRANCH  65  88
ENDBRANCH  39  40
ENDBRANCH  31  34
ENDBRANCH  29  30
ENDBRANCH  28  29
ENDBRANCH   1  28
TORSDOF 18
