REMARK SMILES COCCS(=O)(=O)CCn1cc(C(=O)NCCCCCCNC(=O)c2ccc(-c3c4nc(c(-c5cccc(S(=O)(=O)[O-])c5F)c5ccc([nH]5)c(-c5cccc(S(=O)(=O)[O-])c5F)c5nc(c(-c6cccc(S(=O)(=O)[O-])c6F)c6ccc3[nH]6)C=C5)C=C4)cc2)nn1
REMARK SMILES IDX 17 1 16 2 15 3 13 4 14 5 12 7 10 8 11 9 89 10 88 11 9 12
REMARK SMILES IDX 8 13 5 14 6 15 7 16 4 17 3 18 2 19 1 20 18 21 19 22 20 23
REMARK SMILES IDX 21 24 22 25 23 26 24 28 25 29 26 30 87 31 27 32 86 33 28 34
REMARK SMILES IDX 29 35 30 36 80 37 31 38 85 39 79 40 81 41 32 42 84 43 78 44
REMARK SMILES IDX 77 45 33 47 65 48 45 49 64 50 46 51 49 52 63 53 82 54 47 55
REMARK SMILES IDX 48 56 62 58 83 59 50 60 34 61 35 62 43 63 36 64 38 65 44 66
REMARK SMILES IDX 37 67 39 68 40 69 41 70 42 71 66 72 67 73 75 74 68 75 70 76
REMARK SMILES IDX 76 77 69 78 71 79 72 80 73 81 74 82 51 83 52 84 60 85 53 86
REMARK SMILES IDX 55 87 61 88 54 89 56 90 57 91 58 92 59 93
REMARK H PARENT 15 6 22 27 81 46 49 57
REMARK Flexibility Score: inf
ROOT
ATOM      1  C   UNL     1       0.424  -5.747  -0.387  1.00  0.00     0.021 C 
ENDROOT
BRANCH   1   2
ATOM      2  C   UNL     1      -0.976  -5.150  -0.533  1.00  0.00     0.116 C 
BRANCH   2   3
ATOM      3  N   UNL     1      -1.652  -4.948   0.738  1.00  0.00    -0.351 N 
ATOM      4  C   UNL     1      -2.230  -3.829   1.308  1.00  0.00     0.273 C 
ATOM      5  O   UNL     1      -2.722  -3.969   2.430  1.00  0.00    -0.267 OA
ATOM      6  H   UNL     1      -1.708  -5.758   1.296  1.00  0.00     0.163 HD
BRANCH   4   7
ATOM      7  C   UNL     1      -2.205  -2.535   0.629  1.00  0.00     0.170 A 
ATOM      8  N   UNL     1      -1.759  -0.932  -0.743  1.00  0.00    -0.251 N 
ATOM      9  C   UNL     1      -2.193  -2.224  -0.719  1.00  0.00     0.145 A 
ATOM     10  N   UNL     1      -1.862  -0.367   0.464  1.00  0.00    -0.067 NA
ATOM     11  N   UNL     1      -2.116  -1.346   1.327  1.00  0.00    -0.125 NA
BRANCH   8  12
ATOM     12  C   UNL     1      -1.194  -0.217  -1.860  1.00  0.00     0.162 C 
BRANCH  12  13
ATOM     13  C   UNL     1       0.325  -0.121  -1.906  1.00  0.00     0.160 C 
BRANCH  13  14
ATOM     14  S   UNL     1       1.222  -1.657  -1.908  1.00  0.00     0.154 S 
ATOM     15  O   UNL     1       2.584  -1.350  -2.285  1.00  0.00    -0.229 OA
ATOM     16  O   UNL     1       0.440  -2.567  -2.736  1.00  0.00    -0.229 OA
BRANCH  14  17
ATOM     17  C   UNL     1       1.290  -2.407  -0.306  1.00  0.00     0.165 C 
BRANCH  17  18
ATOM     18  C   UNL     1       2.032  -1.735   0.818  1.00  0.00     0.176 C 
BRANCH  18  19
ATOM     19  O   UNL     1       1.170  -0.863   1.542  1.00  0.00    -0.384 OA
ATOM     20  C   UNL     1       1.448   0.514   1.359  1.00  0.00     0.194 C 
ENDBRANCH  18  19
ENDBRANCH  17  18
ENDBRANCH  14  17
ENDBRANCH  13  14
ENDBRANCH  12  13
ENDBRANCH   8  12
ENDBRANCH   4   7
ENDBRANCH   2   3
ENDBRANCH   1   2
BRANCH   1  21
ATOM     21  C   UNL     1       0.482  -7.258  -0.170  1.00  0.00     0.002 C 
BRANCH  21  22
ATOM     22  C   UNL     1      -0.285  -8.110  -1.189  1.00  0.00     0.002 C 
BRANCH  22  23
ATOM     23  C   UNL     1      -0.015  -7.821  -2.674  1.00  0.00     0.021 C 
BRANCH  23  24
ATOM     24  C   UNL     1       1.418  -8.093  -3.107  1.00  0.00     0.116 C 
BRANCH  24  25
ATOM     25  N   UNL     1       1.760  -9.512  -3.021  1.00  0.00    -0.352 N 
ATOM     26  C   UNL     1       2.938 -10.121  -3.387  1.00  0.00     0.251 C 
ATOM     27  H   UNL     1       1.062 -10.104  -2.657  1.00  0.00     0.163 HD
ATOM     28  O   UNL     1       2.974 -11.334  -3.605  1.00  0.00    -0.269 OA
BRANCH  26  29
ATOM     29  C   UNL     1       4.158  -9.307  -3.508  1.00  0.00     0.039 A 
ATOM     30  C   UNL     1       5.061  -9.516  -4.553  1.00  0.00     0.014 A 
ATOM     31  C   UNL     1       4.381  -8.306  -2.561  1.00  0.00     0.014 A 
ATOM     32  C   UNL     1       6.148  -8.658  -4.677  1.00  0.00     0.010 A 
ATOM     33  C   UNL     1       5.372  -7.377  -2.764  1.00  0.00     0.010 A 
ATOM     34  C   UNL     1       6.284  -7.571  -3.793  1.00  0.00    -0.014 A 
BRANCH  34  35
ATOM     35  C   UNL     1       7.264  -6.522  -4.068  1.00  0.00     0.031 A 
ATOM     36  C   UNL     1       7.114  -5.963  -5.437  1.00  0.00     0.074 A 
ATOM     37  C   UNL     1       8.072  -5.973  -3.132  1.00  0.00     0.049 A 
ATOM     38  N   UNL     1       7.857  -6.208  -6.466  1.00  0.00    -0.248 NA
ATOM     39  C   UNL     1       5.878  -5.228  -5.766  1.00  0.00     0.031 C 
ATOM     40  C   UNL     1       8.043  -6.223  -1.684  1.00  0.00     0.029 A 
ATOM     41  N   UNL     1       9.002  -4.978  -3.239  1.00  0.00    -0.354 N 
ATOM     42  C   UNL     1       7.368  -5.366  -7.462  1.00  0.00     0.074 A 
ATOM     43  C   UNL     1       6.024  -5.035  -7.080  1.00  0.00     0.031 C 
ATOM     44  C   UNL     1       8.704  -5.238  -1.038  1.00  0.00     0.029 A 
ATOM     45  C   UNL     1       9.362  -4.400  -2.021  1.00  0.00     0.049 A 
ATOM     46  H   UNL     1       9.386  -4.694  -4.101  1.00  0.00     0.167 HD
ATOM     47  C   UNL     1       8.244  -4.695  -8.262  1.00  0.00     0.034 A 
ATOM     48  C   UNL     1      10.137  -3.304  -1.828  1.00  0.00     0.034 A 
ATOM     49  C   UNL     1       9.570  -5.247  -8.125  1.00  0.00     0.049 A 
ATOM     50  C   UNL     1      10.974  -3.148  -3.034  1.00  0.00     0.074 A 
ATOM     51  C   UNL     1      10.240  -6.391  -8.495  1.00  0.00     0.029 A 
ATOM     52  N   UNL     1      10.272  -4.669  -7.103  1.00  0.00    -0.354 N 
ATOM     53  N   UNL     1      11.900  -4.002  -3.371  1.00  0.00    -0.248 NA
ATOM     54  C   UNL     1      10.571  -2.206  -4.070  1.00  0.00     0.031 C 
ATOM     55  C   UNL     1      11.316  -6.537  -7.568  1.00  0.00     0.029 A 
ATOM     56  C   UNL     1      11.311  -5.453  -6.694  1.00  0.00     0.049 A 
ATOM     57  H   UNL     1      10.054  -3.793  -6.709  1.00  0.00     0.167 HD
ATOM     58  C   UNL     1      11.833  -4.015  -4.750  1.00  0.00     0.074 A 
ATOM     59  C   UNL     1      11.168  -2.773  -5.121  1.00  0.00     0.031 C 
ATOM     60  C   UNL     1      11.979  -5.179  -5.442  1.00  0.00     0.034 A 
BRANCH  47  61
ATOM     61  C   UNL     1       8.088  -3.251  -8.722  1.00  0.00     0.023 A 
ATOM     62  C   UNL     1       9.084  -2.750  -9.594  1.00  0.00     0.012 A 
ATOM     63  C   UNL     1       7.233  -2.292  -8.130  1.00  0.00     0.148 A 
ATOM     64  C   UNL     1       9.245  -1.378  -9.826  1.00  0.00     0.002 A 
ATOM     65  C   UNL     1       7.345  -0.937  -8.424  1.00  0.00     0.091 A 
ATOM     66  F   UNL     1       6.385  -2.650  -7.166  1.00  0.00    -0.205 F 
ATOM     67  C   UNL     1       8.370  -0.469  -9.247  1.00  0.00     0.022 A 
BRANCH  65  68
ATOM     68  S   UNL     1       6.213   0.276  -7.728  1.00  0.00     0.127 S 
ATOM     69  O   UNL     1       7.082   0.985  -6.795  1.00  0.00    -0.237 OA
ATOM     70  O   UNL     1       5.827   1.036  -8.918  1.00  0.00    -0.237 OA
ATOM     71  O   UNL     1       5.127  -0.494  -7.136  1.00  0.00    -0.744 OA
ENDBRANCH  65  68
ENDBRANCH  47  61
BRANCH  48  72
ATOM     72  C   UNL     1      10.152  -2.279  -0.759  1.00  0.00     0.023 A 
ATOM     73  C   UNL     1      11.323  -1.523  -0.536  1.00  0.00     0.012 A 
ATOM     74  C   UNL     1       8.944  -1.823  -0.190  1.00  0.00     0.148 A 
ATOM     75  C   UNL     1      11.281  -0.320   0.180  1.00  0.00     0.002 A 
ATOM     76  C   UNL     1       8.906  -0.624   0.517  1.00  0.00     0.091 A 
ATOM     77  F   UNL     1       7.824  -2.522  -0.421  1.00  0.00    -0.205 F 
ATOM     78  C   UNL     1      10.071   0.138   0.690  1.00  0.00     0.022 A 
BRANCH  76  79
ATOM     79  S   UNL     1       7.380   0.060   1.181  1.00  0.00     0.127 S 
ATOM     80  O   UNL     1       7.748   0.319   2.574  1.00  0.00    -0.237 OA
ATOM     81  O   UNL     1       7.201   1.258   0.366  1.00  0.00    -0.237 OA
ATOM     82  O   UNL     1       6.366  -0.974   1.012  1.00  0.00    -0.744 OA
ENDBRANCH  76  79
ENDBRANCH  48  72
BRANCH  60  83
ATOM     83  C   UNL     1      12.769  -6.279  -4.804  1.00  0.00     0.023 A 
ATOM     84  C   UNL     1      12.341  -6.996  -3.671  1.00  0.00     0.012 A 
ATOM     85  C   UNL     1      13.963  -6.649  -5.442  1.00  0.00     0.148 A 
ATOM     86  C   UNL     1      13.106  -8.059  -3.179  1.00  0.00     0.002 A 
ATOM     87  C   UNL     1      14.694  -7.730  -4.979  1.00  0.00     0.091 A 
ATOM     88  F   UNL     1      14.356  -5.936  -6.509  1.00  0.00    -0.205 F 
ATOM     89  C   UNL     1      14.275  -8.435  -3.841  1.00  0.00     0.022 A 
BRANCH  87  90
ATOM     90  S   UNL     1      16.143  -8.312  -5.859  1.00  0.00     0.127 S 
ATOM     91  O   UNL     1      17.229  -7.865  -4.990  1.00  0.00    -0.237 OA
ATOM     92  O   UNL     1      15.932  -9.761  -5.883  1.00  0.00    -0.237 OA
ATOM     93  O   UNL     1      16.093  -7.684  -7.174  1.00  0.00    -0.744 OA
ENDBRANCH  87  90
ENDBRANCH  60  83
ENDBRANCH  34  35
ENDBRANCH  26  29
ENDBRANCH  24  25
ENDBRANCH  23  24
ENDBRANCH  22  23
ENDBRANCH  21  22
ENDBRANCH   1  21
TORSDOF 22
