REMARK SMILES NS(=O)(=O)c1ccc(-n2nc(NC(=O)NCCCCCCCCCCC(=O)NCCCCCCNC(=O)c3ccc(-c4c5nc(c(-c6cccc(S(=O)(=O)[O-])c6F)c6ccc([nH]6)c(-c6cccc(S(=O)(=O)[O-])c6F)c6nc(c(-c7cccc(S(=O)(=O)[O-])c7F)c7ccc4[nH]7)C=C6)C=C5)cc3)cc2-c2ccccc2)cc1
REMARK SMILES IDX 24 1 23 2 22 3 21 4 20 5 19 6 18 7 17 8 16 9 15 10 12 11
REMARK SMILES IDX 13 12 14 14 11 16 9 17 10 18 102 19 101 20 8 21 5 22 6 23
REMARK SMILES IDX 110 24 7 25 109 26 2 27 3 28 4 29 1 30 103 33 104 34 108 35
REMARK SMILES IDX 105 36 107 37 106 38 25 39 26 40 27 41 28 42 29 44 30 45
REMARK SMILES IDX 31 46 32 47 33 48 34 49 35 50 36 51 37 53 38 54 39 55 100 56
REMARK SMILES IDX 40 57 99 58 41 59 42 60 43 61 93 62 44 63 98 64 92 65 94 66
REMARK SMILES IDX 45 67 97 68 91 69 90 70 46 72 78 73 58 74 77 75 59 76 62 77
REMARK SMILES IDX 76 78 95 79 60 80 61 81 75 83 96 84 63 85 47 86 48 87 56 88
REMARK SMILES IDX 49 89 51 90 57 91 50 92 52 93 53 94 54 95 55 96 79 97 80 98
REMARK SMILES IDX 88 99 81 100 83 101 89 102 82 103 84 104 85 105 86 106
REMARK SMILES IDX 87 107 64 108 65 109 73 110 66 111 68 112 74 113 67 114
REMARK SMILES IDX 69 115 70 116 71 117 72 118
REMARK H PARENT 12 13 15 15 1 31 1 32 28 43 35 52 94 71 62 82
REMARK Flexibility Score: inf
ROOT
ATOM      1  C   UNL     1      -3.274   2.999  -2.429  1.00  0.00     0.010 C 
ENDROOT
BRANCH   1   2
ATOM      2  C   UNL     1      -3.362   4.303  -1.635  1.00  0.00     0.001 C 
BRANCH   2   3
ATOM      3  C   UNL     1      -3.570   4.141  -0.123  1.00  0.00     0.000 C 
BRANCH   3   4
ATOM      4  C   UNL     1      -2.330   4.426   0.699  1.00  0.00     0.000 C 
BRANCH   4   5
ATOM      5  C   UNL     1      -1.875   5.880   0.655  1.00  0.00     0.000 C 
BRANCH   5   6
ATOM      6  C   UNL     1      -2.888   6.930   1.119  1.00  0.00     0.000 C 
BRANCH   6   7
ATOM      7  C   UNL     1      -3.454   6.753   2.533  1.00  0.00     0.002 C 
BRANCH   7   8
ATOM      8  C   UNL     1      -2.452   6.420   3.636  1.00  0.00     0.021 C 
BRANCH   8   9
ATOM      9  C   UNL     1      -1.172   7.239   3.654  1.00  0.00     0.117 C 
BRANCH   9  10
ATOM     10  N   UNL     1      -1.259   8.522   4.287  1.00  0.00    -0.338 N 
ATOM     11  N   UNL     1       1.006   8.841   4.990  1.00  0.00    -0.291 N 
ATOM     12  C   UNL     1      -0.287   9.232   4.902  1.00  0.00     0.320 C 
ATOM     13  H   UNL     1       1.524   9.369   5.641  1.00  0.00     0.173 HD
ATOM     14  O   UNL     1      -0.661  10.211   5.562  1.00  0.00    -0.248 OA
ATOM     15  H   UNL     1      -2.148   8.944   4.272  1.00  0.00     0.165 HD
BRANCH  11  16
ATOM     16  C   UNL     1       1.760   7.864   4.368  1.00  0.00     0.157 A 
ATOM     17  N   UNL     1       2.291   6.200   3.145  1.00  0.00    -0.231 N 
ATOM     18  N   UNL     1       1.513   7.292   3.190  1.00  0.00    -0.149 NA
ATOM     19  C   UNL     1       3.278   6.235   4.122  1.00  0.00     0.076 A 
ATOM     20  C   UNL     1       2.940   7.310   4.928  1.00  0.00     0.078 A 
BRANCH  17  21
ATOM     21  C   UNL     1       1.950   5.123   2.278  1.00  0.00     0.065 A 
ATOM     22  C   UNL     1       1.218   3.012   0.599  1.00  0.00     0.082 A 
ATOM     23  C   UNL     1       1.574   2.750   1.925  1.00  0.00     0.024 A 
ATOM     24  C   UNL     1       1.232   4.322   0.106  1.00  0.00     0.024 A 
ATOM     25  C   UNL     1       1.954   3.804   2.760  1.00  0.00     0.030 A 
ATOM     26  C   UNL     1       1.569   5.383   0.957  1.00  0.00     0.030 A 
BRANCH  22  27
ATOM     27  S   UNL     1       0.737   1.687  -0.468  1.00  0.00     0.238 S 
ATOM     28  O   UNL     1       1.333   1.859  -1.775  1.00  0.00    -0.207 OA
ATOM     29  O   UNL     1      -0.653   1.371  -0.260  1.00  0.00    -0.207 OA
BRANCH  27  30
ATOM     30  N   UNL     1       1.559   0.344   0.154  1.00  0.00    -0.225 NA
ATOM     31  H   UNL     1       1.339  -0.479  -0.406  1.00  0.00     0.137 HD
ATOM     32  H   UNL     1       1.269   0.186   1.119  1.00  0.00     0.137 HD
ENDBRANCH  27  30
ENDBRANCH  22  27
ENDBRANCH  17  21
BRANCH  19  33
ATOM     33  C   UNL     1       4.403   5.305   4.157  1.00  0.00     0.000 A 
ATOM     34  C   UNL     1       5.151   5.089   2.989  1.00  0.00     0.010 A 
ATOM     35  C   UNL     1       4.697   4.559   5.302  1.00  0.00     0.010 A 
ATOM     36  C   UNL     1       6.143   4.112   2.948  1.00  0.00     0.001 A 
ATOM     37  C   UNL     1       5.696   3.582   5.261  1.00  0.00     0.001 A 
ATOM     38  C   UNL     1       6.410   3.353   4.083  1.00  0.00     0.000 A 
ENDBRANCH  19  33
ENDBRANCH  11  16
ENDBRANCH   9  10
ENDBRANCH   8   9
ENDBRANCH   7   8
ENDBRANCH   6   7
ENDBRANCH   5   6
ENDBRANCH   4   5
ENDBRANCH   3   4
ENDBRANCH   2   3
ENDBRANCH   1   2
BRANCH   1  39
ATOM     39  C   UNL     1      -4.407   1.987  -2.246  1.00  0.00     0.100 C 
BRANCH  39  40
ATOM     40  C   UNL     1      -5.646   2.227  -3.091  1.00  0.00     0.219 C 
ATOM     41  O   UNL     1      -5.834   1.596  -4.135  1.00  0.00    -0.275 OA
ATOM     42  N   UNL     1      -6.623   3.086  -2.686  1.00  0.00    -0.356 N 
ATOM     43  H   UNL     1      -7.383   3.174  -3.306  1.00  0.00     0.163 HD
BRANCH  42  44
ATOM     44  C   UNL     1      -6.717   3.888  -1.485  1.00  0.00     0.116 C 
BRANCH  44  45
ATOM     45  C   UNL     1      -6.729   5.388  -1.794  1.00  0.00     0.021 C 
BRANCH  45  46
ATOM     46  C   UNL     1      -8.122   5.961  -2.059  1.00  0.00     0.002 C 
BRANCH  46  47
ATOM     47  C   UNL     1      -9.134   5.812  -0.912  1.00  0.00     0.002 C 
BRANCH  47  48
ATOM     48  C   UNL     1      -8.725   6.380   0.457  1.00  0.00     0.021 C 
BRANCH  48  49
ATOM     49  C   UNL     1      -8.580   7.892   0.469  1.00  0.00     0.116 C 
BRANCH  49  50
ATOM     50  N   UNL     1      -9.836   8.587   0.133  1.00  0.00    -0.352 N 
ATOM     51  C   UNL     1     -10.081   9.941  -0.040  1.00  0.00     0.251 C 
ATOM     52  H   UNL     1     -10.619   8.002   0.013  1.00  0.00     0.163 HD
ATOM     53  O   UNL     1     -11.224  10.385  -0.001  1.00  0.00    -0.269 OA
BRANCH  51  54
ATOM     54  C   UNL     1      -8.940  10.834  -0.290  1.00  0.00     0.039 A 
ATOM     55  C   UNL     1      -8.866  12.160   0.147  1.00  0.00     0.014 A 
ATOM     56  C   UNL     1      -7.885  10.272  -0.987  1.00  0.00     0.014 A 
ATOM     57  C   UNL     1      -7.702  12.877  -0.126  1.00  0.00     0.010 A 
ATOM     58  C   UNL     1      -6.655  10.826  -0.889  1.00  0.00     0.010 A 
ATOM     59  C   UNL     1      -6.611  12.186  -0.667  1.00  0.00    -0.014 A 
BRANCH  59  60
ATOM     60  C   UNL     1      -5.365  12.806  -1.066  1.00  0.00     0.031 A 
ATOM     61  C   UNL     1      -4.569  13.339   0.056  1.00  0.00     0.074 A 
ATOM     62  C   UNL     1      -4.849  12.596  -2.300  1.00  0.00     0.049 A 
ATOM     63  N   UNL     1      -4.360  14.577   0.350  1.00  0.00    -0.248 NA
ATOM     64  C   UNL     1      -4.089  12.388   1.070  1.00  0.00     0.031 C 
ATOM     65  C   UNL     1      -5.353  11.728  -3.380  1.00  0.00     0.029 A 
ATOM     66  N   UNL     1      -3.645  12.987  -2.783  1.00  0.00    -0.354 N 
ATOM     67  C   UNL     1      -3.505  14.548   1.446  1.00  0.00     0.074 A 
ATOM     68  C   UNL     1      -3.591  13.218   1.988  1.00  0.00     0.031 C 
ATOM     69  C   UNL     1      -4.352  11.459  -4.248  1.00  0.00     0.029 A 
ATOM     70  C   UNL     1      -3.205  12.267  -3.887  1.00  0.00     0.049 A 
ATOM     71  H   UNL     1      -3.124  13.721  -2.384  1.00  0.00     0.167 HD
ATOM     72  C   UNL     1      -2.578  15.525   1.645  1.00  0.00     0.034 A 
ATOM     73  C   UNL     1      -1.952  12.289  -4.403  1.00  0.00     0.034 A 
ATOM     74  C   UNL     1      -2.804  16.651   0.768  1.00  0.00     0.049 A 
ATOM     75  C   UNL     1      -1.316  13.542  -3.922  1.00  0.00     0.074 A 
ATOM     76  C   UNL     1      -3.863  17.507   0.535  1.00  0.00     0.029 A 
ATOM     77  N   UNL     1      -1.996  16.749  -0.342  1.00  0.00    -0.354 N 
ATOM     78  N   UNL     1      -1.755  14.733  -4.231  1.00  0.00    -0.248 NA
ATOM     79  C   UNL     1      -0.507  13.466  -2.716  1.00  0.00     0.031 C 
ATOM     80  C   UNL     1      -3.892  17.672  -0.883  1.00  0.00     0.029 A 
ATOM     81  C   UNL     1      -2.811  16.971  -1.423  1.00  0.00     0.049 A 
ATOM     82  H   UNL     1      -1.014  16.674  -0.357  1.00  0.00     0.167 HD
ATOM     83  C   UNL     1      -1.671  15.454  -3.044  1.00  0.00     0.074 A 
ATOM     84  C   UNL     1      -0.805  14.653  -2.178  1.00  0.00     0.031 C 
ATOM     85  C   UNL     1      -2.546  16.467  -2.756  1.00  0.00     0.034 A 
BRANCH  72  86
ATOM     86  C   UNL     1      -1.255  15.333   2.348  1.00  0.00     0.023 A 
ATOM     87  C   UNL     1      -0.528  16.498   2.673  1.00  0.00     0.012 A 
ATOM     88  C   UNL     1      -0.575  14.097   2.466  1.00  0.00     0.148 A 
ATOM     89  C   UNL     1       0.818  16.441   3.049  1.00  0.00     0.002 A 
ATOM     90  C   UNL     1       0.743  14.037   2.907  1.00  0.00     0.091 A 
ATOM     91  F   UNL     1      -1.151  12.976   2.026  1.00  0.00    -0.205 F 
ATOM     92  C   UNL     1       1.452  15.210   3.171  1.00  0.00     0.022 A 
BRANCH  90  93
ATOM     93  S   UNL     1       1.634  12.479   3.051  1.00  0.00     0.127 S 
ATOM     94  O   UNL     1       2.703  12.666   2.072  1.00  0.00    -0.237 OA
ATOM     95  O   UNL     1       2.071  12.502   4.447  1.00  0.00    -0.237 OA
ATOM     96  O   UNL     1       0.667  11.441   2.726  1.00  0.00    -0.744 OA
ENDBRANCH  90  93
ENDBRANCH  72  86
BRANCH  73  97
ATOM     97  C   UNL     1      -1.182  11.156  -4.973  1.00  0.00     0.023 A 
ATOM     98  C   UNL     1      -0.073  11.400  -5.806  1.00  0.00     0.012 A 
ATOM     99  C   UNL     1      -1.374   9.838  -4.494  1.00  0.00     0.148 A 
ATOM    100  C   UNL     1       0.821  10.371  -6.136  1.00  0.00     0.002 A 
ATOM    101  C   UNL     1      -0.491   8.817  -4.832  1.00  0.00     0.091 A 
ATOM    102  F   UNL     1      -2.373   9.604  -3.632  1.00  0.00    -0.205 F 
ATOM    103  C   UNL     1       0.616   9.082  -5.647  1.00  0.00     0.022 A 
BRANCH 101 104
ATOM    104  S   UNL     1      -0.708   7.132  -4.234  1.00  0.00     0.127 S 
ATOM    105  O   UNL     1      -0.530   6.354  -5.460  1.00  0.00    -0.237 OA
ATOM    106  O   UNL     1       0.377   7.004  -3.264  1.00  0.00    -0.237 OA
ATOM    107  O   UNL     1      -2.056   7.078  -3.682  1.00  0.00    -0.744 OA
ENDBRANCH 101 104
ENDBRANCH  73  97
BRANCH  85 108
ATOM    108  C   UNL     1      -3.507  16.916  -3.837  1.00  0.00     0.023 A 
ATOM    109  C   UNL     1      -4.514  16.067  -4.346  1.00  0.00     0.012 A 
ATOM    110  C   UNL     1      -3.533  18.274  -4.196  1.00  0.00     0.148 A 
ATOM    111  C   UNL     1      -5.509  16.551  -5.201  1.00  0.00     0.002 A 
ATOM    112  C   UNL     1      -4.547  18.763  -5.014  1.00  0.00     0.091 A 
ATOM    113  F   UNL     1      -2.583  19.078  -3.694  1.00  0.00    -0.205 F 
ATOM    114  C   UNL     1      -5.533  17.903  -5.526  1.00  0.00     0.022 A 
BRANCH 112 115
ATOM    115  S   UNL     1      -4.713  20.512  -5.376  1.00  0.00     0.127 S 
ATOM    116  O   UNL     1      -4.349  20.567  -6.791  1.00  0.00    -0.237 OA
ATOM    117  O   UNL     1      -6.129  20.757  -5.099  1.00  0.00    -0.237 OA
ATOM    118  O   UNL     1      -3.800  21.201  -4.471  1.00  0.00    -0.744 OA
ENDBRANCH 112 115
ENDBRANCH  85 108
ENDBRANCH  59  60
ENDBRANCH  51  54
ENDBRANCH  49  50
ENDBRANCH  48  49
ENDBRANCH  47  48
ENDBRANCH  46  47
ENDBRANCH  45  46
ENDBRANCH  44  45
ENDBRANCH  42  44
ENDBRANCH  39  40
ENDBRANCH   1  39
TORSDOF 31
