REMARK SMILES O=C(NCCCCCCNC(=O)[C@H]1C[C@](O)(c2ccccc2Cl)[C@@H](c2ccccc2Cl)O1)c1ccc(-c2c3nc(c(-c4cccc(S(=O)(=O)[O-])c4F)c4ccc([nH]4)c(-c4cccc(S(=O)(=O)[O-])c4F)c4nc(c(-c5cccc(S(=O)(=O)[O-])c5F)c5ccc2[nH]5)C=C4)C=C3)cc1
REMARK SMILES IDX 5 1 4 2 3 3 1 4 2 5 33 7 34 8 95 9 35 10 94 11 36 12 37 13
REMARK SMILES IDX 38 14 88 15 39 16 93 17 87 18 89 19 40 20 92 21 86 22 85 23
REMARK SMILES IDX 41 25 73 26 53 27 72 28 54 29 57 30 71 31 90 32 55 33 56 34
REMARK SMILES IDX 70 36 91 37 58 38 42 39 43 40 51 41 44 42 46 43 52 44 45 45
REMARK SMILES IDX 47 46 48 47 49 48 50 49 74 50 75 51 83 52 76 53 78 54 84 55
REMARK SMILES IDX 77 56 79 57 80 58 81 59 82 60 59 61 60 62 68 63 61 64 63 65
REMARK SMILES IDX 69 66 62 67 64 68 65 69 66 70 67 71 6 72 7 73 8 74 9 75
REMARK SMILES IDX 10 76 11 77 12 79 13 80 14 81 32 82 15 83 24 84 17 85 18 86
REMARK SMILES IDX 22 87 19 88 21 89 23 90 20 91 16 92 25 94 26 95 30 96 27 97
REMARK SMILES IDX 29 98 31 99 28 100
REMARK H PARENT 3 6 89 24 57 35 10 78 16 93
REMARK Flexibility Score: inf
ROOT
ATOM      1  C   UNL     1       4.274   6.015   2.456  1.00  0.00     0.021 C 
ENDROOT
BRANCH   1   2
ATOM      2  C   UNL     1       3.885   7.482   2.355  1.00  0.00     0.116 C 
BRANCH   2   3
ATOM      3  N   UNL     1       3.732   7.924   0.980  1.00  0.00    -0.352 N 
ATOM      4  O   UNL     1       2.626   8.691  -0.827  1.00  0.00    -0.269 OA
ATOM      5  C   UNL     1       2.656   8.543   0.392  1.00  0.00     0.251 C 
ATOM      6  H   UNL     1       4.502   7.757   0.391  1.00  0.00     0.163 HD
BRANCH   5   7
ATOM      7  C   UNL     1       1.529   9.007   1.232  1.00  0.00     0.039 A 
ATOM      8  C   UNL     1       1.768   9.697   2.425  1.00  0.00     0.014 A 
ATOM      9  C   UNL     1       0.219   8.757   0.818  1.00  0.00     0.014 A 
ATOM     10  C   UNL     1       0.706  10.031   3.258  1.00  0.00     0.010 A 
ATOM     11  C   UNL     1      -0.852   9.166   1.618  1.00  0.00     0.010 A 
ATOM     12  C   UNL     1      -0.616   9.791   2.852  1.00  0.00    -0.014 A 
BRANCH  12  13
ATOM     13  C   UNL     1      -1.739  10.312   3.672  1.00  0.00     0.031 A 
ATOM     14  C   UNL     1      -2.736   9.391   4.316  1.00  0.00     0.074 A 
ATOM     15  C   UNL     1      -1.873  11.648   3.789  1.00  0.00     0.049 A 
ATOM     16  N   UNL     1      -3.784   9.695   5.038  1.00  0.00    -0.248 NA
ATOM     17  C   UNL     1      -2.541   7.945   4.125  1.00  0.00     0.031 C 
ATOM     18  C   UNL     1      -0.994  12.638   3.160  1.00  0.00     0.029 A 
ATOM     19  N   UNL     1      -2.803  12.407   4.452  1.00  0.00    -0.354 N 
ATOM     20  C   UNL     1      -4.400   8.489   5.348  1.00  0.00     0.074 A 
ATOM     21  C   UNL     1      -3.604   7.443   4.742  1.00  0.00     0.031 C 
ATOM     22  C   UNL     1      -1.426  13.870   3.465  1.00  0.00     0.029 A 
ATOM     23  C   UNL     1      -2.640  13.759   4.263  1.00  0.00     0.049 A 
ATOM     24  H   UNL     1      -3.518  12.021   5.009  1.00  0.00     0.167 HD
ATOM     25  C   UNL     1      -5.522   8.279   6.078  1.00  0.00     0.034 A 
ATOM     26  C   UNL     1      -3.401  14.799   4.655  1.00  0.00     0.034 A 
ATOM     27  C   UNL     1      -6.283   9.325   6.708  1.00  0.00     0.049 A 
ATOM     28  C   UNL     1      -4.630  14.529   5.473  1.00  0.00     0.074 A 
ATOM     29  C   UNL     1      -7.369   9.204   7.558  1.00  0.00     0.029 A 
ATOM     30  N   UNL     1      -6.058  10.683   6.540  1.00  0.00    -0.354 N 
ATOM     31  N   UNL     1      -5.097  13.382   5.902  1.00  0.00    -0.248 NA
ATOM     32  C   UNL     1      -5.425  15.695   5.881  1.00  0.00     0.031 C 
ATOM     33  C   UNL     1      -7.822  10.488   7.876  1.00  0.00     0.029 A 
ATOM     34  C   UNL     1      -7.002  11.410   7.245  1.00  0.00     0.049 A 
ATOM     35  H   UNL     1      -5.334  11.072   5.999  1.00  0.00     0.167 HD
ATOM     36  C   UNL     1      -6.229  13.687   6.644  1.00  0.00     0.074 A 
ATOM     37  C   UNL     1      -6.360  15.130   6.634  1.00  0.00     0.031 C 
ATOM     38  C   UNL     1      -7.096  12.847   7.261  1.00  0.00     0.034 A 
BRANCH  25  39
ATOM     39  C   UNL     1      -5.993   6.861   6.272  1.00  0.00     0.023 A 
ATOM     40  C   UNL     1      -5.313   6.016   7.171  1.00  0.00     0.012 A 
ATOM     41  C   UNL     1      -7.170   6.402   5.646  1.00  0.00     0.148 A 
ATOM     42  C   UNL     1      -5.786   4.730   7.432  1.00  0.00     0.002 A 
ATOM     43  C   UNL     1      -7.656   5.133   5.939  1.00  0.00     0.091 A 
ATOM     44  F   UNL     1      -7.792   7.215   4.781  1.00  0.00    -0.205 F 
ATOM     45  C   UNL     1      -6.962   4.293   6.826  1.00  0.00     0.022 A 
BRANCH  43  46
ATOM     46  S   UNL     1      -9.201   4.506   5.270  1.00  0.00     0.127 S 
ATOM     47  O   UNL     1      -8.726   3.477   4.347  1.00  0.00    -0.237 OA
ATOM     48  O   UNL     1      -9.868   3.990   6.466  1.00  0.00    -0.237 OA
ATOM     49  O   UNL     1      -9.862   5.645   4.649  1.00  0.00    -0.744 OA
ENDBRANCH  43  46
ENDBRANCH  25  39
BRANCH  26  50
ATOM     50  C   UNL     1      -3.004  16.185   4.284  1.00  0.00     0.023 A 
ATOM     51  C   UNL     1      -2.558  17.072   5.282  1.00  0.00     0.012 A 
ATOM     52  C   UNL     1      -3.024  16.614   2.942  1.00  0.00     0.148 A 
ATOM     53  C   UNL     1      -2.164  18.369   4.954  1.00  0.00     0.002 A 
ATOM     54  C   UNL     1      -2.573  17.886   2.615  1.00  0.00     0.091 A 
ATOM     55  F   UNL     1      -3.470  15.762   2.008  1.00  0.00    -0.205 F 
ATOM     56  C   UNL     1      -2.159  18.772   3.620  1.00  0.00     0.022 A 
BRANCH  54  57
ATOM     57  S   UNL     1      -2.397  18.424   0.910  1.00  0.00     0.127 S 
ATOM     58  O   UNL     1      -3.556  19.298   0.751  1.00  0.00    -0.237 OA
ATOM     59  O   UNL     1      -1.105  19.112   0.938  1.00  0.00    -0.237 OA
ATOM     60  O   UNL     1      -2.403  17.202   0.117  1.00  0.00    -0.744 OA
ENDBRANCH  54  57
ENDBRANCH  26  50
BRANCH  38  61
ATOM     61  C   UNL     1      -8.260  13.464   7.989  1.00  0.00     0.023 A 
ATOM     62  C   UNL     1      -9.332  14.005   7.253  1.00  0.00     0.012 A 
ATOM     63  C   UNL     1      -8.327  13.438   9.396  1.00  0.00     0.148 A 
ATOM     64  C   UNL     1     -10.442  14.537   7.906  1.00  0.00     0.002 A 
ATOM     65  C   UNL     1      -9.458  13.927  10.039  1.00  0.00     0.091 A 
ATOM     66  F   UNL     1      -7.287  12.934  10.076  1.00  0.00    -0.205 F 
ATOM     67  C   UNL     1     -10.511  14.486   9.296  1.00  0.00     0.022 A 
BRANCH  65  68
ATOM     68  S   UNL     1      -9.678  13.821  11.818  1.00  0.00     0.127 S 
ATOM     69  O   UNL     1      -9.572  15.224  12.215  1.00  0.00    -0.237 OA
ATOM     70  O   UNL     1     -11.022  13.254  11.931  1.00  0.00    -0.237 OA
ATOM     71  O   UNL     1      -8.612  12.955  12.305  1.00  0.00    -0.744 OA
ENDBRANCH  65  68
ENDBRANCH  38  61
ENDBRANCH  12  13
ENDBRANCH   5   7
ENDBRANCH   2   3
ENDBRANCH   1   2
BRANCH   1  72
ATOM     72  C   UNL     1       5.654   5.671   1.902  1.00  0.00     0.002 C 
BRANCH  72  73
ATOM     73  C   UNL     1       6.832   6.454   2.489  1.00  0.00     0.002 C 
BRANCH  73  74
ATOM     74  C   UNL     1       6.965   6.473   4.017  1.00  0.00     0.021 C 
BRANCH  74  75
ATOM     75  C   UNL     1       6.889   5.125   4.730  1.00  0.00     0.116 C 
BRANCH  75  76
ATOM     76  N   UNL     1       7.722   4.105   4.133  1.00  0.00    -0.354 N 
ATOM     77  C   UNL     1       8.570   3.229   4.740  1.00  0.00     0.249 C 
ATOM     78  H   UNL     1       7.669   4.034   3.153  1.00  0.00     0.163 HD
ATOM     79  O   UNL     1       8.943   2.258   4.076  1.00  0.00    -0.272 OA
BRANCH  77  80
ATOM     80  C   UNL     1       9.038   3.489   6.187  1.00  0.00     0.211 C 
ATOM     81  C   UNL     1       9.784   2.304   6.780  1.00  0.00     0.085 C 
ATOM     82  O   UNL     1       9.893   4.630   6.226  1.00  0.00    -0.357 OA
ATOM     83  C   UNL     1      11.098   2.845   7.358  1.00  0.00     0.124 C 
ATOM     84  C   UNL     1      11.207   4.252   6.695  1.00  0.00     0.187 C 
BRANCH  83  85
ATOM     85  C   UNL     1      11.106   2.610   8.884  1.00  0.00     0.005 A 
ATOM     86  C   UNL     1      11.082   1.238   9.279  1.00  0.00     0.008 A 
ATOM     87  C   UNL     1      11.135   3.544   9.936  1.00  0.00     0.047 A 
ATOM     88  C   UNL     1      11.103   0.822  10.612  1.00  0.00     0.001 A 
ATOM     89  C   UNL     1      11.188   3.116  11.279  1.00  0.00     0.021 A 
ATOM     90  Cl  UNL     1      11.065   5.256   9.767  1.00  0.00    -0.084 Cl
ATOM     91  C   UNL     1      11.171   1.767  11.618  1.00  0.00     0.002 A 
ENDBRANCH  83  85
BRANCH  83  92
ATOM     92  O   UNL     1      12.163   1.995   6.869  1.00  0.00    -0.382 OA
ATOM     93  H   UNL     1      12.229   2.082   5.906  1.00  0.00     0.212 HD
ENDBRANCH  83  92
BRANCH  84  94
ATOM     94  C   UNL     1      12.203   4.445   5.550  1.00  0.00     0.003 A 
ATOM     95  C   UNL     1      11.987   3.833   4.302  1.00  0.00     0.008 A 
ATOM     96  C   UNL     1      13.342   5.266   5.670  1.00  0.00     0.046 A 
ATOM     97  C   UNL     1      12.812   4.086   3.203  1.00  0.00     0.000 A 
ATOM     98  C   UNL     1      14.170   5.520   4.567  1.00  0.00     0.021 A 
ATOM     99  Cl  UNL     1      13.819   5.987   7.169  1.00  0.00    -0.084 Cl
ATOM    100  C   UNL     1      13.896   4.944   3.330  1.00  0.00     0.002 A 
ENDBRANCH  84  94
ENDBRANCH  77  80
ENDBRANCH  75  76
ENDBRANCH  74  75
ENDBRANCH  73  74
ENDBRANCH  72  73
ENDBRANCH   1  72
TORSDOF 19
