REMARK SMILES NC(=O)c1ccc(NC(=O)Cc2ccccc2C(=O)NCCCCCCNC(=O)c2ccc(-c3c4nc(c(-c5cccc(S(=O)(=O)[O-])c5F)c5ccc([nH]5)c(-c5cccc(S(=O)(=O)[O-])c5F)c5nc(c(-c6cccc(S(=O)(=O)[O-])c6F)c6ccc3[nH]6)C=C5)C=C4)cc2)cc1
REMARK SMILES IDX 23 1 22 2 21 3 20 4 18 5 19 6 17 8 12 9 13 10 14 11 16 12
REMARK SMILES IDX 15 13 11 14 9 15 8 16 10 18 7 19 4 20 5 21 94 22 6 23 93 24
REMARK SMILES IDX 2 25 1 26 3 29 24 30 25 31 26 32 27 33 28 34 29 36 30 37
REMARK SMILES IDX 31 38 92 39 32 40 91 41 33 42 34 43 35 44 85 45 36 46 90 47
REMARK SMILES IDX 84 48 86 49 37 50 89 51 83 52 82 53 38 55 70 56 50 57 69 58
REMARK SMILES IDX 51 59 54 60 68 61 87 62 52 63 53 64 67 66 88 67 55 68 39 69
REMARK SMILES IDX 40 70 48 71 41 72 43 73 49 74 42 75 44 76 45 77 46 78 47 79
REMARK SMILES IDX 71 80 72 81 80 82 73 83 75 84 81 85 74 86 76 87 77 88 78 89
REMARK SMILES IDX 79 90 56 91 57 92 65 93 58 94 60 95 66 96 59 97 61 98 62 99
REMARK SMILES IDX 63 100 64 101
REMARK H PARENT 20 7 8 17 1 27 1 28 27 35 86 54 54 65
REMARK Flexibility Score: inf
ROOT
ATOM      1  C   UNL     1       4.607   6.078  -1.003  1.00  0.00     0.002 C 
ENDROOT
BRANCH   1   2
ATOM      2  C   UNL     1       3.292   6.826  -0.701  1.00  0.00     0.021 C 
BRANCH   2   3
ATOM      3  C   UNL     1       2.213   6.933  -1.773  1.00  0.00     0.116 C 
BRANCH   3   4
ATOM      4  N   UNL     1       1.865   5.655  -2.330  1.00  0.00    -0.352 N 
ATOM      5  C   UNL     1       0.605   5.111  -2.429  1.00  0.00     0.251 C 
ATOM      6  O   UNL     1       0.068   4.521  -1.500  1.00  0.00    -0.269 OA
ATOM      7  H   UNL     1       2.608   5.110  -2.678  1.00  0.00     0.163 HD
BRANCH   5   8
ATOM      8  C   UNL     1      -0.096   5.301  -3.732  1.00  0.00     0.043 A 
ATOM      9  C   UNL     1       0.522   5.875  -4.846  1.00  0.00    -0.026 A 
ATOM     10  C   UNL     1      -0.328   6.623  -5.706  1.00  0.00     0.005 A 
ATOM     11  C   UNL     1      -1.723   6.588  -5.599  1.00  0.00     0.000 A 
ATOM     12  C   UNL     1      -1.500   5.144  -3.704  1.00  0.00     0.014 A 
ATOM     13  C   UNL     1      -2.312   5.768  -4.649  1.00  0.00     0.001 A 
BRANCH   9  14
ATOM     14  C   UNL     1       2.014   5.939  -5.098  1.00  0.00     0.136 C 
BRANCH  14  15
ATOM     15  C   UNL     1       3.014   4.764  -5.168  1.00  0.00     0.228 C 
ATOM     16  N   UNL     1       3.362   3.715  -4.363  1.00  0.00    -0.326 N 
ATOM     17  H   UNL     1       4.333   3.561  -4.412  1.00  0.00     0.169 HD
ATOM     18  O   UNL     1       3.849   4.866  -6.098  1.00  0.00    -0.274 OA
BRANCH  16  19
ATOM     19  C   UNL     1       2.767   2.778  -3.480  1.00  0.00     0.041 A 
ATOM     20  C   UNL     1       1.684   0.773  -1.799  1.00  0.00     0.039 A 
ATOM     21  C   UNL     1       2.083   1.980  -1.254  1.00  0.00     0.016 A 
ATOM     22  C   UNL     1       2.013   0.483  -3.123  1.00  0.00     0.016 A 
ATOM     23  C   UNL     1       2.677   2.936  -2.092  1.00  0.00     0.027 A 
ATOM     24  C   UNL     1       2.577   1.474  -3.945  1.00  0.00     0.027 A 
BRANCH  20  25
ATOM     25  C   UNL     1       0.784  -0.118  -1.050  1.00  0.00     0.248 C 
ATOM     26  N   UNL     1       1.215  -0.601   0.145  1.00  0.00    -0.366 N 
ATOM     27  H   UNL     1       0.637  -1.200   0.672  1.00  0.00     0.159 HD
ATOM     28  H   UNL     1       2.105  -0.351   0.485  1.00  0.00     0.159 HD
ATOM     29  O   UNL     1      -0.324  -0.410  -1.504  1.00  0.00    -0.270 OA
ENDBRANCH  20  25
ENDBRANCH  16  19
ENDBRANCH  14  15
ENDBRANCH   9  14
ENDBRANCH   5   8
ENDBRANCH   3   4
ENDBRANCH   2   3
ENDBRANCH   1   2
BRANCH   1  30
ATOM     30  C   UNL     1       5.429   6.427  -2.245  1.00  0.00     0.002 C 
BRANCH  30  31
ATOM     31  C   UNL     1       5.845   7.883  -2.398  1.00  0.00     0.021 C 
BRANCH  31  32
ATOM     32  C   UNL     1       6.390   8.550  -1.144  1.00  0.00     0.116 C 
BRANCH  32  33
ATOM     33  N   UNL     1       7.656   8.015  -0.671  1.00  0.00    -0.352 N 
ATOM     34  C   UNL     1       8.687   8.715  -0.078  1.00  0.00     0.251 C 
ATOM     35  H   UNL     1       7.793   7.047  -0.786  1.00  0.00     0.163 HD
ATOM     36  O   UNL     1       9.732   8.151   0.230  1.00  0.00    -0.269 OA
BRANCH  34  37
ATOM     37  C   UNL     1       8.532  10.174   0.136  1.00  0.00     0.039 A 
ATOM     38  C   UNL     1       9.520  11.037  -0.342  1.00  0.00     0.014 A 
ATOM     39  C   UNL     1       7.375  10.688   0.728  1.00  0.00     0.014 A 
ATOM     40  C   UNL     1       9.310  12.418  -0.297  1.00  0.00     0.010 A 
ATOM     41  C   UNL     1       7.130  12.058   0.690  1.00  0.00     0.010 A 
ATOM     42  C   UNL     1       8.096  12.939   0.180  1.00  0.00    -0.014 A 
BRANCH  42  43
ATOM     43  C   UNL     1       7.811  14.399   0.148  1.00  0.00     0.031 A 
ATOM     44  C   UNL     1       7.560  15.148   1.430  1.00  0.00     0.074 A 
ATOM     45  C   UNL     1       7.690  15.034  -1.036  1.00  0.00     0.049 A 
ATOM     46  N   UNL     1       7.244  16.405   1.601  1.00  0.00    -0.248 NA
ATOM     47  C   UNL     1       7.647  14.377   2.682  1.00  0.00     0.031 C 
ATOM     48  C   UNL     1       7.824  14.405  -2.352  1.00  0.00     0.029 A 
ATOM     49  N   UNL     1       7.399  16.345  -1.325  1.00  0.00    -0.354 N 
ATOM     50  C   UNL     1       7.058  16.567   2.969  1.00  0.00     0.074 A 
ATOM     51  C   UNL     1       7.259  15.272   3.579  1.00  0.00     0.031 C 
ATOM     52  C   UNL     1       7.623  15.330  -3.305  1.00  0.00     0.029 A 
ATOM     53  C   UNL     1       7.317  16.610  -2.672  1.00  0.00     0.049 A 
ATOM     54  H   UNL     1       7.262  17.031  -0.632  1.00  0.00     0.167 HD
ATOM     55  C   UNL     1       6.777  17.697   3.661  1.00  0.00     0.034 A 
ATOM     56  C   UNL     1       7.024  17.751  -3.326  1.00  0.00     0.034 A 
ATOM     57  C   UNL     1       6.625  18.993   3.058  1.00  0.00     0.049 A 
ATOM     58  C   UNL     1       6.760  19.003  -2.533  1.00  0.00     0.074 A 
ATOM     59  C   UNL     1       6.431  20.213   3.682  1.00  0.00     0.029 A 
ATOM     60  N   UNL     1       6.641  19.238   1.694  1.00  0.00    -0.354 N 
ATOM     61  N   UNL     1       6.750  19.168  -1.232  1.00  0.00    -0.248 NA
ATOM     62  C   UNL     1       6.505  20.235  -3.295  1.00  0.00     0.031 C 
ATOM     63  C   UNL     1       6.305  21.193   2.692  1.00  0.00     0.029 A 
ATOM     64  C   UNL     1       6.452  20.588   1.454  1.00  0.00     0.049 A 
ATOM     65  H   UNL     1       6.767  18.553   0.999  1.00  0.00     0.167 HD
ATOM     66  C   UNL     1       6.529  20.524  -1.021  1.00  0.00     0.074 A 
ATOM     67  C   UNL     1       6.427  21.140  -2.328  1.00  0.00     0.031 C 
ATOM     68  C   UNL     1       6.410  21.197   0.150  1.00  0.00     0.034 A 
BRANCH  55  69
ATOM     69  C   UNL     1       6.672  17.592   5.161  1.00  0.00     0.023 A 
ATOM     70  C   UNL     1       7.833  17.361   5.926  1.00  0.00     0.012 A 
ATOM     71  C   UNL     1       5.439  17.778   5.816  1.00  0.00     0.148 A 
ATOM     72  C   UNL     1       7.766  17.280   7.316  1.00  0.00     0.002 A 
ATOM     73  C   UNL     1       5.387  17.744   7.205  1.00  0.00     0.091 A 
ATOM     74  F   UNL     1       4.342  17.976   5.072  1.00  0.00    -0.205 F 
ATOM     75  C   UNL     1       6.546  17.482   7.955  1.00  0.00     0.022 A 
BRANCH  73  76
ATOM     76  S   UNL     1       3.881  18.072   8.127  1.00  0.00     0.127 S 
ATOM     77  O   UNL     1       3.561  16.745   8.651  1.00  0.00    -0.237 OA
ATOM     78  O   UNL     1       4.339  19.031   9.133  1.00  0.00    -0.237 OA
ATOM     79  O   UNL     1       2.930  18.610   7.164  1.00  0.00    -0.744 OA
ENDBRANCH  73  76
ENDBRANCH  55  69
BRANCH  56  80
ATOM     80  C   UNL     1       7.030  17.780  -4.817  1.00  0.00     0.023 A 
ATOM     81  C   UNL     1       8.049  18.481  -5.492  1.00  0.00     0.012 A 
ATOM     82  C   UNL     1       6.051  17.102  -5.568  1.00  0.00     0.148 A 
ATOM     83  C   UNL     1       8.075  18.533  -6.886  1.00  0.00     0.002 A 
ATOM     84  C   UNL     1       6.114  17.111  -6.957  1.00  0.00     0.091 A 
ATOM     85  F   UNL     1       5.083  16.451  -4.908  1.00  0.00    -0.205 F 
ATOM     86  C   UNL     1       7.114  17.841  -7.618  1.00  0.00     0.022 A 
BRANCH  84  87
ATOM     87  S   UNL     1       4.997  16.143  -7.978  1.00  0.00     0.127 S 
ATOM     88  O   UNL     1       4.173  17.182  -8.589  1.00  0.00    -0.237 OA
ATOM     89  O   UNL     1       5.925  15.475  -8.891  1.00  0.00    -0.237 OA
ATOM     90  O   UNL     1       4.307  15.244  -7.062  1.00  0.00    -0.744 OA
ENDBRANCH  84  87
ENDBRANCH  56  80
BRANCH  68  91
ATOM     91  C   UNL     1       6.203  22.688   0.087  1.00  0.00     0.023 A 
ATOM     92  C   UNL     1       4.961  23.209  -0.323  1.00  0.00     0.012 A 
ATOM     93  C   UNL     1       7.215  23.568   0.520  1.00  0.00     0.148 A 
ATOM     94  C   UNL     1       4.738  24.586  -0.328  1.00  0.00     0.002 A 
ATOM     95  C   UNL     1       6.969  24.935   0.560  1.00  0.00     0.091 A 
ATOM     96  F   UNL     1       8.396  23.052   0.889  1.00  0.00    -0.205 F 
ATOM     97  C   UNL     1       5.736  25.447   0.125  1.00  0.00     0.022 A 
BRANCH  95  98
ATOM     98  S   UNL     1       8.157  26.109   1.221  1.00  0.00     0.127 S 
ATOM     99  O   UNL     1       8.602  26.796   0.010  1.00  0.00    -0.237 OA
ATOM    100  O   UNL     1       7.327  26.921   2.112  1.00  0.00    -0.237 OA
ATOM    101  O   UNL     1       9.173  25.315   1.898  1.00  0.00    -0.744 OA
ENDBRANCH  95  98
ENDBRANCH  68  91
ENDBRANCH  42  43
ENDBRANCH  34  37
ENDBRANCH  32  33
ENDBRANCH  31  32
ENDBRANCH  30  31
ENDBRANCH   1  30
TORSDOF 20
