REMARK SMILES O=C(CCC(=O)Nc1ncc([N+](=O)[O-])s1)NCCCCCCNC(=O)c1ccc(-c2c3nc(c(-c4cccc(S(=O)(=O)[O-])c4F)c4ccc([nH]4)c(-c4cccc(S(=O)(=O)[O-])c4F)c4nc(c(-c5cccc(S(=O)(=O)[O-])c5F)c5ccc2[nH]5)C=C4)C=C3)cc1
REMARK SMILES IDX 19 1 18 2 17 3 16 4 1 5 2 6 3 8 4 9 5 10 6 11 7 12 8 14 9 15
REMARK SMILES IDX 15 16 10 17 11 18 12 19 13 20 14 21 20 22 21 23 22 24 23 25
REMARK SMILES IDX 24 26 25 28 26 29 27 30 88 31 28 32 87 33 29 34 30 35 31 36
REMARK SMILES IDX 81 37 32 38 86 39 80 40 82 41 33 42 85 43 79 44 78 45 34 47
REMARK SMILES IDX 66 48 46 49 65 50 47 51 50 52 64 53 83 54 48 55 49 56 63 58
REMARK SMILES IDX 84 59 51 60 35 61 36 62 44 63 37 64 39 65 45 66 38 67 40 68
REMARK SMILES IDX 41 69 42 70 43 71 67 72 68 73 76 74 69 75 71 76 77 77 70 78
REMARK SMILES IDX 72 79 73 80 74 81 75 82 52 83 53 84 61 85 54 86 56 87 62 88
REMARK SMILES IDX 55 89 57 90 58 91 59 92 60 93
REMARK H PARENT 16 7 7 13 23 27 82 46 50 57
REMARK Flexibility Score: inf
ROOT
ATOM      1  C   UNL     1       4.488   1.242   3.820  1.00  0.00     0.002 C 
ENDROOT
BRANCH   1   2
ATOM      2  C   UNL     1       3.051   0.705   3.804  1.00  0.00     0.021 C 
BRANCH   2   3
ATOM      3  C   UNL     1       2.356   0.744   2.448  1.00  0.00     0.116 C 
BRANCH   3   4
ATOM      4  N   UNL     1       3.103   0.062   1.411  1.00  0.00    -0.356 N 
ATOM      5  O   UNL     1       1.293  -0.887   0.357  1.00  0.00    -0.275 OA
ATOM      6  C   UNL     1       2.494  -0.644   0.398  1.00  0.00     0.220 C 
ATOM      7  H   UNL     1       4.087   0.105   1.432  1.00  0.00     0.163 HD
BRANCH   6   8
ATOM      8  C   UNL     1       3.452  -1.103  -0.683  1.00  0.00     0.110 C 
BRANCH   8   9
ATOM      9  C   UNL     1       3.834  -0.016  -1.685  1.00  0.00     0.110 C 
BRANCH   9  10
ATOM     10  C   UNL     1       4.554   1.163  -1.056  1.00  0.00     0.226 C 
ATOM     11  O   UNL     1       5.742   1.048  -0.735  1.00  0.00    -0.275 OA
ATOM     12  N   UNL     1       3.931   2.340  -0.772  1.00  0.00    -0.302 N 
ATOM     13  H   UNL     1       4.506   3.107  -0.545  1.00  0.00     0.172 HD
BRANCH  12  14
ATOM     14  C   UNL     1       2.585   2.555  -0.773  1.00  0.00     0.195 A 
ATOM     15  N   UNL     1       1.635   1.754  -1.176  1.00  0.00    -0.221 NA
ATOM     16  S   UNL     1       2.088   3.993   0.006  1.00  0.00    -0.024 S 
ATOM     17  C   UNL     1       0.425   2.192  -0.667  1.00  0.00     0.212 A 
ATOM     18  C   UNL     1       0.500   3.376   0.026  1.00  0.00     0.345 A 
BRANCH  18  19
ATOM     19  N   UNL     1      -0.555   4.019   0.738  1.00  0.00     0.076 N 
ATOM     20  O   UNL     1      -0.364   5.171   1.137  1.00  0.00    -0.257 OA
ATOM     21  O   UNL     1      -1.586   3.353   0.903  1.00  0.00    -0.257 OA
ENDBRANCH  18  19
ENDBRANCH  12  14
ENDBRANCH   9  10
ENDBRANCH   8   9
ENDBRANCH   6   8
ENDBRANCH   3   4
ENDBRANCH   2   3
ENDBRANCH   1   2
BRANCH   1  22
ATOM     22  C   UNL     1       4.668   2.693   3.365  1.00  0.00     0.002 C 
BRANCH  22  23
ATOM     23  C   UNL     1       3.920   3.746   4.187  1.00  0.00     0.021 C 
BRANCH  23  24
ATOM     24  C   UNL     1       4.120   3.672   5.699  1.00  0.00     0.116 C 
BRANCH  24  25
ATOM     25  N   UNL     1       5.518   3.732   6.094  1.00  0.00    -0.352 N 
ATOM     26  C   UNL     1       6.105   4.399   7.143  1.00  0.00     0.251 C 
ATOM     27  H   UNL     1       6.136   3.218   5.526  1.00  0.00     0.163 HD
ATOM     28  O   UNL     1       7.326   4.407   7.245  1.00  0.00    -0.269 OA
BRANCH  26  29
ATOM     29  C   UNL     1       5.273   5.132   8.126  1.00  0.00     0.039 A 
ATOM     30  C   UNL     1       5.697   6.398   8.542  1.00  0.00     0.014 A 
ATOM     31  C   UNL     1       4.095   4.587   8.644  1.00  0.00     0.014 A 
ATOM     32  C   UNL     1       4.909   7.138   9.427  1.00  0.00     0.010 A 
ATOM     33  C   UNL     1       3.273   5.357   9.466  1.00  0.00     0.010 A 
ATOM     34  C   UNL     1       3.672   6.639   9.870  1.00  0.00    -0.014 A 
BRANCH  34  35
ATOM     35  C   UNL     1       2.781   7.472  10.721  1.00  0.00     0.031 A 
ATOM     36  C   UNL     1       2.421   7.044  12.118  1.00  0.00     0.074 A 
ATOM     37  C   UNL     1       2.244   8.596  10.207  1.00  0.00     0.049 A 
ATOM     38  N   UNL     1       1.694   7.671  13.008  1.00  0.00    -0.248 NA
ATOM     39  C   UNL     1       2.918   5.735  12.568  1.00  0.00     0.031 C 
ATOM     40  C   UNL     1       2.440   9.074   8.836  1.00  0.00     0.029 A 
ATOM     41  N   UNL     1       1.416   9.535  10.769  1.00  0.00    -0.354 N 
ATOM     42  C   UNL     1       1.616   6.821  14.106  1.00  0.00     0.074 A 
ATOM     43  C   UNL     1       2.344   5.620  13.757  1.00  0.00     0.031 C 
ATOM     44  C   UNL     1       1.778  10.230   8.674  1.00  0.00     0.029 A 
ATOM     45  C   UNL     1       1.087  10.563   9.916  1.00  0.00     0.049 A 
ATOM     46  H   UNL     1       1.089   9.479  11.696  1.00  0.00     0.167 HD
ATOM     47  C   UNL     1       1.016   7.030  15.303  1.00  0.00     0.034 A 
ATOM     48  C   UNL     1       0.324  11.655  10.112  1.00  0.00     0.034 A 
ATOM     49  C   UNL     1       0.322   8.240  15.658  1.00  0.00     0.049 A 
ATOM     50  C   UNL     1      -0.290  11.884  11.466  1.00  0.00     0.074 A 
ATOM     51  C   UNL     1      -0.223   8.593  16.880  1.00  0.00     0.029 A 
ATOM     52  N   UNL     1       0.058   9.287  14.788  1.00  0.00    -0.354 N 
ATOM     53  N   UNL     1      -0.193  11.157  12.552  1.00  0.00    -0.248 NA
ATOM     54  C   UNL     1      -1.089  13.107  11.630  1.00  0.00     0.031 C 
ATOM     55  C   UNL     1      -0.850   9.836  16.738  1.00  0.00     0.029 A 
ATOM     56  C   UNL     1      -0.663  10.276  15.438  1.00  0.00     0.049 A 
ATOM     57  H   UNL     1       0.341   9.322  13.846  1.00  0.00     0.167 HD
ATOM     58  C   UNL     1      -0.889  11.849  13.537  1.00  0.00     0.074 A 
ATOM     59  C   UNL     1      -1.376  13.068  12.923  1.00  0.00     0.031 C 
ATOM     60  C   UNL     1      -1.117  11.501  14.829  1.00  0.00     0.034 A 
BRANCH  47  61
ATOM     61  C   UNL     1       1.115   5.934  16.335  1.00  0.00     0.023 A 
ATOM     62  C   UNL     1       2.356   5.652  16.943  1.00  0.00     0.012 A 
ATOM     63  C   UNL     1      -0.028   5.214  16.738  1.00  0.00     0.148 A 
ATOM     64  C   UNL     1       2.468   4.645  17.901  1.00  0.00     0.002 A 
ATOM     65  C   UNL     1       0.082   4.245  17.729  1.00  0.00     0.091 A 
ATOM     66  F   UNL     1      -1.196   5.479  16.136  1.00  0.00    -0.205 F 
ATOM     67  C   UNL     1       1.330   3.949  18.301  1.00  0.00     0.022 A 
BRANCH  65  68
ATOM     68  S   UNL     1      -1.339   3.353  18.371  1.00  0.00     0.127 S 
ATOM     69  O   UNL     1      -1.135   2.023  17.799  1.00  0.00    -0.237 OA
ATOM     70  O   UNL     1      -1.125   3.433  19.817  1.00  0.00    -0.237 OA
ATOM     71  O   UNL     1      -2.512   4.069  17.891  1.00  0.00    -0.744 OA
ENDBRANCH  65  68
ENDBRANCH  47  61
BRANCH  48  72
ATOM     72  C   UNL     1       0.171  12.661   9.024  1.00  0.00     0.023 A 
ATOM     73  C   UNL     1       0.785  13.922   9.161  1.00  0.00     0.012 A 
ATOM     74  C   UNL     1      -0.548  12.372   7.848  1.00  0.00     0.148 A 
ATOM     75  C   UNL     1       0.659  14.888   8.162  1.00  0.00     0.002 A 
ATOM     76  C   UNL     1      -0.622  13.318   6.833  1.00  0.00     0.091 A 
ATOM     77  F   UNL     1      -1.131  11.169   7.742  1.00  0.00    -0.205 F 
ATOM     78  C   UNL     1      -0.035  14.583   6.995  1.00  0.00     0.022 A 
BRANCH  76  79
ATOM     79  S   UNL     1      -1.381  12.972   5.242  1.00  0.00     0.127 S 
ATOM     80  O   UNL     1      -2.547  13.851   5.270  1.00  0.00    -0.237 OA
ATOM     81  O   UNL     1      -0.326  13.375   4.313  1.00  0.00    -0.237 OA
ATOM     82  O   UNL     1      -1.668  11.544   5.245  1.00  0.00    -0.744 OA
ENDBRANCH  76  79
ENDBRANCH  48  72
BRANCH  60  83
ATOM     83  C   UNL     1      -1.912  12.463  15.674  1.00  0.00     0.023 A 
ATOM     84  C   UNL     1      -3.287  12.649  15.424  1.00  0.00     0.012 A 
ATOM     85  C   UNL     1      -1.306  13.159  16.740  1.00  0.00     0.148 A 
ATOM     86  C   UNL     1      -4.033  13.548  16.186  1.00  0.00     0.002 A 
ATOM     87  C   UNL     1      -2.069  14.012  17.530  1.00  0.00     0.091 A 
ATOM     88  F   UNL     1       0.006  12.986  16.954  1.00  0.00    -0.205 F 
ATOM     89  C   UNL     1      -3.427  14.221  17.244  1.00  0.00     0.022 A 
BRANCH  87  90
ATOM     90  S   UNL     1      -1.394  14.842  18.973  1.00  0.00     0.127 S 
ATOM     91  O   UNL     1      -1.245  16.212  18.487  1.00  0.00    -0.237 OA
ATOM     92  O   UNL     1      -2.456  14.658  19.963  1.00  0.00    -0.237 OA
ATOM     93  O   UNL     1      -0.152  14.148  19.287  1.00  0.00    -0.744 OA
ENDBRANCH  87  90
ENDBRANCH  60  83
ENDBRANCH  34  35
ENDBRANCH  26  29
ENDBRANCH  24  25
ENDBRANCH  23  24
ENDBRANCH  22  23
ENDBRANCH   1  22
TORSDOF 20
