REMARK SMILES CCCN1C(=O)/C(=C\c2ccc(OC)c(OC)c2C(=O)NCCCCCCNC(=O)c2ccc(-c3c4nc(c(-c5cccc(S(=O)(=O)[O-])c5F)c5ccc([nH]5)c(-c5cccc(S(=O)(=O)[O-])c5F)c5nc(c(-c6cccc(S(=O)(=O)[O-])c6F)c6ccc3[nH]6)C=C5)C=C4)cc2)S/C1=[NH+]\c1nccs1
REMARK SMILES IDX 24 1 23 2 22 3 21 4 19 5 20 6 18 8 9 9 10 10 11 11 15 12
REMARK SMILES IDX 12 13 8 14 4 15 5 16 95 17 6 18 7 19 94 20 96 21 3 23 2 24
REMARK SMILES IDX 1 25 97 26 98 27 101 28 99 29 100 30 16 31 17 32 13 33 14 34
REMARK SMILES IDX 25 35 26 36 27 37 28 38 29 39 30 41 31 42 32 43 93 44 33 45
REMARK SMILES IDX 92 46 34 47 35 48 36 49 86 50 37 51 91 52 85 53 87 54 38 55
REMARK SMILES IDX 90 56 84 57 83 58 39 60 71 61 51 62 70 63 52 64 55 65 69 66
REMARK SMILES IDX 88 67 53 68 54 69 68 71 89 72 56 73 40 74 41 75 49 76 42 77
REMARK SMILES IDX 44 78 50 79 43 80 45 81 46 82 47 83 48 84 72 85 73 86 81 87
REMARK SMILES IDX 74 88 76 89 82 90 75 91 77 92 78 93 79 94 80 95 57 96 58 97
REMARK SMILES IDX 66 98 59 99 61 100 67 101 60 102 62 103 63 104 64 105 65 106
REMARK H PARENT 21 7 96 22 28 40 87 59 55 70
REMARK Flexibility Score: inf
ROOT
ATOM      1  C   UNL     1      -3.486  -2.874   4.623  1.00  0.00     0.002 C 
ENDROOT
BRANCH   1   2
ATOM      2  C   UNL     1      -3.084  -1.506   5.187  1.00  0.00     0.021 C 
BRANCH   2   3
ATOM      3  C   UNL     1      -1.963  -0.774   4.464  1.00  0.00     0.116 C 
BRANCH   3   4
ATOM      4  N   UNL     1      -2.176  -0.494   3.066  1.00  0.00    -0.352 N 
ATOM      5  C   UNL     1      -1.431   0.321   2.243  1.00  0.00     0.255 C 
ATOM      6  O   UNL     1      -1.497   0.108   1.034  1.00  0.00    -0.269 OA
ATOM      7  H   UNL     1      -2.949  -0.938   2.649  1.00  0.00     0.163 HD
BRANCH   5   8
ATOM      8  C   UNL     1      -0.572   1.433   2.748  1.00  0.00     0.092 A 
ATOM      9  C   UNL     1       0.570   1.172   3.568  1.00  0.00    -0.007 A 
ATOM     10  C   UNL     1       1.321   2.245   4.064  1.00  0.00     0.013 A 
ATOM     11  C   UNL     1       1.021   3.553   3.696  1.00  0.00     0.051 A 
ATOM     12  C   UNL     1      -0.878   2.775   2.378  1.00  0.00     0.174 A 
ATOM     13  C   UNL     1      -0.041   3.818   2.832  1.00  0.00     0.161 A 
BRANCH   9  14
ATOM     14  C   UNL     1       0.995  -0.160   4.050  1.00  0.00     0.032 C 
ATOM     15  N   UNL     1       1.480  -2.272   1.249  1.00  0.00    -0.219 N 
ATOM     16  C   UNL     1       1.804  -1.081   1.864  1.00  0.00     0.321 C 
ATOM     17  C   UNL     1       1.216  -3.340   2.086  1.00  0.00     0.271 C 
ATOM     18  O   UNL     1       2.372  -0.119   1.382  1.00  0.00    -0.250 OA
ATOM     19  C   UNL     1       1.444  -1.167   3.292  1.00  0.00     0.100 C 
ATOM     20  S   UNL     1       1.426  -2.828   3.755  1.00  0.00    -0.012 SA
ATOM     21  N   UNL     1       0.868  -4.492   1.618  1.00  0.00    -0.228 N 
ATOM     22  H   UNL     1       0.865  -4.633   0.644  1.00  0.00     0.268 HD
BRANCH  15  23
ATOM     23  C   UNL     1       1.559  -2.405  -0.198  1.00  0.00     0.206 C 
BRANCH  23  24
ATOM     24  C   UNL     1       0.591  -1.514  -0.990  1.00  0.00     0.035 C 
ATOM     25  C   UNL     1       1.010  -0.053  -1.108  1.00  0.00     0.007 C 
ENDBRANCH  23  24
ENDBRANCH  15  23
BRANCH  21  26
ATOM     26  C   UNL     1       0.507  -5.513   2.434  1.00  0.00     0.319 A 
ATOM     27  N   UNL     1      -0.725  -5.976   2.544  1.00  0.00    -0.101 NA
ATOM     28  S   UNL     1       1.688  -6.477   3.260  1.00  0.00    -0.070 S 
ATOM     29  C   UNL     1      -0.760  -7.115   3.327  1.00  0.00     0.219 A 
ATOM     30  C   UNL     1       0.455  -7.528   3.821  1.00  0.00     0.110 A 
ENDBRANCH  21  26
ENDBRANCH   9  14
BRANCH  12  31
ATOM     31  O   UNL     1      -2.054   3.212   1.809  1.00  0.00    -0.492 OA
ATOM     32  C   UNL     1      -2.498   2.616   0.599  1.00  0.00     0.278 C 
ENDBRANCH  12  31
BRANCH  13  33
ATOM     33  O   UNL     1      -0.223   5.157   2.573  1.00  0.00    -0.493 OA
ATOM     34  C   UNL     1      -0.450   5.474   1.201  1.00  0.00     0.278 C 
ENDBRANCH  13  33
ENDBRANCH   5   8
ENDBRANCH   3   4
ENDBRANCH   2   3
ENDBRANCH   1   2
BRANCH   1  35
ATOM     35  C   UNL     1      -2.356  -3.853   4.296  1.00  0.00     0.002 C 
BRANCH  35  36
ATOM     36  C   UNL     1      -1.374  -4.154   5.428  1.00  0.00     0.021 C 
BRANCH  36  37
ATOM     37  C   UNL     1      -1.958  -4.803   6.669  1.00  0.00     0.116 C 
BRANCH  37  38
ATOM     38  N   UNL     1      -2.606  -6.076   6.392  1.00  0.00    -0.352 N 
ATOM     39  C   UNL     1      -2.341  -7.333   6.876  1.00  0.00     0.251 C 
ATOM     40  H   UNL     1      -3.355  -6.027   5.755  1.00  0.00     0.163 HD
ATOM     41  O   UNL     1      -2.879  -8.306   6.350  1.00  0.00    -0.269 OA
BRANCH  39  42
ATOM     42  C   UNL     1      -1.393  -7.532   7.999  1.00  0.00     0.039 A 
ATOM     43  C   UNL     1      -0.567  -8.661   7.993  1.00  0.00     0.014 A 
ATOM     44  C   UNL     1      -1.318  -6.628   9.059  1.00  0.00     0.014 A 
ATOM     45  C   UNL     1       0.377  -8.840   9.008  1.00  0.00     0.010 A 
ATOM     46  C   UNL     1      -0.310  -6.750  10.010  1.00  0.00     0.010 A 
ATOM     47  C   UNL     1       0.542  -7.864  10.004  1.00  0.00    -0.014 A 
BRANCH  47  48
ATOM     48  C   UNL     1       1.589  -7.984  11.051  1.00  0.00     0.031 A 
ATOM     49  C   UNL     1       1.200  -8.027  12.505  1.00  0.00     0.074 A 
ATOM     50  C   UNL     1       2.890  -7.955  10.699  1.00  0.00     0.049 A 
ATOM     51  N   UNL     1       1.967  -8.036  13.564  1.00  0.00    -0.248 NA
ATOM     52  C   UNL     1      -0.240  -8.027  12.812  1.00  0.00     0.031 C 
ATOM     53  C   UNL     1       3.394  -7.836   9.329  1.00  0.00     0.029 A 
ATOM     54  N   UNL     1       4.028  -7.988  11.467  1.00  0.00    -0.354 N 
ATOM     55  C   UNL     1       1.109  -7.996  14.656  1.00  0.00     0.074 A 
ATOM     56  C   UNL     1      -0.238  -7.929  14.134  1.00  0.00     0.031 C 
ATOM     57  C   UNL     1       4.736  -7.810   9.353  1.00  0.00     0.029 A 
ATOM     58  C   UNL     1       5.189  -7.867  10.738  1.00  0.00     0.049 A 
ATOM     59  H   UNL     1       4.014  -8.090  12.446  1.00  0.00     0.167 HD
ATOM     60  C   UNL     1       1.410  -8.038  15.976  1.00  0.00     0.034 A 
ATOM     61  C   UNL     1       6.472  -7.788  11.141  1.00  0.00     0.034 A 
ATOM     62  C   UNL     1       2.749  -8.147  16.488  1.00  0.00     0.049 A 
ATOM     63  C   UNL     1       6.781  -7.867  12.612  1.00  0.00     0.074 A 
ATOM     64  C   UNL     1       3.156  -8.296  17.802  1.00  0.00     0.029 A 
ATOM     65  N   UNL     1       3.898  -8.103  15.715  1.00  0.00    -0.354 N 
ATOM     66  N   UNL     1       5.955  -7.990  13.622  1.00  0.00    -0.248 NA
ATOM     67  C   UNL     1       8.199  -7.829  12.997  1.00  0.00     0.031 C 
ATOM     68  C   UNL     1       4.554  -8.300  17.827  1.00  0.00     0.029 A 
ATOM     69  C   UNL     1       5.017  -8.200  16.524  1.00  0.00     0.049 A 
ATOM     70  H   UNL     1       3.916  -8.016  14.735  1.00  0.00     0.167 HD
ATOM     71  C   UNL     1       6.751  -8.075  14.758  1.00  0.00     0.074 A 
ATOM     72  C   UNL     1       8.127  -8.015  14.308  1.00  0.00     0.031 C 
ATOM     73  C   UNL     1       6.379  -8.181  16.058  1.00  0.00     0.034 A 
BRANCH  60  74
ATOM     74  C   UNL     1       0.270  -8.001  16.961  1.00  0.00     0.023 A 
ATOM     75  C   UNL     1      -0.598  -9.107  17.073  1.00  0.00     0.012 A 
ATOM     76  C   UNL     1       0.093  -6.896  17.817  1.00  0.00     0.148 A 
ATOM     77  C   UNL     1      -1.645  -9.099  17.994  1.00  0.00     0.002 A 
ATOM     78  C   UNL     1      -0.922  -6.917  18.767  1.00  0.00     0.091 A 
ATOM     79  F   UNL     1       0.914  -5.846  17.683  1.00  0.00    -0.205 F 
ATOM     80  C   UNL     1      -1.799  -8.010  18.848  1.00  0.00     0.022 A 
BRANCH  78  81
ATOM     81  S   UNL     1      -1.154  -5.602  19.968  1.00  0.00     0.127 S 
ATOM     82  O   UNL     1      -2.423  -5.023  19.529  1.00  0.00    -0.237 OA
ATOM     83  O   UNL     1      -1.225  -6.345  21.226  1.00  0.00    -0.237 OA
ATOM     84  O   UNL     1       0.005  -4.729  19.840  1.00  0.00    -0.744 OA
ENDBRANCH  78  81
ENDBRANCH  60  74
BRANCH  61  85
ATOM     85  C   UNL     1       7.565  -7.664  10.134  1.00  0.00     0.023 A 
ATOM     86  C   UNL     1       8.453  -8.738   9.935  1.00  0.00     0.012 A 
ATOM     87  C   UNL     1       7.713  -6.497   9.359  1.00  0.00     0.148 A 
ATOM     88  C   UNL     1       9.491  -8.640   9.007  1.00  0.00     0.002 A 
ATOM     89  C   UNL     1       8.712  -6.429   8.395  1.00  0.00     0.091 A 
ATOM     90  F   UNL     1       6.864  -5.482   9.571  1.00  0.00    -0.205 F 
ATOM     91  C   UNL     1       9.614  -7.491   8.231  1.00  0.00     0.022 A 
BRANCH  89  92
ATOM     92  S   UNL     1       8.863  -5.045   7.260  1.00  0.00     0.127 S 
ATOM     93  O   UNL     1      10.109  -4.427   7.706  1.00  0.00    -0.237 OA
ATOM     94  O   UNL     1       8.938  -5.725   5.967  1.00  0.00    -0.237 OA
ATOM     95  O   UNL     1       7.659  -4.247   7.450  1.00  0.00    -0.744 OA
ENDBRANCH  89  92
ENDBRANCH  61  85
BRANCH  73  96
ATOM     96  C   UNL     1       7.471  -8.275  17.092  1.00  0.00     0.023 A 
ATOM     97  C   UNL     1       8.254  -7.144  17.395  1.00  0.00     0.012 A 
ATOM     98  C   UNL     1       7.666  -9.467  17.817  1.00  0.00     0.148 A 
ATOM     99  C   UNL     1       9.239  -7.209  18.379  1.00  0.00     0.002 A 
ATOM    100  C   UNL     1       8.612  -9.508  18.833  1.00  0.00     0.091 A 
ATOM    101  F   UNL     1       6.920 -10.536  17.502  1.00  0.00    -0.205 F 
ATOM    102  C   UNL     1       9.409  -8.385  19.106  1.00  0.00     0.022 A 
BRANCH 100 103
ATOM    103  S   UNL     1       8.832 -10.944  19.888  1.00  0.00     0.127 S 
ATOM    104  O   UNL     1      10.151 -11.419  19.473  1.00  0.00    -0.237 OA
ATOM    105  O   UNL     1       8.790 -10.353  21.226  1.00  0.00    -0.237 OA
ATOM    106  O   UNL     1       7.725 -11.842  19.587  1.00  0.00    -0.744 OA
ENDBRANCH 100 103
ENDBRANCH  73  96
ENDBRANCH  47  48
ENDBRANCH  39  42
ENDBRANCH  37  38
ENDBRANCH  36  37
ENDBRANCH  35  36
ENDBRANCH   1  35
TORSDOF 22
