REMARK SMILES C[N@@H+]1CC[N@H+](Cc2ccc(C#CC(C)(C)O)s2)C[C@H]1C(=O)NCCCCCCNC(=O)c1ccc(-c2c3nc(c(-c4cccc(S(=O)(=O)[O-])c4F)c4ccc([nH]4)c(-c4cccc(S(=O)(=O)[O-])c4F)c4nc(c(-c5cccc(S(=O)(=O)[O-])c5F)c5ccc2[nH]5)C=C4)C=C3)cc1
REMARK SMILES IDX 24 1 23 2 22 3 20 4 21 5 19 7 1 8 2 9 3 10 4 12 18 13 5 14
REMARK SMILES IDX 6 16 7 17 8 18 17 19 9 20 10 21 11 22 12 23 13 24 14 25
REMARK SMILES IDX 15 26 16 27 25 29 26 30 27 31 28 32 29 33 30 34 31 36 32 37
REMARK SMILES IDX 33 38 94 39 34 40 93 41 35 42 36 43 37 44 87 45 38 46 92 47
REMARK SMILES IDX 86 48 88 49 39 50 91 51 85 52 84 53 40 55 72 56 52 57 71 58
REMARK SMILES IDX 53 59 56 60 70 61 89 62 54 63 55 64 69 66 90 67 57 68 41 69
REMARK SMILES IDX 42 70 50 71 43 72 45 73 51 74 44 75 46 76 47 77 48 78 49 79
REMARK SMILES IDX 73 80 74 81 82 82 75 83 77 84 83 85 76 86 78 87 79 88 80 89
REMARK SMILES IDX 81 90 58 91 59 92 67 93 60 94 62 95 68 96 61 97 63 98 64 99
REMARK SMILES IDX 65 100 66 101
REMARK H PARENT 22 6 2 11 5 15 16 28 29 35 88 54 56 65
REMARK Flexibility Score: inf
ROOT
ATOM      1  C   UNL     1       1.744  -1.497  -3.659  1.00  0.00     0.021 C 
ENDROOT
BRANCH   1   2
ATOM      2  C   UNL     1       0.533  -1.832  -2.796  1.00  0.00     0.116 C 
BRANCH   2   3
ATOM      3  N   UNL     1       0.880  -2.742  -1.720  1.00  0.00    -0.351 N 
ATOM      4  C   UNL     1       0.900  -2.495  -0.378  1.00  0.00     0.284 C 
ATOM      5  O   UNL     1       1.254  -3.408   0.374  1.00  0.00    -0.268 OA
ATOM      6  H   UNL     1       1.134  -3.653  -1.993  1.00  0.00     0.163 HD
BRANCH   4   7
ATOM      7  C   UNL     1       0.408  -1.145   0.171  1.00  0.00     0.329 C 
ATOM      8  C   UNL     1       2.516   0.058  -0.097  1.00  0.00     0.333 C 
ATOM      9  N   UNL     1       1.103  -0.009  -0.486  1.00  0.00    -0.318 N 
ATOM     10  C   UNL     1       0.440   1.274  -0.212  1.00  0.00     0.325 C 
ATOM     11  H   UNL     1       1.053  -0.181  -1.490  1.00  0.00     0.348 HD
ATOM     12  C   UNL     1      -1.106   1.258  -0.330  1.00  0.00     0.324 C 
ATOM     13  C   UNL     1      -1.145  -1.137   0.045  1.00  0.00     0.339 C 
ATOM     14  N   UNL     1      -1.829   0.141   0.298  1.00  0.00    -0.320 N 
ATOM     15  H   UNL     1      -2.732   0.094  -0.174  1.00  0.00     0.348 HD
BRANCH  14  16
ATOM     16  C   UNL     1      -2.265   0.351   1.684  1.00  0.00     0.310 C 
BRANCH  16  17
ATOM     17  C   UNL     1      -1.164   0.344   2.694  1.00  0.00     0.060 A 
ATOM     18  C   UNL     1      -0.316   1.371   3.059  1.00  0.00     0.022 A 
ATOM     19  S   UNL     1      -0.799  -1.086   3.570  1.00  0.00    -0.126 S 
ATOM     20  C   UNL     1       0.832   0.878   3.745  1.00  0.00     0.029 A 
ATOM     21  C   UNL     1       0.738  -0.474   3.985  1.00  0.00     0.077 A 
BRANCH  21  22
ATOM     22  C   UNL     1       1.729  -1.265   4.614  1.00  0.00    -0.053 C 
ATOM     23  C   UNL     1       2.456  -1.930   5.468  1.00  0.00    -0.063 C 
BRANCH  23  24
ATOM     24  C   UNL     1       3.304  -2.705   6.463  1.00  0.00     0.120 C 
ATOM     25  C   UNL     1       2.459  -3.072   7.681  1.00  0.00     0.056 C 
ATOM     26  C   UNL     1       3.877  -3.951   5.792  1.00  0.00     0.056 C 
BRANCH  24  27
ATOM     27  O   UNL     1       4.372  -1.865   6.891  1.00  0.00    -0.378 OA
ATOM     28  H   UNL     1       4.009  -1.073   7.318  1.00  0.00     0.212 HD
ENDBRANCH  24  27
ENDBRANCH  23  24
ENDBRANCH  21  22
ENDBRANCH  16  17
ENDBRANCH  14  16
ENDBRANCH   4   7
ENDBRANCH   2   3
ENDBRANCH   1   2
BRANCH   1  29
ATOM     29  C   UNL     1       2.308  -2.703  -4.414  1.00  0.00     0.002 C 
BRANCH  29  30
ATOM     30  C   UNL     1       1.271  -3.532  -5.187  1.00  0.00     0.002 C 
BRANCH  30  31
ATOM     31  C   UNL     1       0.355  -2.745  -6.136  1.00  0.00     0.021 C 
BRANCH  31  32
ATOM     32  C   UNL     1       1.109  -2.048  -7.255  1.00  0.00     0.116 C 
BRANCH  32  33
ATOM     33  N   UNL     1       1.725  -3.006  -8.168  1.00  0.00    -0.352 N 
ATOM     34  C   UNL     1       2.422  -2.743  -9.323  1.00  0.00     0.251 C 
ATOM     35  H   UNL     1       1.630  -3.956  -7.928  1.00  0.00     0.163 HD
ATOM     36  O   UNL     1       2.582  -3.620 -10.173  1.00  0.00    -0.269 OA
BRANCH  34  37
ATOM     37  C   UNL     1       2.980  -1.398  -9.526  1.00  0.00     0.039 A 
ATOM     38  C   UNL     1       2.921  -0.777 -10.777  1.00  0.00     0.014 A 
ATOM     39  C   UNL     1       3.557  -0.752  -8.432  1.00  0.00     0.014 A 
ATOM     40  C   UNL     1       3.387   0.527 -10.901  1.00  0.00     0.010 A 
ATOM     41  C   UNL     1       3.889   0.575  -8.522  1.00  0.00     0.010 A 
ATOM     42  C   UNL     1       3.856   1.202  -9.764  1.00  0.00    -0.014 A 
BRANCH  42  43
ATOM     43  C   UNL     1       4.164   2.627  -9.819  1.00  0.00     0.031 A 
ATOM     44  C   UNL     1       3.007   3.458 -10.251  1.00  0.00     0.074 A 
ATOM     45  C   UNL     1       5.301   3.138  -9.294  1.00  0.00     0.049 A 
ATOM     46  N   UNL     1       2.871   4.106 -11.361  1.00  0.00    -0.248 NA
ATOM     47  C   UNL     1       1.773   3.405  -9.446  1.00  0.00     0.031 C 
ATOM     48  C   UNL     1       6.341   2.405  -8.556  1.00  0.00     0.029 A 
ATOM     49  N   UNL     1       5.702   4.434  -9.160  1.00  0.00    -0.354 N 
ATOM     50  C   UNL     1       1.650   4.775 -11.250  1.00  0.00     0.074 A 
ATOM     51  C   UNL     1       0.928   4.107 -10.205  1.00  0.00     0.031 C 
ATOM     52  C   UNL     1       7.082   3.273  -7.834  1.00  0.00     0.029 A 
ATOM     53  C   UNL     1       6.690   4.622  -8.193  1.00  0.00     0.049 A 
ATOM     54  H   UNL     1       5.328   5.170  -9.696  1.00  0.00     0.167 HD
ATOM     55  C   UNL     1       1.497   6.021 -11.784  1.00  0.00     0.034 A 
ATOM     56  C   UNL     1       7.131   5.801  -7.691  1.00  0.00     0.034 A 
ATOM     57  C   UNL     1       2.603   6.319 -12.663  1.00  0.00     0.049 A 
ATOM     58  C   UNL     1       6.767   6.847  -8.665  1.00  0.00     0.074 A 
ATOM     59  C   UNL     1       3.074   5.880 -13.879  1.00  0.00     0.029 A 
ATOM     60  N   UNL     1       3.631   6.967 -12.029  1.00  0.00    -0.354 N 
ATOM     61  N   UNL     1       7.282   6.917  -9.861  1.00  0.00    -0.248 NA
ATOM     62  C   UNL     1       5.549   7.617  -8.460  1.00  0.00     0.031 C 
ATOM     63  C   UNL     1       4.487   6.075 -13.834  1.00  0.00     0.029 A 
ATOM     64  C   UNL     1       4.824   6.678 -12.621  1.00  0.00     0.049 A 
ATOM     65  H   UNL     1       3.523   7.561 -11.251  1.00  0.00     0.167 HD
ATOM     66  C   UNL     1       6.221   7.319 -10.653  1.00  0.00     0.074 A 
ATOM     67  C   UNL     1       5.261   7.916  -9.729  1.00  0.00     0.031 C 
ATOM     68  C   UNL     1       6.081   6.831 -11.919  1.00  0.00     0.034 A 
BRANCH  55  69
ATOM     69  C   UNL     1       0.715   7.178 -11.161  1.00  0.00     0.023 A 
ATOM     70  C   UNL     1       0.759   8.410 -11.861  1.00  0.00     0.012 A 
ATOM     71  C   UNL     1       0.242   7.232  -9.830  1.00  0.00     0.148 A 
ATOM     72  C   UNL     1       0.455   9.630 -11.244  1.00  0.00     0.002 A 
ATOM     73  C   UNL     1      -0.110   8.441  -9.234  1.00  0.00     0.091 A 
ATOM     74  F   UNL     1       0.223   6.136  -9.073  1.00  0.00    -0.205 F 
ATOM     75  C   UNL     1       0.028   9.646  -9.925  1.00  0.00     0.022 A 
BRANCH  73  76
ATOM     76  S   UNL     1      -0.687   8.527  -7.531  1.00  0.00     0.127 S 
ATOM     77  O   UNL     1       0.432   9.201  -6.879  1.00  0.00    -0.237 OA
ATOM     78  O   UNL     1      -1.901   9.331  -7.671  1.00  0.00    -0.237 OA
ATOM     79  O   UNL     1      -0.924   7.149  -7.120  1.00  0.00    -0.744 OA
ENDBRANCH  73  76
ENDBRANCH  55  69
BRANCH  56  80
ATOM     80  C   UNL     1       7.676   6.140  -6.357  1.00  0.00     0.023 A 
ATOM     81  C   UNL     1       8.503   7.271  -6.199  1.00  0.00     0.012 A 
ATOM     82  C   UNL     1       7.150   5.530  -5.197  1.00  0.00     0.148 A 
ATOM     83  C   UNL     1       8.765   7.801  -4.929  1.00  0.00     0.002 A 
ATOM     84  C   UNL     1       7.412   6.061  -3.937  1.00  0.00     0.091 A 
ATOM     85  F   UNL     1       6.324   4.485  -5.342  1.00  0.00    -0.205 F 
ATOM     86  C   UNL     1       8.209   7.206  -3.801  1.00  0.00     0.022 A 
BRANCH  84  87
ATOM     87  S   UNL     1       6.699   5.376  -2.434  1.00  0.00     0.127 S 
ATOM     88  O   UNL     1       7.888   5.159  -1.611  1.00  0.00    -0.237 OA
ATOM     89  O   UNL     1       5.834   6.465  -1.985  1.00  0.00    -0.237 OA
ATOM     90  O   UNL     1       6.012   4.156  -2.837  1.00  0.00    -0.744 OA
ENDBRANCH  84  87
ENDBRANCH  56  80
BRANCH  68  91
ATOM     91  C   UNL     1       7.298   6.247 -12.575  1.00  0.00     0.023 A 
ATOM     92  C   UNL     1       7.905   5.047 -12.155  1.00  0.00     0.012 A 
ATOM     93  C   UNL     1       7.760   6.878 -13.741  1.00  0.00     0.148 A 
ATOM     94  C   UNL     1       8.966   4.497 -12.881  1.00  0.00     0.002 A 
ATOM     95  C   UNL     1       8.779   6.304 -14.485  1.00  0.00     0.091 A 
ATOM     96  F   UNL     1       7.169   8.023 -14.116  1.00  0.00    -0.205 F 
ATOM     97  C   UNL     1       9.393   5.118 -14.054  1.00  0.00     0.022 A 
BRANCH  95  98
ATOM     98  S   UNL     1       9.277   6.994 -16.062  1.00  0.00     0.127 S 
ATOM     99  O   UNL     1      10.562   7.606 -15.735  1.00  0.00    -0.237 OA
ATOM    100  O   UNL     1       9.362   5.804 -16.911  1.00  0.00    -0.237 OA
ATOM    101  O   UNL     1       8.220   7.921 -16.447  1.00  0.00    -0.744 OA
ENDBRANCH  95  98
ENDBRANCH  68  91
ENDBRANCH  42  43
ENDBRANCH  34  37
ENDBRANCH  32  33
ENDBRANCH  31  32
ENDBRANCH  30  31
ENDBRANCH  29  30
ENDBRANCH   1  29
TORSDOF 21
