REMARK SMILES Cc1ccc(/C=C(\NC(=O)c2cccc(C)c2)C(=O)NCCCCCCNC(=O)c2ccc(-c3c4nc(c(-c5cccc(S(=O)(=O)[O-])c5F)c5ccc([nH]5)c(-c5cccc(S(=O)(=O)[O-])c5F)c5nc(c(-c6cccc(S(=O)(=O)[O-])c6F)c6ccc3[nH]6)C=C5)C=C4)cc2)cc1
REMARK SMILES IDX 24 1 23 2 22 3 21 4 20 5 18 6 19 7 7 9 6 10 5 11 1 12 2 13
REMARK SMILES IDX 3 14 94 15 4 16 93 17 8 18 9 19 10 21 11 22 12 23 17 24
REMARK SMILES IDX 13 25 15 26 14 27 16 28 25 29 26 30 27 31 28 32 29 34 30 35
REMARK SMILES IDX 31 36 92 37 32 38 91 39 33 40 34 41 35 42 85 43 36 44 90 45
REMARK SMILES IDX 84 46 86 47 37 48 89 49 83 50 82 51 38 53 70 54 50 55 69 56
REMARK SMILES IDX 51 57 54 58 68 59 87 60 52 61 53 62 67 64 88 65 55 66 39 67
REMARK SMILES IDX 40 68 48 69 41 70 43 71 49 72 42 73 44 74 45 75 46 76 47 77
REMARK SMILES IDX 71 78 72 79 80 80 73 81 75 82 81 83 74 84 76 85 77 86 78 87
REMARK SMILES IDX 79 88 56 89 57 90 65 91 58 92 60 93 66 94 59 95 61 96 62 97
REMARK SMILES IDX 63 98 64 99
REMARK H PARENT 20 8 8 20 27 33 86 52 54 63
REMARK Flexibility Score: inf
ROOT
ATOM      1  C   UNL     1      -8.502  -5.071   0.100  1.00  0.00     0.002 C 
ENDROOT
BRANCH   1   2
ATOM      2  C   UNL     1      -8.271  -4.503   1.505  1.00  0.00     0.002 C 
BRANCH   2   3
ATOM      3  C   UNL     1      -6.843  -4.226   1.990  1.00  0.00     0.021 C 
BRANCH   3   4
ATOM      4  C   UNL     1      -5.858  -3.540   1.049  1.00  0.00     0.116 C 
BRANCH   4   5
ATOM      5  N   UNL     1      -6.195  -2.206   0.601  1.00  0.00    -0.351 N 
ATOM      6  C   UNL     1      -5.383  -1.264   0.022  1.00  0.00     0.267 C 
ATOM      7  O   UNL     1      -5.891  -0.208  -0.364  1.00  0.00    -0.268 OA
ATOM      8  H   UNL     1      -7.134  -1.938   0.730  1.00  0.00     0.163 HD
BRANCH   6   9
ATOM      9  C   UNL     1      -3.880  -1.480  -0.100  1.00  0.00     0.107 C 
ATOM     10  C   UNL     1      -3.101  -0.379   0.027  1.00  0.00     0.040 C 
BRANCH  10  11
ATOM     11  C   UNL     1      -1.617  -0.206  -0.048  1.00  0.00    -0.023 A 
ATOM     12  C   UNL     1       2.681   0.486   0.005  1.00  0.00     0.044 C 
ATOM     13  C   UNL     1       1.198   0.279  -0.048  1.00  0.00    -0.051 A 
ATOM     14  C   UNL     1       0.694  -1.002  -0.249  1.00  0.00     0.004 A 
ATOM     15  C   UNL     1       0.293   1.329   0.118  1.00  0.00     0.004 A 
ATOM     16  C   UNL     1      -0.687  -1.230  -0.279  1.00  0.00     0.008 A 
ATOM     17  C   UNL     1      -1.092   1.087   0.123  1.00  0.00     0.008 A 
ENDBRANCH  10  11
BRANCH   9  18
ATOM     18  N   UNL     1      -3.310  -2.714  -0.261  1.00  0.00    -0.317 N 
ATOM     19  C   UNL     1      -3.510  -3.773  -1.109  1.00  0.00     0.255 C 
ATOM     20  H   UNL     1      -2.585  -2.881   0.383  1.00  0.00     0.170 HD
ATOM     21  O   UNL     1      -2.764  -4.745  -0.967  1.00  0.00    -0.269 OA
BRANCH  19  22
ATOM     22  C   UNL     1      -4.557  -3.827  -2.161  1.00  0.00     0.040 A 
ATOM     23  C   UNL     1      -5.000  -5.108  -2.525  1.00  0.00     0.014 A 
ATOM     24  C   UNL     1      -5.154  -2.710  -2.750  1.00  0.00     0.017 A 
ATOM     25  C   UNL     1      -6.085  -5.270  -3.381  1.00  0.00     0.001 A 
ATOM     26  C   UNL     1      -6.273  -2.864  -3.584  1.00  0.00    -0.050 A 
ATOM     27  C   UNL     1      -6.741  -4.149  -3.881  1.00  0.00     0.003 A 
ATOM     28  C   UNL     1      -7.011  -1.666  -4.103  1.00  0.00     0.044 C 
ENDBRANCH  19  22
ENDBRANCH   9  18
ENDBRANCH   6   9
ENDBRANCH   4   5
ENDBRANCH   3   4
ENDBRANCH   2   3
ENDBRANCH   1   2
BRANCH   1  29
ATOM     29  C   UNL     1      -7.628  -6.226  -0.374  1.00  0.00     0.021 C 
BRANCH  29  30
ATOM     30  C   UNL     1      -7.714  -7.528   0.408  1.00  0.00     0.116 C 
BRANCH  30  31
ATOM     31  N   UNL     1      -8.322  -8.603  -0.380  1.00  0.00    -0.352 N 
ATOM     32  C   UNL     1      -8.259  -9.973  -0.198  1.00  0.00     0.251 C 
ATOM     33  H   UNL     1      -8.853  -8.306  -1.153  1.00  0.00     0.163 HD
ATOM     34  O   UNL     1      -8.746 -10.735  -1.031  1.00  0.00    -0.269 OA
BRANCH  32  35
ATOM     35  C   UNL     1      -7.708 -10.482   1.074  1.00  0.00     0.039 A 
ATOM     36  C   UNL     1      -8.611 -11.098   1.947  1.00  0.00     0.014 A 
ATOM     37  C   UNL     1      -6.488  -9.993   1.527  1.00  0.00     0.014 A 
ATOM     38  C   UNL     1      -8.438 -10.943   3.315  1.00  0.00     0.010 A 
ATOM     39  C   UNL     1      -6.361  -9.755   2.877  1.00  0.00     0.010 A 
ATOM     40  C   UNL     1      -7.379 -10.155   3.753  1.00  0.00    -0.014 A 
BRANCH  40  41
ATOM     41  C   UNL     1      -7.261  -9.636   5.102  1.00  0.00     0.031 A 
ATOM     42  C   UNL     1      -6.436 -10.354   6.082  1.00  0.00     0.074 A 
ATOM     43  C   UNL     1      -7.763  -8.414   5.387  1.00  0.00     0.049 A 
ATOM     44  N   UNL     1      -6.511 -10.161   7.352  1.00  0.00    -0.248 NA
ATOM     45  C   UNL     1      -5.467 -11.370   5.696  1.00  0.00     0.031 C 
ATOM     46  C   UNL     1      -7.404  -7.558   6.511  1.00  0.00     0.029 A 
ATOM     47  N   UNL     1      -8.863  -7.773   4.809  1.00  0.00    -0.354 N 
ATOM     48  C   UNL     1      -5.432 -10.796   7.922  1.00  0.00     0.074 A 
ATOM     49  C   UNL     1      -4.857 -11.595   6.864  1.00  0.00     0.031 C 
ATOM     50  C   UNL     1      -8.393  -6.676   6.717  1.00  0.00     0.029 A 
ATOM     51  C   UNL     1      -9.489  -7.052   5.844  1.00  0.00     0.049 A 
ATOM     52  H   UNL     1      -9.144  -7.816   3.866  1.00  0.00     0.167 HD
ATOM     53  C   UNL     1      -5.055 -10.448   9.183  1.00  0.00     0.034 A 
ATOM     54  C   UNL     1     -10.781  -7.255   6.236  1.00  0.00     0.034 A 
ATOM     55  C   UNL     1      -5.957  -9.431   9.745  1.00  0.00     0.049 A 
ATOM     56  C   UNL     1     -10.909  -7.684   7.694  1.00  0.00     0.074 A 
ATOM     57  C   UNL     1      -5.895  -8.052   9.879  1.00  0.00     0.029 A 
ATOM     58  N   UNL     1      -7.273  -9.777  10.001  1.00  0.00    -0.354 N 
ATOM     59  N   UNL     1      -9.925  -7.747   8.551  1.00  0.00    -0.248 NA
ATOM     60  C   UNL     1     -12.160  -8.179   8.264  1.00  0.00     0.031 C 
ATOM     61  C   UNL     1      -7.194  -7.576  10.225  1.00  0.00     0.029 A 
ATOM     62  C   UNL     1      -8.040  -8.665  10.320  1.00  0.00     0.049 A 
ATOM     63  H   UNL     1      -7.622 -10.697   9.961  1.00  0.00     0.167 HD
ATOM     64  C   UNL     1     -10.328  -8.440   9.671  1.00  0.00     0.074 A 
ATOM     65  C   UNL     1     -11.752  -8.646   9.456  1.00  0.00     0.031 C 
ATOM     66  C   UNL     1      -9.449  -8.866  10.639  1.00  0.00     0.034 A 
BRANCH  53  67
ATOM     67  C   UNL     1      -3.709 -10.797   9.785  1.00  0.00     0.023 A 
ATOM     68  C   UNL     1      -3.171  -9.900  10.733  1.00  0.00     0.012 A 
ATOM     69  C   UNL     1      -2.905 -11.912   9.455  1.00  0.00     0.148 A 
ATOM     70  C   UNL     1      -1.874 -10.028  11.238  1.00  0.00     0.002 A 
ATOM     71  C   UNL     1      -1.581 -12.001   9.898  1.00  0.00     0.091 A 
ATOM     72  F   UNL     1      -3.436 -12.933   8.772  1.00  0.00    -0.205 F 
ATOM     73  C   UNL     1      -1.062 -11.057  10.789  1.00  0.00     0.022 A 
BRANCH  71  74
ATOM     74  S   UNL     1      -0.431 -13.242   9.278  1.00  0.00     0.127 S 
ATOM     75  O   UNL     1       0.738 -12.431   8.925  1.00  0.00    -0.237 OA
ATOM     76  O   UNL     1      -0.238 -14.107  10.439  1.00  0.00    -0.237 OA
ATOM     77  O   UNL     1      -1.088 -13.857   8.130  1.00  0.00    -0.744 OA
ENDBRANCH  71  74
ENDBRANCH  53  67
BRANCH  54  78
ATOM     78  C   UNL     1     -11.666  -7.699   5.118  1.00  0.00     0.023 A 
ATOM     79  C   UNL     1     -11.857  -6.787   4.051  1.00  0.00     0.012 A 
ATOM     80  C   UNL     1     -11.956  -9.058   4.907  1.00  0.00     0.148 A 
ATOM     81  C   UNL     1     -12.187  -7.237   2.772  1.00  0.00     0.002 A 
ATOM     82  C   UNL     1     -12.288  -9.499   3.628  1.00  0.00     0.091 A 
ATOM     83  F   UNL     1     -11.818  -9.911   5.928  1.00  0.00    -0.205 F 
ATOM     84  C   UNL     1     -12.364  -8.599   2.553  1.00  0.00     0.022 A 
BRANCH  82  85
ATOM     85  S   UNL     1     -12.487 -11.249   3.270  1.00  0.00     0.127 S 
ATOM     86  O   UNL     1     -13.933 -11.407   3.386  1.00  0.00    -0.237 OA
ATOM     87  O   UNL     1     -11.963 -11.351   1.909  1.00  0.00    -0.237 OA
ATOM     88  O   UNL     1     -11.677 -11.924   4.273  1.00  0.00    -0.744 OA
ENDBRANCH  82  85
ENDBRANCH  54  78
BRANCH  66  89
ATOM     89  C   UNL     1      -9.814  -9.615  11.924  1.00  0.00     0.023 A 
ATOM     90  C   UNL     1     -11.116  -9.611  12.455  1.00  0.00     0.012 A 
ATOM     91  C   UNL     1      -8.837 -10.303  12.702  1.00  0.00     0.148 A 
ATOM     92  C   UNL     1     -11.469 -10.372  13.579  1.00  0.00     0.002 A 
ATOM     93  C   UNL     1      -9.185 -11.062  13.817  1.00  0.00     0.091 A 
ATOM     94  F   UNL     1      -7.537 -10.170  12.422  1.00  0.00    -0.205 F 
ATOM     95  C   UNL     1     -10.510 -11.124  14.242  1.00  0.00     0.022 A 
BRANCH  93  96
ATOM     96  S   UNL     1      -7.962 -11.990  14.756  1.00  0.00     0.127 S 
ATOM     97  O   UNL     1      -7.800 -11.148  15.941  1.00  0.00    -0.237 OA
ATOM     98  O   UNL     1      -8.658 -13.255  14.997  1.00  0.00    -0.237 OA
ATOM     99  O   UNL     1      -6.796 -12.100  13.892  1.00  0.00    -0.744 OA
ENDBRANCH  93  96
ENDBRANCH  66  89
ENDBRANCH  40  41
ENDBRANCH  32  35
ENDBRANCH  30  31
ENDBRANCH  29  30
ENDBRANCH   1  29
TORSDOF 19
