REMARK SMILES O=C(NCCCCCCNC(=O)[C@H]1CCCN(c2cc(-c3ccccn3)nc(-c3ccccc3F)n2)C1)c1ccc(-c2c3nc(c(-c4cccc(S(=O)(=O)[O-])c4F)c4ccc([nH]4)c(-c4cccc(S(=O)(=O)[O-])c4F)c4nc(c(-c5cccc(S(=O)(=O)[O-])c5F)c5ccc2[nH]5)C=C4)C=C3)cc1
REMARK SMILES IDX 6 1 5 2 4 3 3 4 1 5 2 6 38 8 39 9 100 10 40 11 99 12 41 13
REMARK SMILES IDX 42 14 43 15 93 16 44 17 98 18 92 19 94 20 45 21 97 22 91 23
REMARK SMILES IDX 90 24 46 26 78 27 58 28 77 29 59 30 62 31 76 32 95 33 60 34
REMARK SMILES IDX 61 35 75 37 96 38 63 39 47 40 48 41 56 42 49 43 51 44 57 45
REMARK SMILES IDX 50 46 52 47 53 48 54 49 55 50 79 51 80 52 88 53 81 54 83 55
REMARK SMILES IDX 89 56 82 57 84 58 85 59 86 60 87 61 64 62 65 63 73 64 66 65
REMARK SMILES IDX 68 66 74 67 67 68 69 69 70 70 71 71 72 72 7 73 8 74 9 75
REMARK SMILES IDX 10 76 11 77 12 79 13 80 14 81 37 82 15 83 17 84 16 85 18 86
REMARK SMILES IDX 19 87 36 88 20 89 28 90 27 91 21 92 22 93 26 94 23 95 25 96
REMARK SMILES IDX 24 97 29 98 30 99 34 100 31 101 33 102 35 103 32 104
REMARK H PARENT 3 7 94 25 62 36 10 78
REMARK Flexibility Score: inf
ROOT
ATOM      1  C   UNL     1      10.867  11.120  -5.899  1.00  0.00     0.002 C 
ENDROOT
BRANCH   1   2
ATOM      2  C   UNL     1      10.338  12.001  -4.766  1.00  0.00     0.021 C 
BRANCH   2   3
ATOM      3  C   UNL     1      11.415  12.495  -3.810  1.00  0.00     0.116 C 
BRANCH   3   4
ATOM      4  N   UNL     1      12.275  13.487  -4.434  1.00  0.00    -0.352 N 
ATOM      5  O   UNL     1      13.126  15.550  -4.751  1.00  0.00    -0.269 OA
ATOM      6  C   UNL     1      12.566  14.763  -4.005  1.00  0.00     0.251 C 
ATOM      7  H   UNL     1      12.707  13.210  -5.274  1.00  0.00     0.163 HD
BRANCH   6   8
ATOM      8  C   UNL     1      12.174  15.166  -2.634  1.00  0.00     0.039 A 
ATOM      9  C   UNL     1      12.398  14.304  -1.559  1.00  0.00     0.014 A 
ATOM     10  C   UNL     1      11.583  16.415  -2.425  1.00  0.00     0.014 A 
ATOM     11  C   UNL     1      11.912  14.631  -0.300  1.00  0.00     0.010 A 
ATOM     12  C   UNL     1      11.177  16.782  -1.138  1.00  0.00     0.010 A 
ATOM     13  C   UNL     1      11.318  15.884  -0.070  1.00  0.00    -0.014 A 
BRANCH  13  14
ATOM     14  C   UNL     1      10.970  16.258   1.324  1.00  0.00     0.031 A 
ATOM     15  C   UNL     1       9.553  16.495   1.753  1.00  0.00     0.074 A 
ATOM     16  C   UNL     1      11.975  16.352   2.218  1.00  0.00     0.049 A 
ATOM     17  N   UNL     1       9.094  16.729   2.956  1.00  0.00    -0.248 NA
ATOM     18  C   UNL     1       8.517  16.482   0.709  1.00  0.00     0.031 C 
ATOM     19  C   UNL     1      13.395  16.198   1.891  1.00  0.00     0.029 A 
ATOM     20  N   UNL     1      11.967  16.574   3.570  1.00  0.00    -0.354 N 
ATOM     21  C   UNL     1       7.727  16.928   2.813  1.00  0.00     0.074 A 
ATOM     22  C   UNL     1       7.429  16.794   1.403  1.00  0.00     0.031 C 
ATOM     23  C   UNL     1      14.115  16.271   3.018  1.00  0.00     0.029 A 
ATOM     24  C   UNL     1      13.219  16.532   4.138  1.00  0.00     0.049 A 
ATOM     25  H   UNL     1      11.146  16.747   4.084  1.00  0.00     0.167 HD
ATOM     26  C   UNL     1       6.808  17.184   3.774  1.00  0.00     0.034 A 
ATOM     27  C   UNL     1      13.609  16.684   5.418  1.00  0.00     0.034 A 
ATOM     28  C   UNL     1       7.115  17.270   5.178  1.00  0.00     0.049 A 
ATOM     29  C   UNL     1      12.566  16.912   6.470  1.00  0.00     0.074 A 
ATOM     30  C   UNL     1       6.241  17.447   6.237  1.00  0.00     0.029 A 
ATOM     31  N   UNL     1       8.389  17.192   5.721  1.00  0.00    -0.354 N 
ATOM     32  N   UNL     1      11.263  16.965   6.331  1.00  0.00    -0.248 NA
ATOM     33  C   UNL     1      13.033  17.078   7.852  1.00  0.00     0.031 C 
ATOM     34  C   UNL     1       6.989  17.498   7.417  1.00  0.00     0.029 A 
ATOM     35  C   UNL     1       8.327  17.330   7.097  1.00  0.00     0.049 A 
ATOM     36  H   UNL     1       9.216  17.059   5.203  1.00  0.00     0.167 HD
ATOM     37  C   UNL     1      10.751  17.159   7.607  1.00  0.00     0.074 A 
ATOM     38  C   UNL     1      11.885  17.189   8.510  1.00  0.00     0.031 C 
ATOM     39  C   UNL     1       9.460  17.316   7.988  1.00  0.00     0.034 A 
BRANCH  26  40
ATOM     40  C   UNL     1       5.369  17.345   3.358  1.00  0.00     0.023 A 
ATOM     41  C   UNL     1       4.622  16.208   2.987  1.00  0.00     0.012 A 
ATOM     42  C   UNL     1       4.730  18.599   3.425  1.00  0.00     0.148 A 
ATOM     43  C   UNL     1       3.269  16.320   2.669  1.00  0.00     0.002 A 
ATOM     44  C   UNL     1       3.371  18.696   3.144  1.00  0.00     0.091 A 
ATOM     45  F   UNL     1       5.460  19.673   3.756  1.00  0.00    -0.205 F 
ATOM     46  C   UNL     1       2.641  17.560   2.760  1.00  0.00     0.022 A 
BRANCH  44  47
ATOM     47  S   UNL     1       2.461  20.237   3.314  1.00  0.00     0.127 S 
ATOM     48  O   UNL     1       2.311  20.646   1.919  1.00  0.00    -0.237 OA
ATOM     49  O   UNL     1       1.221  19.799   3.956  1.00  0.00    -0.237 OA
ATOM     50  O   UNL     1       3.294  21.101   4.139  1.00  0.00    -0.744 OA
ENDBRANCH  44  47
ENDBRANCH  26  40
BRANCH  27  51
ATOM     51  C   UNL     1      15.055  16.538   5.747  1.00  0.00     0.023 A 
ATOM     52  C   UNL     1      15.497  15.378   6.410  1.00  0.00     0.012 A 
ATOM     53  C   UNL     1      16.004  17.466   5.274  1.00  0.00     0.148 A 
ATOM     54  C   UNL     1      16.860  15.142   6.592  1.00  0.00     0.002 A 
ATOM     55  C   UNL     1      17.360  17.192   5.400  1.00  0.00     0.091 A 
ATOM     56  F   UNL     1      15.558  18.569   4.655  1.00  0.00    -0.205 F 
ATOM     57  C   UNL     1      17.791  16.037   6.070  1.00  0.00     0.022 A 
BRANCH  55  58
ATOM     58  S   UNL     1      18.622  18.195   4.604  1.00  0.00     0.127 S 
ATOM     59  O   UNL     1      19.294  18.795   5.754  1.00  0.00    -0.237 OA
ATOM     60  O   UNL     1      19.403  17.182   3.892  1.00  0.00    -0.237 OA
ATOM     61  O   UNL     1      17.904  19.119   3.738  1.00  0.00    -0.744 OA
ENDBRANCH  55  58
ENDBRANCH  27  51
BRANCH  39  62
ATOM     62  C   UNL     1       9.182  17.535   9.451  1.00  0.00     0.023 A 
ATOM     63  C   UNL     1       9.434  18.799  10.020  1.00  0.00     0.012 A 
ATOM     64  C   UNL     1       8.554  16.537  10.221  1.00  0.00     0.148 A 
ATOM     65  C   UNL     1       9.074  19.062  11.341  1.00  0.00     0.002 A 
ATOM     66  C   UNL     1       8.160  16.821  11.523  1.00  0.00     0.091 A 
ATOM     67  F   UNL     1       8.341  15.338   9.661  1.00  0.00    -0.205 F 
ATOM     68  C   UNL     1       8.425  18.081  12.086  1.00  0.00     0.022 A 
BRANCH  66  69
ATOM     69  S   UNL     1       7.234  15.654  12.527  1.00  0.00     0.127 S 
ATOM     70  O   UNL     1       8.223  15.283  13.539  1.00  0.00    -0.237 OA
ATOM     71  O   UNL     1       6.132  16.479  13.025  1.00  0.00    -0.237 OA
ATOM     72  O   UNL     1       6.830  14.581  11.629  1.00  0.00    -0.744 OA
ENDBRANCH  66  69
ENDBRANCH  39  62
ENDBRANCH  13  14
ENDBRANCH   6   8
ENDBRANCH   3   4
ENDBRANCH   2   3
ENDBRANCH   1   2
BRANCH   1  73
ATOM     73  C   UNL     1      11.542   9.820  -5.444  1.00  0.00     0.002 C 
BRANCH  73  74
ATOM     74  C   UNL     1      10.716   8.960  -4.474  1.00  0.00     0.021 C 
BRANCH  74  75
ATOM     75  C   UNL     1       9.391   8.466  -5.066  1.00  0.00     0.116 C 
BRANCH  75  76
ATOM     76  N   UNL     1       9.641   7.377  -5.988  1.00  0.00    -0.356 N 
ATOM     77  C   UNL     1       9.616   6.031  -5.820  1.00  0.00     0.224 C 
ATOM     78  H   UNL     1       9.871   7.666  -6.901  1.00  0.00     0.163 HD
ATOM     79  O   UNL     1      10.034   5.367  -6.776  1.00  0.00    -0.275 OA
BRANCH  77  80
ATOM     80  C   UNL     1       9.020   5.357  -4.577  1.00  0.00     0.098 C 
ATOM     81  C   UNL     1       9.210   3.825  -4.721  1.00  0.00     0.017 C 
ATOM     82  C   UNL     1       9.645   5.798  -3.255  1.00  0.00     0.131 C 
ATOM     83  C   UNL     1       8.699   3.045  -3.510  1.00  0.00     0.022 C 
ATOM     84  N   UNL     1       9.155   4.997  -2.137  1.00  0.00    -0.356 N 
ATOM     85  C   UNL     1       9.311   3.555  -2.209  1.00  0.00     0.118 C 
BRANCH  84  86
ATOM     86  C   UNL     1       8.248   5.546  -1.246  1.00  0.00     0.133 A 
ATOM     87  C   UNL     1       8.503   5.420   0.105  1.00  0.00     0.077 A 
ATOM     88  N   UNL     1       7.197   6.252  -1.699  1.00  0.00    -0.211 NA
ATOM     89  C   UNL     1       7.674   6.090   0.981  1.00  0.00     0.095 A 
ATOM     90  C   UNL     1       6.405   6.832  -0.769  1.00  0.00     0.165 A 
ATOM     91  N   UNL     1       6.605   6.787   0.556  1.00  0.00    -0.226 NA
BRANCH  89  92
ATOM     92  C   UNL     1       7.990   6.159   2.413  1.00  0.00     0.089 A 
ATOM     93  C   UNL     1       9.112   6.860   2.861  1.00  0.00     0.030 A 
ATOM     94  N   UNL     1       7.167   5.489   3.260  1.00  0.00    -0.255 NA
ATOM     95  C   UNL     1       9.395   6.889   4.223  1.00  0.00     0.004 A 
ATOM     96  C   UNL     1       7.454   5.559   4.580  1.00  0.00     0.112 A 
ATOM     97  C   UNL     1       8.547   6.231   5.103  1.00  0.00     0.020 A 
ENDBRANCH  89  92
BRANCH  90  98
ATOM     98  C   UNL     1       5.197   7.522  -1.218  1.00  0.00     0.055 A 
ATOM     99  C   UNL     1       4.181   6.842  -1.914  1.00  0.00     0.015 A 
ATOM    100  C   UNL     1       4.983   8.872  -0.914  1.00  0.00     0.134 A 
ATOM    101  C   UNL     1       2.992   7.491  -2.272  1.00  0.00     0.001 A 
ATOM    102  C   UNL     1       3.803   9.527  -1.273  1.00  0.00     0.040 A 
ATOM    103  F   UNL     1       5.928   9.582  -0.278  1.00  0.00    -0.206 F 
ATOM    104  C   UNL     1       2.803   8.834  -1.949  1.00  0.00     0.003 A 
ENDBRANCH  90  98
ENDBRANCH  84  86
ENDBRANCH  77  80
ENDBRANCH  75  76
ENDBRANCH  74  75
ENDBRANCH  73  74
ENDBRANCH   1  73
TORSDOF 19
