REMARK SMILES COc1ccc(CCN2/C(=[NH+]/C(=O)CCC(=O)NCCCCCCNC(=O)c3ccc(-c4c5nc(c(-c6cccc(S(=O)(=O)[O-])c6F)c6ccc([nH]6)c(-c6cccc(S(=O)(=O)[O-])c6F)c6nc(c(-c7cccc(S(=O)(=O)[O-])c7F)c7ccc4[nH]7)C=C6)C=C5)cc3)S[C@@H]3CS(=O)(=O)C[C@@H]32)cc1
REMARK SMILES IDX 20 1 19 2 18 3 16 4 17 5 15 7 14 8 12 9 9 10 10 11 98 12
REMARK SMILES IDX 11 13 91 14 92 15 97 16 93 18 94 19 13 20 95 21 96 22 8 23
REMARK SMILES IDX 7 24 6 25 3 26 4 27 100 28 5 29 99 30 2 31 1 32 21 33 22 34
REMARK SMILES IDX 23 35 24 36 25 37 26 38 27 40 28 41 29 42 90 43 30 44 89 45
REMARK SMILES IDX 31 46 32 47 33 48 83 49 34 50 88 51 82 52 84 53 35 54 87 55
REMARK SMILES IDX 81 56 80 57 36 59 68 60 48 61 67 62 49 63 52 64 66 65 85 66
REMARK SMILES IDX 50 67 51 68 65 70 86 71 53 72 37 73 38 74 46 75 39 76 41 77
REMARK SMILES IDX 47 78 40 79 42 80 43 81 44 82 45 83 69 84 70 85 78 86 71 87
REMARK SMILES IDX 73 88 79 89 72 90 74 91 75 92 76 93 77 94 54 95 55 96 63 97
REMARK SMILES IDX 56 98 58 99 64 100 57 101 59 102 60 103 61 104 62 105
REMARK H PARENT 18 6 11 17 25 39 84 58 52 69
REMARK Flexibility Score: inf
ROOT
ATOM      1  C   UNL     1       1.118  -1.429   9.834  1.00  0.00     0.021 C 
ENDROOT
BRANCH   1   2
ATOM      2  C   UNL     1       1.586  -0.901  11.170  1.00  0.00     0.116 C 
BRANCH   2   3
ATOM      3  N   UNL     1       2.785  -0.112  10.963  1.00  0.00    -0.356 N 
ATOM      4  C   UNL     1       2.896   1.036  10.223  1.00  0.00     0.220 C 
ATOM      5  O   UNL     1       4.021   1.425   9.906  1.00  0.00    -0.275 OA
ATOM      6  H   UNL     1       3.606  -0.435  11.400  1.00  0.00     0.163 HD
BRANCH   4   7
ATOM      7  C   UNL     1       1.645   1.817   9.835  1.00  0.00     0.112 C 
BRANCH   7   8
ATOM      8  C   UNL     1       1.458   1.965   8.315  1.00  0.00     0.138 C 
BRANCH   8   9
ATOM      9  C   UNL     1       0.358   1.075   7.732  1.00  0.00     0.308 C 
ATOM     10  N   UNL     1       0.576  -2.310   6.250  1.00  0.00    -0.251 N 
ATOM     11  C   UNL     1       0.065  -1.074   6.755  1.00  0.00     0.314 C 
ATOM     12  C   UNL     1      -0.273  -3.527   6.320  1.00  0.00     0.206 C 
ATOM     13  N   UNL     1       0.803  -0.020   6.988  1.00  0.00    -0.205 N 
ATOM     14  S   UNL     1      -1.692  -1.135   7.242  1.00  0.00    -0.030 SA
ATOM     15  C   UNL     1      -1.939  -2.926   7.152  1.00  0.00     0.120 C 
ATOM     16  C   UNL     1       0.519  -5.146   7.236  1.00  0.00     0.187 C 
ATOM     17  H   UNL     1       1.716   0.003   6.620  1.00  0.00     0.316 HD
ATOM     18  C   UNL     1      -2.571  -4.155   8.574  1.00  0.00     0.156 C 
ATOM     19  S   UNL     1      -0.985  -5.843   8.897  1.00  0.00     0.155 S 
ATOM     20  O   UNL     1      -0.800   1.367   8.026  1.00  0.00    -0.247 OA
ATOM     21  O   UNL     1      -0.446  -5.780  10.243  1.00  0.00    -0.229 OA
ATOM     22  O   UNL     1      -1.521  -7.149   8.540  1.00  0.00    -0.229 OA
BRANCH  10  23
ATOM     23  C   UNL     1       1.944  -2.528   5.753  1.00  0.00     0.242 C 
BRANCH  23  24
ATOM     24  C   UNL     1       2.017  -3.379   4.465  1.00  0.00     0.081 C 
BRANCH  24  25
ATOM     25  C   UNL     1       1.689  -2.527   3.276  1.00  0.00    -0.044 A 
ATOM     26  C   UNL     1       1.184  -0.515   1.441  1.00  0.00     0.118 A 
ATOM     27  C   UNL     1       0.126  -1.071   2.148  1.00  0.00     0.046 A 
ATOM     28  C   UNL     1       2.485  -0.990   1.600  1.00  0.00     0.046 A 
ATOM     29  C   UNL     1       0.375  -2.101   3.042  1.00  0.00     0.007 A 
ATOM     30  C   UNL     1       2.737  -2.006   2.512  1.00  0.00     0.007 A 
BRANCH  26  31
ATOM     31  O   UNL     1       0.907   0.563   0.650  1.00  0.00    -0.497 OA
ATOM     32  C   UNL     1       1.156   0.251  -0.716  1.00  0.00     0.278 C 
ENDBRANCH  26  31
ENDBRANCH  24  25
ENDBRANCH  23  24
ENDBRANCH  10  23
ENDBRANCH   8   9
ENDBRANCH   7   8
ENDBRANCH   4   7
ENDBRANCH   2   3
ENDBRANCH   1   2
BRANCH   1  33
ATOM     33  C   UNL     1       1.899  -2.624   9.304  1.00  0.00     0.002 C 
BRANCH  33  34
ATOM     34  C   UNL     1       1.048  -3.900   9.318  1.00  0.00     0.002 C 
BRANCH  34  35
ATOM     35  C   UNL     1      -0.456  -3.821   8.370  1.00  0.00     0.021 C 
BRANCH  35  36
ATOM     36  C   UNL     1      -1.520  -5.012   6.924  1.00  0.00     0.116 C 
BRANCH  36  37
ATOM     37  N   UNL     1      -1.029  -5.797   5.633  1.00  0.00    -0.352 N 
ATOM     38  C   UNL     1      -1.698  -6.637   4.783  1.00  0.00     0.251 C 
ATOM     39  H   UNL     1      -0.082  -5.654   5.404  1.00  0.00     0.163 HD
ATOM     40  O   UNL     1      -1.083  -7.305   3.962  1.00  0.00    -0.269 OA
BRANCH  38  41
ATOM     41  C   UNL     1      -3.147  -6.591   4.787  1.00  0.00     0.039 A 
ATOM     42  C   UNL     1      -3.876  -7.727   5.112  1.00  0.00     0.014 A 
ATOM     43  C   UNL     1      -3.747  -5.365   4.482  1.00  0.00     0.014 A 
ATOM     44  C   UNL     1      -5.255  -7.617   5.165  1.00  0.00     0.010 A 
ATOM     45  C   UNL     1      -5.108  -5.235   4.640  1.00  0.00     0.010 A 
ATOM     46  C   UNL     1      -5.867  -6.368   4.956  1.00  0.00    -0.014 A 
BRANCH  46  47
ATOM     47  C   UNL     1      -7.327  -6.240   5.045  1.00  0.00     0.031 A 
ATOM     48  C   UNL     1      -8.106  -5.859   3.824  1.00  0.00     0.074 A 
ATOM     49  C   UNL     1      -7.912  -6.431   6.240  1.00  0.00     0.049 A 
ATOM     50  N   UNL     1      -9.393  -5.698   3.696  1.00  0.00    -0.248 NA
ATOM     51  C   UNL     1      -7.341  -5.596   2.591  1.00  0.00     0.031 C 
ATOM     52  C   UNL     1      -7.204  -6.728   7.490  1.00  0.00     0.029 A 
ATOM     53  N   UNL     1      -9.228  -6.400   6.601  1.00  0.00    -0.354 N 
ATOM     54  C   UNL     1      -9.589  -5.292   2.384  1.00  0.00     0.074 A 
ATOM     55  C   UNL     1      -8.288  -5.175   1.768  1.00  0.00     0.031 C 
ATOM     56  C   UNL     1      -8.101  -6.879   8.476  1.00  0.00     0.029 A 
ATOM     57  C   UNL     1      -9.434  -6.647   7.936  1.00  0.00     0.049 A 
ATOM     58  H   UNL     1      -9.958  -6.218   5.966  1.00  0.00     0.167 HD
ATOM     59  C   UNL     1     -10.758  -5.072   1.744  1.00  0.00     0.034 A 
ATOM     60  C   UNL     1     -10.580  -6.669   8.638  1.00  0.00     0.034 A 
ATOM     61  C   UNL     1     -12.037  -5.219   2.379  1.00  0.00     0.049 A 
ATOM     62  C   UNL     1     -11.865  -6.437   7.897  1.00  0.00     0.074 A 
ATOM     63  C   UNL     1     -13.294  -5.085   1.822  1.00  0.00     0.029 A 
ATOM     64  N   UNL     1     -12.217  -5.518   3.722  1.00  0.00    -0.354 N 
ATOM     65  N   UNL     1     -12.047  -6.185   6.622  1.00  0.00    -0.248 NA
ATOM     66  C   UNL     1     -13.104  -6.526   8.678  1.00  0.00     0.031 C 
ATOM     67  C   UNL     1     -14.235  -5.258   2.841  1.00  0.00     0.029 A 
ATOM     68  C   UNL     1     -13.566  -5.558   4.019  1.00  0.00     0.049 A 
ATOM     69  H   UNL     1     -11.492  -5.678   4.367  1.00  0.00     0.167 HD
ATOM     70  C   UNL     1     -13.421  -6.120   6.439  1.00  0.00     0.074 A 
ATOM     71  C   UNL     1     -14.022  -6.383   7.732  1.00  0.00     0.031 C 
ATOM     72  C   UNL     1     -14.126  -5.859   5.311  1.00  0.00     0.034 A 
BRANCH  59  73
ATOM     73  C   UNL     1     -10.698  -4.678   0.293  1.00  0.00     0.023 A 
ATOM     74  C   UNL     1     -10.255  -5.605  -0.673  1.00  0.00     0.012 A 
ATOM     75  C   UNL     1     -11.116  -3.399  -0.118  1.00  0.00     0.148 A 
ATOM     76  C   UNL     1     -10.192  -5.253  -2.020  1.00  0.00     0.002 A 
ATOM     77  C   UNL     1     -11.102  -3.073  -1.468  1.00  0.00     0.091 A 
ATOM     78  F   UNL     1     -11.507  -2.523   0.819  1.00  0.00    -0.205 F 
ATOM     79  C   UNL     1     -10.627  -3.992  -2.418  1.00  0.00     0.022 A 
BRANCH  77  80
ATOM     80  S   UNL     1     -11.715  -1.506  -2.091  1.00  0.00     0.127 S 
ATOM     81  O   UNL     1     -10.494  -0.902  -2.624  1.00  0.00    -0.237 OA
ATOM     82  O   UNL     1     -12.675  -1.939  -3.107  1.00  0.00    -0.237 OA
ATOM     83  O   UNL     1     -12.300  -0.817  -0.950  1.00  0.00    -0.744 OA
ENDBRANCH  77  80
ENDBRANCH  59  73
BRANCH  60  84
ATOM     84  C   UNL     1     -10.556  -6.949  10.099  1.00  0.00     0.023 A 
ATOM     85  C   UNL     1     -11.109  -8.143  10.598  1.00  0.00     0.012 A 
ATOM     86  C   UNL     1      -9.960  -6.040  10.994  1.00  0.00     0.148 A 
ATOM     87  C   UNL     1     -11.110  -8.405  11.969  1.00  0.00     0.002 A 
ATOM     88  C   UNL     1      -9.911  -6.333  12.350  1.00  0.00     0.091 A 
ATOM     89  F   UNL     1      -9.437  -4.910  10.496  1.00  0.00    -0.205 F 
ATOM     90  C   UNL     1     -10.504  -7.505  12.843  1.00  0.00     0.022 A 
BRANCH  88  91
ATOM     91  S   UNL     1      -9.037  -5.294  13.524  1.00  0.00     0.127 S 
ATOM     92  O   UNL     1     -10.138  -4.738  14.306  1.00  0.00    -0.237 OA
ATOM     93  O   UNL     1      -8.208  -6.270  14.231  1.00  0.00    -0.237 OA
ATOM     94  O   UNL     1      -8.286  -4.338  12.722  1.00  0.00    -0.744 OA
ENDBRANCH  88  91
ENDBRANCH  60  84
BRANCH  72  95
ATOM     95  C   UNL     1     -15.626  -5.895   5.415  1.00  0.00     0.023 A 
ATOM     96  C   UNL     1     -16.314  -4.884   6.113  1.00  0.00     0.012 A 
ATOM     97  C   UNL     1     -16.353  -6.903   4.754  1.00  0.00     0.148 A 
ATOM     98  C   UNL     1     -17.705  -4.899   6.186  1.00  0.00     0.002 A 
ATOM     99  C   UNL     1     -17.740  -6.877   4.778  1.00  0.00     0.091 A 
ATOM    100  F   UNL     1     -15.674  -7.863   4.108  1.00  0.00    -0.205 F 
ATOM    101  C   UNL     1     -18.417  -5.887   5.508  1.00  0.00     0.022 A 
BRANCH  99 102
ATOM    102  S   UNL     1     -18.739  -8.042   3.849  1.00  0.00     0.127 S 
ATOM    103  O   UNL     1     -19.355  -8.825   4.919  1.00  0.00    -0.237 OA
ATOM    104  O   UNL     1     -19.657  -7.156   3.134  1.00  0.00    -0.237 OA
ATOM    105  O   UNL     1     -17.816  -8.777   2.994  1.00  0.00    -0.744 OA
ENDBRANCH  99 102
ENDBRANCH  72  95
ENDBRANCH  46  47
ENDBRANCH  38  41
ENDBRANCH  36  37
ENDBRANCH  35  36
ENDBRANCH  34  35
ENDBRANCH  33  34
ENDBRANCH   1  33
TORSDOF 22
