REMARK SMILES CC1(C)CCC[C@@](C)(CCC(=O)NCCCCCCNC(=O)c2ccc(-c3c4nc(c(-c5cccc(S(=O)(=O)[O-])c5F)c5ccc([nH]5)c(-c5cccc(S(=O)(=O)[O-])c5F)c5nc(c(-c6cccc(S(=O)(=O)[O-])c6F)c6ccc3[nH]6)C=C5)C=C4)cc2)C1=O
REMARK SMILES IDX 17 1 16 2 15 3 14 4 13 5 11 6 12 7 10 9 9 10 7 11 1 12 2 13
REMARK SMILES IDX 3 14 4 15 86 16 5 17 87 18 6 19 8 20 18 21 19 22 20 23 21 24
REMARK SMILES IDX 22 26 23 27 24 28 85 29 25 30 84 31 26 32 27 33 28 34 78 35
REMARK SMILES IDX 29 36 83 37 77 38 79 39 30 40 82 41 76 42 75 43 31 45 63 46
REMARK SMILES IDX 43 47 62 48 44 49 47 50 61 51 80 52 45 53 46 54 60 56 81 57
REMARK SMILES IDX 48 58 32 59 33 60 41 61 34 62 36 63 42 64 35 65 37 66 38 67
REMARK SMILES IDX 39 68 40 69 64 70 65 71 73 72 66 73 68 74 74 75 67 76 69 77
REMARK SMILES IDX 70 78 71 79 72 80 49 81 50 82 58 83 51 84 53 85 59 86 52 87
REMARK SMILES IDX 54 88 55 89 56 90 57 91
REMARK H PARENT 13 8 20 25 79 44 47 55
REMARK Flexibility Score: inf
ROOT
ATOM      1  C   UNL     1       2.080  -6.555   3.283  1.00  0.00     0.002 C 
ENDROOT
BRANCH   1   2
ATOM      2  C   UNL     1       1.586  -6.784   1.853  1.00  0.00     0.002 C 
BRANCH   2   3
ATOM      3  C   UNL     1       1.141  -5.526   1.114  1.00  0.00     0.021 C 
BRANCH   3   4
ATOM      4  C   UNL     1       2.284  -4.609   0.657  1.00  0.00     0.116 C 
BRANCH   4   5
ATOM      5  N   UNL     1       2.419  -4.648  -0.796  1.00  0.00    -0.356 N 
ATOM      6  C   UNL     1       2.075  -3.745  -1.757  1.00  0.00     0.220 C 
ATOM      7  O   UNL     1       2.139  -4.098  -2.937  1.00  0.00    -0.275 OA
ATOM      8  H   UNL     1       2.832  -5.472  -1.143  1.00  0.00     0.163 HD
BRANCH   6   9
ATOM      9  C   UNL     1       1.681  -2.322  -1.401  1.00  0.00     0.101 C 
BRANCH   9  10
ATOM     10  C   UNL     1       0.205  -1.942  -1.668  1.00  0.00     0.024 C 
BRANCH  10  11
ATOM     11  C   UNL     1      -0.780  -2.153  -0.483  1.00  0.00     0.027 C 
ATOM     12  C   UNL     1       0.962   0.509   0.293  1.00  0.00     0.019 C 
ATOM     13  C   UNL     1       0.044  -0.293   1.228  1.00  0.00     0.024 C 
ATOM     14  C   UNL     1       0.679  -0.197   2.631  1.00  0.00     0.019 C 
ATOM     15  C   UNL     1      -1.375   0.289   1.233  1.00  0.00     0.014 C 
ATOM     16  C   UNL     1      -0.147  -1.782   0.873  1.00  0.00     0.144 C 
ATOM     17  C   UNL     1      -2.069   0.109  -0.121  1.00  0.00     0.002 C 
ATOM     18  O   UNL     1       0.128  -2.659   1.694  1.00  0.00    -0.298 OA
ATOM     19  C   UNL     1      -2.104  -1.348  -0.589  1.00  0.00     0.014 C 
ATOM     20  C   UNL     1      -1.213  -3.638  -0.533  1.00  0.00     0.020 C 
ENDBRANCH  10  11
ENDBRANCH   9  10
ENDBRANCH   6   9
ENDBRANCH   4   5
ENDBRANCH   3   4
ENDBRANCH   2   3
ENDBRANCH   1   2
BRANCH   1  21
ATOM     21  C   UNL     1       1.104  -5.859   4.240  1.00  0.00     0.021 C 
BRANCH  21  22
ATOM     22  C   UNL     1      -0.316  -6.424   4.283  1.00  0.00     0.116 C 
BRANCH  22  23
ATOM     23  N   UNL     1      -0.337  -7.843   4.603  1.00  0.00    -0.352 N 
ATOM     24  C   UNL     1      -0.844  -8.496   5.697  1.00  0.00     0.251 C 
ATOM     25  H   UNL     1       0.078  -8.427   3.928  1.00  0.00     0.163 HD
ATOM     26  O   UNL     1      -0.580  -9.683   5.874  1.00  0.00    -0.269 OA
BRANCH  24  27
ATOM     27  C   UNL     1      -1.699  -7.782   6.669  1.00  0.00     0.039 A 
ATOM     28  C   UNL     1      -1.462  -7.960   8.035  1.00  0.00     0.014 A 
ATOM     29  C   UNL     1      -2.760  -6.978   6.242  1.00  0.00     0.014 A 
ATOM     30  C   UNL     1      -2.255  -7.293   8.972  1.00  0.00     0.010 A 
ATOM     31  C   UNL     1      -3.514  -6.269   7.177  1.00  0.00     0.010 A 
ATOM     32  C   UNL     1      -3.274  -6.423   8.551  1.00  0.00    -0.014 A 
BRANCH  32  33
ATOM     33  C   UNL     1      -4.091  -5.663   9.532  1.00  0.00     0.031 A 
ATOM     34  C   UNL     1      -5.568  -5.926   9.658  1.00  0.00     0.074 A 
ATOM     35  C   UNL     1      -3.518  -4.680  10.256  1.00  0.00     0.049 A 
ATOM     36  N   UNL     1      -6.452  -5.325  10.412  1.00  0.00    -0.248 NA
ATOM     37  C   UNL     1      -6.131  -6.990   8.810  1.00  0.00     0.031 C 
ATOM     38  C   UNL     1      -2.112  -4.279  10.171  1.00  0.00     0.029 A 
ATOM     39  N   UNL     1      -4.052  -3.820  11.183  1.00  0.00    -0.354 N 
ATOM     40  C   UNL     1      -7.675  -5.912  10.110  1.00  0.00     0.074 A 
ATOM     41  C   UNL     1      -7.426  -6.898   9.081  1.00  0.00     0.031 C 
ATOM     42  C   UNL     1      -1.897  -3.249  11.006  1.00  0.00     0.029 A 
ATOM     43  C   UNL     1      -3.151  -2.900  11.667  1.00  0.00     0.049 A 
ATOM     44  H   UNL     1      -4.992  -3.857  11.473  1.00  0.00     0.167 HD
ATOM     45  C   UNL     1      -8.890  -5.675  10.660  1.00  0.00     0.034 A 
ATOM     46  C   UNL     1      -3.317  -1.886  12.539  1.00  0.00     0.034 A 
ATOM     47  C   UNL     1      -9.127  -4.726  11.715  1.00  0.00     0.049 A 
ATOM     48  C   UNL     1      -4.670  -1.675  13.165  1.00  0.00     0.074 A 
ATOM     49  C   UNL     1     -10.307  -4.467  12.389  1.00  0.00     0.029 A 
ATOM     50  N   UNL     1      -8.167  -3.883  12.251  1.00  0.00    -0.354 N 
ATOM     51  N   UNL     1      -5.780  -2.346  12.977  1.00  0.00    -0.248 NA
ATOM     52  C   UNL     1      -4.784  -0.592  14.154  1.00  0.00     0.031 C 
ATOM     53  C   UNL     1     -10.064  -3.457  13.326  1.00  0.00     0.029 A 
ATOM     54  C   UNL     1      -8.727  -3.101  13.247  1.00  0.00     0.049 A 
ATOM     55  H   UNL     1      -7.225  -3.845  11.966  1.00  0.00     0.167 HD
ATOM     56  C   UNL     1      -6.712  -1.793  13.849  1.00  0.00     0.074 A 
ATOM     57  C   UNL     1      -6.029  -0.748  14.582  1.00  0.00     0.031 C 
ATOM     58  C   UNL     1      -8.019  -2.110  14.014  1.00  0.00     0.034 A 
BRANCH  45  59
ATOM     59  C   UNL     1     -10.054  -6.504  10.182  1.00  0.00     0.023 A 
ATOM     60  C   UNL     1     -10.138  -7.858  10.566  1.00  0.00     0.012 A 
ATOM     61  C   UNL     1     -11.099  -5.933   9.430  1.00  0.00     0.148 A 
ATOM     62  C   UNL     1     -11.229  -8.638  10.187  1.00  0.00     0.002 A 
ATOM     63  C   UNL     1     -12.204  -6.706   9.091  1.00  0.00     0.091 A 
ATOM     64  F   UNL     1     -10.993  -4.648   9.062  1.00  0.00    -0.205 F 
ATOM     65  C   UNL     1     -12.266  -8.060   9.460  1.00  0.00     0.022 A 
BRANCH  63  66
ATOM     66  S   UNL     1     -13.628  -6.039   8.222  1.00  0.00     0.127 S 
ATOM     67  O   UNL     1     -13.529  -6.717   6.930  1.00  0.00    -0.237 OA
ATOM     68  O   UNL     1     -14.739  -6.490   9.062  1.00  0.00    -0.237 OA
ATOM     69  O   UNL     1     -13.439  -4.596   8.184  1.00  0.00    -0.744 OA
ENDBRANCH  63  66
ENDBRANCH  45  59
BRANCH  46  70
ATOM     70  C   UNL     1      -2.158  -1.032  12.925  1.00  0.00     0.023 A 
ATOM     71  C   UNL     1      -1.635  -1.126  14.230  1.00  0.00     0.012 A 
ATOM     72  C   UNL     1      -1.566  -0.137  12.013  1.00  0.00     0.148 A 
ATOM     73  C   UNL     1      -0.571  -0.318  14.632  1.00  0.00     0.002 A 
ATOM     74  C   UNL     1      -0.470   0.626  12.403  1.00  0.00     0.091 A 
ATOM     75  F   UNL     1      -2.085  -0.047  10.781  1.00  0.00    -0.205 F 
ATOM     76  C   UNL     1       0.017   0.550  13.716  1.00  0.00     0.022 A 
BRANCH  74  77
ATOM     77  S   UNL     1       0.423   1.670  11.245  1.00  0.00     0.127 S 
ATOM     78  O   UNL     1      -0.055   3.002  11.614  1.00  0.00    -0.237 OA
ATOM     79  O   UNL     1       1.819   1.399  11.602  1.00  0.00    -0.237 OA
ATOM     80  O   UNL     1       0.045   1.198   9.925  1.00  0.00    -0.744 OA
ENDBRANCH  74  77
ENDBRANCH  46  70
BRANCH  58  81
ATOM     81  C   UNL     1      -8.797  -1.347  15.054  1.00  0.00     0.023 A 
ATOM     82  C   UNL     1      -9.166  -0.009  14.810  1.00  0.00     0.012 A 
ATOM     83  C   UNL     1      -9.229  -1.979  16.237  1.00  0.00     0.148 A 
ATOM     84  C   UNL     1      -9.925   0.698  15.741  1.00  0.00     0.002 A 
ATOM     85  C   UNL     1     -10.025  -1.283  17.139  1.00  0.00     0.091 A 
ATOM     86  F   UNL     1      -8.852  -3.247  16.460  1.00  0.00    -0.205 F 
ATOM     87  C   UNL     1     -10.364   0.058  16.898  1.00  0.00     0.022 A 
BRANCH  85  88
ATOM     88  S   UNL     1     -10.713  -2.054  18.608  1.00  0.00     0.127 S 
ATOM     89  O   UNL     1      -9.893  -1.467  19.666  1.00  0.00    -0.237 OA
ATOM     90  O   UNL     1     -12.101  -1.588  18.583  1.00  0.00    -0.237 OA
ATOM     91  O   UNL     1     -10.557  -3.490  18.417  1.00  0.00    -0.744 OA
ENDBRANCH  85  88
ENDBRANCH  58  81
ENDBRANCH  32  33
ENDBRANCH  24  27
ENDBRANCH  22  23
ENDBRANCH  21  22
ENDBRANCH   1  21
TORSDOF 18
