REMARK SMILES COc1ccc(CCN2C(=O)C[C@@H](C(=O)NCCCCCCNC(=O)c3ccc(-c4c5nc(c(-c6cccc(S(=O)(=O)[O-])c6F)c6ccc([nH]6)c(-c6cccc(S(=O)(=O)[O-])c6F)c6nc(c(-c7cccc(S(=O)(=O)[O-])c7F)c7ccc4[nH]7)C=C6)C=C5)cc3)S/C2=[NH+]\c2ccc(F)cc2)cc1OC
REMARK SMILES IDX 19 1 18 2 17 3 16 4 14 5 15 6 13 8 9 9 10 10 90 11 11 12
REMARK SMILES IDX 12 13 89 14 91 15 8 17 7 18 6 19 3 20 4 21 100 22 5 23 99 24
REMARK SMILES IDX 2 25 1 26 101 27 102 28 92 29 93 30 98 31 94 32 97 33 95 34
REMARK SMILES IDX 96 35 20 36 21 37 22 38 23 39 24 40 25 42 26 43 27 44 88 45
REMARK SMILES IDX 28 46 87 47 29 48 30 49 31 50 81 51 32 52 86 53 80 54 82 55
REMARK SMILES IDX 33 56 85 57 79 58 78 59 34 61 66 62 46 63 65 64 47 65 50 66
REMARK SMILES IDX 64 67 83 68 48 69 49 70 63 72 84 73 51 74 35 75 36 76 44 77
REMARK SMILES IDX 37 78 39 79 45 80 38 81 40 82 41 83 42 84 43 85 67 86 68 87
REMARK SMILES IDX 76 88 69 89 71 90 77 91 70 92 72 93 73 94 74 95 75 96 52 97
REMARK SMILES IDX 53 98 61 99 54 100 56 101 62 102 55 103 57 104 58 105 59 106
REMARK SMILES IDX 60 107
REMARK H PARENT 16 7 91 16 23 41 82 60 50 71
REMARK Flexibility Score: inf
ROOT
ATOM      1  C   UNL     1       0.109   7.245  -3.278  1.00  0.00     0.002 C 
ENDROOT
BRANCH   1   2
ATOM      2  C   UNL     1       0.316   6.858  -1.812  1.00  0.00     0.021 C 
BRANCH   2   3
ATOM      3  C   UNL     1       0.201   8.023  -0.825  1.00  0.00     0.116 C 
BRANCH   3   4
ATOM      4  N   UNL     1      -1.142   8.586  -0.773  1.00  0.00    -0.355 N 
ATOM      5  C   UNL     1      -2.082   8.577   0.219  1.00  0.00     0.234 C 
ATOM      6  O   UNL     1      -3.154   9.149  -0.001  1.00  0.00    -0.274 OA
ATOM      7  H   UNL     1      -1.421   9.052  -1.594  1.00  0.00     0.163 HD
BRANCH   5   8
ATOM      8  C   UNL     1      -1.834   7.901   1.568  1.00  0.00     0.160 C 
ATOM      9  N   UNL     1      -0.021   6.475   3.409  1.00  0.00    -0.191 N 
ATOM     10  C   UNL     1      -0.195   7.846   3.555  1.00  0.00     0.311 C 
ATOM     11  C   UNL     1      -1.038   5.715   2.872  1.00  0.00     0.319 C 
ATOM     12  O   UNL     1       0.231   8.461   4.535  1.00  0.00    -0.247 OA
ATOM     13  C   UNL     1      -0.793   8.620   2.395  1.00  0.00     0.153 C 
ATOM     14  S   UNL     1      -1.444   6.177   1.259  1.00  0.00    -0.024 SA
ATOM     15  N   UNL     1      -1.621   4.783   3.554  1.00  0.00    -0.235 N 
ATOM     16  H   UNL     1      -1.375   4.707   4.504  1.00  0.00     0.313 HD
BRANCH   9  17
ATOM     17  C   UNL     1       1.394   6.032   3.470  1.00  0.00     0.251 C 
BRANCH  17  18
ATOM     18  C   UNL     1       1.814   4.640   4.000  1.00  0.00     0.082 C 
BRANCH  18  19
ATOM     19  C   UNL     1       1.831   3.512   2.989  1.00  0.00    -0.040 A 
ATOM     20  C   UNL     1       1.652   1.500   0.990  1.00  0.00     0.160 A 
ATOM     21  C   UNL     1       0.528   1.931   1.677  1.00  0.00     0.051 A 
ATOM     22  C   UNL     1       2.904   1.995   1.386  1.00  0.00     0.160 A 
ATOM     23  C   UNL     1       0.645   2.855   2.708  1.00  0.00     0.008 A 
ATOM     24  C   UNL     1       2.981   3.037   2.341  1.00  0.00     0.054 A 
BRANCH  20  25
ATOM     25  O   UNL     1       1.565   0.640  -0.071  1.00  0.00    -0.493 OA
ATOM     26  C   UNL     1       0.447  -0.240  -0.086  1.00  0.00     0.278 C 
ENDBRANCH  20  25
BRANCH  22  27
ATOM     27  O   UNL     1       4.119   1.540   0.933  1.00  0.00    -0.493 OA
ATOM     28  C   UNL     1       4.149   0.191   0.459  1.00  0.00     0.278 C 
ENDBRANCH  22  27
ENDBRANCH  18  19
ENDBRANCH  17  18
ENDBRANCH   9  17
BRANCH  15  29
ATOM     29  C   UNL     1      -2.582   3.858   3.063  1.00  0.00     0.125 A 
ATOM     30  C   UNL     1      -3.414   3.237   4.003  1.00  0.00     0.055 A 
ATOM     31  C   UNL     1      -2.594   3.326   1.758  1.00  0.00     0.055 A 
ATOM     32  C   UNL     1      -4.212   2.135   3.657  1.00  0.00     0.043 A 
ATOM     33  C   UNL     1      -3.403   2.246   1.396  1.00  0.00     0.043 A 
ATOM     34  C   UNL     1      -4.195   1.649   2.356  1.00  0.00     0.123 A 
ATOM     35  F   UNL     1      -4.917   0.568   2.034  1.00  0.00    -0.207 F 
ENDBRANCH  15  29
ENDBRANCH   5   8
ENDBRANCH   3   4
ENDBRANCH   2   3
ENDBRANCH   1   2
BRANCH   1  36
ATOM     36  C   UNL     1       0.955   8.428  -3.755  1.00  0.00     0.002 C 
BRANCH  36  37
ATOM     37  C   UNL     1       2.462   8.277  -3.527  1.00  0.00     0.021 C 
BRANCH  37  38
ATOM     38  C   UNL     1       3.091   7.081  -4.230  1.00  0.00     0.116 C 
BRANCH  38  39
ATOM     39  N   UNL     1       2.947   7.168  -5.675  1.00  0.00    -0.352 N 
ATOM     40  C   UNL     1       3.915   7.160  -6.648  1.00  0.00     0.251 C 
ATOM     41  H   UNL     1       2.021   7.244  -6.002  1.00  0.00     0.163 HD
ATOM     42  O   UNL     1       3.629   7.471  -7.798  1.00  0.00    -0.269 OA
BRANCH  40  43
ATOM     43  C   UNL     1       5.303   6.786  -6.299  1.00  0.00     0.039 A 
ATOM     44  C   UNL     1       6.357   7.543  -6.815  1.00  0.00     0.014 A 
ATOM     45  C   UNL     1       5.562   5.689  -5.473  1.00  0.00     0.014 A 
ATOM     46  C   UNL     1       7.671   7.228  -6.461  1.00  0.00     0.010 A 
ATOM     47  C   UNL     1       6.864   5.426  -5.059  1.00  0.00     0.010 A 
ATOM     48  C   UNL     1       7.934   6.185  -5.556  1.00  0.00    -0.014 A 
BRANCH  48  49
ATOM     49  C   UNL     1       9.319   5.884  -5.112  1.00  0.00     0.031 A 
ATOM     50  C   UNL     1       9.940   4.547  -5.414  1.00  0.00     0.074 A 
ATOM     51  C   UNL     1       9.988   6.787  -4.367  1.00  0.00     0.049 A 
ATOM     52  N   UNL     1      11.120   4.093  -5.078  1.00  0.00    -0.248 NA
ATOM     53  C   UNL     1       9.124   3.583  -6.172  1.00  0.00     0.031 C 
ATOM     54  C   UNL     1       9.466   8.089  -3.944  1.00  0.00     0.029 A 
ATOM     55  N   UNL     1      11.242   6.739  -3.812  1.00  0.00    -0.354 N 
ATOM     56  C   UNL     1      11.172   2.784  -5.543  1.00  0.00     0.074 A 
ATOM     57  C   UNL     1       9.896   2.506  -6.164  1.00  0.00     0.031 C 
ATOM     58  C   UNL     1      10.395   8.719  -3.209  1.00  0.00     0.029 A 
ATOM     59  C   UNL     1      11.564   7.855  -3.076  1.00  0.00     0.049 A 
ATOM     60  H   UNL     1      11.854   5.977  -3.931  1.00  0.00     0.167 HD
ATOM     61  C   UNL     1      12.196   1.901  -5.480  1.00  0.00     0.034 A 
ATOM     62  C   UNL     1      12.672   8.147  -2.366  1.00  0.00     0.034 A 
ATOM     63  C   UNL     1      13.479   2.197  -4.900  1.00  0.00     0.049 A 
ATOM     64  C   UNL     1      13.805   7.157  -2.341  1.00  0.00     0.074 A 
ATOM     65  C   UNL     1      14.614   1.406  -4.880  1.00  0.00     0.029 A 
ATOM     66  N   UNL     1      13.792   3.365  -4.224  1.00  0.00    -0.354 N 
ATOM     67  N   UNL     1      13.898   5.992  -2.935  1.00  0.00    -0.248 NA
ATOM     68  C   UNL     1      15.002   7.538  -1.577  1.00  0.00     0.031 C 
ATOM     69  C   UNL     1      15.603   2.081  -4.157  1.00  0.00     0.029 A 
ATOM     70  C   UNL     1      15.097   3.309  -3.764  1.00  0.00     0.049 A 
ATOM     71  H   UNL     1      13.178   4.123  -4.091  1.00  0.00     0.167 HD
ATOM     72  C   UNL     1      15.175   5.521  -2.651  1.00  0.00     0.074 A 
ATOM     73  C   UNL     1      15.826   6.536  -1.850  1.00  0.00     0.031 C 
ATOM     74  C   UNL     1      15.752   4.348  -3.012  1.00  0.00     0.034 A 
BRANCH  61  75
ATOM     75  C   UNL     1      11.992   0.536  -6.085  1.00  0.00     0.023 A 
ATOM     76  C   UNL     1      11.919   0.393  -7.486  1.00  0.00     0.012 A 
ATOM     77  C   UNL     1      11.947  -0.612  -5.270  1.00  0.00     0.148 A 
ATOM     78  C   UNL     1      11.774  -0.867  -8.064  1.00  0.00     0.002 A 
ATOM     79  C   UNL     1      11.851  -1.869  -5.856  1.00  0.00     0.091 A 
ATOM     80  F   UNL     1      11.998  -0.455  -3.940  1.00  0.00    -0.205 F 
ATOM     81  C   UNL     1      11.752  -1.997  -7.251  1.00  0.00     0.022 A 
BRANCH  79  82
ATOM     82  S   UNL     1      11.898  -3.390  -4.903  1.00  0.00     0.127 S 
ATOM     83  O   UNL     1      10.531  -3.883  -5.066  1.00  0.00    -0.237 OA
ATOM     84  O   UNL     1      12.915  -4.166  -5.614  1.00  0.00    -0.237 OA
ATOM     85  O   UNL     1      12.263  -3.006  -3.547  1.00  0.00    -0.744 OA
ENDBRANCH  79  82
ENDBRANCH  61  75
BRANCH  62  86
ATOM     86  C   UNL     1      12.793   9.459  -1.668  1.00  0.00     0.023 A 
ATOM     87  C   UNL     1      13.731  10.403  -2.130  1.00  0.00     0.012 A 
ATOM     88  C   UNL     1      11.989   9.778  -0.557  1.00  0.00     0.148 A 
ATOM     89  C   UNL     1      13.896  11.623  -1.473  1.00  0.00     0.002 A 
ATOM     90  C   UNL     1      12.117  11.018   0.057  1.00  0.00     0.091 A 
ATOM     91  F   UNL     1      11.109   8.863  -0.127  1.00  0.00    -0.205 F 
ATOM     92  C   UNL     1      13.084  11.934  -0.386  1.00  0.00     0.022 A 
BRANCH  90  93
ATOM     93  S   UNL     1      11.027  11.554   1.380  1.00  0.00     0.127 S 
ATOM     94  O   UNL     1      11.927  11.546   2.531  1.00  0.00    -0.237 OA
ATOM     95  O   UNL     1      10.626  12.884   0.919  1.00  0.00    -0.237 OA
ATOM     96  O   UNL     1       9.944  10.581   1.416  1.00  0.00    -0.744 OA
ENDBRANCH  90  93
ENDBRANCH  62  86
BRANCH  74  97
ATOM     97  C   UNL     1      17.179   4.111  -2.590  1.00  0.00     0.023 A 
ATOM     98  C   UNL     1      17.483   3.863  -1.237  1.00  0.00     0.012 A 
ATOM     99  C   UNL     1      18.209   4.064  -3.550  1.00  0.00     0.148 A 
ATOM    100  C   UNL     1      18.797   3.611  -0.841  1.00  0.00     0.002 A 
ATOM    101  C   UNL     1      19.506   3.757  -3.156  1.00  0.00     0.091 A 
ATOM    102  F   UNL     1      17.902   4.319  -4.830  1.00  0.00    -0.205 F 
ATOM    103  C   UNL     1      19.804   3.545  -1.801  1.00  0.00     0.022 A 
BRANCH 101 104
ATOM    104  S   UNL     1      20.846   3.550  -4.333  1.00  0.00     0.127 S 
ATOM    105  O   UNL     1      21.659   4.737  -4.071  1.00  0.00    -0.237 OA
ATOM    106  O   UNL     1      21.449   2.290  -3.898  1.00  0.00    -0.237 OA
ATOM    107  O   UNL     1      20.224   3.500  -5.649  1.00  0.00    -0.744 OA
ENDBRANCH 101 104
ENDBRANCH  74  97
ENDBRANCH  48  49
ENDBRANCH  40  43
ENDBRANCH  38  39
ENDBRANCH  37  38
ENDBRANCH  36  37
ENDBRANCH   1  36
TORSDOF 22
