REMARK SMILES CC[C@@]1(CC(=O)NCCCCCCNC(=O)c2ccc(-c3c4nc(c(-c5cccc(S(=O)(=O)[O-])c5F)c5ccc([nH]5)c(-c5cccc(S(=O)(=O)[O-])c5F)c5nc(c(-c6cccc(S(=O)(=O)[O-])c6F)c6ccc3[nH]6)C=C5)C=C4)cc2)OC[C@H](Cc2ccccc2)c2c1[nH]c1ccccc21
REMARK SMILES IDX 10 1 9 2 8 3 7 4 5 5 6 6 4 8 3 9 80 10 91 11 81 12 90 13
REMARK SMILES IDX 92 14 82 15 98 16 93 17 97 19 94 20 96 21 95 22 2 23 1 24
REMARK SMILES IDX 83 25 84 26 85 27 89 28 86 29 88 30 87 31 11 32 12 33 13 34
REMARK SMILES IDX 14 35 15 36 16 38 17 39 18 40 79 41 19 42 78 43 20 44 21 45
REMARK SMILES IDX 22 46 72 47 23 48 77 49 71 50 73 51 24 52 76 53 70 54 69 55
REMARK SMILES IDX 25 57 57 58 37 59 56 60 38 61 41 62 55 63 74 64 39 65 40 66
REMARK SMILES IDX 54 68 75 69 42 70 26 71 27 72 35 73 28 74 30 75 36 76 29 77
REMARK SMILES IDX 31 78 32 79 33 80 34 81 58 82 59 83 67 84 60 85 62 86 68 87
REMARK SMILES IDX 61 88 63 89 64 90 65 91 66 92 43 93 44 94 52 95 45 96 47 97
REMARK SMILES IDX 53 98 46 99 48 100 49 101 50 102 51 103
REMARK H PARENT 7 7 92 18 14 37 73 56 41 67
REMARK Flexibility Score: inf
ROOT
ATOM      1  C   UNL     1      -3.960   1.330  -2.968  1.00  0.00     0.002 C 
ENDROOT
BRANCH   1   2
ATOM      2  C   UNL     1      -2.750   2.107  -2.457  1.00  0.00     0.021 C 
BRANCH   2   3
ATOM      3  C   UNL     1      -2.439   1.879  -0.983  1.00  0.00     0.116 C 
BRANCH   3   4
ATOM      4  N   UNL     1      -1.736   0.620  -0.817  1.00  0.00    -0.356 N 
ATOM      5  C   UNL     1      -0.413   0.386  -0.576  1.00  0.00     0.223 C 
ATOM      6  O   UNL     1       0.004  -0.770  -0.646  1.00  0.00    -0.275 OA
ATOM      7  H   UNL     1      -2.297  -0.186  -0.890  1.00  0.00     0.163 HD
BRANCH   5   8
ATOM      8  C   UNL     1       0.474   1.525  -0.139  1.00  0.00     0.142 C 
BRANCH   8   9
ATOM      9  C   UNL     1       1.373   2.192  -1.206  1.00  0.00     0.117 C 
ATOM     10  O   UNL     1       2.511   1.386  -1.575  1.00  0.00    -0.368 OA
ATOM     11  C   UNL     1       1.937   3.452  -0.589  1.00  0.00     0.052 A 
ATOM     12  C   UNL     1       3.505   1.189  -0.571  1.00  0.00     0.170 C 
ATOM     13  C   UNL     1       3.213   3.629  -0.100  1.00  0.00    -0.011 A 
ATOM     14  N   UNL     1       1.244   4.620  -0.409  1.00  0.00    -0.356 N 
ATOM     15  C   UNL     1       4.204   2.502  -0.115  1.00  0.00     0.052 C 
ATOM     16  C   UNL     1       3.341   5.003   0.258  1.00  0.00     0.003 A 
ATOM     17  C   UNL     1       2.085   5.590   0.083  1.00  0.00     0.046 A 
ATOM     18  H   UNL     1       0.287   4.745  -0.603  1.00  0.00     0.166 HD
ATOM     19  C   UNL     1       4.399   5.820   0.704  1.00  0.00     0.010 A 
ATOM     20  C   UNL     1       1.825   6.936   0.365  1.00  0.00     0.026 A 
ATOM     21  C   UNL     1       4.161   7.173   0.974  1.00  0.00     0.001 A 
ATOM     22  C   UNL     1       2.890   7.719   0.815  1.00  0.00     0.002 A 
BRANCH   9  23
ATOM     23  C   UNL     1       0.707   2.568  -2.550  1.00  0.00     0.039 C 
ATOM     24  C   UNL     1       0.630   1.442  -3.579  1.00  0.00     0.007 C 
ENDBRANCH   9  23
BRANCH  15  25
ATOM     25  C   UNL     1       4.872   2.278   1.257  1.00  0.00     0.046 C 
BRANCH  25  26
ATOM     26  C   UNL     1       5.825   1.105   1.244  1.00  0.00    -0.047 A 
ATOM     27  C   UNL     1       6.969   1.135   0.434  1.00  0.00     0.004 A 
ATOM     28  C   UNL     1       5.526  -0.061   1.962  1.00  0.00     0.004 A 
ATOM     29  C   UNL     1       7.777   0.006   0.315  1.00  0.00     0.000 A 
ATOM     30  C   UNL     1       6.340  -1.188   1.845  1.00  0.00     0.000 A 
ATOM     31  C   UNL     1       7.459  -1.157   1.015  1.00  0.00     0.000 A 
ENDBRANCH  25  26
ENDBRANCH  15  25
ENDBRANCH   8   9
ENDBRANCH   5   8
ENDBRANCH   3   4
ENDBRANCH   2   3
ENDBRANCH   1   2
BRANCH   1  32
ATOM     32  C   UNL     1      -5.301   1.904  -2.521  1.00  0.00     0.002 C 
BRANCH  32  33
ATOM     33  C   UNL     1      -5.489   3.397  -2.810  1.00  0.00     0.021 C 
BRANCH  33  34
ATOM     34  C   UNL     1      -5.114   3.829  -4.232  1.00  0.00     0.116 C 
BRANCH  34  35
ATOM     35  N   UNL     1      -5.862   3.167  -5.278  1.00  0.00    -0.352 N 
ATOM     36  C   UNL     1      -7.130   3.307  -5.770  1.00  0.00     0.251 C 
ATOM     37  H   UNL     1      -5.347   2.463  -5.734  1.00  0.00     0.163 HD
ATOM     38  O   UNL     1      -7.421   2.607  -6.742  1.00  0.00    -0.269 OA
BRANCH  36  39
ATOM     39  C   UNL     1      -8.168   4.178  -5.160  1.00  0.00     0.039 A 
ATOM     40  C   UNL     1      -7.917   5.184  -4.227  1.00  0.00     0.014 A 
ATOM     41  C   UNL     1      -9.498   3.920  -5.532  1.00  0.00     0.014 A 
ATOM     42  C   UNL     1      -8.961   5.804  -3.561  1.00  0.00     0.010 A 
ATOM     43  C   UNL     1     -10.550   4.582  -4.912  1.00  0.00     0.010 A 
ATOM     44  C   UNL     1     -10.276   5.477  -3.881  1.00  0.00    -0.014 A 
BRANCH  44  45
ATOM     45  C   UNL     1     -11.322   6.163  -3.136  1.00  0.00     0.031 A 
ATOM     46  C   UNL     1     -11.311   7.651  -3.232  1.00  0.00     0.074 A 
ATOM     47  C   UNL     1     -12.284   5.510  -2.460  1.00  0.00     0.049 A 
ATOM     48  N   UNL     1     -11.148   8.513  -2.278  1.00  0.00    -0.248 NA
ATOM     49  C   UNL     1     -11.388   8.245  -4.574  1.00  0.00     0.031 C 
ATOM     50  C   UNL     1     -12.590   4.078  -2.480  1.00  0.00     0.029 A 
ATOM     51  N   UNL     1     -13.296   6.036  -1.717  1.00  0.00    -0.354 N 
ATOM     52  C   UNL     1     -11.299   9.765  -2.872  1.00  0.00     0.074 A 
ATOM     53  C   UNL     1     -11.312   9.547  -4.296  1.00  0.00     0.031 C 
ATOM     54  C   UNL     1     -13.848   3.895  -2.022  1.00  0.00     0.029 A 
ATOM     55  C   UNL     1     -14.369   5.168  -1.559  1.00  0.00     0.049 A 
ATOM     56  H   UNL     1     -13.270   6.941  -1.329  1.00  0.00     0.167 HD
ATOM     57  C   UNL     1     -11.597  10.887  -2.162  1.00  0.00     0.034 A 
ATOM     58  C   UNL     1     -15.623   5.520  -1.186  1.00  0.00     0.034 A 
ATOM     59  C   UNL     1     -11.387  10.731  -0.753  1.00  0.00     0.049 A 
ATOM     60  C   UNL     1     -15.513   6.812  -0.465  1.00  0.00     0.074 A 
ATOM     61  C   UNL     1     -10.302  10.446   0.050  1.00  0.00     0.029 A 
ATOM     62  N   UNL     1     -12.497  10.538   0.033  1.00  0.00    -0.354 N 
ATOM     63  N   UNL     1     -14.902   6.956   0.679  1.00  0.00    -0.248 NA
ATOM     64  C   UNL     1     -15.750   8.040  -1.206  1.00  0.00     0.031 C 
ATOM     65  C   UNL     1     -10.826   9.632   1.096  1.00  0.00     0.029 A 
ATOM     66  C   UNL     1     -12.199   9.502   0.877  1.00  0.00     0.049 A 
ATOM     67  H   UNL     1     -13.340  11.044  -0.004  1.00  0.00     0.167 HD
ATOM     68  C   UNL     1     -14.304   8.207   0.601  1.00  0.00     0.074 A 
ATOM     69  C   UNL     1     -14.953   8.868  -0.527  1.00  0.00     0.031 C 
ATOM     70  C   UNL     1     -13.146   8.483   1.271  1.00  0.00     0.034 A 
BRANCH  57  71
ATOM     71  C   UNL     1     -12.379  12.045  -2.715  1.00  0.00     0.023 A 
ATOM     72  C   UNL     1     -12.314  13.286  -2.047  1.00  0.00     0.012 A 
ATOM     73  C   UNL     1     -13.373  11.890  -3.706  1.00  0.00     0.148 A 
ATOM     74  C   UNL     1     -13.203  14.324  -2.352  1.00  0.00     0.002 A 
ATOM     75  C   UNL     1     -14.203  12.947  -4.057  1.00  0.00     0.091 A 
ATOM     76  F   UNL     1     -13.607  10.677  -4.222  1.00  0.00    -0.205 F 
ATOM     77  C   UNL     1     -14.138  14.160  -3.369  1.00  0.00     0.022 A 
BRANCH  75  78
ATOM     78  S   UNL     1     -15.388  12.786  -5.396  1.00  0.00     0.127 S 
ATOM     79  O   UNL     1     -16.635  12.578  -4.656  1.00  0.00    -0.237 OA
ATOM     80  O   UNL     1     -15.274  14.090  -6.057  1.00  0.00    -0.237 OA
ATOM     81  O   UNL     1     -14.914  11.672  -6.192  1.00  0.00    -0.744 OA
ENDBRANCH  75  78
ENDBRANCH  57  71
BRANCH  58  82
ATOM     82  C   UNL     1     -16.921   4.981  -1.666  1.00  0.00     0.023 A 
ATOM     83  C   UNL     1     -18.103   5.341  -0.988  1.00  0.00     0.012 A 
ATOM     84  C   UNL     1     -17.050   4.348  -2.924  1.00  0.00     0.148 A 
ATOM     85  C   UNL     1     -19.363   5.121  -1.560  1.00  0.00     0.002 A 
ATOM     86  C   UNL     1     -18.305   4.110  -3.478  1.00  0.00     0.091 A 
ATOM     87  F   UNL     1     -15.950   4.068  -3.635  1.00  0.00    -0.205 F 
ATOM     88  C   UNL     1     -19.464   4.511  -2.807  1.00  0.00     0.022 A 
BRANCH  86  89
ATOM     89  S   UNL     1     -18.491   3.316  -5.082  1.00  0.00     0.127 S 
ATOM     90  O   UNL     1     -19.649   2.447  -4.865  1.00  0.00    -0.237 OA
ATOM     91  O   UNL     1     -18.736   4.456  -5.960  1.00  0.00    -0.237 OA
ATOM     92  O   UNL     1     -17.243   2.594  -5.305  1.00  0.00    -0.744 OA
ENDBRANCH  86  89
ENDBRANCH  58  82
BRANCH  70  93
ATOM     93  C   UNL     1     -12.644   7.481   2.278  1.00  0.00     0.023 A 
ATOM     94  C   UNL     1     -12.183   6.208   1.881  1.00  0.00     0.012 A 
ATOM     95  C   UNL     1     -12.418   7.909   3.597  1.00  0.00     0.148 A 
ATOM     96  C   UNL     1     -11.517   5.376   2.783  1.00  0.00     0.002 A 
ATOM     97  C   UNL     1     -11.719   7.094   4.480  1.00  0.00     0.091 A 
ATOM     98  F   UNL     1     -12.845   9.132   3.947  1.00  0.00    -0.205 F 
ATOM     99  C   UNL     1     -11.272   5.824   4.078  1.00  0.00     0.022 A 
BRANCH  97 100
ATOM    100  S   UNL     1     -11.252   7.649   6.122  1.00  0.00     0.127 S 
ATOM    101  O   UNL     1     -12.051   6.775   6.979  1.00  0.00    -0.237 OA
ATOM    102  O   UNL     1      -9.814   7.378   6.142  1.00  0.00    -0.237 OA
ATOM    103  O   UNL     1     -11.595   9.065   6.185  1.00  0.00    -0.744 OA
ENDBRANCH  97 100
ENDBRANCH  70  93
ENDBRANCH  44  45
ENDBRANCH  36  39
ENDBRANCH  34  35
ENDBRANCH  33  34
ENDBRANCH  32  33
ENDBRANCH   1  32
TORSDOF 20
