REMARK SMILES [NH3+]C1(C(=O)N2[C@@H](C(=O)NCCCCCCNC(=O)c3ccc(-c4c5nc(c(-c6cccc(S(=O)(=O)[O-])c6F)c6ccc([nH]6)c(-c6cccc(S(=O)(=O)[O-])c6F)c6nc(c(-c7cccc(S(=O)(=O)[O-])c7F)c7ccc4[nH]7)C=C6)C=C5)cc3)CC[C@@H]3CCCC[C@@H]32)CC1
REMARK SMILES IDX 12 1 11 2 10 3 9 4 7 5 8 6 6 8 5 9 89 10 82 11 84 12 88 13
REMARK SMILES IDX 83 14 85 15 87 16 86 17 3 18 4 19 2 20 90 21 91 22 1 23
REMARK SMILES IDX 13 27 14 28 15 29 16 30 17 31 18 33 19 34 20 35 81 36 21 37
REMARK SMILES IDX 80 38 22 39 23 40 24 41 74 42 25 43 79 44 73 45 75 46 26 47
REMARK SMILES IDX 78 48 72 49 71 50 27 52 59 53 39 54 58 55 40 56 43 57 57 58
REMARK SMILES IDX 76 59 41 60 42 61 56 63 77 64 44 65 28 66 29 67 37 68 30 69
REMARK SMILES IDX 32 70 38 71 31 72 33 73 34 74 35 75 36 76 60 77 61 78 69 79
REMARK SMILES IDX 62 80 64 81 70 82 63 83 65 84 66 85 67 86 68 87 45 88 46 89
REMARK SMILES IDX 54 90 47 91 49 92 55 93 48 94 50 95 51 96 52 97 53 98
REMARK H PARENT 9 7 1 24 1 25 1 26 16 32 75 51 43 62
REMARK Flexibility Score: inf
ROOT
ATOM      1  C   UNL     1       6.274  -1.208   2.244  1.00  0.00     0.002 C 
ENDROOT
BRANCH   1   2
ATOM      2  C   UNL     1       5.287  -0.591   3.247  1.00  0.00     0.021 C 
BRANCH   2   3
ATOM      3  C   UNL     1       3.865  -0.464   2.703  1.00  0.00     0.116 C 
BRANCH   3   4
ATOM      4  N   UNL     1       3.337  -1.782   2.427  1.00  0.00    -0.354 N 
ATOM      5  C   UNL     1       2.359  -2.461   3.074  1.00  0.00     0.242 C 
ATOM      6  O   UNL     1       2.363  -3.694   2.987  1.00  0.00    -0.273 OA
ATOM      7  H   UNL     1       3.745  -2.251   1.664  1.00  0.00     0.163 HD
BRANCH   5   8
ATOM      8  C   UNL     1       1.351  -1.750   3.995  1.00  0.00     0.175 C 
ATOM      9  N   UNL     1       0.750  -0.469   3.536  1.00  0.00    -0.322 N 
ATOM     10  C   UNL     1       0.002   0.294   4.561  1.00  0.00     0.089 C 
ATOM     11  C   UNL     1       2.081  -1.595   5.358  1.00  0.00     0.036 C 
ATOM     12  C   UNL     1       0.842   0.543   5.807  1.00  0.00     0.012 C 
ATOM     13  C   UNL     1      -1.345  -0.399   4.873  1.00  0.00     0.025 C 
ATOM     14  C   UNL     1       1.323  -0.783   6.399  1.00  0.00     0.008 C 
ATOM     15  C   UNL     1       0.019   1.381   6.788  1.00  0.00     0.006 C 
ATOM     16  C   UNL     1      -2.058   0.009   6.167  1.00  0.00     0.002 C 
ATOM     17  C   UNL     1      -1.221   0.647   7.274  1.00  0.00     0.000 C 
BRANCH   9  18
ATOM     18  C   UNL     1       0.418  -0.104   2.220  1.00  0.00     0.284 C 
ATOM     19  O   UNL     1       0.025   1.036   1.960  1.00  0.00    -0.268 OA
BRANCH  18  20
ATOM     20  C   UNL     1       0.508  -1.042   1.031  1.00  0.00     0.174 C 
ATOM     21  C   UNL     1      -0.858  -1.570   0.592  1.00  0.00     0.086 C 
ATOM     22  C   UNL     1       0.217  -2.518   0.992  1.00  0.00     0.086 C 
BRANCH  20  23
ATOM     23  N   UNL     1       1.326  -0.467  -0.080  1.00  0.00    -0.345 N 
ATOM     24  H   UNL     1       1.446   0.534   0.070  1.00  0.00     0.345 HD
ATOM     25  H   UNL     1       0.850  -0.624  -0.968  1.00  0.00     0.345 HD
ATOM     26  H   UNL     1       2.239  -0.921  -0.098  1.00  0.00     0.345 HD
ENDBRANCH  20  23
ENDBRANCH  18  20
ENDBRANCH   9  18
ENDBRANCH   5   8
ENDBRANCH   3   4
ENDBRANCH   2   3
ENDBRANCH   1   2
BRANCH   1  27
ATOM     27  C   UNL     1       6.327  -0.497   0.888  1.00  0.00     0.002 C 
BRANCH  27  28
ATOM     28  C   UNL     1       6.608   1.004   0.972  1.00  0.00     0.021 C 
BRANCH  28  29
ATOM     29  C   UNL     1       7.891   1.357   1.714  1.00  0.00     0.116 C 
BRANCH  29  30
ATOM     30  N   UNL     1       9.060   0.782   1.069  1.00  0.00    -0.352 N 
ATOM     31  C   UNL     1      10.215   1.402   0.683  1.00  0.00     0.251 C 
ATOM     32  H   UNL     1       9.014  -0.184   0.886  1.00  0.00     0.163 HD
ATOM     33  O   UNL     1      11.016   0.809  -0.049  1.00  0.00    -0.269 OA
BRANCH  31  34
ATOM     34  C   UNL     1      10.501   2.777   1.134  1.00  0.00     0.039 A 
ATOM     35  C   UNL     1      11.024   3.695   0.221  1.00  0.00     0.014 A 
ATOM     36  C   UNL     1      10.271   3.155   2.461  1.00  0.00     0.014 A 
ATOM     37  C   UNL     1      11.294   5.000   0.634  1.00  0.00     0.010 A 
ATOM     38  C   UNL     1      10.465   4.476   2.849  1.00  0.00     0.010 A 
ATOM     39  C   UNL     1      11.005   5.404   1.948  1.00  0.00    -0.014 A 
BRANCH  39  40
ATOM     40  C   UNL     1      11.296   6.787   2.400  1.00  0.00     0.031 A 
ATOM     41  C   UNL     1      12.316   7.029   3.481  1.00  0.00     0.074 A 
ATOM     42  C   UNL     1      10.606   7.819   1.878  1.00  0.00     0.049 A 
ATOM     43  N   UNL     1      12.709   8.160   4.005  1.00  0.00    -0.248 NA
ATOM     44  C   UNL     1      12.961   5.842   4.069  1.00  0.00     0.031 C 
ATOM     45  C   UNL     1       9.537   7.705   0.885  1.00  0.00     0.029 A 
ATOM     46  N   UNL     1      10.691   9.166   2.122  1.00  0.00    -0.354 N 
ATOM     47  C   UNL     1      13.618   7.822   5.001  1.00  0.00     0.074 A 
ATOM     48  C   UNL     1      13.684   6.379   5.040  1.00  0.00     0.031 C 
ATOM     49  C   UNL     1       9.078   8.932   0.591  1.00  0.00     0.029 A 
ATOM     50  C   UNL     1       9.803   9.916   1.389  1.00  0.00     0.049 A 
ATOM     51  H   UNL     1      11.329   9.558   2.762  1.00  0.00     0.167 HD
ATOM     52  C   UNL     1      14.360   8.638   5.788  1.00  0.00     0.034 A 
ATOM     53  C   UNL     1       9.602  11.248   1.359  1.00  0.00     0.034 A 
ATOM     54  C   UNL     1      14.321  10.073   5.716  1.00  0.00     0.049 A 
ATOM     55  C   UNL     1      10.472  12.136   2.206  1.00  0.00     0.074 A 
ATOM     56  C   UNL     1      15.087  10.992   6.411  1.00  0.00     0.029 A 
ATOM     57  N   UNL     1      13.467  10.800   4.900  1.00  0.00    -0.354 N 
ATOM     58  N   UNL     1      11.438  11.805   3.029  1.00  0.00    -0.248 NA
ATOM     59  C   UNL     1      10.256  13.585   2.087  1.00  0.00     0.031 C 
ATOM     60  C   UNL     1      14.681  12.276   6.030  1.00  0.00     0.029 A 
ATOM     61  C   UNL     1      13.683  12.156   5.076  1.00  0.00     0.049 A 
ATOM     62  H   UNL     1      12.804  10.409   4.286  1.00  0.00     0.167 HD
ATOM     63  C   UNL     1      11.972  13.001   3.493  1.00  0.00     0.074 A 
ATOM     64  C   UNL     1      11.232  14.066   2.844  1.00  0.00     0.031 C 
ATOM     65  C   UNL     1      12.975  13.202   4.383  1.00  0.00     0.034 A 
BRANCH  52  66
ATOM     66  C   UNL     1      15.316   7.989   6.756  1.00  0.00     0.023 A 
ATOM     67  C   UNL     1      16.457   7.321   6.265  1.00  0.00     0.012 A 
ATOM     68  C   UNL     1      15.109   8.066   8.147  1.00  0.00     0.148 A 
ATOM     69  C   UNL     1      17.351   6.702   7.137  1.00  0.00     0.002 A 
ATOM     70  C   UNL     1      16.031   7.487   9.013  1.00  0.00     0.091 A 
ATOM     71  F   UNL     1      14.008   8.684   8.598  1.00  0.00    -0.205 F 
ATOM     72  C   UNL     1      17.144   6.793   8.510  1.00  0.00     0.022 A 
BRANCH  70  73
ATOM     73  S   UNL     1      15.895   7.620  10.799  1.00  0.00     0.127 S 
ATOM     74  O   UNL     1      15.488   6.263  11.165  1.00  0.00    -0.237 OA
ATOM     75  O   UNL     1      17.261   7.972  11.188  1.00  0.00    -0.237 OA
ATOM     76  O   UNL     1      14.907   8.659  11.049  1.00  0.00    -0.744 OA
ENDBRANCH  70  73
ENDBRANCH  52  66
BRANCH  53  77
ATOM     77  C   UNL     1       8.595  11.825   0.425  1.00  0.00     0.023 A 
ATOM     78  C   UNL     1       9.034  12.550  -0.700  1.00  0.00     0.012 A 
ATOM     79  C   UNL     1       7.214  11.633   0.623  1.00  0.00     0.148 A 
ATOM     80  C   UNL     1       8.116  13.101  -1.595  1.00  0.00     0.002 A 
ATOM     81  C   UNL     1       6.306  12.139  -0.300  1.00  0.00     0.091 A 
ATOM     82  F   UNL     1       6.818  10.946   1.704  1.00  0.00    -0.205 F 
ATOM     83  C   UNL     1       6.754  12.888  -1.400  1.00  0.00     0.022 A 
BRANCH  81  84
ATOM     84  S   UNL     1       4.544  11.807  -0.201  1.00  0.00     0.127 S 
ATOM     85  O   UNL     1       4.010  13.128   0.124  1.00  0.00    -0.237 OA
ATOM     86  O   UNL     1       4.250  11.340  -1.557  1.00  0.00    -0.237 OA
ATOM     87  O   UNL     1       4.391  10.793   0.831  1.00  0.00    -0.744 OA
ENDBRANCH  81  84
ENDBRANCH  53  77
BRANCH  65  88
ATOM     88  C   UNL     1      13.370  14.626   4.679  1.00  0.00     0.023 A 
ATOM     89  C   UNL     1      12.518  15.450   5.440  1.00  0.00     0.012 A 
ATOM     90  C   UNL     1      14.618  15.125   4.256  1.00  0.00     0.148 A 
ATOM     91  C   UNL     1      12.885  16.760   5.744  1.00  0.00     0.002 A 
ATOM     92  C   UNL     1      14.999  16.415   4.607  1.00  0.00     0.091 A 
ATOM     93  F   UNL     1      15.407  14.334   3.515  1.00  0.00    -0.205 F 
ATOM     94  C   UNL     1      14.129  17.238   5.338  1.00  0.00     0.022 A 
BRANCH  92  95
ATOM     95  S   UNL     1      16.623  17.075   4.212  1.00  0.00     0.127 S 
ATOM     96  O   UNL     1      16.314  17.989   3.114  1.00  0.00    -0.237 OA
ATOM     97  O   UNL     1      17.005  17.732   5.463  1.00  0.00    -0.237 OA
ATOM     98  O   UNL     1      17.446  15.925   3.861  1.00  0.00    -0.744 OA
ENDBRANCH  92  95
ENDBRANCH  65  88
ENDBRANCH  39  40
ENDBRANCH  31  34
ENDBRANCH  29  30
ENDBRANCH  28  29
ENDBRANCH  27  28
ENDBRANCH   1  27
TORSDOF 19
