REMARK SMILES C=CCN(CC(=O)NCCCCCCNC(=O)c1ccc(-c2c3nc(c(-c4cccc(S(=O)(=O)[O-])c4F)c4ccc([nH]4)c(-c4cccc(S(=O)(=O)[O-])c4F)c4nc(c(-c5cccc(S(=O)(=O)[O-])c5F)c5ccc2[nH]5)C=C4)C=C3)cc1)C(=O)c1cn(C2C[NH2+]C2)nn1
REMARK SMILES IDX 11 1 10 2 9 3 8 4 6 5 7 6 5 8 4 9 3 10 2 11 1 12 81 13 82 14
REMARK SMILES IDX 83 15 84 16 91 17 85 18 90 19 86 20 87 21 89 22 88 23 12 26
REMARK SMILES IDX 13 27 14 28 15 29 16 30 17 32 18 33 19 34 80 35 20 36 79 37
REMARK SMILES IDX 21 38 22 39 23 40 73 41 24 42 78 43 72 44 74 45 25 46 77 47
REMARK SMILES IDX 71 48 70 49 26 51 58 52 38 53 57 54 39 55 42 56 56 57 75 58
REMARK SMILES IDX 40 59 41 60 55 62 76 63 43 64 27 65 28 66 36 67 29 68 31 69
REMARK SMILES IDX 37 70 30 71 32 72 33 73 34 74 35 75 59 76 60 77 68 78 61 79
REMARK SMILES IDX 63 80 69 81 62 82 64 83 65 84 66 85 67 86 44 87 45 88 53 89
REMARK SMILES IDX 46 90 48 91 54 92 47 93 49 94 50 95 51 96 52 97
REMARK H PARENT 8 7 88 24 88 25 15 31 74 50 42 61
REMARK Flexibility Score: inf
ROOT
ATOM      1  C   UNL     1      -5.764   1.425  -0.391  1.00  0.00     0.002 C 
ENDROOT
BRANCH   1   2
ATOM      2  C   UNL     1      -4.414   0.701  -0.307  1.00  0.00     0.021 C 
BRANCH   2   3
ATOM      3  C   UNL     1      -4.442  -0.774  -0.706  1.00  0.00     0.116 C 
BRANCH   3   4
ATOM      4  N   UNL     1      -4.651  -0.981  -2.124  1.00  0.00    -0.355 N 
ATOM      5  C   UNL     1      -3.767  -1.343  -3.097  1.00  0.00     0.239 C 
ATOM      6  O   UNL     1      -4.241  -1.725  -4.173  1.00  0.00    -0.273 OA
ATOM      7  H   UNL     1      -5.575  -0.839  -2.433  1.00  0.00     0.163 HD
BRANCH   5   8
ATOM      8  C   UNL     1      -2.246  -1.401  -2.858  1.00  0.00     0.220 C 
BRANCH   8   9
ATOM      9  N   UNL     1      -1.656  -0.250  -2.163  1.00  0.00    -0.324 N 
BRANCH   9  10
ATOM     10  C   UNL     1      -1.029  -0.474  -0.868  1.00  0.00     0.147 C 
BRANCH  10  11
ATOM     11  C   UNL     1       0.447  -0.672  -1.039  1.00  0.00    -0.014 C 
ATOM     12  C   UNL     1       1.365   0.022  -0.353  1.00  0.00     0.006 C 
ENDBRANCH  10  11
ENDBRANCH   9  10
BRANCH   9  13
ATOM     13  C   UNL     1      -1.521   1.014  -2.751  1.00  0.00     0.276 C 
ATOM     14  O   UNL     1      -1.061   1.982  -2.138  1.00  0.00    -0.267 OA
BRANCH  13  15
ATOM     15  C   UNL     1      -1.961   1.167  -4.127  1.00  0.00     0.170 A 
ATOM     16  C   UNL     1      -3.243   1.381  -4.590  1.00  0.00     0.145 A 
ATOM     17  N   UNL     1      -1.102   1.124  -5.197  1.00  0.00    -0.125 NA
ATOM     18  N   UNL     1      -3.107   1.405  -5.950  1.00  0.00    -0.237 N 
ATOM     19  N   UNL     1      -1.814   1.277  -6.306  1.00  0.00    -0.066 NA
BRANCH  18  20
ATOM     20  C   UNL     1      -4.133   1.518  -6.942  1.00  0.00     0.218 C 
ATOM     21  C   UNL     1      -5.240   0.447  -6.795  1.00  0.00     0.294 C 
ATOM     22  C   UNL     1      -5.276   2.499  -6.603  1.00  0.00     0.294 C 
ATOM     23  N   UNL     1      -6.242   1.495  -7.110  1.00  0.00    -0.342 N 
ATOM     24  H   UNL     1      -7.106   1.429  -6.572  1.00  0.00     0.346 HD
ATOM     25  H   UNL     1      -6.654   1.575  -8.040  1.00  0.00     0.346 HD
ENDBRANCH  18  20
ENDBRANCH  13  15
ENDBRANCH   9  13
ENDBRANCH   8   9
ENDBRANCH   5   8
ENDBRANCH   3   4
ENDBRANCH   2   3
ENDBRANCH   1   2
BRANCH   1  26
ATOM     26  C   UNL     1      -6.916   0.794   0.398  1.00  0.00     0.002 C 
BRANCH  26  27
ATOM     27  C   UNL     1      -6.634   0.490   1.873  1.00  0.00     0.021 C 
BRANCH  27  28
ATOM     28  C   UNL     1      -6.279   1.696   2.739  1.00  0.00     0.116 C 
BRANCH  28  29
ATOM     29  N   UNL     1      -7.385   2.631   2.868  1.00  0.00    -0.352 N 
ATOM     30  C   UNL     1      -7.952   3.171   3.997  1.00  0.00     0.251 C 
ATOM     31  H   UNL     1      -7.789   2.920   2.018  1.00  0.00     0.163 HD
ATOM     32  O   UNL     1      -8.993   3.817   3.899  1.00  0.00    -0.269 OA
BRANCH  30  33
ATOM     33  C   UNL     1      -7.335   2.969   5.330  1.00  0.00     0.039 A 
ATOM     34  C   UNL     1      -8.166   2.682   6.418  1.00  0.00     0.014 A 
ATOM     35  C   UNL     1      -5.957   3.099   5.524  1.00  0.00     0.014 A 
ATOM     36  C   UNL     1      -7.612   2.472   7.686  1.00  0.00     0.010 A 
ATOM     37  C   UNL     1      -5.400   2.834   6.776  1.00  0.00     0.010 A 
ATOM     38  C   UNL     1      -6.221   2.523   7.870  1.00  0.00    -0.014 A 
BRANCH  38  39
ATOM     39  C   UNL     1      -5.610   2.241   9.196  1.00  0.00     0.031 A 
ATOM     40  C   UNL     1      -4.885   3.324   9.948  1.00  0.00     0.074 A 
ATOM     41  C   UNL     1      -5.635   0.986   9.686  1.00  0.00     0.049 A 
ATOM     42  N   UNL     1      -4.251   3.250  11.091  1.00  0.00    -0.248 NA
ATOM     43  C   UNL     1      -4.845   4.657   9.326  1.00  0.00     0.031 C 
ATOM     44  C   UNL     1      -6.237  -0.170   9.019  1.00  0.00     0.029 A 
ATOM     45  N   UNL     1      -5.118   0.467  10.848  1.00  0.00    -0.354 N 
ATOM     46  C   UNL     1      -3.711   4.512  11.309  1.00  0.00     0.074 A 
ATOM     47  C   UNL     1      -4.069   5.326  10.167  1.00  0.00     0.031 C 
ATOM     48  C   UNL     1      -6.056  -1.261   9.781  1.00  0.00     0.029 A 
ATOM     49  C   UNL     1      -5.312  -0.889  10.981  1.00  0.00     0.049 A 
ATOM     50  H   UNL     1      -4.653   1.013  11.521  1.00  0.00     0.167 HD
ATOM     51  C   UNL     1      -3.008   4.963  12.375  1.00  0.00     0.034 A 
ATOM     52  C   UNL     1      -4.937  -1.736  11.960  1.00  0.00     0.034 A 
ATOM     53  C   UNL     1      -2.702   4.172  13.537  1.00  0.00     0.049 A 
ATOM     54  C   UNL     1      -4.213  -1.195  13.163  1.00  0.00     0.074 A 
ATOM     55  C   UNL     1      -2.073   4.566  14.705  1.00  0.00     0.029 A 
ATOM     56  N   UNL     1      -3.007   2.828  13.681  1.00  0.00    -0.354 N 
ATOM     57  N   UNL     1      -3.855   0.039  13.423  1.00  0.00    -0.248 NA
ATOM     58  C   UNL     1      -3.878  -2.155  14.225  1.00  0.00     0.031 C 
ATOM     59  C   UNL     1      -1.997   3.457  15.556  1.00  0.00     0.029 A 
ATOM     60  C   UNL     1      -2.581   2.375  14.918  1.00  0.00     0.049 A 
ATOM     61  H   UNL     1      -3.461   2.276  13.004  1.00  0.00     0.167 HD
ATOM     62  C   UNL     1      -3.281   0.010  14.688  1.00  0.00     0.074 A 
ATOM     63  C   UNL     1      -3.360  -1.360  15.153  1.00  0.00     0.031 C 
ATOM     64  C   UNL     1      -2.722   1.024  15.394  1.00  0.00     0.034 A 
BRANCH  51  65
ATOM     65  C   UNL     1      -2.586   6.408  12.370  1.00  0.00     0.023 A 
ATOM     66  C   UNL     1      -3.552   7.405  12.613  1.00  0.00     0.012 A 
ATOM     67  C   UNL     1      -1.240   6.779  12.187  1.00  0.00     0.148 A 
ATOM     68  C   UNL     1      -3.192   8.751  12.645  1.00  0.00     0.002 A 
ATOM     69  C   UNL     1      -0.882   8.121  12.257  1.00  0.00     0.091 A 
ATOM     70  F   UNL     1      -0.339   5.819  11.933  1.00  0.00    -0.205 F 
ATOM     71  C   UNL     1      -1.856   9.108  12.478  1.00  0.00     0.022 A 
BRANCH  69  72
ATOM     72  S   UNL     1       0.824   8.669  12.121  1.00  0.00     0.127 S 
ATOM     73  O   UNL     1       0.863   9.177  10.751  1.00  0.00    -0.237 OA
ATOM     74  O   UNL     1       0.905   9.701  13.155  1.00  0.00    -0.237 OA
ATOM     75  O   UNL     1       1.640   7.491  12.382  1.00  0.00    -0.744 OA
ENDBRANCH  69  72
ENDBRANCH  51  65
BRANCH  52  76
ATOM     76  C   UNL     1      -5.327  -3.171  11.883  1.00  0.00     0.023 A 
ATOM     77  C   UNL     1      -6.337  -3.653  12.739  1.00  0.00     0.012 A 
ATOM     78  C   UNL     1      -4.745  -4.047  10.947  1.00  0.00     0.148 A 
ATOM     79  C   UNL     1      -6.743  -4.986  12.682  1.00  0.00     0.002 A 
ATOM     80  C   UNL     1      -5.191  -5.362  10.860  1.00  0.00     0.091 A 
ATOM     81  F   UNL     1      -3.773  -3.578  10.153  1.00  0.00    -0.205 F 
ATOM     82  C   UNL     1      -6.179  -5.837  11.735  1.00  0.00     0.022 A 
BRANCH  80  83
ATOM     83  S   UNL     1      -4.609  -6.479   9.578  1.00  0.00     0.127 S 
ATOM     84  O   UNL     1      -3.635  -7.289  10.304  1.00  0.00    -0.237 OA
ATOM     85  O   UNL     1      -5.835  -7.183   9.199  1.00  0.00    -0.237 OA
ATOM     86  O   UNL     1      -4.074  -5.617   8.532  1.00  0.00    -0.744 OA
ENDBRANCH  80  83
ENDBRANCH  52  76
BRANCH  64  87
ATOM     87  C   UNL     1      -2.164   0.702  16.755  1.00  0.00     0.023 A 
ATOM     88  C   UNL     1      -0.935   0.021  16.855  1.00  0.00     0.012 A 
ATOM     89  C   UNL     1      -2.813   1.138  17.927  1.00  0.00     0.148 A 
ATOM     90  C   UNL     1      -0.371  -0.242  18.103  1.00  0.00     0.002 A 
ATOM     91  C   UNL     1      -2.225   0.906  19.165  1.00  0.00     0.091 A 
ATOM     92  F   UNL     1      -3.994   1.762  17.813  1.00  0.00    -0.205 F 
ATOM     93  C   UNL     1      -1.009   0.210  19.256  1.00  0.00     0.022 A 
BRANCH  91  94
ATOM     94  S   UNL     1      -2.944   1.532  20.689  1.00  0.00     0.127 S 
ATOM     95  O   UNL     1      -3.640   0.352  21.199  1.00  0.00    -0.237 OA
ATOM     96  O   UNL     1      -1.763   1.923  21.460  1.00  0.00    -0.237 OA
ATOM     97  O   UNL     1      -3.793   2.646  20.291  1.00  0.00    -0.744 OA
ENDBRANCH  91  94
ENDBRANCH  64  87
ENDBRANCH  38  39
ENDBRANCH  30  33
ENDBRANCH  28  29
ENDBRANCH  27  28
ENDBRANCH  26  27
ENDBRANCH   1  26
TORSDOF 22
