REMARK SMILES CS(=O)(=O)c1ccc(N2N=C(C(=O)NCCCCCCNC(=O)c3ccc(-c4c5nc(c(-c6cccc(S(=O)(=O)[O-])c6F)c6ccc([nH]6)c(-c6cccc(S(=O)(=O)[O-])c6F)c6nc(c(-c7cccc(S(=O)(=O)[O-])c7F)c7ccc4[nH]7)C=C6)C=C5)cc3)C[C@H]2c2ccco2)cc1
REMARK SMILES IDX 18 1 17 2 16 3 15 4 14 5 12 6 13 7 11 9 9 10 10 11 88 12
REMARK SMILES IDX 87 13 8 14 5 15 6 16 95 17 7 18 94 19 2 20 1 21 3 22 4 23
REMARK SMILES IDX 89 24 90 25 93 26 91 27 92 28 19 29 20 30 21 31 22 32 23 34
REMARK SMILES IDX 24 35 25 36 86 37 26 38 85 39 27 40 28 41 29 42 79 43 30 44
REMARK SMILES IDX 84 45 78 46 80 47 31 48 83 49 77 50 76 51 32 53 64 54 44 55
REMARK SMILES IDX 63 56 45 57 48 58 62 59 81 60 46 61 47 62 61 64 82 65 49 66
REMARK SMILES IDX 33 67 34 68 42 69 35 70 37 71 43 72 36 73 38 74 39 75 40 76
REMARK SMILES IDX 41 77 65 78 66 79 74 80 67 81 69 82 75 83 68 84 70 85 71 86
REMARK SMILES IDX 72 87 73 88 50 89 51 90 59 91 52 92 54 93 60 94 53 95 55 96
REMARK SMILES IDX 56 97 57 98 58 99
REMARK H PARENT 14 8 21 33 80 52 48 63
REMARK Flexibility Score: inf
ROOT
ATOM      1  C   UNL     1       4.093 -14.301  -1.940  1.00  0.00     0.002 C 
ENDROOT
BRANCH   1   2
ATOM      2  C   UNL     1       2.829 -13.915  -1.164  1.00  0.00     0.002 C 
BRANCH   2   3
ATOM      3  C   UNL     1       2.994 -12.750  -0.185  1.00  0.00     0.021 C 
BRANCH   3   4
ATOM      4  C   UNL     1       3.505 -11.459  -0.818  1.00  0.00     0.116 C 
BRANCH   4   5
ATOM      5  N   UNL     1       2.476 -10.830  -1.623  1.00  0.00    -0.351 N 
ATOM      6  C   UNL     1       1.871  -9.600  -1.611  1.00  0.00     0.267 C 
ATOM      7  O   UNL     1       0.946  -9.417  -2.401  1.00  0.00    -0.268 OA
ATOM      8  H   UNL     1       2.137 -11.417  -2.337  1.00  0.00     0.163 HD
BRANCH   6   9
ATOM      9  C   UNL     1       2.301  -8.445  -0.719  1.00  0.00     0.128 C 
ATOM     10  N   UNL     1       2.417  -6.435  -0.014  1.00  0.00    -0.254 N 
ATOM     11  N   UNL     1       1.705  -7.292  -0.794  1.00  0.00    -0.171 NA
ATOM     12  C   UNL     1       3.467  -7.085   0.777  1.00  0.00     0.180 C 
ATOM     13  C   UNL     1       3.416  -8.527   0.267  1.00  0.00     0.099 C 
BRANCH  10  14
ATOM     14  C   UNL     1       1.894  -5.193   0.323  1.00  0.00     0.060 A 
ATOM     15  C   UNL     1       0.886  -2.666   1.019  1.00  0.00     0.067 A 
ATOM     16  C   UNL     1       0.061  -3.789   1.109  1.00  0.00     0.022 A 
ATOM     17  C   UNL     1       2.203  -2.788   0.578  1.00  0.00     0.022 A 
ATOM     18  C   UNL     1       0.568  -5.044   0.754  1.00  0.00     0.029 A 
ATOM     19  C   UNL     1       2.689  -4.045   0.223  1.00  0.00     0.029 A 
BRANCH  15  20
ATOM     20  S   UNL     1       0.247  -1.063   1.426  1.00  0.00     0.175 S 
ATOM     21  C   UNL     1       0.784  -0.009   0.103  1.00  0.00     0.163 C 
ATOM     22  O   UNL     1       0.915  -0.638   2.642  1.00  0.00    -0.224 OA
ATOM     23  O   UNL     1      -1.200  -1.131   1.351  1.00  0.00    -0.224 OA
ENDBRANCH  15  20
ENDBRANCH  10  14
BRANCH  12  24
ATOM     24  C   UNL     1       4.849  -6.503   0.725  1.00  0.00     0.128 A 
ATOM     25  C   UNL     1       5.481  -5.524   1.470  1.00  0.00     0.048 A 
ATOM     26  O   UNL     1       5.722  -7.000  -0.202  1.00  0.00    -0.467 OA
ATOM     27  C   UNL     1       6.800  -5.421   0.969  1.00  0.00     0.042 A 
ATOM     28  C   UNL     1       6.904  -6.357  -0.031  1.00  0.00     0.195 A 
ENDBRANCH  12  24
ENDBRANCH   6   9
ENDBRANCH   4   5
ENDBRANCH   3   4
ENDBRANCH   2   3
ENDBRANCH   1   2
BRANCH   1  29
ATOM     29  C   UNL     1       5.345 -14.530  -1.088  1.00  0.00     0.021 C 
BRANCH  29  30
ATOM     30  C   UNL     1       5.193 -15.572   0.015  1.00  0.00     0.116 C 
BRANCH  30  31
ATOM     31  N   UNL     1       4.879 -16.889  -0.514  1.00  0.00    -0.352 N 
ATOM     32  C   UNL     1       5.502 -18.088  -0.279  1.00  0.00     0.251 C 
ATOM     33  H   UNL     1       4.111 -16.925  -1.129  1.00  0.00     0.163 HD
ATOM     34  O   UNL     1       5.215 -19.070  -0.958  1.00  0.00    -0.269 OA
BRANCH  32  35
ATOM     35  C   UNL     1       6.529 -18.192   0.780  1.00  0.00     0.039 A 
ATOM     36  C   UNL     1       7.716 -18.876   0.505  1.00  0.00     0.014 A 
ATOM     37  C   UNL     1       6.320 -17.627   2.042  1.00  0.00     0.014 A 
ATOM     38  C   UNL     1       8.714 -18.951   1.479  1.00  0.00     0.010 A 
ATOM     39  C   UNL     1       7.344 -17.641   2.985  1.00  0.00     0.010 A 
ATOM     40  C   UNL     1       8.547 -18.311   2.718  1.00  0.00    -0.014 A 
BRANCH  40  41
ATOM     41  C   UNL     1       9.624 -18.323   3.741  1.00  0.00     0.031 A 
ATOM     42  C   UNL     1       9.400 -18.977   5.076  1.00  0.00     0.074 A 
ATOM     43  C   UNL     1      10.771 -17.657   3.503  1.00  0.00     0.049 A 
ATOM     44  N   UNL     1      10.201 -19.041   6.107  1.00  0.00    -0.248 NA
ATOM     45  C   UNL     1       8.092 -19.617   5.293  1.00  0.00     0.031 C 
ATOM     46  C   UNL     1      11.072 -16.902   2.286  1.00  0.00     0.029 A 
ATOM     47  N   UNL     1      11.883 -17.478   4.289  1.00  0.00    -0.354 N 
ATOM     48  C   UNL     1       9.484 -19.686   7.108  1.00  0.00     0.074 A 
ATOM     49  C   UNL     1       8.171 -19.967   6.569  1.00  0.00     0.031 C 
ATOM     50  C   UNL     1      12.284 -16.337   2.407  1.00  0.00     0.029 A 
ATOM     51  C   UNL     1      12.835 -16.666   3.719  1.00  0.00     0.049 A 
ATOM     52  H   UNL     1      11.989 -17.892   5.176  1.00  0.00     0.167 HD
ATOM     53  C   UNL     1       9.887 -20.035   8.352  1.00  0.00     0.034 A 
ATOM     54  C   UNL     1      14.015 -16.226   4.199  1.00  0.00     0.034 A 
ATOM     55  C   UNL     1      11.210 -19.796   8.866  1.00  0.00     0.049 A 
ATOM     56  C   UNL     1      14.470 -16.683   5.557  1.00  0.00     0.074 A 
ATOM     57  C   UNL     1      11.755 -20.217  10.066  1.00  0.00     0.029 A 
ATOM     58  N   UNL     1      12.190 -19.061   8.218  1.00  0.00    -0.354 N 
ATOM     59  N   UNL     1      13.849 -17.453   6.417  1.00  0.00    -0.248 NA
ATOM     60  C   UNL     1      15.804 -16.247   5.995  1.00  0.00     0.031 C 
ATOM     61  C   UNL     1      13.056 -19.710  10.156  1.00  0.00     0.029 A 
ATOM     62  C   UNL     1      13.331 -18.999   8.999  1.00  0.00     0.049 A 
ATOM     63  H   UNL     1      12.089 -18.643   7.332  1.00  0.00     0.167 HD
ATOM     64  C   UNL     1      14.724 -17.618   7.485  1.00  0.00     0.074 A 
ATOM     65  C   UNL     1      15.929 -16.885   7.151  1.00  0.00     0.031 C 
ATOM     66  C   UNL     1      14.541 -18.303   8.641  1.00  0.00     0.034 A 
BRANCH  53  67
ATOM     67  C   UNL     1       8.897 -20.754   9.232  1.00  0.00     0.023 A 
ATOM     68  C   UNL     1       8.528 -22.081   8.931  1.00  0.00     0.012 A 
ATOM     69  C   UNL     1       8.365 -20.134  10.379  1.00  0.00     0.148 A 
ATOM     70  C   UNL     1       7.614 -22.765   9.731  1.00  0.00     0.002 A 
ATOM     71  C   UNL     1       7.489 -20.838  11.198  1.00  0.00     0.091 A 
ATOM     72  F   UNL     1       8.707 -18.864  10.639  1.00  0.00    -0.205 F 
ATOM     73  C   UNL     1       7.103 -22.147  10.869  1.00  0.00     0.022 A 
BRANCH  71  74
ATOM     74  S   UNL     1       6.842 -20.155  12.729  1.00  0.00     0.127 S 
ATOM     75  O   UNL     1       5.463 -19.846  12.353  1.00  0.00    -0.237 OA
ATOM     76  O   UNL     1       6.983 -21.280  13.654  1.00  0.00    -0.237 OA
ATOM     77  O   UNL     1       7.682 -19.008  13.040  1.00  0.00    -0.744 OA
ENDBRANCH  71  74
ENDBRANCH  53  67
BRANCH  54  78
ATOM     78  C   UNL     1      14.870 -15.350   3.350  1.00  0.00     0.023 A 
ATOM     79  C   UNL     1      16.047 -15.871   2.780  1.00  0.00     0.012 A 
ATOM     80  C   UNL     1      14.489 -14.027   3.053  1.00  0.00     0.148 A 
ATOM     81  C   UNL     1      16.842 -15.083   1.948  1.00  0.00     0.002 A 
ATOM     82  C   UNL     1      15.255 -13.266   2.179  1.00  0.00     0.091 A 
ATOM     83  F   UNL     1      13.368 -13.549   3.613  1.00  0.00    -0.205 F 
ATOM     84  C   UNL     1      16.441 -13.786   1.638  1.00  0.00     0.022 A 
BRANCH  82  85
ATOM     85  S   UNL     1      14.742 -11.640   1.612  1.00  0.00     0.127 S 
ATOM     86  O   UNL     1      15.739 -10.775   2.238  1.00  0.00    -0.237 OA
ATOM     87  O   UNL     1      14.866 -11.775   0.160  1.00  0.00    -0.237 OA
ATOM     88  O   UNL     1      13.374 -11.469   2.083  1.00  0.00    -0.744 OA
ENDBRANCH  82  85
ENDBRANCH  54  78
BRANCH  66  89
ATOM     89  C   UNL     1      15.675 -18.319   9.632  1.00  0.00     0.023 A 
ATOM     90  C   UNL     1      15.976 -17.158  10.372  1.00  0.00     0.012 A 
ATOM     91  C   UNL     1      16.390 -19.506   9.888  1.00  0.00     0.148 A 
ATOM     92  C   UNL     1      16.990 -17.170  11.329  1.00  0.00     0.002 A 
ATOM     93  C   UNL     1      17.366 -19.523  10.877  1.00  0.00     0.091 A 
ATOM     94  F   UNL     1      16.103 -20.595   9.160  1.00  0.00    -0.205 F 
ATOM     95  C   UNL     1      17.675 -18.354  11.590  1.00  0.00     0.022 A 
BRANCH  93  96
ATOM     96  S   UNL     1      18.231 -21.026  11.348  1.00  0.00     0.127 S 
ATOM     97  O   UNL     1      19.559 -20.794  10.783  1.00  0.00    -0.237 OA
ATOM     98  O   UNL     1      18.172 -20.974  12.810  1.00  0.00    -0.237 OA
ATOM     99  O   UNL     1      17.480 -22.123  10.754  1.00  0.00    -0.744 OA
ENDBRANCH  93  96
ENDBRANCH  66  89
ENDBRANCH  40  41
ENDBRANCH  32  35
ENDBRANCH  30  31
ENDBRANCH  29  30
ENDBRANCH   1  29
TORSDOF 19
