REMARK SMILES Cc1ccccc1C(=O)Nc1ccc(N2CCC(n3c(C)nc4cccnc43)CC2)c(C(=O)NCCCCCCNC(=O)c2ccc(-c3c4nc(c(-c5cccc(S(=O)(=O)[O-])c5F)c5ccc([nH]5)c(-c5cccc(S(=O)(=O)[O-])c5F)c5nc(c(-c6cccc(S(=O)(=O)[O-])c6F)c6ccc3[nH]6)C=C5)C=C4)cc2)c1
REMARK SMILES IDX 38 1 37 2 36 3 35 4 34 5 32 6 33 7 31 9 11 10 12 11 107 12
REMARK SMILES IDX 13 13 14 14 10 15 8 16 9 17 7 19 1 20 2 21 3 22 4 23 6 24
REMARK SMILES IDX 5 25 15 26 16 27 30 28 17 29 29 30 18 31 19 32 20 33 28 34
REMARK SMILES IDX 21 35 22 36 23 37 27 38 24 39 26 40 25 41 39 42 40 43 41 44
REMARK SMILES IDX 42 45 43 47 44 48 45 49 106 50 46 51 105 52 47 53 48 54
REMARK SMILES IDX 49 55 99 56 50 57 104 58 98 59 100 60 51 61 103 62 97 63
REMARK SMILES IDX 96 64 52 66 84 67 64 68 83 69 65 70 68 71 82 72 101 73 66 74
REMARK SMILES IDX 67 75 81 77 102 78 69 79 53 80 54 81 62 82 55 83 57 84 63 85
REMARK SMILES IDX 56 86 58 87 59 88 60 89 61 90 85 91 86 92 94 93 87 94 89 95
REMARK SMILES IDX 95 96 88 97 90 98 91 99 92 100 93 101 70 102 71 103 79 104
REMARK SMILES IDX 72 105 74 106 80 107 73 108 75 109 76 110 77 111 78 112
REMARK H PARENT 34 8 10 18 41 46 100 65 68 76
REMARK Flexibility Score: inf
ROOT
ATOM      1  C   UNL     1       9.080  -4.299   2.441  1.00  0.00     0.002 C 
ENDROOT
BRANCH   1   2
ATOM      2  C   UNL     1       9.849  -3.273   1.597  1.00  0.00     0.002 C 
BRANCH   2   3
ATOM      3  C   UNL     1       9.229  -2.542   0.398  1.00  0.00     0.021 C 
BRANCH   3   4
ATOM      4  C   UNL     1       7.788  -2.055   0.436  1.00  0.00     0.116 C 
BRANCH   4   5
ATOM      5  N   UNL     1       7.391  -1.148   1.480  1.00  0.00    -0.352 N 
ATOM      6  C   UNL     1       6.245  -0.380   1.570  1.00  0.00     0.253 C 
ATOM      7  O   UNL     1       6.072   0.226   2.633  1.00  0.00    -0.269 OA
ATOM      8  H   UNL     1       8.020  -1.063   2.233  1.00  0.00     0.163 HD
BRANCH   6   9
ATOM      9  C   UNL     1       5.228  -0.183   0.466  1.00  0.00     0.065 A 
ATOM     10  C   UNL     1       3.436   1.334  -0.261  1.00  0.00     0.042 A 
ATOM     11  C   UNL     1       3.149   0.516  -1.335  1.00  0.00     0.028 A 
ATOM     12  C   UNL     1       4.565   1.071   0.526  1.00  0.00     0.042 A 
ATOM     13  C   UNL     1       3.833  -0.692  -1.459  1.00  0.00     0.029 A 
ATOM     14  C   UNL     1       4.754  -1.133  -0.474  1.00  0.00     0.050 A 
BRANCH  10  15
ATOM     15  N   UNL     1       2.564   2.345   0.161  1.00  0.00    -0.322 N 
ATOM     16  C   UNL     1       1.181   2.374   0.230  1.00  0.00     0.255 C 
ATOM     17  O   UNL     1       0.649   3.462   0.479  1.00  0.00    -0.269 OA
ATOM     18  H   UNL     1       3.008   3.173   0.458  1.00  0.00     0.170 HD
BRANCH  16  19
ATOM     19  C   UNL     1       0.279   1.173   0.108  1.00  0.00     0.043 A 
ATOM     20  C   UNL     1       1.674  -0.523   1.470  1.00  0.00     0.045 C 
ATOM     21  C   UNL     1       0.505  -0.119   0.626  1.00  0.00    -0.038 A 
ATOM     22  C   UNL     1      -0.447  -1.138   0.399  1.00  0.00     0.004 A 
ATOM     23  C   UNL     1      -1.676  -0.862  -0.188  1.00  0.00     0.000 A 
ATOM     24  C   UNL     1      -0.991   1.435  -0.449  1.00  0.00     0.014 A 
ATOM     25  C   UNL     1      -1.964   0.437  -0.576  1.00  0.00     0.001 A 
ENDBRANCH  16  19
ENDBRANCH  10  15
BRANCH  14  26
ATOM     26  N   UNL     1       4.880  -2.522  -0.365  1.00  0.00    -0.371 N 
ATOM     27  C   UNL     1       5.389  -3.291  -1.495  1.00  0.00     0.118 C 
ATOM     28  C   UNL     1       4.582  -3.128   0.922  1.00  0.00     0.118 C 
ATOM     29  C   UNL     1       4.916  -4.737  -1.521  1.00  0.00     0.047 C 
ATOM     30  C   UNL     1       3.984  -4.514   0.772  1.00  0.00     0.047 C 
ATOM     31  C   UNL     1       4.808  -5.421  -0.146  1.00  0.00     0.094 C 
BRANCH  31  32
ATOM     32  N   UNL     1       4.379  -6.832  -0.214  1.00  0.00    -0.310 N 
ATOM     33  C   UNL     1       3.608  -7.581   0.674  1.00  0.00     0.108 A 
ATOM     34  C   UNL     1       4.905  -7.747  -1.115  1.00  0.00     0.160 A 
ATOM     35  C   UNL     1       2.705  -7.076   1.739  1.00  0.00     0.088 C 
ATOM     36  N   UNL     1       3.741  -8.877   0.456  1.00  0.00    -0.232 NA
ATOM     37  C   UNL     1       4.546  -8.996  -0.635  1.00  0.00     0.108 A 
ATOM     38  N   UNL     1       5.641  -7.500  -2.217  1.00  0.00    -0.237 NA
ATOM     39  C   UNL     1       5.027 -10.129  -1.300  1.00  0.00     0.034 A 
ATOM     40  C   UNL     1       6.051  -8.625  -2.854  1.00  0.00     0.113 A 
ATOM     41  C   UNL     1       5.809  -9.925  -2.435  1.00  0.00     0.022 A 
ENDBRANCH  31  32
ENDBRANCH  14  26
ENDBRANCH   6   9
ENDBRANCH   4   5
ENDBRANCH   3   4
ENDBRANCH   2   3
ENDBRANCH   1   2
BRANCH   1  42
ATOM     42  C   UNL     1       8.281  -5.395   1.747  1.00  0.00     0.021 C 
BRANCH  42  43
ATOM     43  C   UNL     1       9.025  -6.315   0.783  1.00  0.00     0.116 C 
BRANCH  43  44
ATOM     44  N   UNL     1       9.069  -7.724   1.198  1.00  0.00    -0.352 N 
ATOM     45  C   UNL     1       9.389  -8.852   0.445  1.00  0.00     0.251 C 
ATOM     46  H   UNL     1       8.840  -7.896   2.140  1.00  0.00     0.163 HD
ATOM     47  O   UNL     1       9.400  -9.966   0.964  1.00  0.00    -0.269 OA
BRANCH  45  48
ATOM     48  C   UNL     1       9.763  -8.671  -0.974  1.00  0.00     0.039 A 
ATOM     49  C   UNL     1      11.013  -9.078  -1.437  1.00  0.00     0.014 A 
ATOM     50  C   UNL     1       8.970  -7.840  -1.749  1.00  0.00     0.014 A 
ATOM     51  C   UNL     1      11.586  -8.394  -2.509  1.00  0.00     0.010 A 
ATOM     52  C   UNL     1       9.540  -7.119  -2.768  1.00  0.00     0.010 A 
ATOM     53  C   UNL     1      10.884  -7.329  -3.070  1.00  0.00    -0.014 A 
BRANCH  53  54
ATOM     54  C   UNL     1      11.486  -6.284  -3.879  1.00  0.00     0.031 A 
ATOM     55  C   UNL     1      11.647  -6.462  -5.324  1.00  0.00     0.074 A 
ATOM     56  C   UNL     1      11.766  -5.101  -3.287  1.00  0.00     0.049 A 
ATOM     57  N   UNL     1      12.562  -5.880  -6.018  1.00  0.00    -0.248 NA
ATOM     58  C   UNL     1      10.775  -7.335  -6.097  1.00  0.00     0.031 C 
ATOM     59  C   UNL     1      12.048  -3.824  -3.927  1.00  0.00     0.029 A 
ATOM     60  N   UNL     1      12.023  -4.869  -1.930  1.00  0.00    -0.354 N 
ATOM     61  C   UNL     1      12.247  -6.081  -7.344  1.00  0.00     0.074 A 
ATOM     62  C   UNL     1      11.183  -7.061  -7.340  1.00  0.00     0.031 C 
ATOM     63  C   UNL     1      12.675  -3.028  -3.045  1.00  0.00     0.029 A 
ATOM     64  C   UNL     1      12.975  -3.836  -1.872  1.00  0.00     0.049 A 
ATOM     65  H   UNL     1      11.617  -5.337  -1.166  1.00  0.00     0.167 HD
ATOM     66  C   UNL     1      12.789  -5.261  -8.288  1.00  0.00     0.034 A 
ATOM     67  C   UNL     1      14.201  -3.967  -1.282  1.00  0.00     0.034 A 
ATOM     68  C   UNL     1      13.648  -4.244  -7.666  1.00  0.00     0.049 A 
ATOM     69  C   UNL     1      15.343  -3.714  -2.247  1.00  0.00     0.074 A 
ATOM     70  C   UNL     1      13.389  -2.942  -7.264  1.00  0.00     0.029 A 
ATOM     71  N   UNL     1      14.856  -4.602  -7.078  1.00  0.00    -0.354 N 
ATOM     72  N   UNL     1      15.201  -3.557  -3.533  1.00  0.00    -0.248 NA
ATOM     73  C   UNL     1      16.744  -3.688  -1.838  1.00  0.00     0.031 C 
ATOM     74  C   UNL     1      14.420  -2.539  -6.381  1.00  0.00     0.029 A 
ATOM     75  C   UNL     1      15.323  -3.581  -6.260  1.00  0.00     0.049 A 
ATOM     76  H   UNL     1      15.317  -5.460  -7.222  1.00  0.00     0.167 HD
ATOM     77  C   UNL     1      16.431  -3.602  -4.140  1.00  0.00     0.074 A 
ATOM     78  C   UNL     1      17.364  -3.579  -3.025  1.00  0.00     0.031 C 
ATOM     79  C   UNL     1      16.562  -3.734  -5.499  1.00  0.00     0.034 A 
BRANCH  66  80
ATOM     80  C   UNL     1      12.236  -5.130  -9.697  1.00  0.00     0.023 A 
ATOM     81  C   UNL     1      12.342  -3.865 -10.319  1.00  0.00     0.012 A 
ATOM     82  C   UNL     1      11.569  -6.133 -10.438  1.00  0.00     0.148 A 
ATOM     83  C   UNL     1      11.725  -3.569 -11.538  1.00  0.00     0.002 A 
ATOM     84  C   UNL     1      10.894  -5.822 -11.625  1.00  0.00     0.091 A 
ATOM     85  F   UNL     1      11.638  -7.407 -10.033  1.00  0.00    -0.205 F 
ATOM     86  C   UNL     1      10.966  -4.538 -12.173  1.00  0.00     0.022 A 
BRANCH  84  87
ATOM     87  S   UNL     1       9.813  -6.992 -12.467  1.00  0.00     0.127 S 
ATOM     88  O   UNL     1       8.597  -6.199 -12.668  1.00  0.00    -0.237 OA
ATOM     89  O   UNL     1      10.555  -7.284 -13.691  1.00  0.00    -0.237 OA
ATOM     90  O   UNL     1       9.642  -8.111 -11.548  1.00  0.00    -0.744 OA
ENDBRANCH  84  87
ENDBRANCH  66  80
BRANCH  67  91
ATOM     91  C   UNL     1      14.240  -5.003  -0.203  1.00  0.00     0.023 A 
ATOM     92  C   UNL     1      13.380  -4.819   0.903  1.00  0.00     0.012 A 
ATOM     93  C   UNL     1      14.741  -6.287  -0.463  1.00  0.00     0.148 A 
ATOM     94  C   UNL     1      12.857  -5.919   1.586  1.00  0.00     0.002 A 
ATOM     95  C   UNL     1      14.229  -7.377   0.236  1.00  0.00     0.091 A 
ATOM     96  F   UNL     1      15.645  -6.448  -1.436  1.00  0.00    -0.205 F 
ATOM     97  C   UNL     1      13.239  -7.204   1.214  1.00  0.00     0.022 A 
BRANCH  95  98
ATOM     98  S   UNL     1      14.759  -9.036  -0.194  1.00  0.00     0.127 S 
ATOM     99  O   UNL     1      16.031  -9.131   0.513  1.00  0.00    -0.237 OA
ATOM    100  O   UNL     1      13.692  -9.873   0.352  1.00  0.00    -0.237 OA
ATOM    101  O   UNL     1      14.816  -9.017  -1.649  1.00  0.00    -0.744 OA
ENDBRANCH  95  98
ENDBRANCH  67  91
BRANCH  79 102
ATOM    102  C   UNL     1      17.864  -4.005  -6.239  1.00  0.00     0.023 A 
ATOM    103  C   UNL     1      19.013  -4.507  -5.597  1.00  0.00     0.012 A 
ATOM    104  C   UNL     1      17.950  -3.861  -7.650  1.00  0.00     0.148 A 
ATOM    105  C   UNL     1      20.205  -4.761  -6.286  1.00  0.00     0.002 A 
ATOM    106  C   UNL     1      19.098  -4.231  -8.348  1.00  0.00     0.091 A 
ATOM    107  F   UNL     1      16.924  -3.333  -8.333  1.00  0.00    -0.205 F 
ATOM    108  C   UNL     1      20.243  -4.641  -7.665  1.00  0.00     0.022 A 
BRANCH 106 109
ATOM    109  S   UNL     1      19.108  -4.336 -10.143  1.00  0.00     0.127 S 
ATOM    110  O   UNL     1      19.686  -3.048 -10.518  1.00  0.00    -0.237 OA
ATOM    111  O   UNL     1      19.980  -5.487 -10.384  1.00  0.00    -0.237 OA
ATOM    112  O   UNL     1      17.718  -4.553 -10.521  1.00  0.00    -0.744 OA
ENDBRANCH 106 109
ENDBRANCH  79 102
ENDBRANCH  53  54
ENDBRANCH  45  48
ENDBRANCH  43  44
ENDBRANCH  42  43
ENDBRANCH   1  42
TORSDOF 20
