REMARK SMILES O=C(/C=C/C(=O)Nc1ccccn1)NCCCCCCNC(=O)c1ccc(-c2c3nc(c(-c4cccc(S(=O)(=O)[O-])c4F)c4ccc([nH]4)c(-c4cccc(S(=O)(=O)[O-])c4F)c4nc(c(-c5cccc(S(=O)(=O)[O-])c5F)c5ccc2[nH]5)C=C4)C=C3)cc1
REMARK SMILES IDX 18 1 17 2 16 3 15 4 14 5 1 6 2 7 3 9 4 10 5 11 6 12 7 13
REMARK SMILES IDX 8 15 9 16 13 17 10 18 12 19 11 20 19 21 20 22 21 23 22 24
REMARK SMILES IDX 23 26 24 27 25 28 86 29 26 30 85 31 27 32 28 33 29 34 79 35
REMARK SMILES IDX 30 36 84 37 78 38 80 39 31 40 83 41 77 42 76 43 32 45 64 46
REMARK SMILES IDX 44 47 63 48 45 49 48 50 62 51 81 52 46 53 47 54 61 56 82 57
REMARK SMILES IDX 49 58 33 59 34 60 42 61 35 62 37 63 43 64 36 65 38 66 39 67
REMARK SMILES IDX 40 68 41 69 65 70 66 71 74 72 67 73 69 74 75 75 68 76 70 77
REMARK SMILES IDX 71 78 72 79 73 80 50 81 51 82 59 83 52 84 54 85 60 86 53 87
REMARK SMILES IDX 55 88 56 89 57 90 58 91
REMARK H PARENT 14 8 7 14 21 25 80 44 48 55
REMARK Flexibility Score: inf
ROOT
ATOM      1  C   UNL     1       4.649  -3.116   2.820  1.00  0.00     0.002 C 
ENDROOT
BRANCH   1   2
ATOM      2  C   UNL     1       4.134  -3.389   1.403  1.00  0.00     0.002 C 
BRANCH   2   3
ATOM      3  C   UNL     1       2.625  -3.176   1.213  1.00  0.00     0.021 C 
BRANCH   3   4
ATOM      4  C   UNL     1       2.150  -1.773   1.596  1.00  0.00     0.116 C 
BRANCH   4   5
ATOM      5  N   UNL     1       2.838  -0.779   0.799  1.00  0.00    -0.353 N 
ATOM      6  O   UNL     1       1.137  -0.513  -0.721  1.00  0.00    -0.270 OA
ATOM      7  C   UNL     1       2.290  -0.299  -0.352  1.00  0.00     0.244 C 
ATOM      8  H   UNL     1       3.716  -0.445   1.094  1.00  0.00     0.163 HD
BRANCH   7   9
ATOM      9  C   UNL     1       3.189   0.477  -1.226  1.00  0.00     0.077 C 
ATOM     10  C   UNL     1       4.211   1.246  -0.819  1.00  0.00     0.077 C 
BRANCH  10  11
ATOM     11  C   UNL     1       4.920   2.102  -1.802  1.00  0.00     0.249 C 
ATOM     12  O   UNL     1       6.147   2.064  -1.845  1.00  0.00    -0.270 OA
ATOM     13  N   UNL     1       4.199   2.867  -2.675  1.00  0.00    -0.307 N 
ATOM     14  H   UNL     1       4.715   3.248  -3.421  1.00  0.00     0.171 HD
BRANCH  13  15
ATOM     15  C   UNL     1       2.840   3.189  -2.668  1.00  0.00     0.132 A 
ATOM     16  C   UNL     1       2.111   3.336  -1.492  1.00  0.00     0.047 A 
ATOM     17  N   UNL     1       2.276   3.263  -3.888  1.00  0.00    -0.239 NA
ATOM     18  C   UNL     1       0.724   3.410  -1.566  1.00  0.00     0.005 A 
ATOM     19  C   UNL     1       0.925   3.322  -3.932  1.00  0.00     0.113 A 
ATOM     20  C   UNL     1       0.114   3.373  -2.811  1.00  0.00     0.020 A 
ENDBRANCH  13  15
ENDBRANCH  10  11
ENDBRANCH   7   9
ENDBRANCH   4   5
ENDBRANCH   3   4
ENDBRANCH   2   3
ENDBRANCH   1   2
BRANCH   1  21
ATOM     21  C   UNL     1       3.970  -3.938   3.916  1.00  0.00     0.021 C 
BRANCH  21  22
ATOM     22  C   UNL     1       4.078  -5.447   3.731  1.00  0.00     0.116 C 
BRANCH  22  23
ATOM     23  N   UNL     1       5.458  -5.906   3.773  1.00  0.00    -0.352 N 
ATOM     24  C   UNL     1       5.997  -6.947   4.484  1.00  0.00     0.251 C 
ATOM     25  H   UNL     1       6.091  -5.400   3.214  1.00  0.00     0.163 HD
ATOM     26  O   UNL     1       7.219  -7.079   4.548  1.00  0.00    -0.269 OA
BRANCH  24  27
ATOM     27  C   UNL     1       5.108  -7.896   5.187  1.00  0.00     0.039 A 
ATOM     28  C   UNL     1       5.434  -8.296   6.485  1.00  0.00     0.014 A 
ATOM     29  C   UNL     1       3.962  -8.400   4.563  1.00  0.00     0.014 A 
ATOM     30  C   UNL     1       4.588  -9.170   7.172  1.00  0.00     0.010 A 
ATOM     31  C   UNL     1       3.082  -9.207   5.277  1.00  0.00     0.010 A 
ATOM     32  C   UNL     1       3.395  -9.618   6.582  1.00  0.00    -0.014 A 
BRANCH  32  33
ATOM     33  C   UNL     1       2.479 -10.543   7.299  1.00  0.00     0.031 A 
ATOM     34  C   UNL     1       2.212 -11.917   6.740  1.00  0.00     0.074 A 
ATOM     35  C   UNL     1       1.840 -10.129   8.411  1.00  0.00     0.049 A 
ATOM     36  N   UNL     1       1.397 -12.842   7.179  1.00  0.00    -0.248 NA
ATOM     37  C   UNL     1       2.936 -12.293   5.513  1.00  0.00     0.031 C 
ATOM     38  C   UNL     1       1.956  -8.797   9.011  1.00  0.00     0.029 A 
ATOM     39  N   UNL     1       0.943 -10.779   9.222  1.00  0.00    -0.354 N 
ATOM     40  C   UNL     1       1.492 -13.892   6.273  1.00  0.00     0.074 A 
ATOM     41  C   UNL     1       2.405 -13.474   5.233  1.00  0.00     0.031 C 
ATOM     42  C   UNL     1       1.159  -8.729  10.090  1.00  0.00     0.029 A 
ATOM     43  C   UNL     1       0.455  -9.997  10.244  1.00  0.00     0.049 A 
ATOM     44  H   UNL     1       0.673 -11.716   9.085  1.00  0.00     0.167 HD
ATOM     45  C   UNL     1       0.904 -15.111   6.320  1.00  0.00     0.034 A 
ATOM     46  C   UNL     1      -0.464 -10.271  11.192  1.00  0.00     0.034 A 
ATOM     47  C   UNL     1       0.027 -15.541   7.375  1.00  0.00     0.049 A 
ATOM     48  C   UNL     1      -1.074 -11.647  11.240  1.00  0.00     0.074 A 
ATOM     49  C   UNL     1      -0.584 -16.771   7.539  1.00  0.00     0.029 A 
ATOM     50  N   UNL     1      -0.358 -14.756   8.450  1.00  0.00    -0.354 N 
ATOM     51  N   UNL     1      -0.872 -12.669  10.444  1.00  0.00    -0.248 NA
ATOM     52  C   UNL     1      -2.003 -11.924  12.345  1.00  0.00     0.031 C 
ATOM     53  C   UNL     1      -1.349 -16.727   8.709  1.00  0.00     0.029 A 
ATOM     54  C   UNL     1      -1.188 -15.479   9.289  1.00  0.00     0.049 A 
ATOM     55  H   UNL     1      -0.083 -13.822   8.595  1.00  0.00     0.167 HD
ATOM     56  C   UNL     1      -1.606 -13.721  10.981  1.00  0.00     0.074 A 
ATOM     57  C   UNL     1      -2.243 -13.217  12.179  1.00  0.00     0.031 C 
ATOM     58  C   UNL     1      -1.753 -14.986  10.517  1.00  0.00     0.034 A 
BRANCH  45  59
ATOM     59  C   UNL     1       1.248 -16.099   5.235  1.00  0.00     0.023 A 
ATOM     60  C   UNL     1       2.536 -16.675   5.210  1.00  0.00     0.012 A 
ATOM     61  C   UNL     1       0.288 -16.513   4.292  1.00  0.00     0.148 A 
ATOM     62  C   UNL     1       2.873 -17.623   4.246  1.00  0.00     0.002 A 
ATOM     63  C   UNL     1       0.617 -17.494   3.362  1.00  0.00     0.091 A 
ATOM     64  F   UNL     1      -0.925 -15.944   4.321  1.00  0.00    -0.205 F 
ATOM     65  C   UNL     1       1.911 -18.041   3.331  1.00  0.00     0.022 A 
BRANCH  63  66
ATOM     66  S   UNL     1      -0.569 -18.163   2.191  1.00  0.00     0.127 S 
ATOM     67  O   UNL     1      -0.017 -17.702   0.917  1.00  0.00    -0.237 OA
ATOM     68  O   UNL     1      -0.448 -19.603   2.422  1.00  0.00    -0.237 OA
ATOM     69  O   UNL     1      -1.859 -17.592   2.551  1.00  0.00    -0.744 OA
ENDBRANCH  63  66
ENDBRANCH  45  59
BRANCH  46  70
ATOM     70  C   UNL     1      -0.830  -9.242  12.208  1.00  0.00     0.023 A 
ATOM     71  C   UNL     1      -0.473  -9.436  13.557  1.00  0.00     0.012 A 
ATOM     72  C   UNL     1      -1.541  -8.081  11.848  1.00  0.00     0.148 A 
ATOM     73  C   UNL     1      -0.864  -8.522  14.536  1.00  0.00     0.002 A 
ATOM     74  C   UNL     1      -1.875  -7.145  12.820  1.00  0.00     0.091 A 
ATOM     75  F   UNL     1      -1.883  -7.917  10.562  1.00  0.00    -0.205 F 
ATOM     76  C   UNL     1      -1.558  -7.373  14.167  1.00  0.00     0.022 A 
BRANCH  74  77
ATOM     77  S   UNL     1      -2.651  -5.578  12.409  1.00  0.00     0.127 S 
ATOM     78  O   UNL     1      -4.025  -5.798  12.853  1.00  0.00    -0.237 OA
ATOM     79  O   UNL     1      -1.884  -4.635  13.224  1.00  0.00    -0.237 OA
ATOM     80  O   UNL     1      -2.462  -5.415  10.974  1.00  0.00    -0.744 OA
ENDBRANCH  74  77
ENDBRANCH  46  70
BRANCH  58  81
ATOM     81  C   UNL     1      -2.572 -15.944  11.341  1.00  0.00     0.023 A 
ATOM     82  C   UNL     1      -3.971 -15.803  11.411  1.00  0.00     0.012 A 
ATOM     83  C   UNL     1      -1.952 -17.027  11.995  1.00  0.00     0.148 A 
ATOM     84  C   UNL     1      -4.737 -16.702  12.152  1.00  0.00     0.002 A 
ATOM     85  C   UNL     1      -2.726 -17.949  12.688  1.00  0.00     0.091 A 
ATOM     86  F   UNL     1      -0.616 -17.134  11.933  1.00  0.00    -0.205 F 
ATOM     87  C   UNL     1      -4.117 -17.780  12.780  1.00  0.00     0.022 A 
BRANCH  85  88
ATOM     88  S   UNL     1      -2.023 -19.421  13.441  1.00  0.00     0.127 S 
ATOM     89  O   UNL     1      -2.082 -19.085  14.862  1.00  0.00    -0.237 OA
ATOM     90  O   UNL     1      -2.962 -20.462  13.021  1.00  0.00    -0.237 OA
ATOM     91  O   UNL     1      -0.684 -19.555  12.884  1.00  0.00    -0.744 OA
ENDBRANCH  85  88
ENDBRANCH  58  81
ENDBRANCH  32  33
ENDBRANCH  24  27
ENDBRANCH  22  23
ENDBRANCH  21  22
ENDBRANCH   1  21
TORSDOF 18
