REMARK SMILES COc1ccc(N2C(=O)/C(=C/c3c(C(=O)NCCCCCCNC(=O)c4ccc(-c5c6nc(c(-c7cccc(S(=O)(=O)[O-])c7F)c7ccc([nH]7)c(-c7cccc(S(=O)(=O)[O-])c7F)c7nc(c(-c8cccc(S(=O)(=O)[O-])c8F)c8ccc5[nH]8)C=C7)C=C6)cc4)[nH]c4cc(OC)ccc34)SC2=S)cc1
REMARK SMILES IDX 19 1 18 2 17 3 16 4 14 5 15 6 13 8 12 9 97 10 89 11 90 12
REMARK SMILES IDX 96 13 91 15 95 16 92 17 11 18 7 19 8 20 99 21 9 22 10 23
REMARK SMILES IDX 98 24 100 25 6 26 3 27 4 28 102 29 5 30 101 31 2 32 1 33
REMARK SMILES IDX 93 34 94 35 20 36 21 37 22 38 23 39 24 40 25 42 26 43 27 44
REMARK SMILES IDX 88 45 28 46 87 47 29 48 30 49 31 50 81 51 32 52 86 53 80 54
REMARK SMILES IDX 82 55 33 56 85 57 79 58 78 59 34 61 66 62 46 63 65 64 47 65
REMARK SMILES IDX 50 66 64 67 83 68 48 69 49 70 63 72 84 73 51 74 35 75 36 76
REMARK SMILES IDX 44 77 37 78 39 79 45 80 38 81 40 82 41 83 42 84 43 85 67 86
REMARK SMILES IDX 68 87 76 88 69 89 71 90 77 91 70 92 72 93 73 94 74 95 75 96
REMARK SMILES IDX 52 97 53 98 61 99 54 100 56 101 62 102 55 103 57 104 58 105
REMARK SMILES IDX 59 106 60 107
REMARK H PARENT 16 7 89 14 23 41 82 60 50 71
REMARK Flexibility Score: inf
ROOT
ATOM      1  C   UNL     1      -0.263  -2.856  -6.906  1.00  0.00     0.002 C 
ENDROOT
BRANCH   1   2
ATOM      2  C   UNL     1      -0.261  -3.220  -8.400  1.00  0.00     0.021 C 
BRANCH   2   3
ATOM      3  C   UNL     1       0.964  -2.748  -9.176  1.00  0.00     0.116 C 
BRANCH   3   4
ATOM      4  N   UNL     1       2.151  -3.548  -8.955  1.00  0.00    -0.351 N 
ATOM      5  C   UNL     1       3.280  -3.547  -9.736  1.00  0.00     0.268 C 
ATOM      6  O   UNL     1       4.090  -4.468  -9.604  1.00  0.00    -0.268 OA
ATOM      7  H   UNL     1       2.147  -4.146  -8.173  1.00  0.00     0.163 HD
BRANCH   5   8
ATOM      8  C   UNL     1       3.409  -2.555 -10.775  1.00  0.00     0.112 A 
ATOM      9  C   UNL     1       3.210  -1.170 -10.869  1.00  0.00     0.014 A 
ATOM     10  C   UNL     1       2.907  -0.952 -12.285  1.00  0.00     0.008 A 
ATOM     11  N   UNL     1       3.829  -2.957 -12.013  1.00  0.00    -0.350 N 
ATOM     12  C   UNL     1       3.273  -2.130 -12.945  1.00  0.00     0.050 A 
ATOM     13  C   UNL     1       2.324   0.047 -13.113  1.00  0.00     0.015 A 
ATOM     14  H   UNL     1       4.429  -3.714 -12.201  1.00  0.00     0.167 HD
ATOM     15  C   UNL     1       3.059  -2.393 -14.297  1.00  0.00     0.073 A 
ATOM     16  C   UNL     1       2.066  -0.221 -14.498  1.00  0.00     0.047 A 
ATOM     17  C   UNL     1       2.415  -1.440 -15.074  1.00  0.00     0.120 A 
BRANCH   9  18
ATOM     18  C   UNL     1       3.064  -0.317  -9.689  1.00  0.00     0.032 C 
ATOM     19  N   UNL     1       3.756  -0.871  -6.173  1.00  0.00    -0.261 N 
ATOM     20  C   UNL     1       3.269   0.013  -7.158  1.00  0.00     0.270 C 
ATOM     21  C   UNL     1       4.707  -1.785  -6.601  1.00  0.00     0.152 C 
ATOM     22  O   UNL     1       2.475   0.930  -7.009  1.00  0.00    -0.268 OA
ATOM     23  C   UNL     1       3.749  -0.449  -8.521  1.00  0.00     0.081 C 
ATOM     24  S   UNL     1       5.154  -1.421  -8.262  1.00  0.00    -0.054 SA
ATOM     25  S   UNL     1       5.452  -3.034  -5.772  1.00  0.00    -0.051 S 
BRANCH  19  26
ATOM     26  C   UNL     1       3.250  -0.870  -4.828  1.00  0.00     0.051 A 
ATOM     27  C   UNL     1       2.388  -0.965  -2.128  1.00  0.00     0.119 A 
ATOM     28  C   UNL     1       2.152  -2.040  -2.980  1.00  0.00     0.048 A 
ATOM     29  C   UNL     1       3.064   0.153  -2.618  1.00  0.00     0.048 A 
ATOM     30  C   UNL     1       2.587  -1.999  -4.311  1.00  0.00     0.030 A 
ATOM     31  C   UNL     1       3.472   0.211  -3.968  1.00  0.00     0.030 A 
BRANCH  27  32
ATOM     32  O   UNL     1       1.973  -1.142  -0.838  1.00  0.00    -0.497 OA
ATOM     33  C   UNL     1       1.561   0.034  -0.149  1.00  0.00     0.278 C 
ENDBRANCH  27  32
ENDBRANCH  19  26
ENDBRANCH   9  18
BRANCH  17  34
ATOM     34  O   UNL     1       2.178  -1.895 -16.340  1.00  0.00    -0.497 OA
ATOM     35  C   UNL     1       1.741  -0.993 -17.339  1.00  0.00     0.278 C 
ENDBRANCH  17  34
ENDBRANCH   5   8
ENDBRANCH   3   4
ENDBRANCH   2   3
ENDBRANCH   1   2
BRANCH   1  36
ATOM     36  C   UNL     1       0.039  -1.370  -6.704  1.00  0.00     0.002 C 
BRANCH  36  37
ATOM     37  C   UNL     1      -0.552  -0.578  -5.548  1.00  0.00     0.021 C 
BRANCH  37  38
ATOM     38  C   UNL     1      -1.782  -1.137  -4.876  1.00  0.00     0.116 C 
BRANCH  38  39
ATOM     39  N   UNL     1      -1.474  -1.803  -3.614  1.00  0.00    -0.352 N 
ATOM     40  C   UNL     1      -1.866  -1.435  -2.342  1.00  0.00     0.251 C 
ATOM     41  H   UNL     1      -0.918  -2.613  -3.677  1.00  0.00     0.163 HD
ATOM     42  O   UNL     1      -1.390  -1.975  -1.350  1.00  0.00    -0.269 OA
BRANCH  40  43
ATOM     43  C   UNL     1      -2.868  -0.356  -2.197  1.00  0.00     0.039 A 
ATOM     44  C   UNL     1      -2.661   0.686  -1.290  1.00  0.00     0.014 A 
ATOM     45  C   UNL     1      -3.977  -0.344  -3.043  1.00  0.00     0.014 A 
ATOM     46  C   UNL     1      -3.535   1.779  -1.290  1.00  0.00     0.010 A 
ATOM     47  C   UNL     1      -4.734   0.807  -3.154  1.00  0.00     0.010 A 
ATOM     48  C   UNL     1      -4.556   1.864  -2.249  1.00  0.00    -0.014 A 
BRANCH  48  49
ATOM     49  C   UNL     1      -5.529   2.985  -2.311  1.00  0.00     0.031 A 
ATOM     50  C   UNL     1      -7.002   2.658  -2.244  1.00  0.00     0.074 A 
ATOM     51  C   UNL     1      -5.116   4.241  -2.572  1.00  0.00     0.049 A 
ATOM     52  N   UNL     1      -8.034   3.413  -2.508  1.00  0.00    -0.248 NA
ATOM     53  C   UNL     1      -7.356   1.265  -1.904  1.00  0.00     0.031 C 
ATOM     54  C   UNL     1      -3.724   4.663  -2.746  1.00  0.00     0.029 A 
ATOM     55  N   UNL     1      -5.837   5.390  -2.780  1.00  0.00    -0.354 N 
ATOM     56  C   UNL     1      -9.140   2.571  -2.449  1.00  0.00     0.074 A 
ATOM     57  C   UNL     1      -8.650   1.240  -2.181  1.00  0.00     0.031 C 
ATOM     58  C   UNL     1      -3.692   5.976  -3.027  1.00  0.00     0.029 A 
ATOM     59  C   UNL     1      -5.059   6.481  -3.097  1.00  0.00     0.049 A 
ATOM     60  H   UNL     1      -6.818   5.431  -2.710  1.00  0.00     0.167 HD
ATOM     61  C   UNL     1     -10.451   2.883  -2.566  1.00  0.00     0.034 A 
ATOM     62  C   UNL     1      -5.415   7.740  -3.419  1.00  0.00     0.034 A 
ATOM     63  C   UNL     1     -10.924   4.227  -2.735  1.00  0.00     0.049 A 
ATOM     64  C   UNL     1      -6.881   8.087  -3.444  1.00  0.00     0.074 A 
ATOM     65  C   UNL     1     -12.226   4.689  -2.744  1.00  0.00     0.029 A 
ATOM     66  N   UNL     1     -10.102   5.331  -2.911  1.00  0.00    -0.354 N 
ATOM     67  N   UNL     1      -7.917   7.306  -3.249  1.00  0.00    -0.248 NA
ATOM     68  C   UNL     1      -7.228   9.493  -3.694  1.00  0.00     0.031 C 
ATOM     69  C   UNL     1     -12.192   6.072  -2.947  1.00  0.00     0.029 A 
ATOM     70  C   UNL     1     -10.868   6.475  -3.030  1.00  0.00     0.049 A 
ATOM     71  H   UNL     1      -9.119   5.303  -2.945  1.00  0.00     0.167 HD
ATOM     72  C   UNL     1      -9.035   8.129  -3.316  1.00  0.00     0.074 A 
ATOM     73  C   UNL     1      -8.546   9.473  -3.549  1.00  0.00     0.031 C 
ATOM     74  C   UNL     1     -10.347   7.806  -3.207  1.00  0.00     0.034 A 
BRANCH  61  75
ATOM     75  C   UNL     1     -11.456   1.763  -2.452  1.00  0.00     0.023 A 
ATOM     76  C   UNL     1     -11.626   1.092  -1.223  1.00  0.00     0.012 A 
ATOM     77  C   UNL     1     -12.257   1.395  -3.551  1.00  0.00     0.148 A 
ATOM     78  C   UNL     1     -12.534   0.041  -1.102  1.00  0.00     0.002 A 
ATOM     79  C   UNL     1     -13.201   0.383  -3.408  1.00  0.00     0.091 A 
ATOM     80  F   UNL     1     -12.072   2.027  -4.719  1.00  0.00    -0.205 F 
ATOM     81  C   UNL     1     -13.328  -0.306  -2.191  1.00  0.00     0.022 A 
BRANCH  79  82
ATOM     82  S   UNL     1     -14.335  -0.082  -4.721  1.00  0.00     0.127 S 
ATOM     83  O   UNL     1     -13.862  -1.425  -5.057  1.00  0.00    -0.237 OA
ATOM     84  O   UNL     1     -15.627  -0.044  -4.036  1.00  0.00    -0.237 OA
ATOM     85  O   UNL     1     -14.171   0.915  -5.769  1.00  0.00    -0.744 OA
ENDBRANCH  79  82
ENDBRANCH  61  75
BRANCH  62  86
ATOM     86  C   UNL     1      -4.370   8.776  -3.665  1.00  0.00     0.023 A 
ATOM     87  C   UNL     1      -4.182   9.803  -2.717  1.00  0.00     0.012 A 
ATOM     88  C   UNL     1      -3.539   8.735  -4.801  1.00  0.00     0.148 A 
ATOM     89  C   UNL     1      -3.210  10.785  -2.912  1.00  0.00     0.002 A 
ATOM     90  C   UNL     1      -2.536   9.685  -4.962  1.00  0.00     0.091 A 
ATOM     91  F   UNL     1      -3.737   7.757  -5.697  1.00  0.00    -0.205 F 
ATOM     92  C   UNL     1      -2.381  10.721  -4.027  1.00  0.00     0.022 A 
BRANCH  90  93
ATOM     93  S   UNL     1      -1.336   9.609  -6.297  1.00  0.00     0.127 S 
ATOM     94  O   UNL     1      -1.720  10.758  -7.112  1.00  0.00    -0.237 OA
ATOM     95  O   UNL     1      -0.072   9.760  -5.575  1.00  0.00    -0.237 OA
ATOM     96  O   UNL     1      -1.521   8.304  -6.918  1.00  0.00    -0.744 OA
ENDBRANCH  90  93
ENDBRANCH  62  86
BRANCH  74  97
ATOM     97  C   UNL     1     -11.348   8.926  -3.288  1.00  0.00     0.023 A 
ATOM     98  C   UNL     1     -11.615   9.544  -4.524  1.00  0.00     0.012 A 
ATOM     99  C   UNL     1     -12.085   9.302  -2.148  1.00  0.00     0.148 A 
ATOM    100  C   UNL     1     -12.579  10.547  -4.618  1.00  0.00     0.002 A 
ATOM    101  C   UNL     1     -13.081  10.262  -2.260  1.00  0.00     0.091 A 
ATOM    102  F   UNL     1     -11.802   8.710  -0.979  1.00  0.00    -0.205 F 
ATOM    103  C   UNL     1     -13.320  10.896  -3.491  1.00  0.00     0.022 A 
BRANCH 101 104
ATOM    104  S   UNL     1     -14.155  10.698  -0.889  1.00  0.00     0.127 S 
ATOM    105  O   UNL     1     -13.681  12.040  -0.556  1.00  0.00    -0.237 OA
ATOM    106  O   UNL     1     -15.480  10.654  -1.507  1.00  0.00    -0.237 OA
ATOM    107  O   UNL     1     -13.931   9.686   0.135  1.00  0.00    -0.744 OA
ENDBRANCH 101 104
ENDBRANCH  74  97
ENDBRANCH  48  49
ENDBRANCH  40  43
ENDBRANCH  38  39
ENDBRANCH  37  38
ENDBRANCH  36  37
ENDBRANCH   1  36
TORSDOF 20
