REMARK SMILES CC(=O)Nc1cc(NC(C)=O)cc(C(=O)Nc2ccc(Br)cc2C(=O)NCCCCCCNC(=O)c2ccc(-c3c4nc(c(-c5cccc(S(=O)(=O)[O-])c5F)c5ccc([nH]5)c(-c5cccc(S(=O)(=O)[O-])c5F)c5nc(c(-c6cccc(S(=O)(=O)[O-])c6F)c6ccc3[nH]6)C=C5)C=C4)cc2)c1
REMARK SMILES IDX 29 1 28 2 27 3 26 4 24 5 25 6 23 8 17 9 18 10 19 11 22 12
REMARK SMILES IDX 20 13 21 14 16 15 14 16 15 17 13 19 5 20 6 21 99 22 7 23
REMARK SMILES IDX 12 24 4 25 1 26 2 27 3 28 8 30 9 31 10 33 11 34 30 35 31 36
REMARK SMILES IDX 32 37 33 38 34 39 35 41 36 42 37 43 98 44 38 45 97 46 39 47
REMARK SMILES IDX 40 48 41 49 91 50 42 51 96 52 90 53 92 54 43 55 95 56 89 57
REMARK SMILES IDX 88 58 44 60 76 61 56 62 75 63 57 64 60 65 74 66 93 67 58 68
REMARK SMILES IDX 59 69 73 71 94 72 61 73 45 74 46 75 54 76 47 77 49 78 55 79
REMARK SMILES IDX 48 80 50 81 51 82 52 83 53 84 77 85 78 86 86 87 79 88 81 89
REMARK SMILES IDX 87 90 80 91 82 92 83 93 84 94 85 95 62 96 63 97 71 98 64 99
REMARK SMILES IDX 66 100 72 101 65 102 67 103 68 104 69 105 70 106
REMARK H PARENT 26 7 16 18 4 29 8 32 33 40 92 59 60 70
REMARK Flexibility Score: inf
ROOT
ATOM      1  C   UNL     1       7.686   0.342  -4.559  1.00  0.00     0.002 C 
ENDROOT
BRANCH   1   2
ATOM      2  C   UNL     1       7.823  -0.086  -3.093  1.00  0.00     0.021 C 
BRANCH   2   3
ATOM      3  C   UNL     1       6.536  -0.131  -2.280  1.00  0.00     0.116 C 
BRANCH   3   4
ATOM      4  N   UNL     1       5.548  -1.060  -2.781  1.00  0.00    -0.352 N 
ATOM      5  C   UNL     1       4.435  -1.569  -2.161  1.00  0.00     0.253 C 
ATOM      6  O   UNL     1       3.748  -2.383  -2.779  1.00  0.00    -0.269 OA
ATOM      7  H   UNL     1       5.696  -1.374  -3.703  1.00  0.00     0.163 HD
BRANCH   5   8
ATOM      8  C   UNL     1       4.084  -1.251  -0.746  1.00  0.00     0.064 A 
ATOM      9  C   UNL     1       4.150   0.007  -0.108  1.00  0.00     0.054 A 
ATOM     10  C   UNL     1       3.989   0.062   1.289  1.00  0.00     0.028 A 
ATOM     11  C   UNL     1       3.589  -1.062   2.016  1.00  0.00     0.018 A 
ATOM     12  C   UNL     1       3.649  -2.370  -0.005  1.00  0.00     0.031 A 
ATOM     13  C   UNL     1       3.378  -2.264   1.356  1.00  0.00     0.018 A 
ATOM     14  Br  UNL     1       2.712  -3.755   2.306  1.00  0.00    -0.051 Br
BRANCH   9  15
ATOM     15  N   UNL     1       4.257   1.278  -0.720  1.00  0.00    -0.321 N 
ATOM     16  C   UNL     1       3.772   1.759  -1.928  1.00  0.00     0.255 C 
ATOM     17  O   UNL     1       4.172   2.823  -2.369  1.00  0.00    -0.269 OA
ATOM     18  H   UNL     1       4.767   1.938  -0.197  1.00  0.00     0.170 HD
BRANCH  16  19
ATOM     19  C   UNL     1       2.714   1.029  -2.663  1.00  0.00     0.044 A 
ATOM     20  C   UNL     1       0.838  -0.483  -2.617  1.00  0.00     0.044 A 
ATOM     21  C   UNL     1       0.918  -0.577  -4.016  1.00  0.00     0.052 A 
ATOM     22  C   UNL     1       1.701   0.378  -1.960  1.00  0.00     0.040 A 
ATOM     23  C   UNL     1       1.833   0.192  -4.749  1.00  0.00     0.044 A 
ATOM     24  C   UNL     1       2.746   0.991  -4.058  1.00  0.00     0.040 A 
BRANCH  20  25
ATOM     25  N   UNL     1      -0.039  -1.358  -1.951  1.00  0.00    -0.326 N 
ATOM     26  C   UNL     1      -0.269  -0.313   0.312  1.00  0.00     0.114 C 
ATOM     27  C   UNL     1      -0.454  -1.451  -0.654  1.00  0.00     0.221 C 
ATOM     28  O   UNL     1      -1.030  -2.480  -0.289  1.00  0.00    -0.275 OA
ATOM     29  H   UNL     1      -0.433  -2.043  -2.539  1.00  0.00     0.169 HD
ENDBRANCH  20  25
BRANCH  23  30
ATOM     30  N   UNL     1       1.907   0.205  -6.159  1.00  0.00    -0.326 N 
ATOM     31  C   UNL     1       1.080  -0.456  -7.048  1.00  0.00     0.221 C 
ATOM     32  H   UNL     1       2.629   0.745  -6.554  1.00  0.00     0.169 HD
ATOM     33  C   UNL     1       1.422  -0.182  -8.492  1.00  0.00     0.114 C 
ATOM     34  O   UNL     1       0.132  -1.183  -6.769  1.00  0.00    -0.275 OA
ENDBRANCH  23  30
ENDBRANCH  16  19
ENDBRANCH   9  15
ENDBRANCH   5   8
ENDBRANCH   3   4
ENDBRANCH   2   3
ENDBRANCH   1   2
BRANCH   1  35
ATOM     35  C   UNL     1       6.834   1.578  -4.865  1.00  0.00     0.002 C 
BRANCH  35  36
ATOM     36  C   UNL     1       7.146   2.865  -4.099  1.00  0.00     0.021 C 
BRANCH  36  37
ATOM     37  C   UNL     1       8.600   3.313  -4.089  1.00  0.00     0.116 C 
BRANCH  37  38
ATOM     38  N   UNL     1       9.167   3.453  -5.416  1.00  0.00    -0.352 N 
ATOM     39  C   UNL     1      10.013   4.412  -5.912  1.00  0.00     0.251 C 
ATOM     40  H   UNL     1       8.905   2.754  -6.058  1.00  0.00     0.163 HD
ATOM     41  O   UNL     1      10.294   4.394  -7.109  1.00  0.00    -0.269 OA
BRANCH  39  42
ATOM     42  C   UNL     1      10.573   5.471  -5.037  1.00  0.00     0.039 A 
ATOM     43  C   UNL     1      10.736   6.754  -5.572  1.00  0.00     0.014 A 
ATOM     44  C   UNL     1      10.991   5.213  -3.728  1.00  0.00     0.014 A 
ATOM     45  C   UNL     1      11.298   7.771  -4.797  1.00  0.00     0.010 A 
ATOM     46  C   UNL     1      11.474   6.248  -2.929  1.00  0.00     0.010 A 
ATOM     47  C   UNL     1      11.667   7.528  -3.465  1.00  0.00    -0.014 A 
BRANCH  47  48
ATOM     48  C   UNL     1      12.313   8.587  -2.646  1.00  0.00     0.031 A 
ATOM     49  C   UNL     1      13.729   8.406  -2.162  1.00  0.00     0.074 A 
ATOM     50  C   UNL     1      11.617   9.687  -2.299  1.00  0.00     0.049 A 
ATOM     51  N   UNL     1      14.463   9.210  -1.437  1.00  0.00    -0.248 NA
ATOM     52  C   UNL     1      14.400   7.142  -2.512  1.00  0.00     0.031 C 
ATOM     53  C   UNL     1      10.216   9.943  -2.635  1.00  0.00     0.029 A 
ATOM     54  N   UNL     1      11.991  10.789  -1.571  1.00  0.00    -0.354 N 
ATOM     55  C   UNL     1      15.660   8.538  -1.215  1.00  0.00     0.074 A 
ATOM     56  C   UNL     1      15.540   7.242  -1.844  1.00  0.00     0.031 C 
ATOM     57  C   UNL     1       9.851  11.130  -2.123  1.00  0.00     0.029 A 
ATOM     58  C   UNL     1      10.984  11.712  -1.410  1.00  0.00     0.049 A 
ATOM     59  H   UNL     1      12.895  10.908  -1.199  1.00  0.00     0.167 HD
ATOM     60  C   UNL     1      16.774   8.970  -0.577  1.00  0.00     0.034 A 
ATOM     61  C   UNL     1      10.979  12.897  -0.768  1.00  0.00     0.034 A 
ATOM     62  C   UNL     1      16.910  10.281  -0.003  1.00  0.00     0.049 A 
ATOM     63  C   UNL     1      12.253  13.388  -0.134  1.00  0.00     0.074 A 
ATOM     64  C   UNL     1      18.022  10.850   0.593  1.00  0.00     0.029 A 
ATOM     65  N   UNL     1      15.902  11.231   0.044  1.00  0.00    -0.354 N 
ATOM     66  N   UNL     1      13.423  12.800  -0.069  1.00  0.00    -0.248 NA
ATOM     67  C   UNL     1      12.220  14.727   0.472  1.00  0.00     0.031 C 
ATOM     68  C   UNL     1      17.680  12.140   1.012  1.00  0.00     0.029 A 
ATOM     69  C   UNL     1      16.364  12.383   0.654  1.00  0.00     0.049 A 
ATOM     70  H   UNL     1      14.990  11.104  -0.305  1.00  0.00     0.167 HD
ATOM     71  C   UNL     1      14.276  13.713   0.540  1.00  0.00     0.074 A 
ATOM     72  C   UNL     1      13.491  14.900   0.811  1.00  0.00     0.031 C 
ATOM     73  C   UNL     1      15.588  13.579   0.856  1.00  0.00     0.034 A 
BRANCH  60  74
ATOM     74  C   UNL     1      17.956   8.036  -0.520  1.00  0.00     0.023 A 
ATOM     75  C   UNL     1      18.681   7.759  -1.697  1.00  0.00     0.012 A 
ATOM     76  C   UNL     1      18.379   7.471   0.699  1.00  0.00     0.148 A 
ATOM     77  C   UNL     1      19.783   6.904  -1.671  1.00  0.00     0.002 A 
ATOM     78  C   UNL     1      19.506   6.658   0.726  1.00  0.00     0.091 A 
ATOM     79  F   UNL     1      17.666   7.728   1.805  1.00  0.00    -0.205 F 
ATOM     80  C   UNL     1      20.201   6.363  -0.459  1.00  0.00     0.022 A 
BRANCH  78  81
ATOM     81  S   UNL     1      20.173   5.976   2.249  1.00  0.00     0.127 S 
ATOM     82  O   UNL     1      19.837   4.560   2.110  1.00  0.00    -0.237 OA
ATOM     83  O   UNL     1      21.599   6.279   2.124  1.00  0.00    -0.237 OA
ATOM     84  O   UNL     1      19.497   6.676   3.332  1.00  0.00    -0.744 OA
ENDBRANCH  78  81
ENDBRANCH  60  74
BRANCH  61  85
ATOM     85  C   UNL     1       9.750  13.741  -0.774  1.00  0.00     0.023 A 
ATOM     86  C   UNL     1       9.731  14.928  -1.533  1.00  0.00     0.012 A 
ATOM     87  C   UNL     1       8.598  13.365  -0.059  1.00  0.00     0.148 A 
ATOM     88  C   UNL     1       8.599  15.744  -1.550  1.00  0.00     0.002 A 
ATOM     89  C   UNL     1       7.455  14.155  -0.123  1.00  0.00     0.091 A 
ATOM     90  F   UNL     1       8.639  12.237   0.665  1.00  0.00    -0.205 F 
ATOM     91  C   UNL     1       7.459  15.353  -0.854  1.00  0.00     0.022 A 
BRANCH  89  92
ATOM     92  S   UNL     1       5.902  13.664   0.636  1.00  0.00     0.127 S 
ATOM     93  O   UNL     1       5.806  14.601   1.752  1.00  0.00    -0.237 OA
ATOM     94  O   UNL     1       4.948  13.896  -0.449  1.00  0.00    -0.237 OA
ATOM     95  O   UNL     1       6.069  12.262   0.997  1.00  0.00    -0.744 OA
ENDBRANCH  89  92
ENDBRANCH  61  85
BRANCH  73  96
ATOM     96  C   UNL     1      16.282  14.761   1.480  1.00  0.00     0.023 A 
ATOM     97  C   UNL     1      16.000  15.123   2.812  1.00  0.00     0.012 A 
ATOM     98  C   UNL     1      17.268  15.468   0.764  1.00  0.00     0.148 A 
ATOM     99  C   UNL     1      16.664  16.195   3.409  1.00  0.00     0.002 A 
ATOM    100  C   UNL     1      17.961  16.502   1.382  1.00  0.00     0.091 A 
ATOM    101  F   UNL     1      17.508  15.122  -0.510  1.00  0.00    -0.205 F 
ATOM    102  C   UNL     1      17.651  16.875   2.699  1.00  0.00     0.022 A 
BRANCH 100 103
ATOM    103  S   UNL     1      19.316  17.361   0.574  1.00  0.00     0.127 S 
ATOM    104  O   UNL     1      18.683  18.622   0.192  1.00  0.00    -0.237 OA
ATOM    105  O   UNL     1      20.301  17.474   1.650  1.00  0.00    -0.237 OA
ATOM    106  O   UNL     1      19.728  16.504  -0.529  1.00  0.00    -0.744 OA
ENDBRANCH 100 103
ENDBRANCH  73  96
ENDBRANCH  47  48
ENDBRANCH  39  42
ENDBRANCH  37  38
ENDBRANCH  36  37
ENDBRANCH  35  36
ENDBRANCH   1  35
TORSDOF 20
