REMARK SMILES COc1ccc(-c2cc(Cl)cc3c2O[C@@H](C(F)(F)F)C(C(=O)NCCCCCCNC(=O)c2ccc(-c4c5nc(c(-c6cccc(S(=O)(=O)[O-])c6F)c6ccc([nH]6)c(-c6cccc(S(=O)(=O)[O-])c6F)c6nc(c(-c7cccc(S(=O)(=O)[O-])c7F)c7ccc4[nH]7)C=C6)C=C5)cc2)=C3)cc1C
REMARK SMILES IDX 27 1 26 2 25 3 24 4 23 5 21 6 22 7 20 9 7 10 8 11 13 12 9 13
REMARK SMILES IDX 12 14 14 15 10 16 11 17 96 18 15 19 6 20 3 21 4 22 98 23
REMARK SMILES IDX 5 24 97 25 99 26 2 27 1 28 16 29 17 30 18 31 19 32 28 33
REMARK SMILES IDX 29 34 30 35 31 36 32 38 33 39 34 40 95 41 35 42 94 43 36 44
REMARK SMILES IDX 37 45 38 46 88 47 39 48 93 49 87 50 89 51 40 52 92 53 86 54
REMARK SMILES IDX 85 55 41 57 73 58 53 59 72 60 54 61 57 62 71 63 90 64 55 65
REMARK SMILES IDX 56 66 70 68 91 69 58 70 42 71 43 72 51 73 44 74 46 75 52 76
REMARK SMILES IDX 45 77 47 78 48 79 49 80 50 81 74 82 75 83 83 84 76 85 78 86
REMARK SMILES IDX 84 87 77 88 79 89 80 90 81 91 82 92 59 93 60 94 68 95 61 96
REMARK SMILES IDX 63 97 69 98 62 99 64 100 65 101 66 102 67 103
REMARK H PARENT 23 8 30 37 89 56 57 67
REMARK Flexibility Score: inf
ROOT
ATOM      1  C   UNL     1      -3.134   6.693   3.892  1.00  0.00     0.002 C 
ENDROOT
BRANCH   1   2
ATOM      2  C   UNL     1      -3.583   6.604   2.435  1.00  0.00     0.002 C 
BRANCH   2   3
ATOM      3  C   UNL     1      -3.159   7.690   1.452  1.00  0.00     0.021 C 
BRANCH   3   4
ATOM      4  C   UNL     1      -1.782   8.346   1.526  1.00  0.00     0.116 C 
BRANCH   4   5
ATOM      5  N   UNL     1      -0.587   7.532   1.504  1.00  0.00    -0.352 N 
ATOM      6  C   UNL     1       0.725   7.855   1.260  1.00  0.00     0.251 C 
ATOM      7  O   UNL     1       1.573   7.062   1.684  1.00  0.00    -0.270 OA
ATOM      8  H   UNL     1      -0.741   6.579   1.699  1.00  0.00     0.163 HD
BRANCH   6   9
ATOM      9  C   UNL     1       1.196   9.078   0.448  1.00  0.00     0.067 C 
ATOM     10  C   UNL     1       0.827   6.647  -2.697  1.00  0.00     0.026 A 
ATOM     11  C   UNL     1       1.768   6.666  -3.746  1.00  0.00     0.033 A 
ATOM     12  C   UNL     1       0.944   7.694  -1.788  1.00  0.00     0.135 A 
ATOM     13  C   UNL     1       2.945   7.415  -3.623  1.00  0.00     0.042 A 
ATOM     14  C   UNL     1       2.232   8.193  -1.471  1.00  0.00     0.019 A 
ATOM     15  O   UNL     1      -0.202   8.386  -1.326  1.00  0.00    -0.475 OA
ATOM     16  Cl  UNL     1       4.122   7.352  -4.876  1.00  0.00    -0.084 Cl
ATOM     17  C   UNL     1       3.227   8.097  -2.437  1.00  0.00     0.032 A 
ATOM     18  C   UNL     1       2.409   8.871  -0.135  1.00  0.00     0.025 C 
ATOM     19  C   UNL     1       0.256   9.590  -0.627  1.00  0.00     0.314 C 
BRANCH  10  20
ATOM     20  C   UNL     1       0.549   5.270  -2.181  1.00  0.00    -0.014 A 
ATOM     21  C   UNL     1       0.359   2.520  -1.498  1.00  0.00     0.121 A 
ATOM     22  C   UNL     1      -0.746   3.234  -1.993  1.00  0.00     0.047 A 
ATOM     23  C   UNL     1       1.579   3.173  -1.319  1.00  0.00    -0.008 A 
ATOM     24  C   UNL     1      -0.658   4.597  -2.333  1.00  0.00     0.013 A 
ATOM     25  C   UNL     1       1.636   4.545  -1.620  1.00  0.00     0.016 A 
ATOM     26  C   UNL     1       2.846   2.491  -0.887  1.00  0.00     0.048 C 
BRANCH  21  27
ATOM     27  O   UNL     1       0.166   1.170  -1.359  1.00  0.00    -0.496 OA
ATOM     28  C   UNL     1       0.558   0.627  -0.102  1.00  0.00     0.278 C 
ENDBRANCH  21  27
ENDBRANCH  10  20
BRANCH  19  29
ATOM     29  C   UNL     1      -0.659  10.756  -0.206  1.00  0.00     0.429 C 
ATOM     30  F   UNL     1      -0.085  11.940  -0.564  1.00  0.00    -0.167 F 
ATOM     31  F   UNL     1      -1.868  10.715  -0.801  1.00  0.00    -0.167 F 
ATOM     32  F   UNL     1      -0.842  10.841   1.132  1.00  0.00    -0.167 F 
ENDBRANCH  19  29
ENDBRANCH   6   9
ENDBRANCH   4   5
ENDBRANCH   3   4
ENDBRANCH   2   3
ENDBRANCH   1   2
BRANCH   1  33
ATOM     33  C   UNL     1      -3.328   8.023   4.615  1.00  0.00     0.021 C 
BRANCH  33  34
ATOM     34  C   UNL     1      -4.773   8.446   4.856  1.00  0.00     0.116 C 
BRANCH  34  35
ATOM     35  N   UNL     1      -5.209   8.213   6.226  1.00  0.00    -0.352 N 
ATOM     36  C   UNL     1      -6.398   8.573   6.846  1.00  0.00     0.251 C 
ATOM     37  H   UNL     1      -4.567   7.730   6.796  1.00  0.00     0.163 HD
ATOM     38  O   UNL     1      -6.561   8.340   8.027  1.00  0.00    -0.269 OA
BRANCH  36  39
ATOM     39  C   UNL     1      -7.475   9.170   6.019  1.00  0.00     0.039 A 
ATOM     40  C   UNL     1      -8.727   8.544   5.998  1.00  0.00     0.014 A 
ATOM     41  C   UNL     1      -7.197  10.223   5.151  1.00  0.00     0.014 A 
ATOM     42  C   UNL     1      -9.618   8.825   4.962  1.00  0.00     0.010 A 
ATOM     43  C   UNL     1      -8.046  10.454   4.085  1.00  0.00     0.010 A 
ATOM     44  C   UNL     1      -9.224   9.707   3.954  1.00  0.00    -0.014 A 
BRANCH  44  45
ATOM     45  C   UNL     1      -9.880   9.796   2.654  1.00  0.00     0.031 A 
ATOM     46  C   UNL     1     -10.814  10.890   2.318  1.00  0.00     0.074 A 
ATOM     47  C   UNL     1      -9.515   8.921   1.691  1.00  0.00     0.049 A 
ATOM     48  N   UNL     1     -11.675  10.832   1.356  1.00  0.00    -0.248 NA
ATOM     49  C   UNL     1     -10.865  12.133   3.072  1.00  0.00     0.031 C 
ATOM     50  C   UNL     1      -9.727   9.057   0.255  1.00  0.00     0.029 A 
ATOM     51  N   UNL     1      -9.071   7.604   1.852  1.00  0.00    -0.354 N 
ATOM     52  C   UNL     1     -12.212  12.092   1.198  1.00  0.00     0.074 A 
ATOM     53  C   UNL     1     -11.719  12.846   2.330  1.00  0.00     0.031 C 
ATOM     54  C   UNL     1      -9.699   7.837  -0.298  1.00  0.00     0.029 A 
ATOM     55  C   UNL     1      -9.618   6.873   0.785  1.00  0.00     0.049 A 
ATOM     56  H   UNL     1      -8.491   7.259   2.569  1.00  0.00     0.167 HD
ATOM     57  C   UNL     1     -12.897  12.396   0.057  1.00  0.00     0.034 A 
ATOM     58  C   UNL     1     -10.401   5.767   0.927  1.00  0.00     0.034 A 
ATOM     59  C   UNL     1     -12.996  11.238  -0.838  1.00  0.00     0.049 A 
ATOM     60  C   UNL     1     -11.735   5.869   0.216  1.00  0.00     0.074 A 
ATOM     61  C   UNL     1     -12.259  10.835  -1.941  1.00  0.00     0.029 A 
ATOM     62  N   UNL     1     -13.819  10.172  -0.505  1.00  0.00    -0.354 N 
ATOM     63  N   UNL     1     -12.175   6.946  -0.372  1.00  0.00    -0.248 NA
ATOM     64  C   UNL     1     -12.702   4.776   0.155  1.00  0.00     0.031 C 
ATOM     65  C   UNL     1     -12.603   9.491  -2.234  1.00  0.00     0.029 A 
ATOM     66  C   UNL     1     -13.560   9.082  -1.321  1.00  0.00     0.049 A 
ATOM     67  H   UNL     1     -14.494  10.188   0.212  1.00  0.00     0.167 HD
ATOM     68  C   UNL     1     -13.490   6.774  -0.726  1.00  0.00     0.074 A 
ATOM     69  C   UNL     1     -13.737   5.366  -0.469  1.00  0.00     0.031 C 
ATOM     70  C   UNL     1     -14.275   7.826  -1.119  1.00  0.00     0.034 A 
BRANCH  57  71
ATOM     71  C   UNL     1     -13.198  13.812  -0.415  1.00  0.00     0.023 A 
ATOM     72  C   UNL     1     -13.351  14.022  -1.805  1.00  0.00     0.012 A 
ATOM     73  C   UNL     1     -13.267  14.967   0.391  1.00  0.00     0.148 A 
ATOM     74  C   UNL     1     -13.425  15.300  -2.372  1.00  0.00     0.002 A 
ATOM     75  C   UNL     1     -13.247  16.246  -0.174  1.00  0.00     0.091 A 
ATOM     76  F   UNL     1     -13.454  14.844   1.710  1.00  0.00    -0.205 F 
ATOM     77  C   UNL     1     -13.320  16.416  -1.559  1.00  0.00     0.022 A 
BRANCH  75  78
ATOM     78  S   UNL     1     -12.991  17.726   0.821  1.00  0.00     0.127 S 
ATOM     79  O   UNL     1     -11.933  18.419   0.080  1.00  0.00    -0.237 OA
ATOM     80  O   UNL     1     -14.297  18.377   0.766  1.00  0.00    -0.237 OA
ATOM     81  O   UNL     1     -12.573  17.251   2.135  1.00  0.00    -0.744 OA
ENDBRANCH  75  78
ENDBRANCH  57  71
BRANCH  58  82
ATOM     82  C   UNL     1     -10.146   4.989   2.170  1.00  0.00     0.023 A 
ATOM     83  C   UNL     1      -8.884   4.362   2.288  1.00  0.00     0.012 A 
ATOM     84  C   UNL     1     -10.934   5.154   3.322  1.00  0.00     0.148 A 
ATOM     85  C   UNL     1      -8.376   3.999   3.536  1.00  0.00     0.002 A 
ATOM     86  C   UNL     1     -10.415   4.799   4.566  1.00  0.00     0.091 A 
ATOM     87  F   UNL     1     -12.140   5.722   3.198  1.00  0.00    -0.205 F 
ATOM     88  C   UNL     1      -9.129   4.246   4.677  1.00  0.00     0.022 A 
BRANCH  86  89
ATOM     89  S   UNL     1     -11.292   5.173   6.090  1.00  0.00     0.127 S 
ATOM     90  O   UNL     1     -11.983   3.913   6.347  1.00  0.00    -0.237 OA
ATOM     91  O   UNL     1     -10.199   5.477   7.013  1.00  0.00    -0.237 OA
ATOM     92  O   UNL     1     -12.127   6.318   5.762  1.00  0.00    -0.744 OA
ENDBRANCH  86  89
ENDBRANCH  58  82
BRANCH  70  93
ATOM     93  C   UNL     1     -15.782   7.794  -1.319  1.00  0.00     0.023 A 
ATOM     94  C   UNL     1     -16.603   6.810  -0.734  1.00  0.00     0.012 A 
ATOM     95  C   UNL     1     -16.450   8.851  -1.994  1.00  0.00     0.148 A 
ATOM     96  C   UNL     1     -17.998   6.836  -0.853  1.00  0.00     0.002 A 
ATOM     97  C   UNL     1     -17.842   8.928  -2.020  1.00  0.00     0.091 A 
ATOM     98  F   UNL     1     -15.740   9.789  -2.637  1.00  0.00    -0.205 F 
ATOM     99  C   UNL     1     -18.621   7.907  -1.476  1.00  0.00     0.022 A 
BRANCH  97 100
ATOM    100  S   UNL     1     -18.664  10.414  -2.617  1.00  0.00     0.127 S 
ATOM    101  O   UNL     1     -18.764  10.157  -4.051  1.00  0.00    -0.237 OA
ATOM    102  O   UNL     1     -19.944  10.383  -1.905  1.00  0.00    -0.237 OA
ATOM    103  O   UNL     1     -17.786  11.503  -2.211  1.00  0.00    -0.744 OA
ENDBRANCH  97 100
ENDBRANCH  70  93
ENDBRANCH  44  45
ENDBRANCH  36  39
ENDBRANCH  34  35
ENDBRANCH  33  34
ENDBRANCH   1  33
TORSDOF 19
