REMARK SMILES O=C(CCC(=O)Nc1ccccc1C(=O)N1CCN(c2ccc(Cl)cc2)CC1)NCCCCCCNC(=O)c1ccc(-c2c3nc(c(-c4cccc(S(=O)(=O)[O-])c4F)c4ccc([nH]4)c(-c4cccc(S(=O)(=O)[O-])c4F)c4nc(c(-c5cccc(S(=O)(=O)[O-])c5F)c5ccc2[nH]5)C=C4)C=C3)cc1
REMARK SMILES IDX 31 1 30 2 29 3 1 4 2 5 3 7 4 8 5 9 6 10 7 11 8 13 9 14 13 15
REMARK SMILES IDX 10 16 12 17 11 18 14 19 15 20 16 21 17 22 28 23 18 24 27 25
REMARK SMILES IDX 19 26 20 27 21 28 26 29 22 30 25 31 23 32 24 33 32 34 33 35
REMARK SMILES IDX 34 36 35 37 36 38 37 39 38 41 39 42 40 43 101 44 41 45
REMARK SMILES IDX 100 46 42 47 43 48 44 49 94 50 45 51 99 52 93 53 95 54 46 55
REMARK SMILES IDX 98 56 92 57 91 58 47 60 79 61 59 62 78 63 60 64 63 65 77 66
REMARK SMILES IDX 96 67 61 68 62 69 76 71 97 72 64 73 48 74 49 75 57 76 50 77
REMARK SMILES IDX 52 78 58 79 51 80 53 81 54 82 55 83 56 84 80 85 81 86 89 87
REMARK SMILES IDX 82 88 84 89 90 90 83 91 85 92 86 93 87 94 88 95 65 96 66 97
REMARK SMILES IDX 74 98 67 99 69 100 75 101 68 102 70 103 71 104 72 105 73 106
REMARK H PARENT 29 6 7 12 36 40 95 59 63 70
REMARK Flexibility Score: inf
ROOT
ATOM      1  C   UNL     1       3.992  -0.970   2.385  1.00  0.00     0.021 C 
ENDROOT
BRANCH   1   2
ATOM      2  C   UNL     1       4.316   0.483   1.833  1.00  0.00     0.116 C 
BRANCH   2   3
ATOM      3  N   UNL     1       4.335   1.154   0.362  1.00  0.00    -0.356 N 
ATOM      4  O   UNL     1       2.427   0.947  -1.192  1.00  0.00    -0.275 OA
ATOM      5  C   UNL     1       3.445   1.474  -0.737  1.00  0.00     0.220 C 
ATOM      6  H   UNL     1       5.251   1.439   0.140  1.00  0.00     0.163 HD
BRANCH   5   7
ATOM      7  C   UNL     1       3.679   2.754  -1.461  1.00  0.00     0.110 C 
BRANCH   7   8
ATOM      8  C   UNL     1       3.321   3.858  -0.528  1.00  0.00     0.110 C 
BRANCH   8   9
ATOM      9  C   UNL     1       3.342   3.450   0.918  1.00  0.00     0.224 C 
ATOM     10  O   UNL     1       4.215   3.957   1.639  1.00  0.00    -0.275 OA
ATOM     11  N   UNL     1       2.465   2.593   1.515  1.00  0.00    -0.325 N 
ATOM     12  H   UNL     1       2.359   2.909   2.441  1.00  0.00     0.169 HD
BRANCH  11  13
ATOM     13  C   UNL     1       1.598   1.393   1.383  1.00  0.00     0.054 A 
ATOM     14  C   UNL     1       0.560   1.723   2.314  1.00  0.00     0.027 A 
ATOM     15  C   UNL     1       1.641  -0.032   0.778  1.00  0.00     0.063 A 
ATOM     16  C   UNL     1      -0.456   0.868   2.668  1.00  0.00     0.002 A 
ATOM     17  C   UNL     1       0.480  -0.781   1.136  1.00  0.00     0.016 A 
ATOM     18  C   UNL     1      -0.517  -0.359   2.048  1.00  0.00     0.001 A 
BRANCH  15  19
ATOM     19  C   UNL     1       2.662  -1.190  -0.190  1.00  0.00     0.256 C 
ATOM     20  O   UNL     1       2.168  -2.316  -0.391  1.00  0.00    -0.269 OA
ATOM     21  N   UNL     1       4.089  -1.086  -0.697  1.00  0.00    -0.335 N 
ATOM     22  C   UNL     1       4.426  -0.770  -2.116  1.00  0.00     0.141 C 
ATOM     23  C   UNL     1       5.259  -1.879  -0.202  1.00  0.00     0.141 C 
ATOM     24  C   UNL     1       5.742   0.094  -2.240  1.00  0.00     0.138 C 
ATOM     25  C   UNL     1       6.548  -0.993  -0.102  1.00  0.00     0.138 C 
ATOM     26  N   UNL     1       6.872  -0.332  -1.385  1.00  0.00    -0.368 N 
BRANCH  26  27
ATOM     27  C   UNL     1       8.080   0.375  -1.456  1.00  0.00     0.037 A 
ATOM     28  C   UNL     1       8.178   1.778  -1.550  1.00  0.00     0.027 A 
ATOM     29  C   UNL     1       9.286  -0.342  -1.487  1.00  0.00     0.027 A 
ATOM     30  C   UNL     1       9.416   2.422  -1.741  1.00  0.00     0.022 A 
ATOM     31  C   UNL     1      10.521   0.289  -1.697  1.00  0.00     0.022 A 
ATOM     32  C   UNL     1      10.580   1.669  -1.843  1.00  0.00     0.041 A 
ATOM     33  Cl  UNL     1      12.086   2.436  -2.171  1.00  0.00    -0.084 Cl
ENDBRANCH  26  27
ENDBRANCH  15  19
ENDBRANCH  11  13
ENDBRANCH   8   9
ENDBRANCH   7   8
ENDBRANCH   5   7
ENDBRANCH   2   3
ENDBRANCH   1   2
BRANCH   1  34
ATOM     34  C   UNL     1       5.127  -1.550   3.253  1.00  0.00     0.002 C 
BRANCH  34  35
ATOM     35  C   UNL     1       5.364  -0.731   4.519  1.00  0.00     0.002 C 
BRANCH  35  36
ATOM     36  C   UNL     1       4.307  -0.936   5.605  1.00  0.00     0.021 C 
BRANCH  36  37
ATOM     37  C   UNL     1       4.299  -2.328   6.233  1.00  0.00     0.116 C 
BRANCH  37  38
ATOM     38  N   UNL     1       5.638  -2.755   6.617  1.00  0.00    -0.352 N 
ATOM     39  C   UNL     1       6.168  -2.980   7.864  1.00  0.00     0.251 C 
ATOM     40  H   UNL     1       6.258  -2.906   5.868  1.00  0.00     0.163 HD
ATOM     41  O   UNL     1       7.376  -3.020   8.018  1.00  0.00    -0.269 OA
BRANCH  39  42
ATOM     42  C   UNL     1       5.256  -3.194   9.008  1.00  0.00     0.039 A 
ATOM     43  C   UNL     1       5.578  -2.641  10.248  1.00  0.00     0.014 A 
ATOM     44  C   UNL     1       4.108  -3.975   8.855  1.00  0.00     0.014 A 
ATOM     45  C   UNL     1       4.719  -2.839  11.329  1.00  0.00     0.010 A 
ATOM     46  C   UNL     1       3.211  -4.096   9.908  1.00  0.00     0.010 A 
ATOM     47  C   UNL     1       3.516  -3.546  11.160  1.00  0.00    -0.014 A 
BRANCH  47  48
ATOM     48  C   UNL     1       2.564  -3.718  12.282  1.00  0.00     0.031 A 
ATOM     49  C   UNL     1       2.231  -5.095  12.787  1.00  0.00     0.074 A 
ATOM     50  C   UNL     1       1.942  -2.637  12.789  1.00  0.00     0.049 A 
ATOM     51  N   UNL     1       1.395  -5.444  13.729  1.00  0.00    -0.248 NA
ATOM     52  C   UNL     1       2.901  -6.231  12.132  1.00  0.00     0.031 C 
ATOM     53  C   UNL     1       2.124  -1.260  12.321  1.00  0.00     0.029 A 
ATOM     54  N   UNL     1       1.012  -2.526  13.790  1.00  0.00    -0.354 N 
ATOM     55  C   UNL     1       1.409  -6.833  13.754  1.00  0.00     0.074 A 
ATOM     56  C   UNL     1       2.311  -7.266  12.711  1.00  0.00     0.031 C 
ATOM     57  C   UNL     1       1.341  -0.444  13.041  1.00  0.00     0.029 A 
ATOM     58  C   UNL     1       0.572  -1.240  13.993  1.00  0.00     0.049 A 
ATOM     59  H   UNL     1       0.690  -3.295  14.315  1.00  0.00     0.167 HD
ATOM     60  C   UNL     1       0.748  -7.671  14.587  1.00  0.00     0.034 A 
ATOM     61  C   UNL     1      -0.356  -0.756  14.841  1.00  0.00     0.034 A 
ATOM     62  C   UNL     1      -0.122  -7.229  15.643  1.00  0.00     0.049 A 
ATOM     63  C   UNL     1      -1.047  -1.706  15.780  1.00  0.00     0.074 A 
ATOM     64  C   UNL     1      -0.764  -7.992  16.601  1.00  0.00     0.029 A 
ATOM     65  N   UNL     1      -0.487  -5.911  15.868  1.00  0.00    -0.354 N 
ATOM     66  N   UNL     1      -0.902  -3.003  15.894  1.00  0.00    -0.248 NA
ATOM     67  C   UNL     1      -2.002  -1.121  16.731  1.00  0.00     0.031 C 
ATOM     68  C   UNL     1      -1.554  -7.139  17.379  1.00  0.00     0.029 A 
ATOM     69  C   UNL     1      -1.362  -5.839  16.939  1.00  0.00     0.049 A 
ATOM     70  H   UNL     1      -0.171  -5.140  15.345  1.00  0.00     0.167 HD
ATOM     71  C   UNL     1      -1.718  -3.386  16.953  1.00  0.00     0.074 A 
ATOM     72  C   UNL     1      -2.338  -2.178  17.457  1.00  0.00     0.031 C 
ATOM     73  C   UNL     1      -1.940  -4.625  17.456  1.00  0.00     0.034 A 
BRANCH  60  74
ATOM     74  C   UNL     1       0.962  -9.152  14.412  1.00  0.00     0.023 A 
ATOM     75  C   UNL     1       2.206  -9.728  14.742  1.00  0.00     0.012 A 
ATOM     76  C   UNL     1      -0.090  -9.983  13.980  1.00  0.00     0.148 A 
ATOM     77  C   UNL     1       2.411 -11.101  14.613  1.00  0.00     0.002 A 
ATOM     78  C   UNL     1       0.105 -11.356  13.903  1.00  0.00     0.091 A 
ATOM     79  F   UNL     1      -1.259  -9.415  13.650  1.00  0.00    -0.205 F 
ATOM     80  C   UNL     1       1.358 -11.915  14.205  1.00  0.00     0.022 A 
BRANCH  78  81
ATOM     81  S   UNL     1      -1.210 -12.500  13.471  1.00  0.00     0.127 S 
ATOM     82  O   UNL     1      -0.755 -12.997  12.174  1.00  0.00    -0.237 OA
ATOM     83  O   UNL     1      -1.136 -13.475  14.559  1.00  0.00    -0.237 OA
ATOM     84  O   UNL     1      -2.436 -11.713  13.440  1.00  0.00    -0.744 OA
ENDBRANCH  78  81
ENDBRANCH  60  74
BRANCH  61  85
ATOM     85  C   UNL     1      -0.646   0.704  14.869  1.00  0.00     0.023 A 
ATOM     86  C   UNL     1      -0.259   1.470  15.986  1.00  0.00     0.012 A 
ATOM     87  C   UNL     1      -1.273   1.342  13.781  1.00  0.00     0.148 A 
ATOM     88  C   UNL     1      -0.523   2.839  16.034  1.00  0.00     0.002 A 
ATOM     89  C   UNL     1      -1.479   2.715  13.810  1.00  0.00     0.091 A 
ATOM     90  F   UNL     1      -1.636   0.593  12.731  1.00  0.00    -0.205 F 
ATOM     91  C   UNL     1      -1.123   3.463  14.943  1.00  0.00     0.022 A 
BRANCH  89  92
ATOM     92  S   UNL     1      -2.121   3.623  12.400  1.00  0.00     0.127 S 
ATOM     93  O   UNL     1      -3.420   4.070  12.897  1.00  0.00    -0.237 OA
ATOM     94  O   UNL     1      -1.122   4.681  12.244  1.00  0.00    -0.237 OA
ATOM     95  O   UNL     1      -2.162   2.669  11.299  1.00  0.00    -0.744 OA
ENDBRANCH  89  92
ENDBRANCH  61  85
BRANCH  73  96
ATOM     96  C   UNL     1      -2.859  -4.742  18.643  1.00  0.00     0.023 A 
ATOM     97  C   UNL     1      -4.244  -4.532  18.492  1.00  0.00     0.012 A 
ATOM     98  C   UNL     1      -2.352  -5.132  19.899  1.00  0.00     0.148 A 
ATOM     99  C   UNL     1      -5.104  -4.669  19.581  1.00  0.00     0.002 A 
ATOM    100  C   UNL     1      -3.221  -5.322  20.965  1.00  0.00     0.091 A 
ATOM    101  F   UNL     1      -1.029  -5.313  20.026  1.00  0.00    -0.205 F 
ATOM    102  C   UNL     1      -4.595  -5.076  20.813  1.00  0.00     0.022 A 
BRANCH 100 103
ATOM    103  S   UNL     1      -2.670  -5.942  22.558  1.00  0.00     0.127 S 
ATOM    104  O   UNL     1      -2.823  -4.761  23.406  1.00  0.00    -0.237 OA
ATOM    105  O   UNL     1      -3.633  -7.011  22.822  1.00  0.00    -0.237 OA
ATOM    106  O   UNL     1      -1.300  -6.396  22.363  1.00  0.00    -0.744 OA
ENDBRANCH 100 103
ENDBRANCH  73  96
ENDBRANCH  47  48
ENDBRANCH  39  42
ENDBRANCH  37  38
ENDBRANCH  36  37
ENDBRANCH  35  36
ENDBRANCH  34  35
ENDBRANCH   1  34
TORSDOF 21
