REMARK SMILES CC1CC[NH+]([C@H](c2ccc(F)cc2)c2ccc([C@@H](C)C(=O)NCCCCCCNC(=O)c3ccc(-c4c5nc(c(-c6cccc(S(=O)(=O)[O-])c6F)c6ccc([nH]6)c(-c6cccc(S(=O)(=O)[O-])c6F)c6nc(c(-c7cccc(S(=O)(=O)[O-])c7F)c7ccc4[nH]7)C=C6)C=C5)cc3)cc2-c2ccc(C(F)(F)F)cc2)CC1
REMARK SMILES IDX 25 1 24 2 23 3 22 4 20 5 21 6 18 8 19 9 17 10 14 11 15 12
REMARK SMILES IDX 96 13 16 14 95 15 6 16 5 17 1 18 2 19 3 20 108 21 4 22
REMARK SMILES IDX 107 23 7 25 8 26 13 27 9 28 12 29 10 30 11 31 97 32 98 33
REMARK SMILES IDX 106 34 99 35 105 36 100 37 101 38 102 39 103 40 104 41 26 42
REMARK SMILES IDX 27 43 28 44 29 45 30 46 31 48 32 49 33 50 94 51 34 52 93 53
REMARK SMILES IDX 35 54 36 55 37 56 87 57 38 58 92 59 86 60 88 61 39 62 91 63
REMARK SMILES IDX 85 64 84 65 40 67 72 68 52 69 71 70 53 71 56 72 70 73 89 74
REMARK SMILES IDX 54 75 55 76 69 78 90 79 57 80 41 81 42 82 50 83 43 84 45 85
REMARK SMILES IDX 51 86 44 87 46 88 47 89 48 90 49 91 73 92 74 93 82 94 75 95
REMARK SMILES IDX 77 96 83 97 76 98 78 99 79 100 80 101 81 102 58 103 59 104
REMARK SMILES IDX 67 105 60 106 62 107 68 108 61 109 63 110 64 111 65 112
REMARK SMILES IDX 66 113
REMARK H PARENT 22 7 5 24 29 47 88 66 56 77
REMARK Flexibility Score: inf
ROOT
ATOM      1  C   UNL     1      -0.062   6.438  -3.447  1.00  0.00     0.002 C 
ENDROOT
BRANCH   1   2
ATOM      2  C   UNL     1       1.000   5.394  -3.800  1.00  0.00     0.021 C 
BRANCH   2   3
ATOM      3  C   UNL     1       2.229   5.969  -4.519  1.00  0.00     0.116 C 
BRANCH   3   4
ATOM      4  N   UNL     1       3.276   6.334  -3.584  1.00  0.00    -0.356 N 
ATOM      5  C   UNL     1       4.436   5.725  -3.212  1.00  0.00     0.227 C 
ATOM      6  O   UNL     1       5.081   6.293  -2.320  1.00  0.00    -0.274 OA
ATOM      7  H   UNL     1       3.117   7.192  -3.128  1.00  0.00     0.163 HD
BRANCH   5   8
ATOM      8  C   UNL     1       4.976   4.419  -3.828  1.00  0.00     0.105 C 
ATOM      9  C   UNL     1       5.244   4.504  -5.329  1.00  0.00     0.023 C 
BRANCH   8  10
ATOM     10  C   UNL     1       4.221   3.185  -3.370  1.00  0.00    -0.035 A 
ATOM     11  C   UNL     1       2.623   1.099  -2.221  1.00  0.00     0.022 A 
ATOM     12  C   UNL     1       2.177   1.906  -3.278  1.00  0.00     0.011 A 
ATOM     13  C   UNL     1       3.985   1.258  -1.839  1.00  0.00    -0.009 A 
ATOM     14  C   UNL     1       2.989   2.847  -3.898  1.00  0.00     0.005 A 
ATOM     15  C   UNL     1       4.725   2.352  -2.363  1.00  0.00     0.013 A 
BRANCH  11  16
ATOM     16  C   UNL     1       1.680   0.042  -1.575  1.00  0.00     0.247 C 
BRANCH  16  17
ATOM     17  N   UNL     1       0.248   0.006  -2.020  1.00  0.00    -0.325 N 
ATOM     18  C   UNL     1      -3.308   1.258  -4.258  1.00  0.00     0.008 C 
ATOM     19  C   UNL     1      -1.918   1.097  -3.664  1.00  0.00    -0.003 C 
ATOM     20  C   UNL     1      -1.312  -0.255  -4.032  1.00  0.00     0.065 C 
ATOM     21  C   UNL     1      -1.978   1.182  -2.148  1.00  0.00     0.065 C 
ATOM     22  C   UNL     1       0.061  -0.489  -3.390  1.00  0.00     0.263 C 
ATOM     23  C   UNL     1      -0.571   1.129  -1.569  1.00  0.00     0.263 C 
ATOM     24  H   UNL     1      -0.190  -0.741  -1.482  1.00  0.00     0.348 HD
ENDBRANCH  16  17
BRANCH  16  25
ATOM     25  C   UNL     1       1.754   0.016  -0.033  1.00  0.00     0.014 A 
ATOM     26  C   UNL     1       1.599   1.183   0.742  1.00  0.00     0.013 A 
ATOM     27  C   UNL     1       1.978  -1.203   0.634  1.00  0.00     0.013 A 
ATOM     28  C   UNL     1       1.648   1.128   2.136  1.00  0.00     0.040 A 
ATOM     29  C   UNL     1       2.067  -1.250   2.026  1.00  0.00     0.040 A 
ATOM     30  C   UNL     1       1.892  -0.086   2.764  1.00  0.00     0.123 A 
ATOM     31  F   UNL     1       1.961  -0.135   4.101  1.00  0.00    -0.207 F 
ENDBRANCH  16  25
ENDBRANCH  11  16
BRANCH  13  32
ATOM     32  C   UNL     1       4.707   0.304  -0.974  1.00  0.00    -0.018 A 
ATOM     33  C   UNL     1       5.297   0.705   0.234  1.00  0.00     0.009 A 
ATOM     34  C   UNL     1       4.863  -1.035  -1.373  1.00  0.00     0.009 A 
ATOM     35  C   UNL     1       5.989  -0.211   1.034  1.00  0.00     0.014 A 
ATOM     36  C   UNL     1       5.541  -1.956  -0.570  1.00  0.00     0.014 A 
ATOM     37  C   UNL     1       6.105  -1.554   0.647  1.00  0.00     0.056 A 
BRANCH  37  38
ATOM     38  C   UNL     1       6.843  -2.534   1.522  1.00  0.00     0.416 C 
ATOM     39  F   UNL     1       8.188  -2.312   1.533  1.00  0.00    -0.166 F 
ATOM     40  F   UNL     1       6.449  -2.481   2.826  1.00  0.00    -0.166 F 
ATOM     41  F   UNL     1       6.686  -3.834   1.143  1.00  0.00    -0.166 F 
ENDBRANCH  37  38
ENDBRANCH  13  32
ENDBRANCH   8  10
ENDBRANCH   5   8
ENDBRANCH   3   4
ENDBRANCH   2   3
ENDBRANCH   1   2
BRANCH   1  42
ATOM     42  C   UNL     1      -0.695   7.141  -4.654  1.00  0.00     0.002 C 
BRANCH  42  43
ATOM     43  C   UNL     1      -1.365   6.213  -5.673  1.00  0.00     0.021 C 
BRANCH  43  44
ATOM     44  C   UNL     1      -2.565   5.444  -5.127  1.00  0.00     0.116 C 
BRANCH  44  45
ATOM     45  N   UNL     1      -3.641   6.349  -4.734  1.00  0.00    -0.352 N 
ATOM     46  C   UNL     1      -4.914   6.453  -5.246  1.00  0.00     0.251 C 
ATOM     47  H   UNL     1      -3.426   6.970  -4.001  1.00  0.00     0.163 HD
ATOM     48  O   UNL     1      -5.609   7.429  -4.998  1.00  0.00    -0.269 OA
BRANCH  46  49
ATOM     49  C   UNL     1      -5.433   5.357  -6.089  1.00  0.00     0.039 A 
ATOM     50  C   UNL     1      -6.040   5.630  -7.316  1.00  0.00     0.014 A 
ATOM     51  C   UNL     1      -5.292   4.043  -5.651  1.00  0.00     0.014 A 
ATOM     52  C   UNL     1      -6.429   4.569  -8.141  1.00  0.00     0.010 A 
ATOM     53  C   UNL     1      -5.603   2.993  -6.505  1.00  0.00     0.010 A 
ATOM     54  C   UNL     1      -6.171   3.240  -7.762  1.00  0.00    -0.014 A 
BRANCH  54  55
ATOM     55  C   UNL     1      -6.453   2.079  -8.648  1.00  0.00     0.031 A 
ATOM     56  C   UNL     1      -7.361   0.973  -8.173  1.00  0.00     0.074 A 
ATOM     57  C   UNL     1      -5.784   1.945  -9.811  1.00  0.00     0.049 A 
ATOM     58  N   UNL     1      -7.590  -0.196  -8.712  1.00  0.00    -0.248 NA
ATOM     59  C   UNL     1      -8.077   1.196  -6.904  1.00  0.00     0.031 C 
ATOM     60  C   UNL     1      -4.821   2.906 -10.351  1.00  0.00     0.029 A 
ATOM     61  N   UNL     1      -5.785   0.926 -10.733  1.00  0.00    -0.354 N 
ATOM     62  C   UNL     1      -8.438  -0.860  -7.834  1.00  0.00     0.074 A 
ATOM     63  C   UNL     1      -8.655   0.020  -6.707  1.00  0.00     0.031 C 
ATOM     64  C   UNL     1      -4.329   2.435 -11.508  1.00  0.00     0.029 A 
ATOM     65  C   UNL     1      -4.904   1.120 -11.772  1.00  0.00     0.049 A 
ATOM     66  H   UNL     1      -6.362   0.131 -10.657  1.00  0.00     0.167 HD
ATOM     67  C   UNL     1      -9.011  -2.080  -7.966  1.00  0.00     0.034 A 
ATOM     68  C   UNL     1      -4.580   0.324 -12.811  1.00  0.00     0.034 A 
ATOM     69  C   UNL     1      -8.838  -2.932  -9.112  1.00  0.00     0.049 A 
ATOM     70  C   UNL     1      -5.258  -1.013 -12.950  1.00  0.00     0.074 A 
ATOM     71  C   UNL     1      -9.439  -4.150  -9.372  1.00  0.00     0.029 A 
ATOM     72  N   UNL     1      -8.008  -2.658 -10.188  1.00  0.00    -0.354 N 
ATOM     73  N   UNL     1      -6.152  -1.570 -12.170  1.00  0.00    -0.248 NA
ATOM     74  C   UNL     1      -4.907  -1.817 -14.130  1.00  0.00     0.031 C 
ATOM     75  C   UNL     1      -8.955  -4.625 -10.594  1.00  0.00     0.029 A 
ATOM     76  C   UNL     1      -8.080  -3.685 -11.113  1.00  0.00     0.049 A 
ATOM     77  H   UNL     1      -7.451  -1.852 -10.280  1.00  0.00     0.167 HD
ATOM     78  C   UNL     1      -6.497  -2.770 -12.782  1.00  0.00     0.074 A 
ATOM     79  C   UNL     1      -5.733  -2.848 -14.009  1.00  0.00     0.031 C 
ATOM     80  C   UNL     1      -7.356  -3.729 -12.357  1.00  0.00     0.034 A 
BRANCH  67  81
ATOM     81  C   UNL     1      -9.941  -2.550  -6.878  1.00  0.00     0.023 A 
ATOM     82  C   UNL     1     -11.206  -1.943  -6.736  1.00  0.00     0.012 A 
ATOM     83  C   UNL     1      -9.612  -3.657  -6.071  1.00  0.00     0.148 A 
ATOM     84  C   UNL     1     -12.120  -2.416  -5.797  1.00  0.00     0.002 A 
ATOM     85  C   UNL     1     -10.547  -4.154  -5.171  1.00  0.00     0.091 A 
ATOM     86  F   UNL     1      -8.398  -4.209  -6.208  1.00  0.00    -0.205 F 
ATOM     87  C   UNL     1     -11.797  -3.529  -5.026  1.00  0.00     0.022 A 
BRANCH  85  88
ATOM     88  S   UNL     1     -10.270  -5.638  -4.197  1.00  0.00     0.127 S 
ATOM     89  O   UNL     1     -10.268  -5.100  -2.836  1.00  0.00    -0.237 OA
ATOM     90  O   UNL     1     -11.441  -6.446  -4.531  1.00  0.00    -0.237 OA
ATOM     91  O   UNL     1      -8.998  -6.185  -4.647  1.00  0.00    -0.744 OA
ENDBRANCH  85  88
ENDBRANCH  67  81
BRANCH  68  92
ATOM     92  C   UNL     1      -3.611   0.800 -13.840  1.00  0.00     0.023 A 
ATOM     93  C   UNL     1      -4.078   1.104 -15.134  1.00  0.00     0.012 A 
ATOM     94  C   UNL     1      -2.247   0.984 -13.543  1.00  0.00     0.148 A 
ATOM     95  C   UNL     1      -3.200   1.552 -16.122  1.00  0.00     0.002 A 
ATOM     96  C   UNL     1      -1.389   1.489 -14.514  1.00  0.00     0.091 A 
ATOM     97  F   UNL     1      -1.820   0.680 -12.309  1.00  0.00    -0.205 F 
ATOM     98  C   UNL     1      -1.859   1.755 -15.809  1.00  0.00     0.022 A 
BRANCH  96  99
ATOM     99  S   UNL     1       0.320   1.917 -14.163  1.00  0.00     0.127 S 
ATOM    100  O   UNL     1       1.045   0.923 -14.951  1.00  0.00    -0.237 OA
ATOM    101  O   UNL     1       0.397   3.286 -14.673  1.00  0.00    -0.237 OA
ATOM    102  O   UNL     1       0.467   1.805 -12.718  1.00  0.00    -0.744 OA
ENDBRANCH  96  99
ENDBRANCH  68  92
BRANCH  80 103
ATOM    103  C   UNL     1      -7.555  -4.939 -13.235  1.00  0.00     0.023 A 
ATOM    104  C   UNL     1      -6.524  -5.890 -13.365  1.00  0.00     0.012 A 
ATOM    105  C   UNL     1      -8.796  -5.175 -13.861  1.00  0.00     0.148 A 
ATOM    106  C   UNL     1      -6.712  -7.039 -14.133  1.00  0.00     0.002 A 
ATOM    107  C   UNL     1      -8.995  -6.349 -14.577  1.00  0.00     0.091 A 
ATOM    108  F   UNL     1      -9.760  -4.251 -13.739  1.00  0.00    -0.205 F 
ATOM    109  C   UNL     1      -7.950  -7.275 -14.727  1.00  0.00     0.022 A 
BRANCH 107 110
ATOM    110  S   UNL     1     -10.587  -6.788 -15.284  1.00  0.00     0.127 S 
ATOM    111  O   UNL     1     -10.338  -6.604 -16.713  1.00  0.00    -0.237 OA
ATOM    112  O   UNL     1     -10.738  -8.182 -14.867  1.00  0.00    -0.237 OA
ATOM    113  O   UNL     1     -11.554  -5.873 -14.695  1.00  0.00    -0.744 OA
ENDBRANCH 107 110
ENDBRANCH  80 103
ENDBRANCH  54  55
ENDBRANCH  46  49
ENDBRANCH  44  45
ENDBRANCH  43  44
ENDBRANCH  42  43
ENDBRANCH   1  42
TORSDOF 22
