REMARK SMILES CCC[C@@]1(C(=O)N[C@@](C)(C(=O)NCCCCCCNC(=O)c2ccc(-c3c4nc(c(-c5cccc(S(=O)(=O)[O-])c5F)c5ccc([nH]5)c(-c5cccc(S(=O)(=O)[O-])c5F)c5nc(c(-c6cccc(S(=O)(=O)[O-])c6F)c6ccc3[nH]6)C=C5)C=C4)cc2)C(F)(F)F)CC[NH2+]C1
REMARK SMILES IDX 15 1 14 2 13 3 12 4 10 5 11 6 8 8 9 9 7 10 5 11 6 12 4 14
REMARK SMILES IDX 89 15 92 16 90 17 91 18 3 21 2 22 1 23 85 24 86 25 87 26
REMARK SMILES IDX 88 27 16 28 17 29 18 30 19 31 20 32 21 34 22 35 23 36 84 37
REMARK SMILES IDX 24 38 83 39 25 40 26 41 27 42 77 43 28 44 82 45 76 46 78 47
REMARK SMILES IDX 29 48 81 49 75 50 74 51 30 53 62 54 42 55 61 56 43 57 46 58
REMARK SMILES IDX 60 59 79 60 44 61 45 62 59 64 80 65 47 66 31 67 32 68 40 69
REMARK SMILES IDX 33 70 35 71 41 72 34 73 36 74 37 75 38 76 39 77 63 78 64 79
REMARK SMILES IDX 72 80 65 81 67 82 73 83 66 84 68 85 69 86 70 87 71 88 48 89
REMARK SMILES IDX 49 90 57 91 50 92 52 93 58 94 51 95 53 96 54 97 55 98 56 99
REMARK H PARENT 12 7 7 13 91 19 91 20 19 33 78 52 46 63
REMARK Flexibility Score: inf
ROOT
ATOM      1  C   UNL     1       6.609  -0.431   0.482  1.00  0.00     0.002 C 
ENDROOT
BRANCH   1   2
ATOM      2  C   UNL     1       5.797   0.087  -0.711  1.00  0.00     0.021 C 
BRANCH   2   3
ATOM      3  C   UNL     1       5.438  -1.002  -1.719  1.00  0.00     0.116 C 
BRANCH   3   4
ATOM      4  N   UNL     1       4.576  -1.982  -1.079  1.00  0.00    -0.354 N 
ATOM      5  C   UNL     1       3.216  -2.098  -1.117  1.00  0.00     0.254 C 
ATOM      6  O   UNL     1       2.671  -2.428  -0.061  1.00  0.00    -0.272 OA
ATOM      7  H   UNL     1       5.040  -2.662  -0.540  1.00  0.00     0.163 HD
BRANCH   5   8
ATOM      8  C   UNL     1       2.411  -1.786  -2.409  1.00  0.00     0.212 C 
ATOM      9  C   UNL     1       3.219  -2.418  -3.589  1.00  0.00     0.056 C 
BRANCH   8  10
ATOM     10  N   UNL     1       2.437  -0.382  -2.574  1.00  0.00    -0.334 N 
ATOM     11  C   UNL     1       1.479  -0.029  -3.433  1.00  0.00     0.233 C 
ATOM     12  O   UNL     1       1.474   1.057  -3.977  1.00  0.00    -0.274 OA
ATOM     13  H   UNL     1       3.061   0.236  -2.127  1.00  0.00     0.164 HD
BRANCH  11  14
ATOM     14  C   UNL     1       0.386  -1.098  -3.361  1.00  0.00     0.103 C 
ATOM     15  C   UNL     1      -0.062  -0.922  -1.340  1.00  0.00     0.084 C 
ATOM     16  C   UNL     1       0.538  -3.125  -3.827  1.00  0.00     0.277 C 
ATOM     17  C   UNL     1      -0.670  -2.835  -0.790  1.00  0.00     0.261 C 
ATOM     18  N   UNL     1      -0.509  -4.024  -2.375  1.00  0.00    -0.345 N 
ATOM     19  H   UNL     1      -1.442  -4.248  -2.723  1.00  0.00     0.346 HD
ATOM     20  H   UNL     1      -0.022  -4.877  -2.099  1.00  0.00     0.346 HD
BRANCH  14  21
ATOM     21  C   UNL     1      -0.708  -0.429  -4.339  1.00  0.00     0.023 C 
BRANCH  21  22
ATOM     22  C   UNL     1      -1.889  -1.208  -4.927  1.00  0.00    -0.002 C 
ATOM     23  C   UNL     1      -3.153  -1.101  -4.100  1.00  0.00     0.004 C 
ENDBRANCH  21  22
ENDBRANCH  14  21
ENDBRANCH  11  14
ENDBRANCH   8  10
BRANCH   8  24
ATOM     24  C   UNL     1       0.877  -2.538  -1.980  1.00  0.00     0.420 C 
ATOM     25  F   UNL     1      -0.861  -2.021  -2.207  1.00  0.00    -0.168 F 
ATOM     26  F   UNL     1      -0.614  -2.433  -3.069  1.00  0.00    -0.168 F 
ATOM     27  F   UNL     1       1.167  -3.816  -1.560  1.00  0.00    -0.168 F 
ENDBRANCH   8  24
ENDBRANCH   5   8
ENDBRANCH   3   4
ENDBRANCH   2   3
ENDBRANCH   1   2
BRANCH   1  28
ATOM     28  C   UNL     1       7.858  -1.233   0.103  1.00  0.00     0.002 C 
BRANCH  28  29
ATOM     29  C   UNL     1       8.800  -0.524  -0.872  1.00  0.00     0.021 C 
BRANCH  29  30
ATOM     30  C   UNL     1       9.239   0.863  -0.421  1.00  0.00     0.116 C 
BRANCH  30  31
ATOM     31  N   UNL     1       9.969   0.818   0.834  1.00  0.00    -0.352 N 
ATOM     32  C   UNL     1      11.193   1.365   1.124  1.00  0.00     0.251 C 
ATOM     33  H   UNL     1       9.529   0.334   1.570  1.00  0.00     0.163 HD
ATOM     34  O   UNL     1      11.769   1.084   2.170  1.00  0.00    -0.269 OA
BRANCH  32  35
ATOM     35  C   UNL     1      11.814   2.278   0.145  1.00  0.00     0.039 A 
ATOM     36  C   UNL     1      13.128   2.043  -0.262  1.00  0.00     0.014 A 
ATOM     37  C   UNL     1      11.076   3.333  -0.401  1.00  0.00     0.014 A 
ATOM     38  C   UNL     1      13.688   2.838  -1.263  1.00  0.00     0.010 A 
ATOM     39  C   UNL     1      11.613   4.080  -1.443  1.00  0.00     0.010 A 
ATOM     40  C   UNL     1      12.924   3.842  -1.881  1.00  0.00    -0.014 A 
BRANCH  40  41
ATOM     41  C   UNL     1      13.472   4.641  -3.005  1.00  0.00     0.031 A 
ATOM     42  C   UNL     1      13.666   6.124  -2.856  1.00  0.00     0.074 A 
ATOM     43  C   UNL     1      13.698   4.044  -4.192  1.00  0.00     0.049 A 
ATOM     44  N   UNL     1      14.081   6.992  -3.741  1.00  0.00    -0.248 NA
ATOM     45  C   UNL     1      13.322   6.715  -1.551  1.00  0.00     0.031 C 
ATOM     46  C   UNL     1      13.455   2.630  -4.487  1.00  0.00     0.029 A 
ATOM     47  N   UNL     1      14.149   4.558  -5.382  1.00  0.00    -0.354 N 
ATOM     48  C   UNL     1      14.012   8.232  -3.118  1.00  0.00     0.074 A 
ATOM     49  C   UNL     1      13.491   8.009  -1.787  1.00  0.00     0.031 C 
ATOM     50  C   UNL     1      13.751   2.392  -5.775  1.00  0.00     0.029 A 
ATOM     51  C   UNL     1      14.184   3.636  -6.403  1.00  0.00     0.049 A 
ATOM     52  H   UNL     1      14.421   5.497  -5.494  1.00  0.00     0.167 HD
ATOM     53  C   UNL     1      14.378   9.442  -3.600  1.00  0.00     0.034 A 
ATOM     54  C   UNL     1      14.518   3.780  -7.700  1.00  0.00     0.034 A 
ATOM     55  C   UNL     1      14.951   9.649  -4.902  1.00  0.00     0.049 A 
ATOM     56  C   UNL     1      14.982   5.124  -8.190  1.00  0.00     0.074 A 
ATOM     57  C   UNL     1      15.470  10.815  -5.436  1.00  0.00     0.029 A 
ATOM     58  N   UNL     1      15.072   8.673  -5.878  1.00  0.00    -0.354 N 
ATOM     59  N   UNL     1      15.097   6.248  -7.525  1.00  0.00    -0.248 NA
ATOM     60  C   UNL     1      15.398   5.214  -9.598  1.00  0.00     0.031 C 
ATOM     61  C   UNL     1      15.887  10.547  -6.744  1.00  0.00     0.029 A 
ATOM     62  C   UNL     1      15.642   9.211  -7.018  1.00  0.00     0.049 A 
ATOM     63  H   UNL     1      14.793   7.734  -5.775  1.00  0.00     0.167 HD
ATOM     64  C   UNL     1      15.621   7.171  -8.424  1.00  0.00     0.074 A 
ATOM     65  C   UNL     1      15.828   6.466  -9.672  1.00  0.00     0.031 C 
ATOM     66  C   UNL     1      15.888   8.487  -8.238  1.00  0.00     0.034 A 
BRANCH  53  67
ATOM     67  C   UNL     1      14.232  10.634  -2.693  1.00  0.00     0.023 A 
ATOM     68  C   UNL     1      15.127  10.798  -1.616  1.00  0.00     0.012 A 
ATOM     69  C   UNL     1      13.267  11.627  -2.949  1.00  0.00     0.148 A 
ATOM     70  C   UNL     1      15.046  11.919  -0.791  1.00  0.00     0.002 A 
ATOM     71  C   UNL     1      13.219  12.761  -2.147  1.00  0.00     0.091 A 
ATOM     72  F   UNL     1      12.411  11.440  -3.964  1.00  0.00    -0.205 F 
ATOM     73  C   UNL     1      14.101  12.904  -1.063  1.00  0.00     0.022 A 
BRANCH  71  74
ATOM     74  S   UNL     1      12.088  14.121  -2.458  1.00  0.00     0.127 S 
ATOM     75  O   UNL     1      11.147  13.983  -1.347  1.00  0.00    -0.237 OA
ATOM     76  O   UNL     1      12.972  15.284  -2.367  1.00  0.00    -0.237 OA
ATOM     77  O   UNL     1      11.530  13.884  -3.782  1.00  0.00    -0.744 OA
ENDBRANCH  71  74
ENDBRANCH  53  67
BRANCH  54  78
ATOM     78  C   UNL     1      14.485   2.599  -8.609  1.00  0.00     0.023 A 
ATOM     79  C   UNL     1      15.695   2.047  -9.071  1.00  0.00     0.012 A 
ATOM     80  C   UNL     1      13.268   2.000  -8.988  1.00  0.00     0.148 A 
ATOM     81  C   UNL     1      15.693   0.937  -9.917  1.00  0.00     0.002 A 
ATOM     82  C   UNL     1      13.275   0.860  -9.784  1.00  0.00     0.091 A 
ATOM     83  F   UNL     1      12.125   2.548  -8.552  1.00  0.00    -0.205 F 
ATOM     84  C   UNL     1      14.486   0.337 -10.265  1.00  0.00     0.022 A 
BRANCH  82  85
ATOM     85  S   UNL     1      11.773  -0.053 -10.155  1.00  0.00     0.127 S 
ATOM     86  O   UNL     1      11.512   0.344 -11.535  1.00  0.00    -0.237 OA
ATOM     87  O   UNL     1      12.207  -1.441  -9.983  1.00  0.00    -0.237 OA
ATOM     88  O   UNL     1      10.798   0.389  -9.166  1.00  0.00    -0.744 OA
ENDBRANCH  82  85
ENDBRANCH  54  78
BRANCH  66  89
ATOM     89  C   UNL     1      16.444   9.258  -9.405  1.00  0.00     0.023 A 
ATOM     90  C   UNL     1      15.598   9.599 -10.478  1.00  0.00     0.012 A 
ATOM     91  C   UNL     1      17.777   9.713  -9.402  1.00  0.00     0.148 A 
ATOM     92  C   UNL     1      16.077  10.358 -11.544  1.00  0.00     0.002 A 
ATOM     93  C   UNL     1      18.235  10.508 -10.445  1.00  0.00     0.091 A 
ATOM     94  F   UNL     1      18.572   9.362  -8.380  1.00  0.00    -0.205 F 
ATOM     95  C   UNL     1      17.390  10.823 -11.522  1.00  0.00     0.022 A 
BRANCH  93  96
ATOM     96  S   UNL     1      19.881  11.227 -10.455  1.00  0.00     0.127 S 
ATOM     97  O   UNL     1      20.559  10.407 -11.457  1.00  0.00    -0.237 OA
ATOM     98  O   UNL     1      19.618  12.605 -10.871  1.00  0.00    -0.237 OA
ATOM     99  O   UNL     1      20.383  11.096  -9.094  1.00  0.00    -0.744 OA
ENDBRANCH  93  96
ENDBRANCH  66  89
ENDBRANCH  40  41
ENDBRANCH  32  35
ENDBRANCH  30  31
ENDBRANCH  29  30
ENDBRANCH  28  29
ENDBRANCH   1  28
TORSDOF 21
