REMARK SMILES O=C(C[C@H](Cc1ccc(Cl)cc1)C(=O)Nc1cc(Cl)ccc1Cl)NCCCCCCNC(=O)c1ccc(-c2c3nc(c(-c4cccc(S(=O)(=O)[O-])c4F)c4ccc([nH]4)c(-c4cccc(S(=O)(=O)[O-])c4F)c4nc(c(-c5cccc(S(=O)(=O)[O-])c5F)c5ccc2[nH]5)C=C4)C=C3)cc1
REMARK SMILES IDX 27 1 26 2 25 3 24 4 1 5 2 6 3 8 4 9 13 10 14 11 15 12 16 14
REMARK SMILES IDX 17 15 22 16 18 17 21 18 23 19 19 20 20 21 5 22 6 23 7 24
REMARK SMILES IDX 12 25 8 26 11 27 9 28 10 29 28 30 29 31 30 32 31 33 32 34
REMARK SMILES IDX 33 36 34 37 35 38 96 39 36 40 95 41 37 42 38 43 39 44 89 45
REMARK SMILES IDX 40 46 94 47 88 48 90 49 41 50 93 51 87 52 86 53 42 55 74 56
REMARK SMILES IDX 54 57 73 58 55 59 58 60 72 61 91 62 56 63 57 64 71 66 92 67
REMARK SMILES IDX 59 68 43 69 44 70 52 71 45 72 47 73 53 74 46 75 48 76 49 77
REMARK SMILES IDX 50 78 51 79 75 80 76 81 84 82 77 83 79 84 85 85 78 86 80 87
REMARK SMILES IDX 81 88 82 89 83 90 60 91 61 92 69 93 62 94 64 95 70 96 63 97
REMARK SMILES IDX 65 98 66 99 67 100 68 101
REMARK H PARENT 24 7 15 13 31 35 90 54 58 65
REMARK Flexibility Score: inf
ROOT
ATOM      1  C   UNL     1       3.070   2.800   5.162  1.00  0.00     0.002 C 
ENDROOT
BRANCH   1   2
ATOM      2  C   UNL     1       3.310   1.285   5.098  1.00  0.00     0.021 C 
BRANCH   2   3
ATOM      3  C   UNL     1       2.863   0.629   3.792  1.00  0.00     0.116 C 
BRANCH   3   4
ATOM      4  N   UNL     1       3.477   1.274   2.649  1.00  0.00    -0.356 N 
ATOM      5  O   UNL     1       5.019  -0.372   2.194  1.00  0.00    -0.275 OA
ATOM      6  C   UNL     1       4.536   0.731   1.965  1.00  0.00     0.220 C 
ATOM      7  H   UNL     1       3.119   2.141   2.350  1.00  0.00     0.163 HD
BRANCH   6   8
ATOM      8  C   UNL     1       5.083   1.627   0.880  1.00  0.00     0.113 C 
BRANCH   8   9
ATOM      9  C   UNL     1       4.116   1.894  -0.287  1.00  0.00     0.092 C 
BRANCH   9  10
ATOM     10  C   UNL     1       4.871   2.705  -1.395  1.00  0.00     0.228 C 
ATOM     11  O   UNL     1       4.526   3.872  -1.618  1.00  0.00    -0.274 OA
ATOM     12  N   UNL     1       6.022   2.259  -2.014  1.00  0.00    -0.324 N 
ATOM     13  H   UNL     1       6.730   2.922  -2.182  1.00  0.00     0.169 HD
BRANCH  12  14
ATOM     14  C   UNL     1       6.268   0.933  -2.425  1.00  0.00     0.061 A 
ATOM     15  C   UNL     1       4.852   0.103  -3.124  1.00  0.00     0.048 A 
ATOM     16  C   UNL     1       7.461  -0.035  -1.573  1.00  0.00     0.064 A 
ATOM     17  C   UNL     1       4.606  -1.880  -2.786  1.00  0.00     0.043 A 
ATOM     18  C   UNL     1       7.302  -1.784  -1.303  1.00  0.00     0.024 A 
ATOM     19  Cl  UNL     1       8.774   0.772  -0.790  1.00  0.00    -0.082 Cl
ATOM     20  Cl  UNL     1       3.377  -3.184  -3.116  1.00  0.00    -0.084 Cl
ATOM     21  C   UNL     1       5.917  -2.725  -1.865  1.00  0.00     0.022 A 
ENDBRANCH  12  14
ENDBRANCH   9  10
BRANCH   9  22
ATOM     22  C   UNL     1       3.096   0.761  -0.646  1.00  0.00     0.049 C 
BRANCH  22  23
ATOM     23  C   UNL     1       3.569  -0.359  -1.553  1.00  0.00    -0.047 A 
ATOM     24  C   UNL     1       2.749  -0.505  -3.119  1.00  0.00     0.005 A 
ATOM     25  C   UNL     1       5.325  -0.711  -1.481  1.00  0.00     0.005 A 
ATOM     26  C   UNL     1       3.603  -0.906  -4.638  1.00  0.00     0.021 A 
ATOM     27  C   UNL     1       6.298  -1.107  -3.210  1.00  0.00     0.021 A 
ATOM     28  C   UNL     1       5.334  -1.202  -4.721  1.00  0.00     0.041 A 
ATOM     29  Cl  UNL     1       6.096  -1.547  -6.214  1.00  0.00    -0.084 Cl
ENDBRANCH  22  23
ENDBRANCH   9  22
ENDBRANCH   8   9
ENDBRANCH   6   8
ENDBRANCH   3   4
ENDBRANCH   2   3
ENDBRANCH   1   2
BRANCH   1  30
ATOM     30  C   UNL     1       1.623   3.247   4.938  1.00  0.00     0.002 C 
BRANCH  30  31
ATOM     31  C   UNL     1       0.603   2.671   5.922  1.00  0.00     0.021 C 
BRANCH  31  32
ATOM     32  C   UNL     1       0.889   2.960   7.393  1.00  0.00     0.116 C 
BRANCH  32  33
ATOM     33  N   UNL     1       0.882   4.383   7.694  1.00  0.00    -0.352 N 
ATOM     34  C   UNL     1       0.313   5.040   8.757  1.00  0.00     0.251 C 
ATOM     35  H   UNL     1       1.352   4.955   7.045  1.00  0.00     0.163 HD
ATOM     36  O   UNL     1       0.281   6.268   8.767  1.00  0.00    -0.269 OA
BRANCH  34  37
ATOM     37  C   UNL     1      -0.279   4.273   9.876  1.00  0.00     0.039 A 
ATOM     38  C   UNL     1      -1.512   4.680  10.394  1.00  0.00     0.014 A 
ATOM     39  C   UNL     1       0.383   3.173  10.428  1.00  0.00     0.014 A 
ATOM     40  C   UNL     1      -2.101   3.958  11.436  1.00  0.00     0.010 A 
ATOM     41  C   UNL     1      -0.236   2.415  11.420  1.00  0.00     0.010 A 
ATOM     42  C   UNL     1      -1.477   2.807  11.945  1.00  0.00    -0.014 A 
BRANCH  42  43
ATOM     43  C   UNL     1      -2.092   2.017  13.043  1.00  0.00     0.031 A 
ATOM     44  C   UNL     1      -1.400   1.917  14.377  1.00  0.00     0.074 A 
ATOM     45  C   UNL     1      -3.231   1.332  12.821  1.00  0.00     0.049 A 
ATOM     46  N   UNL     1      -1.739   1.224  15.434  1.00  0.00    -0.248 NA
ATOM     47  C   UNL     1      -0.146   2.674  14.537  1.00  0.00     0.031 C 
ATOM     48  C   UNL     1      -3.957   1.284  11.550  1.00  0.00     0.029 A 
ATOM     49  N   UNL     1      -3.964   0.521  13.652  1.00  0.00    -0.354 N 
ATOM     50  C   UNL     1      -0.734   1.438  16.369  1.00  0.00     0.074 A 
ATOM     51  C   UNL     1       0.251   2.292  15.742  1.00  0.00     0.031 C 
ATOM     52  C   UNL     1      -5.026   0.480  11.684  1.00  0.00     0.029 A 
ATOM     53  C   UNL     1      -5.053  -0.057  13.041  1.00  0.00     0.049 A 
ATOM     54  H   UNL     1      -3.732   0.366  14.596  1.00  0.00     0.167 HD
ATOM     55  C   UNL     1      -0.653   0.999  17.648  1.00  0.00     0.034 A 
ATOM     56  C   UNL     1      -5.968  -0.922  13.521  1.00  0.00     0.034 A 
ATOM     57  C   UNL     1      -1.656   0.190  18.286  1.00  0.00     0.049 A 
ATOM     58  C   UNL     1      -5.890  -1.341  14.965  1.00  0.00     0.074 A 
ATOM     59  C   UNL     1      -1.688  -0.274  19.590  1.00  0.00     0.029 A 
ATOM     60  N   UNL     1      -2.812  -0.265  17.672  1.00  0.00    -0.354 N 
ATOM     61  N   UNL     1      -5.000  -1.017  15.872  1.00  0.00    -0.248 NA
ATOM     62  C   UNL     1      -6.970  -2.203  15.468  1.00  0.00     0.031 C 
ATOM     63  C   UNL     1      -2.869  -1.005  19.765  1.00  0.00     0.029 A 
ATOM     64  C   UNL     1      -3.575  -0.985  18.574  1.00  0.00     0.049 A 
ATOM     65  H   UNL     1      -3.054  -0.100  16.732  1.00  0.00     0.167 HD
ATOM     66  C   UNL     1      -5.436  -1.595  17.058  1.00  0.00     0.074 A 
ATOM     67  C   UNL     1      -6.681  -2.273  16.760  1.00  0.00     0.031 C 
ATOM     68  C   UNL     1      -4.851  -1.584  18.281  1.00  0.00     0.034 A 
BRANCH  55  69
ATOM     69  C   UNL     1       0.523   1.455  18.471  1.00  0.00     0.023 A 
ATOM     70  C   UNL     1       0.577   2.797  18.902  1.00  0.00     0.012 A 
ATOM     71  C   UNL     1       1.533   0.560  18.873  1.00  0.00     0.148 A 
ATOM     72  C   UNL     1       1.631   3.249  19.693  1.00  0.00     0.002 A 
ATOM     73  C   UNL     1       2.560   1.008  19.697  1.00  0.00     0.091 A 
ATOM     74  F   UNL     1       1.475  -0.707  18.439  1.00  0.00    -0.205 F 
ATOM     75  C   UNL     1       2.616   2.354  20.099  1.00  0.00     0.022 A 
BRANCH  73  76
ATOM     76  S   UNL     1       3.838  -0.079  20.339  1.00  0.00     0.127 S 
ATOM     77  O   UNL     1       5.019   0.396  19.619  1.00  0.00    -0.237 OA
ATOM     78  O   UNL     1       3.826   0.241  21.767  1.00  0.00    -0.237 OA
ATOM     79  O   UNL     1       3.414  -1.434  20.015  1.00  0.00    -0.744 OA
ENDBRANCH  73  76
ENDBRANCH  55  69
BRANCH  56  80
ATOM     80  C   UNL     1      -7.085  -1.391  12.651  1.00  0.00     0.023 A 
ATOM     81  C   UNL     1      -8.397  -0.947  12.912  1.00  0.00     0.012 A 
ATOM     82  C   UNL     1      -6.860  -2.262  11.569  1.00  0.00     0.148 A 
ATOM     83  C   UNL     1      -9.469  -1.397  12.139  1.00  0.00     0.002 A 
ATOM     84  C   UNL     1      -7.924  -2.663  10.769  1.00  0.00     0.091 A 
ATOM     85  F   UNL     1      -5.609  -2.687  11.343  1.00  0.00    -0.205 F 
ATOM     86  C   UNL     1      -9.232  -2.247  11.063  1.00  0.00     0.022 A 
BRANCH  84  87
ATOM     87  S   UNL     1      -7.678  -3.647   9.286  1.00  0.00     0.127 S 
ATOM     88  O   UNL     1      -8.042  -4.983   9.748  1.00  0.00    -0.237 OA
ATOM     89  O   UNL     1      -8.625  -3.039   8.350  1.00  0.00    -0.237 OA
ATOM     90  O   UNL     1      -6.280  -3.451   8.925  1.00  0.00    -0.744 OA
ENDBRANCH  84  87
ENDBRANCH  56  80
BRANCH  68  91
ATOM     91  C   UNL     1      -5.572  -2.272  19.409  1.00  0.00     0.023 A 
ATOM     92  C   UNL     1      -5.611  -3.679  19.462  1.00  0.00     0.012 A 
ATOM     93  C   UNL     1      -6.151  -1.524  20.452  1.00  0.00     0.148 A 
ATOM     94  C   UNL     1      -6.245  -4.331  20.519  1.00  0.00     0.002 A 
ATOM     95  C   UNL     1      -6.741  -2.180  21.526  1.00  0.00     0.091 A 
ATOM     96  F   UNL     1      -6.123  -0.185  20.373  1.00  0.00    -0.205 F 
ATOM     97  C   UNL     1      -6.799  -3.583  21.555  1.00  0.00     0.022 A 
BRANCH  95  98
ATOM     98  S   UNL     1      -7.395  -1.293  22.945  1.00  0.00     0.127 S 
ATOM     99  O   UNL     1      -8.832  -1.329  22.683  1.00  0.00    -0.237 OA
ATOM    100  O   UNL     1      -6.958  -2.127  24.065  1.00  0.00    -0.237 OA
ATOM    101  O   UNL     1      -6.779   0.027  22.904  1.00  0.00    -0.744 OA
ENDBRANCH  95  98
ENDBRANCH  68  91
ENDBRANCH  42  43
ENDBRANCH  34  37
ENDBRANCH  32  33
ENDBRANCH  31  32
ENDBRANCH  30  31
ENDBRANCH   1  30
TORSDOF 21
