REMARK SMILES Cc1cc(Cl)cc2c1O[C@H](C(F)(F)F)C(C(=O)NCCCCCCNC(=O)c1ccc(-c3c4nc(c(-c5cccc(S(=O)(=O)[O-])c5F)c5ccc([nH]5)c(-c5cccc(S(=O)(=O)[O-])c5F)c5nc(c(-c6cccc(S(=O)(=O)[O-])c6F)c6ccc3[nH]6)C=C5)C=C4)cc1)=C2
REMARK SMILES IDX 22 1 21 2 20 3 19 4 18 5 16 6 17 7 15 9 1 10 2 11 3 12 8 13
REMARK SMILES IDX 4 14 7 15 9 16 5 17 6 18 91 19 10 20 11 21 12 22 13 23 14 24
REMARK SMILES IDX 23 25 24 26 25 27 26 28 27 30 28 31 29 32 90 33 30 34 89 35
REMARK SMILES IDX 31 36 32 37 33 38 83 39 34 40 88 41 82 42 84 43 35 44 87 45
REMARK SMILES IDX 81 46 80 47 36 49 68 50 48 51 67 52 49 53 52 54 66 55 85 56
REMARK SMILES IDX 50 57 51 58 65 60 86 61 53 62 37 63 38 64 46 65 39 66 41 67
REMARK SMILES IDX 47 68 40 69 42 70 43 71 44 72 45 73 69 74 70 75 78 76 71 77
REMARK SMILES IDX 73 78 79 79 72 80 74 81 75 82 76 83 77 84 54 85 55 86 63 87
REMARK SMILES IDX 56 88 58 89 64 90 57 91 59 92 60 93 61 94 62 95
REMARK H PARENT 18 8 25 29 84 48 52 59
REMARK Flexibility Score: inf
ROOT
ATOM      1  C   UNL     1       2.602  -9.656   0.889  1.00  0.00     0.002 C 
ENDROOT
BRANCH   1   2
ATOM      2  C   UNL     1       1.163  -9.236   0.560  1.00  0.00     0.002 C 
BRANCH   2   3
ATOM      3  C   UNL     1       0.883  -7.731   0.631  1.00  0.00     0.021 C 
BRANCH   3   4
ATOM      4  C   UNL     1       1.787  -6.888  -0.264  1.00  0.00     0.116 C 
BRANCH   4   5
ATOM      5  N   UNL     1       1.281  -6.819  -1.624  1.00  0.00    -0.352 N 
ATOM      6  C   UNL     1       0.861  -5.859  -2.478  1.00  0.00     0.251 C 
ATOM      7  O   UNL     1       0.512  -6.266  -3.592  1.00  0.00    -0.270 OA
ATOM      8  H   UNL     1       1.231  -7.713  -2.035  1.00  0.00     0.163 HD
BRANCH   6   9
ATOM      9  C   UNL     1       0.793  -4.396  -2.176  1.00  0.00     0.067 C 
ATOM     10  C   UNL     1       0.769   0.320  -0.134  1.00  0.00     0.048 C 
ATOM     11  C   UNL     1       0.358  -0.268  -1.455  1.00  0.00    -0.007 A 
ATOM     12  C   UNL     1      -0.102   0.558  -2.488  1.00  0.00     0.027 A 
ATOM     13  C   UNL     1       0.466  -1.647  -1.690  1.00  0.00     0.131 A 
ATOM     14  C   UNL     1      -0.466   0.006  -3.716  1.00  0.00     0.042 A 
ATOM     15  C   UNL     1       0.096  -2.202  -2.918  1.00  0.00     0.019 A 
ATOM     16  O   UNL     1       0.899  -2.418  -0.651  1.00  0.00    -0.475 OA
ATOM     17  Cl  UNL     1      -1.043   1.032  -4.973  1.00  0.00    -0.084 Cl
ATOM     18  C   UNL     1      -0.374  -1.368  -3.936  1.00  0.00     0.032 A 
ATOM     19  C   UNL     1       0.175  -3.645  -3.107  1.00  0.00     0.025 C 
ATOM     20  C   UNL     1       1.400  -3.744  -0.965  1.00  0.00     0.314 C 
BRANCH  20  21
ATOM     21  C   UNL     1       2.938  -3.700  -1.020  1.00  0.00     0.429 C 
ATOM     22  F   UNL     1       3.450  -3.396   0.196  1.00  0.00    -0.167 F 
ATOM     23  F   UNL     1       3.476  -4.888  -1.380  1.00  0.00    -0.167 F 
ATOM     24  F   UNL     1       3.393  -2.779  -1.900  1.00  0.00    -0.167 F 
ENDBRANCH  20  21
ENDBRANCH   6   9
ENDBRANCH   4   5
ENDBRANCH   3   4
ENDBRANCH   2   3
ENDBRANCH   1   2
BRANCH   1  25
ATOM     25  C   UNL     1       3.192  -9.053   2.167  1.00  0.00     0.021 C 
BRANCH  25  26
ATOM     26  C   UNL     1       2.385  -9.324   3.432  1.00  0.00     0.116 C 
BRANCH  26  27
ATOM     27  N   UNL     1       2.307 -10.743   3.735  1.00  0.00    -0.352 N 
ATOM     28  C   UNL     1       2.738 -11.412   4.852  1.00  0.00     0.251 C 
ATOM     29  H   UNL     1       1.885 -11.302   3.043  1.00  0.00     0.163 HD
ATOM     30  O   UNL     1       2.771 -12.639   4.862  1.00  0.00    -0.269 OA
BRANCH  28  31
ATOM     31  C   UNL     1       3.177 -10.646   6.037  1.00  0.00     0.039 A 
ATOM     32  C   UNL     1       4.381 -10.986   6.655  1.00  0.00     0.014 A 
ATOM     33  C   UNL     1       2.398  -9.596   6.535  1.00  0.00     0.014 A 
ATOM     34  C   UNL     1       4.826 -10.244   7.750  1.00  0.00     0.010 A 
ATOM     35  C   UNL     1       2.877  -8.814   7.581  1.00  0.00     0.010 A 
ATOM     36  C   UNL     1       4.087  -9.141   8.210  1.00  0.00    -0.014 A 
BRANCH  36  37
ATOM     37  C   UNL     1       4.560  -8.343   9.368  1.00  0.00     0.031 A 
ATOM     38  C   UNL     1       3.783  -8.349  10.656  1.00  0.00     0.074 A 
ATOM     39  C   UNL     1       5.670  -7.588   9.250  1.00  0.00     0.049 A 
ATOM     40  N   UNL     1       4.063  -7.756  11.787  1.00  0.00    -0.248 NA
ATOM     41  C   UNL     1       2.517  -9.103  10.674  1.00  0.00     0.031 C 
ATOM     42  C   UNL     1       6.464  -7.441   8.028  1.00  0.00     0.029 A 
ATOM     43  N   UNL     1       6.321  -6.800  10.166  1.00  0.00    -0.354 N 
ATOM     44  C   UNL     1       3.009  -8.053  12.642  1.00  0.00     0.074 A 
ATOM     45  C   UNL     1       2.055  -8.833  11.886  1.00  0.00     0.031 C 
ATOM     46  C   UNL     1       7.511  -6.637   8.279  1.00  0.00     0.029 A 
ATOM     47  C   UNL     1       7.456  -6.200   9.671  1.00  0.00     0.049 A 
ATOM     48  H   UNL     1       6.006  -6.676  11.090  1.00  0.00     0.167 HD
ATOM     49  C   UNL     1       2.872  -7.750  13.953  1.00  0.00     0.034 A 
ATOM     50  C   UNL     1       8.360  -5.405  10.278  1.00  0.00     0.034 A 
ATOM     51  C   UNL     1       3.850  -7.024  14.713  1.00  0.00     0.049 A 
ATOM     52  C   UNL     1       8.193  -5.095  11.742  1.00  0.00     0.074 A 
ATOM     53  C   UNL     1       3.846  -6.741  16.067  1.00  0.00     0.029 A 
ATOM     54  N   UNL     1       5.005  -6.467  14.188  1.00  0.00    -0.354 N 
ATOM     55  N   UNL     1       7.278  -5.528  12.576  1.00  0.00    -0.248 NA
ATOM     56  C   UNL     1       9.197  -4.215  12.359  1.00  0.00     0.031 C 
ATOM     57  C   UNL     1       4.994  -6.001  16.359  1.00  0.00     0.029 A 
ATOM     58  C   UNL     1       5.717  -5.830  15.188  1.00  0.00     0.049 A 
ATOM     59  H   UNL     1       5.278  -6.517  13.244  1.00  0.00     0.167 HD
ATOM     60  C   UNL     1       7.607  -4.994  13.817  1.00  0.00     0.074 A 
ATOM     61  C   UNL     1       8.820  -4.225  13.632  1.00  0.00     0.031 C 
ATOM     62  C   UNL     1       6.952  -5.112  14.998  1.00  0.00     0.034 A 
BRANCH  49  63
ATOM     63  C   UNL     1       1.665  -8.285  14.676  1.00  0.00     0.023 A 
ATOM     64  C   UNL     1       1.606  -9.661  14.978  1.00  0.00     0.012 A 
ATOM     65  C   UNL     1       0.638  -7.433  15.124  1.00  0.00     0.148 A 
ATOM     66  C   UNL     1       0.532 -10.187  15.694  1.00  0.00     0.002 A 
ATOM     67  C   UNL     1      -0.410  -7.957  15.872  1.00  0.00     0.091 A 
ATOM     68  F   UNL     1       0.704  -6.131  14.810  1.00  0.00    -0.205 F 
ATOM     69  C   UNL     1      -0.469  -9.334  16.150  1.00  0.00     0.022 A 
BRANCH  67  70
ATOM     70  S   UNL     1      -1.715  -6.938  16.569  1.00  0.00     0.127 S 
ATOM     71  O   UNL     1      -2.870  -7.356  15.776  1.00  0.00    -0.237 OA
ATOM     72  O   UNL     1      -1.739  -7.380  17.963  1.00  0.00    -0.237 OA
ATOM     73  O   UNL     1      -1.294  -5.558  16.374  1.00  0.00    -0.744 OA
ENDBRANCH  67  70
ENDBRANCH  49  63
BRANCH  50  74
ATOM     74  C   UNL     1       9.560  -4.937   9.526  1.00  0.00     0.023 A 
ATOM     75  C   UNL     1      10.820  -5.477   9.847  1.00  0.00     0.012 A 
ATOM     76  C   UNL     1       9.460  -4.010   8.470  1.00  0.00     0.148 A 
ATOM     77  C   UNL     1      11.962  -5.089   9.145  1.00  0.00     0.002 A 
ATOM     78  C   UNL     1      10.593  -3.666   7.741  1.00  0.00     0.091 A 
ATOM     79  F   UNL     1       8.255  -3.495   8.189  1.00  0.00    -0.205 F 
ATOM     80  C   UNL     1      11.847  -4.193   8.085  1.00  0.00     0.022 A 
BRANCH  78  81
ATOM     81  S   UNL     1      10.518  -2.623   6.279  1.00  0.00     0.127 S 
ATOM     82  O   UNL     1      11.126  -1.386   6.762  1.00  0.00    -0.237 OA
ATOM     83  O   UNL     1      11.331  -3.379   5.325  1.00  0.00    -0.237 OA
ATOM     84  O   UNL     1       9.106  -2.543   5.929  1.00  0.00    -0.744 OA
ENDBRANCH  78  81
ENDBRANCH  50  74
BRANCH  62  85
ATOM     85  C   UNL     1       7.510  -4.395  16.197  1.00  0.00     0.023 A 
ATOM     86  C   UNL     1       7.335  -3.002  16.304  1.00  0.00     0.012 A 
ATOM     87  C   UNL     1       8.064  -5.111  17.277  1.00  0.00     0.148 A 
ATOM     88  C   UNL     1       7.708  -2.329  17.466  1.00  0.00     0.002 A 
ATOM     89  C   UNL     1       8.392  -4.440  18.449  1.00  0.00     0.091 A 
ATOM     90  F   UNL     1       8.230  -6.435  17.146  1.00  0.00    -0.205 F 
ATOM     91  C   UNL     1       8.221  -3.049  18.543  1.00  0.00     0.022 A 
BRANCH  89  92
ATOM     92  S   UNL     1       8.960  -5.290  19.927  1.00  0.00     0.127 S 
ATOM     93  O   UNL     1      10.336  -4.808  20.037  1.00  0.00    -0.237 OA
ATOM     94  O   UNL     1       8.048  -4.775  20.948  1.00  0.00    -0.237 OA
ATOM     95  O   UNL     1       8.823  -6.714  19.652  1.00  0.00    -0.744 OA
ENDBRANCH  89  92
ENDBRANCH  62  85
ENDBRANCH  36  37
ENDBRANCH  28  31
ENDBRANCH  26  27
ENDBRANCH  25  26
ENDBRANCH   1  25
TORSDOF 17
