REMARK SMILES CC[C@H]1CO[C@H](C)C[N@H+]1[C@@H]1CC[C@]([NH2+]C(C)C)(C(=O)NCCCCCCNC(=O)c2ccc(-c3c4nc(c(-c5cccc(S(=O)(=O)[O-])c5F)c5ccc([nH]5)c(-c5cccc(S(=O)(=O)[O-])c5F)c5nc(c(-c6cccc(S(=O)(=O)[O-])c6F)c6ccc3[nH]6)C=C5)C=C4)cc2)C1
REMARK SMILES IDX 24 1 23 2 22 3 21 4 20 5 18 6 19 7 13 9 10 10 11 11 93 12
REMARK SMILES IDX 12 13 9 14 3 15 4 16 5 17 8 18 6 20 7 21 2 22 1 23 14 24
REMARK SMILES IDX 15 27 16 28 17 29 25 30 26 31 27 32 28 33 29 35 30 36 31 37
REMARK SMILES IDX 92 38 32 39 91 40 33 41 34 42 35 43 85 44 36 45 90 46 84 47
REMARK SMILES IDX 86 48 37 49 89 50 83 51 82 52 38 54 70 55 50 56 69 57 51 58
REMARK SMILES IDX 54 59 68 60 87 61 52 62 53 63 67 65 88 66 55 67 39 68 40 69
REMARK SMILES IDX 48 70 41 71 43 72 49 73 42 74 44 75 45 76 46 77 47 78 71 79
REMARK SMILES IDX 72 80 80 81 73 82 75 83 81 84 74 85 76 86 77 87 78 88 79 89
REMARK SMILES IDX 56 90 57 91 65 92 58 93 60 94 66 95 59 96 61 97 62 98 63 99
REMARK SMILES IDX 64 100
REMARK H PARENT 20 8 9 19 14 25 14 26 27 34 86 53 54 64
REMARK Flexibility Score: inf
ROOT
ATOM      1  C   UNL     1       9.048  -0.320  -4.477  1.00  0.00     0.002 C 
ENDROOT
BRANCH   1   2
ATOM      2  C   UNL     1       8.989  -0.339  -2.947  1.00  0.00     0.002 C 
BRANCH   2   3
ATOM      3  C   UNL     1       7.624   0.021  -2.363  1.00  0.00     0.021 C 
BRANCH   3   4
ATOM      4  C   UNL     1       6.513  -0.932  -2.794  1.00  0.00     0.116 C 
BRANCH   4   5
ATOM      5  N   UNL     1       6.589  -2.183  -2.066  1.00  0.00    -0.351 N 
ATOM      6  C   UNL     1       5.863  -2.674  -1.017  1.00  0.00     0.281 C 
ATOM      7  O   UNL     1       6.306  -3.721  -0.534  1.00  0.00    -0.268 OA
ATOM      8  H   UNL     1       7.294  -2.791  -2.386  1.00  0.00     0.163 HD
BRANCH   6   9
ATOM      9  C   UNL     1       4.538  -1.984  -0.528  1.00  0.00     0.181 C 
ATOM     10  C   UNL     1       2.679  -0.646  -1.364  1.00  0.00     0.191 C 
ATOM     11  C   UNL     1       3.729   0.349  -0.868  1.00  0.00     0.072 C 
ATOM     12  C   UNL     1       3.507  -1.899  -1.673  1.00  0.00     0.144 C 
ATOM     13  C   UNL     1       4.768  -0.496  -0.123  1.00  0.00     0.085 C 
BRANCH  10  14
ATOM     14  N   UNL     1       1.692  -0.234  -2.364  1.00  0.00    -0.326 N 
ATOM     15  C   UNL     1       1.035   1.093  -2.211  1.00  0.00     0.210 C 
ATOM     16  C   UNL     1       1.871   2.262  -2.818  1.00  0.00     0.225 C 
ATOM     17  O   UNL     1       2.292   2.012  -4.163  1.00  0.00    -0.366 OA
ATOM     18  C   UNL     1       2.087  -0.380  -3.787  1.00  0.00     0.294 C 
ATOM     19  H   UNL     1       1.001  -0.945  -2.123  1.00  0.00     0.348 HD
ATOM     20  C   UNL     1       2.981   0.766  -4.293  1.00  0.00     0.170 C 
ATOM     21  C   UNL     1       3.353   0.582  -5.759  1.00  0.00     0.045 C 
BRANCH  15  22
ATOM     22  C   UNL     1       0.420   1.547  -0.856  1.00  0.00     0.064 C 
ATOM     23  C   UNL     1       0.312   0.568   0.301  1.00  0.00     0.010 C 
ENDBRANCH  15  22
ENDBRANCH  10  14
BRANCH   9  24
ATOM     24  N   UNL     1       4.002  -2.578   0.725  1.00  0.00    -0.331 N 
ATOM     25  H   UNL     1       3.141  -2.072   0.934  1.00  0.00     0.347 HD
ATOM     26  H   UNL     1       4.796  -2.490   1.360  1.00  0.00     0.347 HD
BRANCH  24  27
ATOM     27  C   UNL     1       3.679  -3.997   0.835  1.00  0.00     0.176 C 
ATOM     28  C   UNL     1       3.631  -4.276   2.345  1.00  0.00     0.075 C 
ATOM     29  C   UNL     1       2.332  -4.377   0.220  1.00  0.00     0.075 C 
ENDBRANCH  24  27
ENDBRANCH   9  24
ENDBRANCH   6   9
ENDBRANCH   4   5
ENDBRANCH   3   4
ENDBRANCH   2   3
ENDBRANCH   1   2
BRANCH   1  30
ATOM     30  C   UNL     1       8.561   0.981  -5.121  1.00  0.00     0.021 C 
BRANCH  30  31
ATOM     31  C   UNL     1       9.277   2.232  -4.620  1.00  0.00     0.116 C 
BRANCH  31  32
ATOM     32  N   UNL     1      10.710   2.159  -4.860  1.00  0.00    -0.352 N 
ATOM     33  C   UNL     1      11.507   3.014  -5.577  1.00  0.00     0.251 C 
ATOM     34  H   UNL     1      11.171   1.391  -4.451  1.00  0.00     0.163 HD
ATOM     35  O   UNL     1      12.646   2.686  -5.889  1.00  0.00    -0.269 OA
BRANCH  33  36
ATOM     36  C   UNL     1      10.971   4.332  -5.973  1.00  0.00     0.039 A 
ATOM     37  C   UNL     1      11.152   4.776  -7.283  1.00  0.00     0.014 A 
ATOM     38  C   UNL     1      10.282   5.117  -5.044  1.00  0.00     0.014 A 
ATOM     39  C   UNL     1      10.597   5.995  -7.677  1.00  0.00     0.010 A 
ATOM     40  C   UNL     1       9.664   6.290  -5.459  1.00  0.00     0.010 A 
ATOM     41  C   UNL     1       9.826   6.748  -6.775  1.00  0.00    -0.014 A 
BRANCH  41  42
ATOM     42  C   UNL     1       9.182   8.021  -7.184  1.00  0.00     0.031 A 
ATOM     43  C   UNL     1       9.572   9.310  -6.514  1.00  0.00     0.074 A 
ATOM     44  C   UNL     1       8.187   8.001  -8.092  1.00  0.00     0.049 A 
ATOM     45  N   UNL     1       9.086  10.511  -6.692  1.00  0.00    -0.248 NA
ATOM     46  C   UNL     1      10.626   9.237  -5.487  1.00  0.00     0.031 C 
ATOM     47  C   UNL     1       7.674   6.803  -8.761  1.00  0.00     0.029 A 
ATOM     48  N   UNL     1       7.412   9.017  -8.592  1.00  0.00    -0.354 N 
ATOM     49  C   UNL     1       9.738  11.324  -5.773  1.00  0.00     0.074 A 
ATOM     50  C   UNL     1      10.633  10.476  -5.018  1.00  0.00     0.031 C 
ATOM     51  C   UNL     1       6.681   7.154  -9.593  1.00  0.00     0.029 A 
ATOM     52  C   UNL     1       6.460   8.593  -9.490  1.00  0.00     0.049 A 
ATOM     53  H   UNL     1       7.526   9.960  -8.332  1.00  0.00     0.167 HD
ATOM     54  C   UNL     1       9.619  12.660  -5.589  1.00  0.00     0.034 A 
ATOM     55  C   UNL     1       5.511   9.286 -10.150  1.00  0.00     0.034 A 
ATOM     56  C   UNL     1       8.757  13.503  -6.372  1.00  0.00     0.049 A 
ATOM     57  C   UNL     1       5.419  10.774  -9.944  1.00  0.00     0.074 A 
ATOM     58  C   UNL     1       8.640  14.881  -6.338  1.00  0.00     0.029 A 
ATOM     59  N   UNL     1       7.853  13.048  -7.319  1.00  0.00    -0.354 N 
ATOM     60  N   UNL     1       6.157  11.551  -9.190  1.00  0.00    -0.248 NA
ATOM     61  C   UNL     1       4.383  11.486 -10.707  1.00  0.00     0.031 C 
ATOM     62  C   UNL     1       7.634  15.255  -7.234  1.00  0.00     0.029 A 
ATOM     63  C   UNL     1       7.157  14.114  -7.860  1.00  0.00     0.049 A 
ATOM     64  H   UNL     1       7.725  12.104  -7.571  1.00  0.00     0.167 HD
ATOM     65  C   UNL     1       5.706  12.846  -9.419  1.00  0.00     0.074 A 
ATOM     66  C   UNL     1       4.639  12.749 -10.394  1.00  0.00     0.031 C 
ATOM     67  C   UNL     1       6.132  14.009  -8.867  1.00  0.00     0.034 A 
BRANCH  54  68
ATOM     68  C   UNL     1      10.460  13.299  -4.515  1.00  0.00     0.023 A 
ATOM     69  C   UNL     1      11.858  13.395  -4.678  1.00  0.00     0.012 A 
ATOM     70  C   UNL     1       9.861  13.850  -3.365  1.00  0.00     0.148 A 
ATOM     71  C   UNL     1      12.649  13.990  -3.696  1.00  0.00     0.002 A 
ATOM     72  C   UNL     1      10.650  14.486  -2.415  1.00  0.00     0.091 A 
ATOM     73  F   UNL     1       8.534  13.730  -3.216  1.00  0.00    -0.205 F 
ATOM     74  C   UNL     1      12.045  14.545  -2.571  1.00  0.00     0.022 A 
BRANCH  72  75
ATOM     75  S   UNL     1       9.958  15.305  -0.974  1.00  0.00     0.127 S 
ATOM     76  O   UNL     1      10.380  14.412   0.104  1.00  0.00    -0.237 OA
ATOM     77  O   UNL     1      10.642  16.598  -0.997  1.00  0.00    -0.237 OA
ATOM     78  O   UNL     1       8.521  15.374  -1.202  1.00  0.00    -0.744 OA
ENDBRANCH  72  75
ENDBRANCH  54  68
BRANCH  55  79
ATOM     79  C   UNL     1       4.620   8.593 -11.123  1.00  0.00     0.023 A 
ATOM     80  C   UNL     1       4.768   8.857 -12.499  1.00  0.00     0.012 A 
ATOM     81  C   UNL     1       3.648   7.665 -10.702  1.00  0.00     0.148 A 
ATOM     82  C   UNL     1       3.941   8.237 -13.436  1.00  0.00     0.002 A 
ATOM     83  C   UNL     1       2.864   7.010 -11.645  1.00  0.00     0.091 A 
ATOM     84  F   UNL     1       3.519   7.433  -9.389  1.00  0.00    -0.205 F 
ATOM     85  C   UNL     1       2.996   7.308 -13.011  1.00  0.00     0.022 A 
BRANCH  83  86
ATOM     86  S   UNL     1       1.707   5.709 -11.205  1.00  0.00     0.127 S 
ATOM     87  O   UNL     1       0.423   6.331 -11.520  1.00  0.00    -0.237 OA
ATOM     88  O   UNL     1       2.109   4.632 -12.111  1.00  0.00    -0.237 OA
ATOM     89  O   UNL     1       1.943   5.430  -9.796  1.00  0.00    -0.744 OA
ENDBRANCH  83  86
ENDBRANCH  55  79
BRANCH  67  90
ATOM     90  C   UNL     1       5.485  15.286  -9.336  1.00  0.00     0.023 A 
ATOM     91  C   UNL     1       4.162  15.589  -8.960  1.00  0.00     0.012 A 
ATOM     92  C   UNL     1       6.225  16.226 -10.083  1.00  0.00     0.148 A 
ATOM     93  C   UNL     1       3.574  16.793  -9.347  1.00  0.00     0.002 A 
ATOM     94  C   UNL     1       5.651  17.445 -10.418  1.00  0.00     0.091 A 
ATOM     95  F   UNL     1       7.477  15.911 -10.445  1.00  0.00    -0.205 F 
ATOM     96  C   UNL     1       4.322  17.725 -10.063  1.00  0.00     0.022 A 
BRANCH  94  97
ATOM     97  S   UNL     1       6.570  18.747 -11.247  1.00  0.00     0.127 S 
ATOM     98  O   UNL     1       5.941  18.761 -12.567  1.00  0.00    -0.237 OA
ATOM     99  O   UNL     1       6.272  19.913 -10.416  1.00  0.00    -0.237 OA
ATOM    100  O   UNL     1       7.966  18.331 -11.228  1.00  0.00    -0.744 OA
ENDBRANCH  94  97
ENDBRANCH  67  90
ENDBRANCH  41  42
ENDBRANCH  33  36
ENDBRANCH  31  32
ENDBRANCH  30  31
ENDBRANCH   1  30
TORSDOF 20
