REMARK SMILES O=C(NCCCCCCNC(=O)[C@@H]1C=C[C@H](NC(=O)[C@@H]2CCSC2)C1)c1ccc(-c2c3nc(c(-c4cccc(S(=O)(=O)[O-])c4F)c4ccc([nH]4)c(-c4cccc(S(=O)(=O)[O-])c4F)c4nc(c(-c5cccc(S(=O)(=O)[O-])c5F)c5ccc2[nH]5)C=C4)C=C3)cc1
REMARK SMILES IDX 6 1 5 2 4 3 3 4 1 5 2 6 26 8 27 9 88 10 28 11 87 12 29 13
REMARK SMILES IDX 30 14 31 15 81 16 32 17 86 18 80 19 82 20 33 21 85 22 79 23
REMARK SMILES IDX 78 24 34 26 66 27 46 28 65 29 47 30 50 31 64 32 83 33 48 34
REMARK SMILES IDX 49 35 63 37 84 38 51 39 35 40 36 41 44 42 37 43 39 44 45 45
REMARK SMILES IDX 38 46 40 47 41 48 42 49 43 50 67 51 68 52 76 53 69 54 71 55
REMARK SMILES IDX 77 56 70 57 72 58 73 59 74 60 75 61 52 62 53 63 61 64 54 65
REMARK SMILES IDX 56 66 62 67 55 68 57 69 58 70 59 71 60 72 7 73 8 74 9 75
REMARK SMILES IDX 10 76 11 77 12 79 13 80 14 81 25 82 15 83 16 84 17 85 18 86
REMARK SMILES IDX 19 88 20 89 21 90 24 91 22 92 23 93
REMARK H PARENT 3 7 82 25 50 36 10 78 17 87
REMARK Flexibility Score: inf
ROOT
ATOM      1  C   UNL     1      11.471  10.052  -7.852  1.00  0.00     0.002 C 
ENDROOT
BRANCH   1   2
ATOM      2  C   UNL     1      11.860  11.072  -6.782  1.00  0.00     0.021 C 
BRANCH   2   3
ATOM      3  C   UNL     1      13.290  10.935  -6.270  1.00  0.00     0.116 C 
BRANCH   3   4
ATOM      4  N   UNL     1      14.260  11.451  -7.221  1.00  0.00    -0.352 N 
ATOM      5  O   UNL     1      15.597  13.017  -8.146  1.00  0.00    -0.269 OA
ATOM      6  C   UNL     1      14.997  12.613  -7.159  1.00  0.00     0.251 C 
ATOM      7  H   UNL     1      14.412  10.893  -8.019  1.00  0.00     0.163 HD
BRANCH   6   8
ATOM      8  C   UNL     1      15.031  13.377  -5.891  1.00  0.00     0.039 A 
ATOM      9  C   UNL     1      15.237  12.714  -4.680  1.00  0.00     0.014 A 
ATOM     10  C   UNL     1      14.848  14.762  -5.909  1.00  0.00     0.014 A 
ATOM     11  C   UNL     1      15.096  13.405  -3.483  1.00  0.00     0.010 A 
ATOM     12  C   UNL     1      14.814  15.474  -4.704  1.00  0.00     0.010 A 
ATOM     13  C   UNL     1      14.907  14.798  -3.478  1.00  0.00    -0.014 A 
BRANCH  13  14
ATOM     14  C   UNL     1      14.917  15.511  -2.174  1.00  0.00     0.031 A 
ATOM     15  C   UNL     1      13.720  16.268  -1.668  1.00  0.00     0.074 A 
ATOM     16  C   UNL     1      16.034  15.434  -1.422  1.00  0.00     0.049 A 
ATOM     17  N   UNL     1      13.560  16.868  -0.515  1.00  0.00    -0.248 NA
ATOM     18  C   UNL     1      12.558  16.379  -2.563  1.00  0.00     0.031 C 
ATOM     19  C   UNL     1      17.280  14.781  -1.838  1.00  0.00     0.029 A 
ATOM     20  N   UNL     1      16.306  15.887  -0.158  1.00  0.00    -0.354 N 
ATOM     21  C   UNL     1      12.298  17.450  -0.553  1.00  0.00     0.074 A 
ATOM     22  C   UNL     1      11.736  17.142  -1.851  1.00  0.00     0.031 C 
ATOM     23  C   UNL     1      18.165  14.837  -0.834  1.00  0.00     0.029 A 
ATOM     24  C   UNL     1      17.573  15.575   0.276  1.00  0.00     0.049 A 
ATOM     25  H   UNL     1      15.657  16.387   0.388  1.00  0.00     0.167 HD
ATOM     26  C   UNL     1      11.661  18.157   0.412  1.00  0.00     0.034 A 
ATOM     27  C   UNL     1      18.200  15.856   1.433  1.00  0.00     0.034 A 
ATOM     28  C   UNL     1      12.216  18.435   1.713  1.00  0.00     0.049 A 
ATOM     29  C   UNL     1      17.449  16.597   2.499  1.00  0.00     0.074 A 
ATOM     30  C   UNL     1      11.631  19.110   2.771  1.00  0.00     0.029 A 
ATOM     31  N   UNL     1      13.482  18.057   2.135  1.00  0.00    -0.354 N 
ATOM     32  N   UNL     1      16.211  17.028   2.485  1.00  0.00    -0.248 NA
ATOM     33  C   UNL     1      18.168  16.866   3.751  1.00  0.00     0.031 C 
ATOM     34  C   UNL     1      12.547  19.147   3.829  1.00  0.00     0.029 A 
ATOM     35  C   UNL     1      13.696  18.482   3.436  1.00  0.00     0.049 A 
ATOM     36  H   UNL     1      14.133  17.559   1.589  1.00  0.00     0.167 HD
ATOM     37  C   UNL     1      15.999  17.612   3.727  1.00  0.00     0.074 A 
ATOM     38  C   UNL     1      17.222  17.434   4.485  1.00  0.00     0.031 C 
ATOM     39  C   UNL     1      14.904  18.264   4.189  1.00  0.00     0.034 A 
BRANCH  26  40
ATOM     40  C   UNL     1      10.260  18.639   0.129  1.00  0.00     0.023 A 
ATOM     41  C   UNL     1       9.197  17.713   0.151  1.00  0.00     0.012 A 
ATOM     42  C   UNL     1       9.980  20.007  -0.060  1.00  0.00     0.148 A 
ATOM     43  C   UNL     1       7.881  18.136  -0.029  1.00  0.00     0.002 A 
ATOM     44  C   UNL     1       8.661  20.426  -0.203  1.00  0.00     0.091 A 
ATOM     45  F   UNL     1      11.005  20.870  -0.094  1.00  0.00    -0.205 F 
ATOM     46  C   UNL     1       7.612  19.492  -0.196  1.00  0.00     0.022 A 
BRANCH  44  47
ATOM     47  S   UNL     1       8.199  22.157  -0.351  1.00  0.00     0.127 S 
ATOM     48  O   UNL     1       7.740  22.221  -1.738  1.00  0.00    -0.237 OA
ATOM     49  O   UNL     1       7.136  22.277   0.648  1.00  0.00    -0.237 OA
ATOM     50  O   UNL     1       9.402  22.921  -0.055  1.00  0.00    -0.744 OA
ENDBRANCH  44  47
ENDBRANCH  26  40
BRANCH  27  51
ATOM     51  C   UNL     1      19.600  15.395   1.646  1.00  0.00     0.023 A 
ATOM     52  C   UNL     1      19.869  14.388   2.592  1.00  0.00     0.012 A 
ATOM     53  C   UNL     1      20.660  15.916   0.878  1.00  0.00     0.148 A 
ATOM     54  C   UNL     1      21.172  13.928   2.788  1.00  0.00     0.002 A 
ATOM     55  C   UNL     1      21.943  15.407   1.032  1.00  0.00     0.091 A 
ATOM     56  F   UNL     1      20.391  16.891  -0.003  1.00  0.00    -0.205 F 
ATOM     57  C   UNL     1      22.206  14.426   1.999  1.00  0.00     0.022 A 
BRANCH  55  58
ATOM     58  S   UNL     1      23.283  15.892  -0.062  1.00  0.00     0.127 S 
ATOM     59  O   UNL     1      23.973  16.900   0.737  1.00  0.00    -0.237 OA
ATOM     60  O   UNL     1      24.014  14.635  -0.234  1.00  0.00    -0.237 OA
ATOM     61  O   UNL     1      22.628  16.367  -1.274  1.00  0.00    -0.744 OA
ENDBRANCH  55  58
ENDBRANCH  27  51
BRANCH  39  62
ATOM     62  C   UNL     1      14.985  18.831   5.581  1.00  0.00     0.023 A 
ATOM     63  C   UNL     1      15.785  19.967   5.820  1.00  0.00     0.012 A 
ATOM     64  C   UNL     1      14.252  18.265   6.640  1.00  0.00     0.148 A 
ATOM     65  C   UNL     1      15.886  20.505   7.101  1.00  0.00     0.002 A 
ATOM     66  C   UNL     1      14.323  18.834   7.906  1.00  0.00     0.091 A 
ATOM     67  F   UNL     1      13.515  17.171   6.399  1.00  0.00    -0.205 F 
ATOM     68  C   UNL     1      15.149  19.946   8.142  1.00  0.00     0.022 A 
BRANCH  66  69
ATOM     69  S   UNL     1      13.340  18.227   9.282  1.00  0.00     0.127 S 
ATOM     70  O   UNL     1      14.325  17.453  10.035  1.00  0.00    -0.237 OA
ATOM     71  O   UNL     1      12.910  19.466   9.933  1.00  0.00    -0.237 OA
ATOM     72  O   UNL     1      12.257  17.457   8.684  1.00  0.00    -0.744 OA
ENDBRANCH  66  69
ENDBRANCH  39  62
ENDBRANCH  13  14
ENDBRANCH   6   8
ENDBRANCH   3   4
ENDBRANCH   2   3
ENDBRANCH   1   2
BRANCH   1  73
ATOM     73  C   UNL     1      11.726   8.588  -7.474  1.00  0.00     0.002 C 
BRANCH  73  74
ATOM     74  C   UNL     1      11.133   8.157  -6.124  1.00  0.00     0.021 C 
BRANCH  74  75
ATOM     75  C   UNL     1       9.626   7.915  -6.158  1.00  0.00     0.116 C 
BRANCH  75  76
ATOM     76  N   UNL     1       9.328   6.678  -6.853  1.00  0.00    -0.356 N 
ATOM     77  C   UNL     1       9.128   5.404  -6.436  1.00  0.00     0.227 C 
ATOM     78  H   UNL     1       9.255   6.785  -7.829  1.00  0.00     0.163 HD
ATOM     79  O   UNL     1       9.041   4.565  -7.342  1.00  0.00    -0.274 OA
BRANCH  77  80
ATOM     80  C   UNL     1       8.877   4.985  -4.966  1.00  0.00     0.103 C 
ATOM     81  C   UNL     1       9.541   5.670  -3.807  1.00  0.00    -0.016 C 
ATOM     82  C   UNL     1       9.322   3.506  -4.773  1.00  0.00     0.047 C 
ATOM     83  C   UNL     1      10.308   4.854  -3.073  1.00  0.00    -0.006 C 
ATOM     84  C   UNL     1      10.288   3.463  -3.583  1.00  0.00     0.106 C 
BRANCH  84  85
ATOM     85  N   UNL     1      11.614   2.943  -3.874  1.00  0.00    -0.350 N 
ATOM     86  C   UNL     1      12.616   3.340  -4.707  1.00  0.00     0.224 C 
ATOM     87  H   UNL     1      11.835   2.133  -3.360  1.00  0.00     0.164 HD
ATOM     88  O   UNL     1      13.552   2.561  -4.898  1.00  0.00    -0.275 OA
BRANCH  86  89
ATOM     89  C   UNL     1      12.610   4.727  -5.311  1.00  0.00     0.089 C 
ATOM     90  C   UNL     1      13.043   4.740  -6.780  1.00  0.00     0.025 C 
ATOM     91  C   UNL     1      13.504   5.648  -4.479  1.00  0.00     0.083 C 
ATOM     92  C   UNL     1      14.510   5.103  -6.871  1.00  0.00     0.070 C 
ATOM     93  S   UNL     1      14.718   6.374  -5.610  1.00  0.00    -0.161 SA
ENDBRANCH  86  89
ENDBRANCH  84  85
ENDBRANCH  77  80
ENDBRANCH  75  76
ENDBRANCH  74  75
ENDBRANCH  73  74
ENDBRANCH   1  73
TORSDOF 18
