REMARK SMILES CCOC(=O)c1cccc(Nc2c(-c3ccc(C(=O)NCCCCCCNC(=O)c4ccc(-c5c6nc(c(-c7cccc(S(=O)(=O)[O-])c7F)c7ccc([nH]7)c(-c7cccc(S(=O)(=O)[O-])c7F)c7nc(c(-c8cccc(S(=O)(=O)[O-])c8F)c8ccc5[nH]8)C=C7)C=C6)cc4)cc3)nc3cnccn23)c1
REMARK SMILES IDX 22 1 21 2 20 3 18 4 19 5 17 7 14 8 15 9 94 10 16 11 93 12
REMARK SMILES IDX 13 13 12 14 101 15 95 16 96 17 100 18 97 19 99 20 98 21
REMARK SMILES IDX 11 22 10 24 6 25 7 26 102 27 8 28 9 29 4 30 5 31 3 32 2 33
REMARK SMILES IDX 1 34 23 35 24 36 25 37 26 38 27 39 28 40 29 42 30 43 31 44
REMARK SMILES IDX 92 45 32 46 91 47 33 48 34 49 35 50 85 51 36 52 90 53 84 54
REMARK SMILES IDX 86 55 37 56 89 57 83 58 82 59 38 61 70 62 50 63 69 64 51 65
REMARK SMILES IDX 54 66 68 67 87 68 52 69 53 70 67 72 88 73 55 74 39 75 40 76
REMARK SMILES IDX 48 77 41 78 43 79 49 80 42 81 44 82 45 83 46 84 47 85 71 86
REMARK SMILES IDX 72 87 80 88 73 89 75 90 81 91 74 92 76 93 77 94 78 95 79 96
REMARK SMILES IDX 56 97 57 98 65 99 58 100 60 101 66 102 59 103 61 104 62 105
REMARK SMILES IDX 63 106 64 107
REMARK H PARENT 20 6 11 23 27 41 86 60 54 71
REMARK Flexibility Score: inf
ROOT
ATOM      1  C   UNL     1       0.446  12.824   0.988  1.00  0.00     0.021 C 
ENDROOT
BRANCH   1   2
ATOM      2  C   UNL     1       1.919  12.873   0.574  1.00  0.00     0.116 C 
BRANCH   2   3
ATOM      3  N   UNL     1       2.657  11.822   1.250  1.00  0.00    -0.352 N 
ATOM      4  C   UNL     1       3.126  10.609   0.824  1.00  0.00     0.251 C 
ATOM      5  O   UNL     1       3.732   9.908   1.636  1.00  0.00    -0.269 OA
ATOM      6  H   UNL     1       2.859  12.019   2.193  1.00  0.00     0.163 HD
BRANCH   4   7
ATOM      7  C   UNL     1       2.980  10.124  -0.577  1.00  0.00     0.039 A 
ATOM      8  C   UNL     1       2.865   9.099  -3.192  1.00  0.00     0.004 A 
ATOM      9  C   UNL     1       3.931   8.760  -2.355  1.00  0.00     0.011 A 
ATOM     10  C   UNL     1       1.851   9.935  -2.719  1.00  0.00     0.011 A 
ATOM     11  C   UNL     1       3.990   9.276  -1.059  1.00  0.00     0.014 A 
ATOM     12  C   UNL     1       1.892  10.414  -1.406  1.00  0.00     0.014 A 
BRANCH   8  13
ATOM     13  C   UNL     1       2.745   8.509  -4.503  1.00  0.00     0.114 A 
ATOM     14  C   UNL     1       2.362   7.193  -4.721  1.00  0.00     0.143 A 
ATOM     15  N   UNL     1       2.297   7.085  -6.094  1.00  0.00    -0.283 N 
ATOM     16  N   UNL     1       2.973   9.185  -5.676  1.00  0.00    -0.225 NA
ATOM     17  C   UNL     1       2.692   8.298  -6.605  1.00  0.00     0.157 A 
ATOM     18  C   UNL     1       1.898   6.074  -6.951  1.00  0.00     0.115 A 
ATOM     19  C   UNL     1       2.715   8.463  -8.032  1.00  0.00     0.158 A 
ATOM     20  C   UNL     1       1.942   6.306  -8.275  1.00  0.00     0.129 A 
ATOM     21  N   UNL     1       2.366   7.497  -8.843  1.00  0.00    -0.259 NA
BRANCH  14  22
ATOM     22  N   UNL     1       1.987   6.223  -3.844  1.00  0.00    -0.339 N 
ATOM     23  H   UNL     1       1.162   6.379  -3.331  1.00  0.00     0.168 HD
BRANCH  22  24
ATOM     24  C   UNL     1       2.674   5.009  -3.602  1.00  0.00     0.040 A 
ATOM     25  C   UNL     1       2.897   3.002  -2.239  1.00  0.00     0.062 A 
ATOM     26  C   UNL     1       3.995   2.592  -2.998  1.00  0.00     0.016 A 
ATOM     27  C   UNL     1       2.228   4.192  -2.551  1.00  0.00     0.041 A 
ATOM     28  C   UNL     1       4.415   3.368  -4.074  1.00  0.00     0.003 A 
ATOM     29  C   UNL     1       3.760   4.567  -4.370  1.00  0.00     0.026 A 
BRANCH  25  30
ATOM     30  C   UNL     1       2.514   2.194  -1.062  1.00  0.00     0.338 C 
ATOM     31  O   UNL     1       3.325   1.655  -0.328  1.00  0.00    -0.246 OA
BRANCH  30  32
ATOM     32  O   UNL     1       1.164   2.117  -0.981  1.00  0.00    -0.462 OA
BRANCH  32  33
ATOM     33  C   UNL     1       0.651   1.372   0.134  1.00  0.00     0.230 C 
ATOM     34  C   UNL     1       0.815  -0.126  -0.064  1.00  0.00     0.049 C 
ENDBRANCH  32  33
ENDBRANCH  30  32
ENDBRANCH  25  30
ENDBRANCH  22  24
ENDBRANCH  14  22
ENDBRANCH   8  13
ENDBRANCH   4   7
ENDBRANCH   2   3
ENDBRANCH   1   2
BRANCH   1  35
ATOM     35  C   UNL     1       0.186  13.437   2.371  1.00  0.00     0.002 C 
BRANCH  35  36
ATOM     36  C   UNL     1       0.471  14.941   2.470  1.00  0.00     0.002 C 
BRANCH  36  37
ATOM     37  C   UNL     1      -0.277  15.809   1.454  1.00  0.00     0.021 C 
BRANCH  37  38
ATOM     38  C   UNL     1      -1.798  15.736   1.563  1.00  0.00     0.116 C 
BRANCH  38  39
ATOM     39  N   UNL     1      -2.271  16.281   2.828  1.00  0.00    -0.352 N 
ATOM     40  C   UNL     1      -3.166  17.299   3.048  1.00  0.00     0.251 C 
ATOM     41  H   UNL     1      -1.898  15.862   3.637  1.00  0.00     0.163 HD
ATOM     42  O   UNL     1      -3.283  17.789   4.167  1.00  0.00    -0.269 OA
BRANCH  40  43
ATOM     43  C   UNL     1      -3.981  17.808   1.925  1.00  0.00     0.039 A 
ATOM     44  C   UNL     1      -4.084  19.186   1.726  1.00  0.00     0.014 A 
ATOM     45  C   UNL     1      -4.640  16.918   1.071  1.00  0.00     0.014 A 
ATOM     46  C   UNL     1      -4.802  19.674   0.631  1.00  0.00     0.010 A 
ATOM     47  C   UNL     1      -5.303  17.403  -0.052  1.00  0.00     0.010 A 
ATOM     48  C   UNL     1      -5.391  18.785  -0.283  1.00  0.00    -0.014 A 
BRANCH  48  49
ATOM     49  C   UNL     1      -6.083  19.271  -1.503  1.00  0.00     0.031 A 
ATOM     50  C   UNL     1      -7.554  19.021  -1.689  1.00  0.00     0.074 A 
ATOM     51  C   UNL     1      -5.363  19.837  -2.491  1.00  0.00     0.049 A 
ATOM     52  N   UNL     1      -8.310  19.285  -2.723  1.00  0.00    -0.248 NA
ATOM     53  C   UNL     1      -8.263  18.361  -0.580  1.00  0.00     0.031 C 
ATOM     54  C   UNL     1      -3.916  20.058  -2.462  1.00  0.00     0.029 A 
ATOM     55  N   UNL     1      -5.744  20.294  -3.728  1.00  0.00    -0.354 N 
ATOM     56  C   UNL     1      -9.570  18.791  -2.408  1.00  0.00     0.074 A 
ATOM     57  C   UNL     1      -9.472  18.187  -1.097  1.00  0.00     0.031 C 
ATOM     58  C   UNL     1      -3.530  20.600  -3.628  1.00  0.00     0.029 A 
ATOM     59  C   UNL     1      -4.694  20.738  -4.498  1.00  0.00     0.049 A 
ATOM     60  H   UNL     1      -6.679  20.302  -4.036  1.00  0.00     0.167 HD
ATOM     61  C   UNL     1     -10.712  18.859  -3.132  1.00  0.00     0.034 A 
ATOM     62  C   UNL     1      -4.668  21.195  -5.766  1.00  0.00     0.034 A 
ATOM     63  C   UNL     1     -10.817  19.506  -4.412  1.00  0.00     0.049 A 
ATOM     64  C   UNL     1      -5.959  21.301  -6.531  1.00  0.00     0.074 A 
ATOM     65  C   UNL     1     -11.950  19.723  -5.176  1.00  0.00     0.029 A 
ATOM     66  N   UNL     1      -9.749  20.034  -5.121  1.00  0.00    -0.354 N 
ATOM     67  N   UNL     1      -7.173  20.986  -6.148  1.00  0.00    -0.248 NA
ATOM     68  C   UNL     1      -5.884  21.855  -7.891  1.00  0.00     0.031 C 
ATOM     69  C   UNL     1     -11.564  20.366  -6.357  1.00  0.00     0.029 A 
ATOM     70  C   UNL     1     -10.193  20.565  -6.320  1.00  0.00     0.049 A 
ATOM     71  H   UNL     1      -8.813  20.032  -4.817  1.00  0.00     0.167 HD
ATOM     72  C   UNL     1      -8.008  21.331  -7.204  1.00  0.00     0.074 A 
ATOM     73  C   UNL     1      -7.164  21.899  -8.235  1.00  0.00     0.031 C 
ATOM     74  C   UNL     1      -9.350  21.174  -7.316  1.00  0.00     0.034 A 
BRANCH  61  75
ATOM     75  C   UNL     1     -11.960  18.268  -2.530  1.00  0.00     0.023 A 
ATOM     76  C   UNL     1     -12.588  18.928  -1.454  1.00  0.00     0.012 A 
ATOM     77  C   UNL     1     -12.543  17.102  -3.061  1.00  0.00     0.148 A 
ATOM     78  C   UNL     1     -13.759  18.419  -0.894  1.00  0.00     0.002 A 
ATOM     79  C   UNL     1     -13.733  16.623  -2.524  1.00  0.00     0.091 A 
ATOM     80  F   UNL     1     -11.919  16.475  -4.069  1.00  0.00    -0.205 F 
ATOM     81  C   UNL     1     -14.337  17.274  -1.435  1.00  0.00     0.022 A 
BRANCH  79  82
ATOM     82  S   UNL     1     -14.594  15.198  -3.200  1.00  0.00     0.127 S 
ATOM     83  O   UNL     1     -14.324  14.181  -2.184  1.00  0.00    -0.237 OA
ATOM     84  O   UNL     1     -15.980  15.664  -3.242  1.00  0.00    -0.237 OA
ATOM     85  O   UNL     1     -13.998  14.954  -4.506  1.00  0.00    -0.744 OA
ENDBRANCH  79  82
ENDBRANCH  61  75
BRANCH  62  86
ATOM     86  C   UNL     1      -3.381  21.647  -6.363  1.00  0.00     0.023 A 
ATOM     87  C   UNL     1      -3.166  23.022  -6.577  1.00  0.00     0.012 A 
ATOM     88  C   UNL     1      -2.355  20.734  -6.676  1.00  0.00     0.148 A 
ATOM     89  C   UNL     1      -1.963  23.478  -7.116  1.00  0.00     0.002 A 
ATOM     90  C   UNL     1      -1.139  21.200  -7.162  1.00  0.00     0.091 A 
ATOM     91  F   UNL     1      -2.584  19.428  -6.478  1.00  0.00    -0.205 F 
ATOM     92  C   UNL     1      -0.946  22.570  -7.398  1.00  0.00     0.022 A 
BRANCH  90  93
ATOM     93  S   UNL     1       0.270  20.116  -7.422  1.00  0.00     0.127 S 
ATOM     94  O   UNL     1       0.327  20.043  -8.879  1.00  0.00    -0.237 OA
ATOM     95  O   UNL     1       1.356  20.873  -6.799  1.00  0.00    -0.237 OA
ATOM     96  O   UNL     1      -0.062  18.874  -6.736  1.00  0.00    -0.744 OA
ENDBRANCH  90  93
ENDBRANCH  62  86
BRANCH  74  97
ATOM     97  C   UNL     1     -10.004  21.640  -8.590  1.00  0.00     0.023 A 
ATOM     98  C   UNL     1      -9.847  20.886  -9.769  1.00  0.00     0.012 A 
ATOM     99  C   UNL     1     -10.844  22.771  -8.598  1.00  0.00     0.148 A 
ATOM    100  C   UNL     1     -10.495  21.265 -10.944  1.00  0.00     0.002 A 
ATOM    101  C   UNL     1     -11.523  23.116  -9.760  1.00  0.00     0.091 A 
ATOM    102  F   UNL     1     -10.966  23.486  -7.469  1.00  0.00    -0.205 F 
ATOM    103  C   UNL     1     -11.342  22.370 -10.936  1.00  0.00     0.022 A 
BRANCH 101 104
ATOM    104  S   UNL     1     -12.706  24.468  -9.820  1.00  0.00     0.127 S 
ATOM    105  O   UNL     1     -11.975  25.469 -10.595  1.00  0.00    -0.237 OA
ATOM    106  O   UNL     1     -13.837  23.860 -10.521  1.00  0.00    -0.237 OA
ATOM    107  O   UNL     1     -12.976  24.826  -8.434  1.00  0.00    -0.744 OA
ENDBRANCH 101 104
ENDBRANCH  74  97
ENDBRANCH  48  49
ENDBRANCH  40  43
ENDBRANCH  38  39
ENDBRANCH  37  38
ENDBRANCH  36  37
ENDBRANCH  35  36
ENDBRANCH   1  35
TORSDOF 22
