REMARK SMILES COc1ccc([C@H]2[C@H](C(=O)NCCCCCCNC(=O)c3ccc(-c4c5nc(c(-c6cccc(S(=O)(=O)[O-])c6F)c6ccc([nH]6)c(-c6cccc(S(=O)(=O)[O-])c6F)c6nc(c(-c7cccc(S(=O)(=O)[O-])c7F)c7ccc4[nH]7)C=C6)C=C5)cc3)CCN2c2ccc(F)cc2)cc1
REMARK SMILES IDX 15 1 14 2 13 3 12 4 11 5 9 6 10 7 8 9 7 10 86 11 84 12 85 13
REMARK SMILES IDX 6 14 3 15 4 16 95 17 5 18 94 19 2 20 1 21 87 22 88 23 93 24
REMARK SMILES IDX 89 25 92 26 90 27 91 28 16 29 17 30 18 31 19 32 20 34 21 35
REMARK SMILES IDX 22 36 83 37 23 38 82 39 24 40 25 41 26 42 76 43 27 44 81 45
REMARK SMILES IDX 75 46 77 47 28 48 80 49 74 50 73 51 29 53 61 54 41 55 60 56
REMARK SMILES IDX 42 57 45 58 59 59 78 60 43 61 44 62 58 64 79 65 46 66 30 67
REMARK SMILES IDX 31 68 39 69 32 70 34 71 40 72 33 73 35 74 36 75 37 76 38 77
REMARK SMILES IDX 62 78 63 79 71 80 64 81 66 82 72 83 65 84 67 85 68 86 69 87
REMARK SMILES IDX 70 88 47 89 48 90 56 91 49 92 51 93 57 94 50 95 52 96 53 97
REMARK SMILES IDX 54 98 55 99
REMARK H PARENT 11 8 18 33 77 52 45 63
REMARK Flexibility Score: inf
ROOT
ATOM      1  C   UNL     1       7.474   3.440  -3.347  1.00  0.00     0.002 C 
ENDROOT
BRANCH   1   2
ATOM      2  C   UNL     1       6.435   2.372  -2.985  1.00  0.00     0.002 C 
BRANCH   2   3
ATOM      3  C   UNL     1       5.200   2.338  -3.887  1.00  0.00     0.021 C 
BRANCH   3   4
ATOM      4  C   UNL     1       5.487   1.939  -5.333  1.00  0.00     0.116 C 
BRANCH   4   5
ATOM      5  N   UNL     1       5.068   0.577  -5.606  1.00  0.00    -0.356 N 
ATOM      6  C   UNL     1       4.073   0.045  -6.355  1.00  0.00     0.225 C 
ATOM      7  O   UNL     1       3.954  -1.188  -6.287  1.00  0.00    -0.275 OA
ATOM      8  H   UNL     1       5.621  -0.101  -5.154  1.00  0.00     0.163 HD
BRANCH   6   9
ATOM      9  C   UNL     1       3.084   0.819  -7.221  1.00  0.00     0.107 C 
ATOM     10  C   UNL     1       1.921   1.396  -6.391  1.00  0.00     0.125 C 
ATOM     11  N   UNL     1       2.331   2.802  -6.241  1.00  0.00    -0.364 N 
ATOM     12  C   UNL     1       3.606   1.975  -8.070  1.00  0.00     0.037 C 
ATOM     13  C   UNL     1       3.043   3.253  -7.441  1.00  0.00     0.118 C 
BRANCH  10  14
ATOM     14  C   UNL     1       0.588   1.281  -7.150  1.00  0.00    -0.024 A 
ATOM     15  C   UNL     1      -1.694   1.051  -8.803  1.00  0.00     0.118 A 
ATOM     16  C   UNL     1      -1.018  -0.090  -8.376  1.00  0.00     0.047 A 
ATOM     17  C   UNL     1      -1.302   2.296  -8.324  1.00  0.00     0.047 A 
ATOM     18  C   UNL     1       0.112   0.021  -7.556  1.00  0.00     0.010 A 
ATOM     19  C   UNL     1      -0.180   2.405  -7.498  1.00  0.00     0.010 A 
BRANCH  15  20
ATOM     20  O   UNL     1      -2.746   0.858  -9.656  1.00  0.00    -0.497 OA
ATOM     21  C   UNL     1      -2.821   1.833 -10.696  1.00  0.00     0.278 C 
ENDBRANCH  15  20
ENDBRANCH  10  14
BRANCH  11  22
ATOM     22  C   UNL     1       2.147   3.597  -5.134  1.00  0.00     0.037 A 
ATOM     23  C   UNL     1       2.303   4.995  -5.204  1.00  0.00     0.029 A 
ATOM     24  C   UNL     1       1.854   3.067  -3.865  1.00  0.00     0.029 A 
ATOM     25  C   UNL     1       2.244   5.810  -4.068  1.00  0.00     0.041 A 
ATOM     26  C   UNL     1       1.812   3.871  -2.718  1.00  0.00     0.041 A 
ATOM     27  C   UNL     1       2.021   5.235  -2.829  1.00  0.00     0.123 A 
ATOM     28  F   UNL     1       2.025   5.998  -1.729  1.00  0.00    -0.207 F 
ENDBRANCH  11  22
ENDBRANCH   6   9
ENDBRANCH   4   5
ENDBRANCH   3   4
ENDBRANCH   2   3
ENDBRANCH   1   2
BRANCH   1  29
ATOM     29  C   UNL     1       6.951   4.878  -3.457  1.00  0.00     0.021 C 
BRANCH  29  30
ATOM     30  C   UNL     1       6.205   5.402  -2.231  1.00  0.00     0.116 C 
BRANCH  30  31
ATOM     31  N   UNL     1       7.028   5.362  -1.032  1.00  0.00    -0.352 N 
ATOM     32  C   UNL     1       7.509   6.383  -0.252  1.00  0.00     0.251 C 
ATOM     33  H   UNL     1       7.280   4.458  -0.733  1.00  0.00     0.163 HD
ATOM     34  O   UNL     1       8.365   6.143   0.598  1.00  0.00    -0.269 OA
BRANCH  32  35
ATOM     35  C   UNL     1       7.019   7.767  -0.431  1.00  0.00     0.039 A 
ATOM     36  C   UNL     1       7.944   8.815  -0.411  1.00  0.00     0.014 A 
ATOM     37  C   UNL     1       5.656   8.042  -0.576  1.00  0.00     0.014 A 
ATOM     38  C   UNL     1       7.511  10.131  -0.595  1.00  0.00     0.010 A 
ATOM     39  C   UNL     1       5.233   9.348  -0.822  1.00  0.00     0.010 A 
ATOM     40  C   UNL     1       6.154  10.406  -0.832  1.00  0.00    -0.014 A 
BRANCH  40  41
ATOM     41  C   UNL     1       5.690  11.788  -1.122  1.00  0.00     0.031 A 
ATOM     42  C   UNL     1       4.746  12.492  -0.184  1.00  0.00     0.074 A 
ATOM     43  C   UNL     1       6.052  12.377  -2.279  1.00  0.00     0.049 A 
ATOM     44  N   UNL     1       4.201  13.675  -0.300  1.00  0.00    -0.248 NA
ATOM     45  C   UNL     1       4.345  11.764   1.030  1.00  0.00     0.031 C 
ATOM     46  C   UNL     1       6.899  11.769  -3.307  1.00  0.00     0.029 A 
ATOM     47  N   UNL     1       5.730  13.606  -2.799  1.00  0.00    -0.354 N 
ATOM     48  C   UNL     1       3.369  13.822   0.803  1.00  0.00     0.074 A 
ATOM     49  C   UNL     1       3.459  12.594   1.564  1.00  0.00     0.031 C 
ATOM     50  C   UNL     1       7.027  12.624  -4.334  1.00  0.00     0.029 A 
ATOM     51  C   UNL     1       6.253  13.829  -4.052  1.00  0.00     0.049 A 
ATOM     52  H   UNL     1       5.178  14.266  -2.321  1.00  0.00     0.167 HD
ATOM     53  C   UNL     1       2.619  14.890   1.165  1.00  0.00     0.034 A 
ATOM     54  C   UNL     1       6.119  14.880  -4.884  1.00  0.00     0.034 A 
ATOM     55  C   UNL     1       2.563  16.125   0.429  1.00  0.00     0.049 A 
ATOM     56  C   UNL     1       5.313  16.069  -4.439  1.00  0.00     0.074 A 
ATOM     57  C   UNL     1       1.908  17.298   0.764  1.00  0.00     0.029 A 
ATOM     58  N   UNL     1       3.176  16.347  -0.794  1.00  0.00    -0.354 N 
ATOM     59  N   UNL     1       4.671  16.254  -3.311  1.00  0.00    -0.248 NA
ATOM     60  C   UNL     1       5.242  17.209  -5.365  1.00  0.00     0.031 C 
ATOM     61  C   UNL     1       2.108  18.221  -0.268  1.00  0.00     0.029 A 
ATOM     62  C   UNL     1       2.906  17.631  -1.235  1.00  0.00     0.049 A 
ATOM     63  H   UNL     1       3.724  15.687  -1.279  1.00  0.00     0.167 HD
ATOM     64  C   UNL     1       4.146  17.540  -3.378  1.00  0.00     0.074 A 
ATOM     65  C   UNL     1       4.566  18.097  -4.647  1.00  0.00     0.031 C 
ATOM     66  C   UNL     1       3.370  18.193  -2.478  1.00  0.00     0.034 A 
BRANCH  53  67
ATOM     67  C   UNL     1       1.837  14.795   2.451  1.00  0.00     0.023 A 
ATOM     68  C   UNL     1       2.523  14.833   3.682  1.00  0.00     0.012 A 
ATOM     69  C   UNL     1       0.430  14.734   2.446  1.00  0.00     0.148 A 
ATOM     70  C   UNL     1       1.825  14.779   4.887  1.00  0.00     0.002 A 
ATOM     71  C   UNL     1      -0.262  14.723   3.652  1.00  0.00     0.091 A 
ATOM     72  F   UNL     1      -0.205  14.679   1.266  1.00  0.00    -0.205 F 
ATOM     73  C   UNL     1       0.433  14.735   4.872  1.00  0.00     0.022 A 
BRANCH  71  74
ATOM     74  S   UNL     1      -2.057  14.747   3.739  1.00  0.00     0.127 S 
ATOM     75  O   UNL     1      -2.348  13.385   4.188  1.00  0.00    -0.237 OA
ATOM     76  O   UNL     1      -2.303  15.783   4.744  1.00  0.00    -0.237 OA
ATOM     77  O   UNL     1      -2.519  15.078   2.401  1.00  0.00    -0.744 OA
ENDBRANCH  71  74
ENDBRANCH  53  67
BRANCH  54  78
ATOM     78  C   UNL     1       6.823  14.879  -6.198  1.00  0.00     0.023 A 
ATOM     79  C   UNL     1       7.918  15.742  -6.395  1.00  0.00     0.012 A 
ATOM     80  C   UNL     1       6.441  14.007  -7.236  1.00  0.00     0.148 A 
ATOM     81  C   UNL     1       8.601  15.759  -7.611  1.00  0.00     0.002 A 
ATOM     82  C   UNL     1       7.160  13.989  -8.425  1.00  0.00     0.091 A 
ATOM     83  F   UNL     1       5.387  13.203  -7.035  1.00  0.00    -0.205 F 
ATOM     84  C   UNL     1       8.230  14.876  -8.621  1.00  0.00     0.022 A 
BRANCH  82  85
ATOM     85  S   UNL     1       6.837  12.791  -9.724  1.00  0.00     0.127 S 
ATOM     86  O   UNL     1       6.210  13.622 -10.750  1.00  0.00    -0.237 OA
ATOM     87  O   UNL     1       8.186  12.324 -10.050  1.00  0.00    -0.237 OA
ATOM     88  O   UNL     1       5.985  11.777  -9.120  1.00  0.00    -0.744 OA
ENDBRANCH  82  85
ENDBRANCH  54  78
BRANCH  66  89
ATOM     89  C   UNL     1       2.939  19.596  -2.816  1.00  0.00     0.023 A 
ATOM     90  C   UNL     1       1.957  19.804  -3.805  1.00  0.00     0.012 A 
ATOM     91  C   UNL     1       3.451  20.701  -2.108  1.00  0.00     0.148 A 
ATOM     92  C   UNL     1       1.515  21.092  -4.106  1.00  0.00     0.002 A 
ATOM     93  C   UNL     1       2.971  21.977  -2.380  1.00  0.00     0.091 A 
ATOM     94  F   UNL     1       4.399  20.485  -1.184  1.00  0.00    -0.205 F 
ATOM     95  C   UNL     1       2.012  22.175  -3.386  1.00  0.00     0.022 A 
BRANCH  93  96
ATOM     96  S   UNL     1       3.487  23.419  -1.441  1.00  0.00     0.127 S 
ATOM     97  O   UNL     1       4.356  24.103  -2.397  1.00  0.00    -0.237 OA
ATOM     98  O   UNL     1       2.214  24.094  -1.183  1.00  0.00    -0.237 OA
ATOM     99  O   UNL     1       4.148  22.905  -0.249  1.00  0.00    -0.744 OA
ENDBRANCH  93  96
ENDBRANCH  66  89
ENDBRANCH  40  41
ENDBRANCH  32  35
ENDBRANCH  30  31
ENDBRANCH  29  30
ENDBRANCH   1  29
TORSDOF 19
