REMARK SMILES COC(=O)c1c(NC(=O)[C@@H]2C[C@@H]2C(=O)NCCCCCCNC(=O)c2ccc(-c3c4nc(c(-c5cccc(S(=O)(=O)[O-])c5F)c5ccc([nH]5)c(-c5cccc(S(=O)(=O)[O-])c5F)c5nc(c(-c6cccc(S(=O)(=O)[O-])c6F)c6ccc3[nH]6)C=C5)C=C4)cc2)sc2c1CC[N@@H+](Cc1ccccc1)C2
REMARK SMILES IDX 18 1 17 2 16 3 15 4 13 5 14 6 12 8 10 9 11 10 8 11 7 12 9 14
REMARK SMILES IDX 6 15 5 16 90 17 88 18 89 19 91 20 101 21 92 22 93 23 3 25
REMARK SMILES IDX 4 26 2 27 1 28 94 29 95 30 96 31 100 32 97 33 99 34 98 35
REMARK SMILES IDX 19 36 20 37 21 38 22 39 23 40 24 42 25 43 26 44 87 45 27 46
REMARK SMILES IDX 86 47 28 48 29 49 30 50 80 51 31 52 85 53 79 54 81 55 32 56
REMARK SMILES IDX 84 57 78 58 77 59 33 61 65 62 45 63 64 64 46 65 49 66 63 67
REMARK SMILES IDX 82 68 47 69 48 70 62 72 83 73 50 74 34 75 35 76 43 77 36 78
REMARK SMILES IDX 38 79 44 80 37 81 39 82 40 83 41 84 42 85 66 86 67 87 75 88
REMARK SMILES IDX 68 89 70 90 76 91 69 92 71 93 72 94 73 95 74 96 51 97 52 98
REMARK SMILES IDX 60 99 53 100 55 101 61 102 54 103 56 104 57 105 58 106
REMARK SMILES IDX 59 107
REMARK H PARENT 15 7 7 13 93 24 22 41 81 60 49 71
REMARK Flexibility Score: inf
ROOT
ATOM      1  C   UNL     1      -5.411  -3.378  -4.162  1.00  0.00     0.002 C 
ENDROOT
BRANCH   1   2
ATOM      2  C   UNL     1      -4.643  -2.433  -3.239  1.00  0.00     0.021 C 
BRANCH   2   3
ATOM      3  C   UNL     1      -3.145  -2.427  -3.484  1.00  0.00     0.116 C 
BRANCH   3   4
ATOM      4  N   UNL     1      -2.627  -1.358  -4.279  1.00  0.00    -0.356 N 
ATOM      5  C   UNL     1      -1.569  -0.536  -4.005  1.00  0.00     0.223 C 
ATOM      6  O   UNL     1      -1.038   0.023  -4.966  1.00  0.00    -0.275 OA
ATOM      7  H   UNL     1      -3.091  -1.193  -5.131  1.00  0.00     0.163 HD
BRANCH   5   8
ATOM      8  C   UNL     1      -1.027  -0.221  -2.650  1.00  0.00     0.091 C 
ATOM      9  C   UNL     1      -1.277  -0.504  -1.187  1.00  0.00     0.092 C 
ATOM     10  C   UNL     1      -1.968   0.652  -1.836  1.00  0.00     0.028 C 
BRANCH   9  11
ATOM     11  C   UNL     1      -2.019  -1.592  -0.527  1.00  0.00     0.228 C 
ATOM     12  N   UNL     1      -1.639  -2.908  -0.608  1.00  0.00    -0.317 N 
ATOM     13  H   UNL     1      -2.134  -3.518  -0.015  1.00  0.00     0.170 HD
ATOM     14  O   UNL     1      -3.032  -1.334   0.116  1.00  0.00    -0.274 OA
BRANCH  12  15
ATOM     15  C   UNL     1      -0.679  -3.511  -1.384  1.00  0.00     0.110 A 
ATOM     16  C   UNL     1       0.582  -3.217  -1.861  1.00  0.00     0.098 A 
ATOM     17  C   UNL     1       1.038  -4.279  -2.743  1.00  0.00    -0.006 A 
ATOM     18  S   UNL     1      -1.246  -5.048  -1.887  1.00  0.00    -0.116 S 
ATOM     19  C   UNL     1       0.162  -5.346  -2.765  1.00  0.00     0.065 A 
ATOM     20  C   UNL     1       2.399  -4.411  -3.371  1.00  0.00     0.099 C 
ATOM     21  C   UNL     1       0.484  -6.691  -3.333  1.00  0.00     0.310 C 
ATOM     22  C   UNL     1       2.706  -5.857  -3.845  1.00  0.00     0.267 C 
ATOM     23  N   UNL     1       1.931  -6.962  -3.247  1.00  0.00    -0.326 N 
ATOM     24  H   UNL     1       2.120  -7.781  -3.824  1.00  0.00     0.348 HD
BRANCH  16  25
ATOM     25  C   UNL     1       1.439  -2.096  -1.464  1.00  0.00     0.341 C 
ATOM     26  O   UNL     1       2.294  -1.624  -2.176  1.00  0.00    -0.246 OA
BRANCH  25  27
ATOM     27  O   UNL     1       1.204  -1.695  -0.174  1.00  0.00    -0.465 OA
ATOM     28  C   UNL     1       1.936  -0.536   0.225  1.00  0.00     0.282 C 
ENDBRANCH  25  27
ENDBRANCH  16  25
BRANCH  23  29
ATOM     29  C   UNL     1       2.399  -7.440  -1.929  1.00  0.00     0.299 C 
BRANCH  29  30
ATOM     30  C   UNL     1       2.315  -6.514  -0.731  1.00  0.00     0.006 A 
ATOM     31  C   UNL     1       3.372  -5.649  -0.411  1.00  0.00     0.009 A 
ATOM     32  C   UNL     1       1.157  -6.465   0.060  1.00  0.00     0.009 A 
ATOM     33  C   UNL     1       3.231  -4.692   0.599  1.00  0.00     0.001 A 
ATOM     34  C   UNL     1       1.008  -5.496   1.057  1.00  0.00     0.001 A 
ATOM     35  C   UNL     1       2.040  -4.599   1.315  1.00  0.00     0.000 A 
ENDBRANCH  29  30
ENDBRANCH  23  29
ENDBRANCH  12  15
ENDBRANCH   9  11
ENDBRANCH   5   8
ENDBRANCH   3   4
ENDBRANCH   2   3
ENDBRANCH   1   2
BRANCH   1  36
ATOM     36  C   UNL     1      -4.959  -4.850  -4.178  1.00  0.00     0.002 C 
BRANCH  36  37
ATOM     37  C   UNL     1      -4.922  -5.607  -2.842  1.00  0.00     0.021 C 
BRANCH  37  38
ATOM     38  C   UNL     1      -6.270  -5.784  -2.159  1.00  0.00     0.116 C 
BRANCH  38  39
ATOM     39  N   UNL     1      -7.269  -6.412  -3.030  1.00  0.00    -0.352 N 
ATOM     40  C   UNL     1      -8.641  -6.491  -2.887  1.00  0.00     0.251 C 
ATOM     41  H   UNL     1      -6.908  -6.841  -3.839  1.00  0.00     0.163 HD
ATOM     42  O   UNL     1      -9.287  -7.315  -3.526  1.00  0.00    -0.269 OA
BRANCH  40  43
ATOM     43  C   UNL     1      -9.318  -5.573  -1.956  1.00  0.00     0.039 A 
ATOM     44  C   UNL     1     -10.406  -5.969  -1.174  1.00  0.00     0.014 A 
ATOM     45  C   UNL     1      -8.806  -4.288  -1.849  1.00  0.00     0.014 A 
ATOM     46  C   UNL     1     -10.912  -5.076  -0.232  1.00  0.00     0.010 A 
ATOM     47  C   UNL     1      -9.135  -3.517  -0.774  1.00  0.00     0.010 A 
ATOM     48  C   UNL     1     -10.253  -3.854  -0.030  1.00  0.00    -0.014 A 
BRANCH  48  49
ATOM     49  C   UNL     1     -10.647  -2.923   1.015  1.00  0.00     0.031 A 
ATOM     50  C   UNL     1     -10.632  -3.503   2.379  1.00  0.00     0.074 A 
ATOM     51  C   UNL     1     -10.755  -1.594   0.788  1.00  0.00     0.049 A 
ATOM     52  N   UNL     1     -11.650  -3.805   3.115  1.00  0.00    -0.248 NA
ATOM     53  C   UNL     1      -9.346  -3.971   2.921  1.00  0.00     0.031 C 
ATOM     54  C   UNL     1     -10.442  -0.856  -0.447  1.00  0.00     0.029 A 
ATOM     55  N   UNL     1     -11.011  -0.593   1.669  1.00  0.00    -0.354 N 
ATOM     56  C   UNL     1     -11.112  -4.237   4.324  1.00  0.00     0.074 A 
ATOM     57  C   UNL     1      -9.738  -4.565   4.051  1.00  0.00     0.031 C 
ATOM     58  C   UNL     1     -10.261   0.451  -0.159  1.00  0.00     0.029 A 
ATOM     59  C   UNL     1     -10.631   0.671   1.223  1.00  0.00     0.049 A 
ATOM     60  H   UNL     1     -11.430  -0.747   2.547  1.00  0.00     0.167 HD
ATOM     61  C   UNL     1     -11.750  -3.989   5.501  1.00  0.00     0.034 A 
ATOM     62  C   UNL     1     -10.584   1.807   1.960  1.00  0.00     0.034 A 
ATOM     63  C   UNL     1     -13.108  -3.549   5.271  1.00  0.00     0.049 A 
ATOM     64  C   UNL     1     -11.446   1.585   3.143  1.00  0.00     0.074 A 
ATOM     65  C   UNL     1     -14.209  -4.061   4.614  1.00  0.00     0.029 A 
ATOM     66  N   UNL     1     -13.348  -2.204   5.421  1.00  0.00    -0.354 N 
ATOM     67  N   UNL     1     -12.738   1.424   3.072  1.00  0.00    -0.248 NA
ATOM     68  C   UNL     1     -10.819   1.101   4.361  1.00  0.00     0.031 C 
ATOM     69  C   UNL     1     -14.821  -2.933   3.991  1.00  0.00     0.029 A 
ATOM     70  C   UNL     1     -14.109  -1.790   4.363  1.00  0.00     0.049 A 
ATOM     71  H   UNL     1     -13.029  -1.638   6.161  1.00  0.00     0.167 HD
ATOM     72  C   UNL     1     -13.007   0.417   3.991  1.00  0.00     0.074 A 
ATOM     73  C   UNL     1     -11.816   0.351   4.837  1.00  0.00     0.031 C 
ATOM     74  C   UNL     1     -14.032  -0.463   3.788  1.00  0.00     0.034 A 
BRANCH  61  75
ATOM     75  C   UNL     1     -11.069  -3.729   6.832  1.00  0.00     0.023 A 
ATOM     76  C   UNL     1     -11.911  -3.593   7.960  1.00  0.00     0.012 A 
ATOM     77  C   UNL     1      -9.721  -3.335   6.996  1.00  0.00     0.148 A 
ATOM     78  C   UNL     1     -11.459  -3.024   9.155  1.00  0.00     0.002 A 
ATOM     79  C   UNL     1      -9.255  -2.846   8.212  1.00  0.00     0.091 A 
ATOM     80  F   UNL     1      -8.895  -3.295   5.950  1.00  0.00    -0.205 F 
ATOM     81  C   UNL     1     -10.127  -2.653   9.283  1.00  0.00     0.022 A 
BRANCH  79  82
ATOM     82  S   UNL     1      -7.529  -2.400   8.446  1.00  0.00     0.127 S 
ATOM     83  O   UNL     1      -7.604  -0.943   8.456  1.00  0.00    -0.237 OA
ATOM     84  O   UNL     1      -7.235  -3.016   9.741  1.00  0.00    -0.237 OA
ATOM     85  O   UNL     1      -6.814  -3.000   7.327  1.00  0.00    -0.744 OA
ENDBRANCH  79  82
ENDBRANCH  61  75
BRANCH  62  86
ATOM     86  C   UNL     1      -9.687   2.981   1.855  1.00  0.00     0.023 A 
ATOM     87  C   UNL     1     -10.070   4.199   2.454  1.00  0.00     0.012 A 
ATOM     88  C   UNL     1      -8.346   2.838   1.434  1.00  0.00     0.148 A 
ATOM     89  C   UNL     1      -9.140   5.221   2.670  1.00  0.00     0.002 A 
ATOM     90  C   UNL     1      -7.425   3.861   1.647  1.00  0.00     0.091 A 
ATOM     91  F   UNL     1      -7.955   1.667   0.914  1.00  0.00    -0.205 F 
ATOM     92  C   UNL     1      -7.816   5.049   2.278  1.00  0.00     0.022 A 
BRANCH  90  93
ATOM     93  S   UNL     1      -5.692   3.706   1.188  1.00  0.00     0.127 S 
ATOM     94  O   UNL     1      -5.439   4.983   0.519  1.00  0.00    -0.237 OA
ATOM     95  O   UNL     1      -5.046   3.562   2.490  1.00  0.00    -0.237 OA
ATOM     96  O   UNL     1      -5.620   2.548   0.307  1.00  0.00    -0.744 OA
ENDBRANCH  90  93
ENDBRANCH  62  86
BRANCH  74  97
ATOM     97  C   UNL     1     -15.036  -0.149   2.705  1.00  0.00     0.023 A 
ATOM     98  C   UNL     1     -14.689  -0.084   1.339  1.00  0.00     0.012 A 
ATOM     99  C   UNL     1     -16.394  -0.092   3.062  1.00  0.00     0.148 A 
ATOM    100  C   UNL     1     -15.673   0.057   0.355  1.00  0.00     0.002 A 
ATOM    101  C   UNL     1     -17.371  -0.001   2.080  1.00  0.00     0.091 A 
ATOM    102  F   UNL     1     -16.709  -0.159   4.365  1.00  0.00    -0.205 F 
ATOM    103  C   UNL     1     -17.015   0.084   0.725  1.00  0.00     0.022 A 
BRANCH 101 104
ATOM    104  S   UNL     1     -19.116  -0.090   2.487  1.00  0.00     0.127 S 
ATOM    105  O   UNL     1     -19.535   1.302   2.340  1.00  0.00    -0.237 OA
ATOM    106  O   UNL     1     -19.634  -0.996   1.461  1.00  0.00    -0.237 OA
ATOM    107  O   UNL     1     -19.184  -0.627   3.841  1.00  0.00    -0.744 OA
ENDBRANCH 101 104
ENDBRANCH  74  97
ENDBRANCH  48  49
ENDBRANCH  40  43
ENDBRANCH  38  39
ENDBRANCH  37  38
ENDBRANCH  36  37
ENDBRANCH   1  36
TORSDOF 22
