REMARK SMILES CC(C)CCN(C(=O)N[C@H](C(=O)NCCCCCCNC(=O)c1ccc(-c2c3nc(c(-c4cccc(S(=O)(=O)[O-])c4F)c4ccc([nH]4)c(-c4cccc(S(=O)(=O)[O-])c4F)c4nc(c(-c5cccc(S(=O)(=O)[O-])c5F)c5ccc2[nH]5)C=C4)C=C3)cc1)[C@H](C)O)C1CCCC1
REMARK SMILES IDX 15 1 14 2 13 3 11 4 12 5 10 7 9 8 7 9 8 10 6 12 5 13 4 14
REMARK SMILES IDX 2 15 1 16 3 17 89 18 90 19 93 20 91 21 92 22 86 23 87 24
REMARK SMILES IDX 88 25 16 27 17 28 18 29 19 30 20 31 21 32 22 34 23 35 24 36
REMARK SMILES IDX 85 37 25 38 84 39 26 40 27 41 28 42 78 43 29 44 83 45 77 46
REMARK SMILES IDX 79 47 30 48 82 49 76 50 75 51 31 53 63 54 43 55 62 56 44 57
REMARK SMILES IDX 47 58 61 59 80 60 45 61 46 62 60 64 81 65 48 66 32 67 33 68
REMARK SMILES IDX 41 69 34 70 36 71 42 72 35 73 37 74 38 75 39 76 40 77 64 78
REMARK SMILES IDX 65 79 73 80 66 81 68 82 74 83 67 84 69 85 70 86 71 87 72 88
REMARK SMILES IDX 49 89 50 90 58 91 51 92 53 93 59 94 52 95 54 96 55 97 56 98
REMARK SMILES IDX 57 99
REMARK H PARENT 13 6 9 11 88 26 20 33 79 52 47 63
REMARK Flexibility Score: inf
ROOT
ATOM      1  C   UNL     1      -4.467   0.787  -6.787  1.00  0.00     0.021 C 
ENDROOT
BRANCH   1   2
ATOM      2  C   UNL     1      -5.132   0.651  -5.428  1.00  0.00     0.116 C 
BRANCH   2   3
ATOM      3  N   UNL     1      -5.384  -0.715  -5.038  1.00  0.00    -0.354 N 
ATOM      4  C   UNL     1      -4.910  -1.463  -4.006  1.00  0.00     0.245 C 
ATOM      5  O   UNL     1      -5.542  -2.505  -3.790  1.00  0.00    -0.273 OA
ATOM      6  H   UNL     1      -6.014  -1.192  -5.625  1.00  0.00     0.163 HD
BRANCH   4   7
ATOM      7  C   UNL     1      -3.647  -1.105  -3.162  1.00  0.00     0.201 C 
BRANCH   7   8
ATOM      8  N   UNL     1      -2.760  -0.024  -3.603  1.00  0.00    -0.324 N 
ATOM      9  C   UNL     1      -2.471   1.261  -3.380  1.00  0.00     0.318 C 
ATOM     10  O   UNL     1      -1.372   1.564  -3.857  1.00  0.00    -0.249 OA
ATOM     11  H   UNL     1      -2.171  -0.365  -4.314  1.00  0.00     0.166 HD
BRANCH   9  12
ATOM     12  N   UNL     1      -3.264   2.162  -2.720  1.00  0.00    -0.322 N 
BRANCH  12  13
ATOM     13  C   UNL     1      -4.670   2.011  -2.286  1.00  0.00     0.122 C 
BRANCH  13  14
ATOM     14  C   UNL     1      -4.923   1.992  -0.763  1.00  0.00     0.024 C 
BRANCH  14  15
ATOM     15  C   UNL     1      -4.882   3.317   0.021  1.00  0.00    -0.016 C 
ATOM     16  C   UNL     1      -6.071   4.222  -0.293  1.00  0.00     0.007 C 
ATOM     17  C   UNL     1      -4.823   3.023   1.523  1.00  0.00     0.007 C 
ENDBRANCH  14  15
ENDBRANCH  13  14
ENDBRANCH  12  13
BRANCH  12  18
ATOM     18  C   UNL     1      -2.712   3.512  -2.516  1.00  0.00     0.087 C 
ATOM     19  C   UNL     1      -1.531   3.557  -1.549  1.00  0.00     0.025 C 
ATOM     20  C   UNL     1      -2.212   4.313  -3.726  1.00  0.00     0.025 C 
ATOM     21  C   UNL     1      -1.089   5.008  -1.647  1.00  0.00     0.002 C 
ATOM     22  C   UNL     1      -1.337   5.410  -3.104  1.00  0.00     0.002 C 
ENDBRANCH  12  18
ENDBRANCH   9  12
ENDBRANCH   7   8
BRANCH   7  23
ATOM     23  C   UNL     1      -3.883  -1.209  -1.632  1.00  0.00     0.143 C 
ATOM     24  C   UNL     1      -2.669  -0.797  -0.797  1.00  0.00     0.041 C 
BRANCH  23  25
ATOM     25  O   UNL     1      -4.144  -2.570  -1.252  1.00  0.00    -0.391 OA
ATOM     26  H   UNL     1      -3.366  -3.115  -1.447  1.00  0.00     0.211 HD
ENDBRANCH  23  25
ENDBRANCH   7  23
ENDBRANCH   4   7
ENDBRANCH   2   3
ENDBRANCH   1   2
BRANCH   1  27
ATOM     27  C   UNL     1      -5.420   0.599  -7.967  1.00  0.00     0.002 C 
BRANCH  27  28
ATOM     28  C   UNL     1      -6.682   1.471  -7.934  1.00  0.00     0.002 C 
BRANCH  28  29
ATOM     29  C   UNL     1      -6.443   2.971  -7.734  1.00  0.00     0.021 C 
BRANCH  29  30
ATOM     30  C   UNL     1      -5.560   3.623  -8.793  1.00  0.00     0.116 C 
BRANCH  30  31
ATOM     31  N   UNL     1      -6.121   3.477 -10.127  1.00  0.00    -0.352 N 
ATOM     32  C   UNL     1      -6.434   4.440 -11.052  1.00  0.00     0.251 C 
ATOM     33  H   UNL     1      -6.304   2.551 -10.406  1.00  0.00     0.163 HD
ATOM     34  O   UNL     1      -7.106   4.147 -12.036  1.00  0.00    -0.269 OA
BRANCH  32  35
ATOM     35  C   UNL     1      -5.967   5.830 -10.857  1.00  0.00     0.039 A 
ATOM     36  C   UNL     1      -6.850   6.881 -11.112  1.00  0.00     0.014 A 
ATOM     37  C   UNL     1      -4.659   6.095 -10.443  1.00  0.00     0.014 A 
ATOM     38  C   UNL     1      -6.436   8.198 -10.902  1.00  0.00     0.010 A 
ATOM     39  C   UNL     1      -4.272   7.403 -10.164  1.00  0.00     0.010 A 
ATOM     40  C   UNL     1      -5.153   8.469 -10.398  1.00  0.00    -0.014 A 
BRANCH  40  41
ATOM     41  C   UNL     1      -4.718   9.859 -10.106  1.00  0.00     0.031 A 
ATOM     42  C   UNL     1      -3.558  10.463 -10.852  1.00  0.00     0.074 A 
ATOM     43  C   UNL     1      -5.322  10.551  -9.118  1.00  0.00     0.049 A 
ATOM     44  N   UNL     1      -2.991  11.630 -10.688  1.00  0.00    -0.248 NA
ATOM     45  C   UNL     1      -2.938   9.640 -11.905  1.00  0.00     0.031 C 
ATOM     46  C   UNL     1      -6.410  10.048  -8.275  1.00  0.00     0.029 A 
ATOM     47  N   UNL     1      -5.087  11.814  -8.636  1.00  0.00    -0.354 N 
ATOM     48  C   UNL     1      -1.940  11.675 -11.597  1.00  0.00     0.074 A 
ATOM     49  C   UNL     1      -1.919  10.401 -12.282  1.00  0.00     0.031 C 
ATOM     50  C   UNL     1      -6.744  10.990  -7.379  1.00  0.00     0.029 A 
ATOM     51  C   UNL     1      -5.876  12.149  -7.559  1.00  0.00     0.049 A 
ATOM     52  H   UNL     1      -4.418  12.424  -9.023  1.00  0.00     0.167 HD
ATOM     53  C   UNL     1      -1.092  12.696 -11.865  1.00  0.00     0.034 A 
ATOM     54  C   UNL     1      -5.888  13.258  -6.793  1.00  0.00     0.034 A 
ATOM     55  C   UNL     1      -1.135  13.973 -11.206  1.00  0.00     0.049 A 
ATOM     56  C   UNL     1      -4.943  14.383  -7.126  1.00  0.00     0.074 A 
ATOM     57  C   UNL     1      -0.352  15.090 -11.442  1.00  0.00     0.029 A 
ATOM     58  N   UNL     1      -2.008  14.306 -10.182  1.00  0.00    -0.354 N 
ATOM     59  N   UNL     1      -4.050  14.455  -8.083  1.00  0.00    -0.248 NA
ATOM     60  C   UNL     1      -5.034  15.595  -6.299  1.00  0.00     0.031 C 
ATOM     61  C   UNL     1      -0.741  16.093 -10.549  1.00  0.00     0.029 A 
ATOM     62  C   UNL     1      -1.785  15.611  -9.777  1.00  0.00     0.049 A 
ATOM     63  H   UNL     1      -2.686  13.704  -9.799  1.00  0.00     0.167 HD
ATOM     64  C   UNL     1      -3.504  15.731  -7.999  1.00  0.00     0.074 A 
ATOM     65  C   UNL     1      -4.185  16.406  -6.914  1.00  0.00     0.031 C 
ATOM     66  C   UNL     1      -2.517  16.290  -8.740  1.00  0.00     0.034 A 
BRANCH  53  67
ATOM     67  C   UNL     1      -0.085  12.504 -12.969  1.00  0.00     0.023 A 
ATOM     68  C   UNL     1      -0.526  12.484 -14.308  1.00  0.00     0.012 A 
ATOM     69  C   UNL     1       1.295  12.432 -12.696  1.00  0.00     0.148 A 
ATOM     70  C   UNL     1       0.385  12.369 -15.357  1.00  0.00     0.002 A 
ATOM     71  C   UNL     1       2.201  12.363 -13.748  1.00  0.00     0.091 A 
ATOM     72  F   UNL     1       1.694  12.439 -11.416  1.00  0.00    -0.205 F 
ATOM     73  C   UNL     1       1.747  12.321 -15.077  1.00  0.00     0.022 A 
BRANCH  71  74
ATOM     74  S   UNL     1       3.981  12.376 -13.505  1.00  0.00     0.127 S 
ATOM     75  O   UNL     1       4.354  11.044 -13.980  1.00  0.00    -0.237 OA
ATOM     76  O   UNL     1       4.400  13.474 -14.377  1.00  0.00    -0.237 OA
ATOM     77  O   UNL     1       4.194  12.608 -12.084  1.00  0.00    -0.744 OA
ENDBRANCH  71  74
ENDBRANCH  53  67
BRANCH  54  78
ATOM     78  C   UNL     1      -6.848  13.384  -5.660  1.00  0.00     0.023 A 
ATOM     79  C   UNL     1      -7.880  14.341  -5.724  1.00  0.00     0.012 A 
ATOM     80  C   UNL     1      -6.737  12.574  -4.513  1.00  0.00     0.148 A 
ATOM     81  C   UNL     1      -8.749  14.525  -4.647  1.00  0.00     0.002 A 
ATOM     82  C   UNL     1      -7.644  12.720  -3.470  1.00  0.00     0.091 A 
ATOM     83  F   UNL     1      -5.743  11.676  -4.462  1.00  0.00    -0.205 F 
ATOM     84  C   UNL     1      -8.636  13.710  -3.524  1.00  0.00     0.022 A 
BRANCH  82  85
ATOM     85  S   UNL     1      -7.649  11.621  -2.049  1.00  0.00     0.127 S 
ATOM     86  O   UNL     1      -7.060  12.464  -1.014  1.00  0.00    -0.237 OA
ATOM     87  O   UNL     1      -9.077  11.345  -1.882  1.00  0.00    -0.237 OA
ATOM     88  O   UNL     1      -6.863  10.461  -2.451  1.00  0.00    -0.744 OA
ENDBRANCH  82  85
ENDBRANCH  54  78
BRANCH  66  89
ATOM     89  C   UNL     1      -2.145  17.720  -8.446  1.00  0.00     0.023 A 
ATOM     90  C   UNL     1      -1.447  18.038  -7.264  1.00  0.00     0.012 A 
ATOM     91  C   UNL     1      -2.429  18.738  -9.378  1.00  0.00     0.148 A 
ATOM     92  C   UNL     1      -1.070  19.353  -6.997  1.00  0.00     0.002 A 
ATOM     93  C   UNL     1      -2.003  20.037  -9.130  1.00  0.00     0.091 A 
ATOM     94  F   UNL     1      -3.108  18.417 -10.489  1.00  0.00    -0.205 F 
ATOM     95  C   UNL     1      -1.337  20.349  -7.934  1.00  0.00     0.022 A 
BRANCH  93  96
ATOM     96  S   UNL     1      -2.215  21.365 -10.320  1.00  0.00     0.127 S 
ATOM     97  O   UNL     1      -3.236  22.186  -9.671  1.00  0.00    -0.237 OA
ATOM     98  O   UNL     1      -0.881  21.964 -10.355  1.00  0.00    -0.237 OA
ATOM     99  O   UNL     1      -2.626  20.729 -11.565  1.00  0.00    -0.744 OA
ENDBRANCH  93  96
ENDBRANCH  66  89
ENDBRANCH  40  41
ENDBRANCH  32  35
ENDBRANCH  30  31
ENDBRANCH  29  30
ENDBRANCH  28  29
ENDBRANCH  27  28
ENDBRANCH   1  27
TORSDOF 24
