REMARK SMILES N#Cc1ccc(/C=C/C(=O)N[C@H]2C=C[C@H](C(=O)NCCCCCCNC(=O)c3ccc(-c4c5nc(c(-c6cccc(S(=O)(=O)[O-])c6F)c6ccc([nH]6)c(-c6cccc(S(=O)(=O)[O-])c6F)c6nc(c(-c7cccc(S(=O)(=O)[O-])c7F)c7ccc4[nH]7)C=C6)C=C5)cc3)C2)cc1
REMARK SMILES IDX 21 1 20 2 19 3 18 4 16 5 17 6 15 8 12 9 13 10 91 11 14 12
REMARK SMILES IDX 11 13 9 14 10 15 8 17 7 18 6 19 3 20 4 21 93 22 5 23 92 24
REMARK SMILES IDX 2 25 1 26 22 27 23 28 24 29 25 30 26 31 27 33 28 34 29 35
REMARK SMILES IDX 90 36 30 37 89 38 31 39 32 40 33 41 83 42 34 43 88 44 82 45
REMARK SMILES IDX 84 46 35 47 87 48 81 49 80 50 36 52 68 53 48 54 67 55 49 56
REMARK SMILES IDX 52 57 66 58 85 59 50 60 51 61 65 63 86 64 53 65 37 66 38 67
REMARK SMILES IDX 46 68 39 69 41 70 47 71 40 72 42 73 43 74 44 75 45 76 69 77
REMARK SMILES IDX 70 78 78 79 71 80 73 81 79 82 72 83 74 84 75 85 76 86 77 87
REMARK SMILES IDX 54 88 55 89 63 90 56 91 58 92 64 93 57 94 59 95 60 96 61 97
REMARK SMILES IDX 62 98
REMARK H PARENT 18 7 11 16 25 32 84 51 52 62
REMARK Flexibility Score: inf
ROOT
ATOM      1  C   UNL     1       2.089  -6.794   3.693  1.00  0.00     0.002 C 
ENDROOT
BRANCH   1   2
ATOM      2  C   UNL     1       3.568  -6.390   3.798  1.00  0.00     0.021 C 
BRANCH   2   3
ATOM      3  C   UNL     1       4.208  -5.990   2.471  1.00  0.00     0.116 C 
BRANCH   3   4
ATOM      4  N   UNL     1       3.533  -4.845   1.912  1.00  0.00    -0.356 N 
ATOM      5  C   UNL     1       3.985  -3.577   1.768  1.00  0.00     0.227 C 
ATOM      6  O   UNL     1       3.163  -2.736   1.402  1.00  0.00    -0.274 OA
ATOM      7  H   UNL     1       2.617  -5.007   1.590  1.00  0.00     0.163 HD
BRANCH   5   8
ATOM      8  C   UNL     1       5.443  -3.225   2.090  1.00  0.00     0.103 C 
ATOM      9  C   UNL     1       6.029  -1.538   0.477  1.00  0.00     0.106 C 
ATOM     10  C   UNL     1       6.882  -2.738   0.262  1.00  0.00    -0.006 C 
ATOM     11  C   UNL     1       5.639  -1.713   1.945  1.00  0.00     0.047 C 
ATOM     12  C   UNL     1       6.461  -3.717   1.083  1.00  0.00    -0.016 C 
BRANCH   9  13
ATOM     13  N   UNL     1       6.627  -0.261   0.227  1.00  0.00    -0.346 N 
ATOM     14  C   UNL     1       6.014   0.956   0.115  1.00  0.00     0.244 C 
ATOM     15  O   UNL     1       6.726   1.964   0.075  1.00  0.00    -0.270 OA
ATOM     16  H   UNL     1       7.606  -0.260   0.122  1.00  0.00     0.164 HD
BRANCH  14  17
ATOM     17  C   UNL     1       4.520   1.165   0.053  1.00  0.00     0.072 C 
ATOM     18  C   UNL     1       3.538   0.258  -0.052  1.00  0.00     0.014 C 
BRANCH  18  19
ATOM     19  C   UNL     1       2.072   0.366  -0.121  1.00  0.00    -0.025 A 
ATOM     20  C   UNL     1      -0.744   0.286  -0.102  1.00  0.00     0.052 A 
ATOM     21  C   UNL     1      -0.059   1.506   0.001  1.00  0.00     0.020 A 
ATOM     22  C   UNL     1      -0.025  -0.895  -0.243  1.00  0.00     0.020 A 
ATOM     23  C   UNL     1       1.345   1.547  -0.002  1.00  0.00     0.009 A 
ATOM     24  C   UNL     1       1.365  -0.846  -0.268  1.00  0.00     0.009 A 
BRANCH  20  25
ATOM     25  C   UNL     1      -2.176   0.235  -0.055  1.00  0.00     0.099 C 
ATOM     26  N   UNL     1      -3.333   0.179  -0.016  1.00  0.00    -0.192 NA
ENDBRANCH  20  25
ENDBRANCH  18  19
ENDBRANCH  14  17
ENDBRANCH   9  13
ENDBRANCH   5   8
ENDBRANCH   3   4
ENDBRANCH   2   3
ENDBRANCH   1   2
BRANCH   1  27
ATOM     27  C   UNL     1       1.788  -7.899   2.675  1.00  0.00     0.002 C 
BRANCH  27  28
ATOM     28  C   UNL     1       2.611  -9.174   2.857  1.00  0.00     0.021 C 
BRANCH  28  29
ATOM     29  C   UNL     1       2.456  -9.826   4.224  1.00  0.00     0.116 C 
BRANCH  29  30
ATOM     30  N   UNL     1       1.106 -10.325   4.441  1.00  0.00    -0.352 N 
ATOM     31  C   UNL     1       0.709 -11.597   4.780  1.00  0.00     0.251 C 
ATOM     32  H   UNL     1       0.383  -9.666   4.331  1.00  0.00     0.163 HD
ATOM     33  O   UNL     1      -0.475 -11.914   4.735  1.00  0.00    -0.269 OA
BRANCH  31  34
ATOM     34  C   UNL     1       1.735 -12.583   5.176  1.00  0.00     0.039 A 
ATOM     35  C   UNL     1       1.730 -13.850   4.590  1.00  0.00     0.014 A 
ATOM     36  C   UNL     1       2.732 -12.227   6.089  1.00  0.00     0.014 A 
ATOM     37  C   UNL     1       2.769 -14.740   4.870  1.00  0.00     0.010 A 
ATOM     38  C   UNL     1       3.808 -13.079   6.295  1.00  0.00     0.010 A 
ATOM     39  C   UNL     1       3.837 -14.348   5.693  1.00  0.00    -0.014 A 
BRANCH  39  40
ATOM     40  C   UNL     1       4.997 -15.238   5.953  1.00  0.00     0.031 A 
ATOM     41  C   UNL     1       5.309 -15.659   7.363  1.00  0.00     0.074 A 
ATOM     42  C   UNL     1       5.825 -15.580   4.947  1.00  0.00     0.049 A 
ATOM     43  N   UNL     1       6.346 -16.312   7.818  1.00  0.00    -0.248 NA
ATOM     44  C   UNL     1       4.341 -15.268   8.402  1.00  0.00     0.031 C 
ATOM     45  C   UNL     1       5.661 -15.191   3.545  1.00  0.00     0.029 A 
ATOM     46  N   UNL     1       6.995 -16.300   4.955  1.00  0.00    -0.354 N 
ATOM     47  C   UNL     1       6.175 -16.377   9.196  1.00  0.00     0.074 A 
ATOM     48  C   UNL     1       4.957 -15.662   9.506  1.00  0.00     0.031 C 
ATOM     49  C   UNL     1       6.693 -15.669   2.831  1.00  0.00     0.029 A 
ATOM     50  C   UNL     1       7.618 -16.352   3.729  1.00  0.00     0.049 A 
ATOM     51  H   UNL     1       7.353 -16.737   5.761  1.00  0.00     0.167 HD
ATOM     52  C   UNL     1       6.949 -16.995  10.118  1.00  0.00     0.034 A 
ATOM     53  C   UNL     1       8.815 -16.861   3.373  1.00  0.00     0.034 A 
ATOM     54  C   UNL     1       8.151 -17.716   9.802  1.00  0.00     0.049 A 
ATOM     55  C   UNL     1       9.669 -17.529   4.418  1.00  0.00     0.074 A 
ATOM     56  C   UNL     1       8.973 -18.430  10.656  1.00  0.00     0.029 A 
ATOM     57  N   UNL     1       8.715 -17.799   8.539  1.00  0.00    -0.354 N 
ATOM     58  N   UNL     1       9.435 -17.680   5.698  1.00  0.00    -0.248 NA
ATOM     59  C   UNL     1      10.937 -18.122   3.967  1.00  0.00     0.031 C 
ATOM     60  C   UNL     1      10.062 -18.901   9.918  1.00  0.00     0.029 A 
ATOM     61  C   UNL     1       9.883 -18.538   8.592  1.00  0.00     0.049 A 
ATOM     62  H   UNL     1       8.340 -17.393   7.724  1.00  0.00     0.167 HD
ATOM     63  C   UNL     1      10.498 -18.425   6.195  1.00  0.00     0.074 A 
ATOM     64  C   UNL     1      11.378 -18.696   5.078  1.00  0.00     0.031 C 
ATOM     65  C   UNL     1      10.723 -18.846   7.463  1.00  0.00     0.034 A 
BRANCH  52  66
ATOM     66  C   UNL     1       6.506 -16.934  11.557  1.00  0.00     0.023 A 
ATOM     67  C   UNL     1       5.338 -17.611  11.963  1.00  0.00     0.012 A 
ATOM     68  C   UNL     1       7.271 -16.241  12.516  1.00  0.00     0.148 A 
ATOM     69  C   UNL     1       4.910 -17.558  13.289  1.00  0.00     0.002 A 
ATOM     70  C   UNL     1       6.869 -16.239  13.845  1.00  0.00     0.091 A 
ATOM     71  F   UNL     1       8.370 -15.591  12.109  1.00  0.00    -0.205 F 
ATOM     72  C   UNL     1       5.681 -16.882  14.231  1.00  0.00     0.022 A 
BRANCH  70  73
ATOM     73  S   UNL     1       7.834 -15.468  15.148  1.00  0.00     0.127 S 
ATOM     74  O   UNL     1       6.967 -14.356  15.538  1.00  0.00    -0.237 OA
ATOM     75  O   UNL     1       7.928 -16.543  16.136  1.00  0.00    -0.237 OA
ATOM     76  O   UNL     1       9.100 -15.085  14.541  1.00  0.00    -0.744 OA
ENDBRANCH  70  73
ENDBRANCH  52  66
BRANCH  53  77
ATOM     77  C   UNL     1       9.271 -16.770   1.958  1.00  0.00     0.023 A 
ATOM     78  C   UNL     1       9.374 -17.939   1.178  1.00  0.00     0.012 A 
ATOM     79  C   UNL     1       9.589 -15.527   1.377  1.00  0.00     0.148 A 
ATOM     80  C   UNL     1       9.821 -17.874  -0.143  1.00  0.00     0.002 A 
ATOM     81  C   UNL     1       9.976 -15.463   0.045  1.00  0.00     0.091 A 
ATOM     82  F   UNL     1       9.489 -14.428   2.139  1.00  0.00    -0.205 F 
ATOM     83  C   UNL     1      10.113 -16.637  -0.712  1.00  0.00     0.022 A 
BRANCH  81  84
ATOM     84  S   UNL     1      10.250 -13.905  -0.805  1.00  0.00     0.127 S 
ATOM     85  O   UNL     1      11.681 -13.969  -1.094  1.00  0.00    -0.237 OA
ATOM     86  O   UNL     1       9.378 -14.044  -1.972  1.00  0.00    -0.237 OA
ATOM     87  O   UNL     1       9.844 -12.864   0.130  1.00  0.00    -0.744 OA
ENDBRANCH  81  84
ENDBRANCH  53  77
BRANCH  65  88
ATOM     88  C   UNL     1      11.924 -19.716   7.724  1.00  0.00     0.023 A 
ATOM     89  C   UNL     1      13.220 -19.168   7.722  1.00  0.00     0.012 A 
ATOM     90  C   UNL     1      11.740 -21.064   8.094  1.00  0.00     0.148 A 
ATOM     91  C   UNL     1      14.319 -19.955   8.071  1.00  0.00     0.002 A 
ATOM     92  C   UNL     1      12.830 -21.825   8.494  1.00  0.00     0.091 A 
ATOM     93  F   UNL     1      10.497 -21.567   8.072  1.00  0.00    -0.205 F 
ATOM     94  C   UNL     1      14.122 -21.276   8.472  1.00  0.00     0.022 A 
BRANCH  92  95
ATOM     95  S   UNL     1      12.660 -23.497   9.125  1.00  0.00     0.127 S 
ATOM     96  O   UNL     1      13.370 -24.272   8.108  1.00  0.00    -0.237 OA
ATOM     97  O   UNL     1      13.347 -23.408  10.414  1.00  0.00    -0.237 OA
ATOM     98  O   UNL     1      11.230 -23.756   9.212  1.00  0.00    -0.744 OA
ENDBRANCH  92  95
ENDBRANCH  65  88
ENDBRANCH  39  40
ENDBRANCH  31  34
ENDBRANCH  29  30
ENDBRANCH  28  29
ENDBRANCH  27  28
ENDBRANCH   1  27
TORSDOF 20
