REMARK SMILES O=C(CNC(=O)CN1C(=O)S/C(=C\c2cccc(Br)c2)C1=O)NCCCCCCNC(=O)c1ccc(-c2c3nc(c(-c4cccc(S(=O)(=O)[O-])c4F)c4ccc([nH]4)c(-c4cccc(S(=O)(=O)[O-])c4F)c4nc(c(-c5cccc(S(=O)(=O)[O-])c5F)c5ccc2[nH]5)C=C4)C=C3)cc1
REMARK SMILES IDX 26 1 25 2 24 3 23 4 1 5 2 6 3 8 4 9 5 10 6 12 7 13 8 14 9 15
REMARK SMILES IDX 21 16 10 17 11 18 12 19 22 20 13 21 14 22 15 23 20 24 16 25
REMARK SMILES IDX 18 26 17 27 19 28 27 29 28 30 29 31 30 32 31 33 32 35 33 36
REMARK SMILES IDX 34 37 95 38 35 39 94 40 36 41 37 42 38 43 88 44 39 45 93 46
REMARK SMILES IDX 87 47 89 48 40 49 92 50 86 51 85 52 41 54 73 55 53 56 72 57
REMARK SMILES IDX 54 58 57 59 71 60 90 61 55 62 56 63 70 65 91 66 58 67 42 68
REMARK SMILES IDX 43 69 51 70 44 71 46 72 52 73 45 74 47 75 48 76 49 77 50 78
REMARK SMILES IDX 74 79 75 80 83 81 76 82 78 83 84 84 77 85 79 86 80 87 81 88
REMARK SMILES IDX 82 89 59 90 60 91 68 92 61 93 63 94 69 95 62 96 64 97 65 98
REMARK SMILES IDX 66 99 67 100
REMARK H PARENT 23 7 4 11 30 34 89 53 57 64
REMARK Flexibility Score: inf
ROOT
ATOM      1  C   UNL     1       4.156  -3.316   0.647  1.00  0.00     0.002 C 
ENDROOT
BRANCH   1   2
ATOM      2  C   UNL     1       2.662  -3.016   0.476  1.00  0.00     0.021 C 
BRANCH   2   3
ATOM      3  C   UNL     1       2.139  -1.903   1.377  1.00  0.00     0.116 C 
BRANCH   3   4
ATOM      4  N   UNL     1       2.717  -0.617   1.032  1.00  0.00    -0.355 N 
ATOM      5  O   UNL     1       1.109  -0.006  -0.491  1.00  0.00    -0.273 OA
ATOM      6  C   UNL     1       2.142   0.247   0.121  1.00  0.00     0.239 C 
ATOM      7  H   UNL     1       3.558  -0.347   1.468  1.00  0.00     0.163 HD
BRANCH   6   8
ATOM      8  C   UNL     1       2.876   1.588  -0.048  1.00  0.00     0.216 C 
BRANCH   8   9
ATOM      9  N   UNL     1       4.079   1.678   0.771  1.00  0.00    -0.345 N 
ATOM     10  C   UNL     1       5.386   1.498   0.437  1.00  0.00     0.240 C 
ATOM     11  H   UNL     1       3.921   1.906   1.715  1.00  0.00     0.164 HD
ATOM     12  O   UNL     1       6.198   1.464   1.363  1.00  0.00    -0.273 OA
BRANCH  10  13
ATOM     13  C   UNL     1       5.825   1.324  -1.018  1.00  0.00     0.229 C 
BRANCH  13  14
ATOM     14  N   UNL     1       5.699  -0.040  -1.499  1.00  0.00    -0.259 N 
ATOM     15  C   UNL     1       6.665  -0.979  -1.239  1.00  0.00     0.294 C 
ATOM     16  C   UNL     1       4.702  -0.409  -2.366  1.00  0.00     0.268 C 
ATOM     17  O   UNL     1       7.657  -0.842  -0.554  1.00  0.00    -0.261 OA
ATOM     18  S   UNL     1       6.298  -2.471  -2.103  1.00  0.00    -0.022 SA
ATOM     19  C   UNL     1       4.810  -1.854  -2.697  1.00  0.00     0.083 C 
ATOM     20  O   UNL     1       3.862   0.338  -2.846  1.00  0.00    -0.268 OA
ATOM     21  C   UNL     1       3.823  -2.497  -3.335  1.00  0.00     0.029 C 
BRANCH  21  22
ATOM     22  C   UNL     1       3.779  -3.922  -3.678  1.00  0.00    -0.023 A 
ATOM     23  C   UNL     1       3.287  -4.862  -2.765  1.00  0.00     0.008 A 
ATOM     24  C   UNL     1       4.170  -4.351  -4.948  1.00  0.00     0.023 A 
ATOM     25  C   UNL     1       3.210  -6.215  -3.098  1.00  0.00     0.002 A 
ATOM     26  C   UNL     1       4.075  -5.703  -5.284  1.00  0.00     0.018 A 
ATOM     27  C   UNL     1       3.605  -6.639  -4.363  1.00  0.00     0.016 A 
ATOM     28  Br  UNL     1       4.564  -6.269  -7.021  1.00  0.00    -0.051 Br
ENDBRANCH  21  22
ENDBRANCH  13  14
ENDBRANCH  10  13
ENDBRANCH   8   9
ENDBRANCH   6   8
ENDBRANCH   3   4
ENDBRANCH   2   3
ENDBRANCH   1   2
BRANCH   1  29
ATOM     29  C   UNL     1       4.566  -4.043   1.928  1.00  0.00     0.002 C 
BRANCH  29  30
ATOM     30  C   UNL     1       3.926  -5.415   2.150  1.00  0.00     0.021 C 
BRANCH  30  31
ATOM     31  C   UNL     1       4.123  -6.439   1.033  1.00  0.00     0.116 C 
BRANCH  31  32
ATOM     32  N   UNL     1       5.507  -6.860   0.872  1.00  0.00    -0.352 N 
ATOM     33  C   UNL     1       6.054  -8.121   0.944  1.00  0.00     0.251 C 
ATOM     34  H   UNL     1       6.146  -6.136   0.683  1.00  0.00     0.163 HD
ATOM     35  O   UNL     1       7.274  -8.262   0.905  1.00  0.00    -0.269 OA
BRANCH  33  36
ATOM     36  C   UNL     1       5.183  -9.310   1.099  1.00  0.00     0.039 A 
ATOM     37  C   UNL     1       5.509 -10.262   2.069  1.00  0.00     0.014 A 
ATOM     38  C   UNL     1       4.055  -9.495   0.295  1.00  0.00     0.014 A 
ATOM     39  C   UNL     1       4.663 -11.355   2.285  1.00  0.00     0.010 A 
ATOM     40  C   UNL     1       3.178 -10.548   0.558  1.00  0.00     0.010 A 
ATOM     41  C   UNL     1       3.468 -11.488   1.560  1.00  0.00    -0.014 A 
BRANCH  41  42
ATOM     42  C   UNL     1       2.505 -12.585   1.855  1.00  0.00     0.031 A 
ATOM     43  C   UNL     1       2.178 -13.621   0.811  1.00  0.00     0.074 A 
ATOM     44  C   UNL     1       1.863 -12.609   3.042  1.00  0.00     0.049 A 
ATOM     45  N   UNL     1       1.323 -14.610   0.871  1.00  0.00    -0.248 NA
ATOM     46  C   UNL     1       2.888 -13.522  -0.475  1.00  0.00     0.031 C 
ATOM     47  C   UNL     1       2.031 -11.625   4.115  1.00  0.00     0.029 A 
ATOM     48  N   UNL     1       0.918 -13.476   3.536  1.00  0.00    -0.354 N 
ATOM     49  C   UNL     1       1.372 -15.234  -0.371  1.00  0.00     0.074 A 
ATOM     50  C   UNL     1       2.316 -14.491  -1.177  1.00  0.00     0.031 C 
ATOM     51  C   UNL     1       1.217 -11.942   5.135  1.00  0.00     0.029 A 
ATOM     52  C   UNL     1       0.447 -13.131   4.782  1.00  0.00     0.049 A 
ATOM     53  H   UNL     1       0.608 -14.271   3.044  1.00  0.00     0.167 HD
ATOM     54  C   UNL     1       0.718 -16.343  -0.793  1.00  0.00     0.034 A 
ATOM     55  C   UNL     1      -0.505 -13.697   5.551  1.00  0.00     0.034 A 
ATOM     56  C   UNL     1      -0.192 -17.106   0.019  1.00  0.00     0.049 A 
ATOM     57  C   UNL     1      -1.196 -14.944   5.065  1.00  0.00     0.074 A 
ATOM     58  C   UNL     1      -0.852 -18.280  -0.303  1.00  0.00     0.029 A 
ATOM     59  N   UNL     1      -0.574 -16.775   1.309  1.00  0.00    -0.354 N 
ATOM     60  N   UNL     1      -1.023 -15.600   3.944  1.00  0.00    -0.248 NA
ATOM     61  C   UNL     1      -2.186 -15.552   5.968  1.00  0.00     0.031 C 
ATOM     62  C   UNL     1      -1.647 -18.648   0.787  1.00  0.00     0.029 A 
ATOM     63  C   UNL     1      -1.460 -17.720   1.797  1.00  0.00     0.049 A 
ATOM     64  H   UNL     1      -0.260 -15.985   1.805  1.00  0.00     0.167 HD
ATOM     65  C   UNL     1      -1.848 -16.717   4.025  1.00  0.00     0.074 A 
ATOM     66  C   UNL     1      -2.504 -16.661   5.314  1.00  0.00     0.031 C 
ATOM     67  C   UNL     1      -2.056 -17.692   3.107  1.00  0.00     0.034 A 
BRANCH  54  68
ATOM     68  C   UNL     1       1.009 -16.845  -2.184  1.00  0.00     0.023 A 
ATOM     69  C   UNL     1       2.251 -17.459  -2.450  1.00  0.00     0.012 A 
ATOM     70  C   UNL     1       0.032 -16.794  -3.197  1.00  0.00     0.148 A 
ATOM     71  C   UNL     1       2.526 -17.989  -3.709  1.00  0.00     0.002 A 
ATOM     72  C   UNL     1       0.298 -17.364  -4.437  1.00  0.00     0.091 A 
ATOM     73  F   UNL     1      -1.136 -16.195  -2.929  1.00  0.00    -0.205 F 
ATOM     74  C   UNL     1       1.547 -17.952  -4.698  1.00  0.00     0.022 A 
BRANCH  72  75
ATOM     75  S   UNL     1      -0.921 -17.442  -5.755  1.00  0.00     0.127 S 
ATOM     76  O   UNL     1      -0.333 -16.550  -6.753  1.00  0.00    -0.237 OA
ATOM     77  O   UNL     1      -0.895 -18.860  -6.113  1.00  0.00    -0.237 OA
ATOM     78  O   UNL     1      -2.174 -16.982  -5.173  1.00  0.00    -0.744 OA
ENDBRANCH  72  75
ENDBRANCH  54  68
BRANCH  55  79
ATOM     79  C   UNL     1      -0.835 -13.122   6.887  1.00  0.00     0.023 A 
ATOM     80  C   UNL     1      -0.512 -13.843   8.054  1.00  0.00     0.012 A 
ATOM     81  C   UNL     1      -1.471 -11.872   7.010  1.00  0.00     0.148 A 
ATOM     82  C   UNL     1      -0.858 -13.352   9.314  1.00  0.00     0.002 A 
ATOM     83  C   UNL     1      -1.760 -11.361   8.270  1.00  0.00     0.091 A 
ATOM     84  F   UNL     1      -1.785 -11.205   5.890  1.00  0.00    -0.205 F 
ATOM     85  C   UNL     1      -1.473 -12.108   9.423  1.00  0.00     0.022 A 
BRANCH  83  86
ATOM     86  S   UNL     1      -2.429  -9.710   8.502  1.00  0.00     0.127 S 
ATOM     87  O   UNL     1      -3.818  -9.996   8.848  1.00  0.00    -0.237 OA
ATOM     88  O   UNL     1      -1.611  -9.202   9.605  1.00  0.00    -0.237 OA
ATOM     89  O   UNL     1      -2.215  -9.023   7.236  1.00  0.00    -0.744 OA
ENDBRANCH  83  86
ENDBRANCH  55  79
BRANCH  67  90
ATOM     90  C   UNL     1      -2.992 -18.814   3.474  1.00  0.00     0.023 A 
ATOM     91  C   UNL     1      -4.380 -18.581   3.540  1.00  0.00     0.012 A 
ATOM     92  C   UNL     1      -2.500 -20.118   3.680  1.00  0.00     0.148 A 
ATOM     93  C   UNL     1      -5.260 -19.620   3.840  1.00  0.00     0.002 A 
ATOM     94  C   UNL     1      -3.387 -21.159   3.929  1.00  0.00     0.091 A 
ATOM     95  F   UNL     1      -1.175 -20.317   3.631  1.00  0.00    -0.205 F 
ATOM     96  C   UNL     1      -4.765 -20.910   4.022  1.00  0.00     0.022 A 
BRANCH  94  97
ATOM     97  S   UNL     1      -2.850 -22.867   4.081  1.00  0.00     0.127 S 
ATOM     98  O   UNL     1      -3.028 -23.108   5.512  1.00  0.00    -0.237 OA
ATOM     99  O   UNL     1      -3.804 -23.569   3.221  1.00  0.00    -0.237 OA
ATOM    100  O   UNL     1      -1.473 -22.899   3.608  1.00  0.00    -0.744 OA
ENDBRANCH  94  97
ENDBRANCH  67  90
ENDBRANCH  41  42
ENDBRANCH  33  36
ENDBRANCH  31  32
ENDBRANCH  30  31
ENDBRANCH  29  30
ENDBRANCH   1  29
TORSDOF 20
