REMARK SMILES C/C(=N\Nc1nc(-c2ccc(Cl)cc2)cs1)c1nnn(-c2ccc(C(=O)NCCCCCCNC(=O)c3ccc(-c4c5nc(c(-c6cccc(S(=O)(=O)[O-])c6F)c6ccc([nH]6)c(-c6cccc(S(=O)(=O)[O-])c6F)c6nc(c(-c7cccc(S(=O)(=O)[O-])c7F)c7ccc4[nH]7)C=C6)C=C5)cc3)cc2)c1C
REMARK SMILES IDX 29 1 28 2 27 3 25 4 26 5 24 7 21 8 22 9 101 10 23 11 100 12
REMARK SMILES IDX 20 13 17 14 18 15 102 16 19 17 103 18 2 19 1 20 3 21 4 22
REMARK SMILES IDX 5 24 6 25 16 26 7 27 15 28 8 29 9 30 14 31 10 32 13 33 11 34
REMARK SMILES IDX 12 35 30 36 31 37 32 38 33 39 34 40 35 41 36 43 37 44 38 45
REMARK SMILES IDX 99 46 39 47 98 48 40 49 41 50 42 51 92 52 43 53 97 54 91 55
REMARK SMILES IDX 93 56 44 57 96 58 90 59 89 60 45 62 77 63 57 64 76 65 58 66
REMARK SMILES IDX 61 67 75 68 94 69 59 70 60 71 74 73 95 74 62 75 46 76 47 77
REMARK SMILES IDX 55 78 48 79 50 80 56 81 49 82 51 83 52 84 53 85 54 86 78 87
REMARK SMILES IDX 79 88 87 89 80 90 82 91 88 92 81 93 83 94 84 95 85 96 86 97
REMARK SMILES IDX 63 98 64 99 72 100 65 101 67 102 73 103 66 104 68 105 69 106
REMARK SMILES IDX 70 107 71 108
REMARK H PARENT 27 6 4 23 34 42 93 61 61 72
REMARK Flexibility Score: inf
ROOT
ATOM      1  C   UNL     1       8.534   6.628  -2.872  1.00  0.00     0.021 C 
ENDROOT
BRANCH   1   2
ATOM      2  C   UNL     1       8.196   6.019  -1.509  1.00  0.00     0.116 C 
BRANCH   2   3
ATOM      3  N   UNL     1       7.847   7.051  -0.548  1.00  0.00    -0.352 N 
ATOM      4  C   UNL     1       6.650   7.447  -0.002  1.00  0.00     0.251 C 
ATOM      5  O   UNL     1       6.683   8.305   0.881  1.00  0.00    -0.269 OA
ATOM      6  H   UNL     1       8.620   7.569  -0.226  1.00  0.00     0.163 HD
BRANCH   4   7
ATOM      7  C   UNL     1       5.347   6.812  -0.351  1.00  0.00     0.039 A 
ATOM      8  C   UNL     1       2.993   5.357  -0.722  1.00  0.00     0.067 A 
ATOM      9  C   UNL     1       3.150   6.103   0.446  1.00  0.00     0.029 A 
ATOM     10  C   UNL     1       3.930   5.440  -1.754  1.00  0.00     0.029 A 
ATOM     11  C   UNL     1       4.344   6.806   0.636  1.00  0.00     0.016 A 
ATOM     12  C   UNL     1       5.079   6.212  -1.583  1.00  0.00     0.016 A 
BRANCH   8  13
ATOM     13  N   UNL     1       1.962   4.402  -0.805  1.00  0.00    -0.217 N 
ATOM     14  C   UNL     1       0.855   2.525  -0.815  1.00  0.00     0.132 A 
ATOM     15  N   UNL     1      -0.019   3.546  -0.562  1.00  0.00    -0.128 NA
ATOM     16  C   UNL     1       2.139   3.035  -0.934  1.00  0.00     0.071 A 
ATOM     17  N   UNL     1       0.685   4.668  -0.451  1.00  0.00    -0.061 NA
ATOM     18  C   UNL     1       3.459   2.351  -0.966  1.00  0.00     0.069 C 
BRANCH  14  19
ATOM     19  C   UNL     1       0.519   1.116  -0.702  1.00  0.00     0.087 C 
ATOM     20  C   UNL     1       1.204   0.408   0.442  1.00  0.00     0.071 C 
ATOM     21  N   UNL     1      -0.261   0.622  -1.623  1.00  0.00    -0.176 NA
BRANCH  21  22
ATOM     22  N   UNL     1      -0.535  -0.722  -1.754  1.00  0.00    -0.252 N 
ATOM     23  H   UNL     1      -0.857  -0.994  -2.643  1.00  0.00     0.193 HD
BRANCH  22  24
ATOM     24  C   UNL     1      -0.431  -1.729  -0.852  1.00  0.00     0.203 A 
ATOM     25  N   UNL     1      -0.683  -1.638   0.433  1.00  0.00    -0.219 NA
ATOM     26  S   UNL     1       0.208  -3.267  -1.321  1.00  0.00    -0.103 S 
ATOM     27  C   UNL     1      -0.023  -2.634   1.120  1.00  0.00     0.084 A 
ATOM     28  C   UNL     1       0.530  -3.620   0.334  1.00  0.00     0.097 A 
BRANCH  27  29
ATOM     29  C   UNL     1       0.160  -2.490   2.551  1.00  0.00     0.001 A 
ATOM     30  C   UNL     1      -0.957  -2.283   3.370  1.00  0.00     0.012 A 
ATOM     31  C   UNL     1       1.447  -2.368   3.095  1.00  0.00     0.012 A 
ATOM     32  C   UNL     1      -0.792  -1.979   4.723  1.00  0.00     0.021 A 
ATOM     33  C   UNL     1       1.611  -2.050   4.447  1.00  0.00     0.021 A 
ATOM     34  C   UNL     1       0.490  -1.860   5.254  1.00  0.00     0.041 A 
ATOM     35  Cl  UNL     1       0.693  -1.450   6.913  1.00  0.00    -0.084 Cl
ENDBRANCH  27  29
ENDBRANCH  22  24
ENDBRANCH  21  22
ENDBRANCH  14  19
ENDBRANCH   8  13
ENDBRANCH   4   7
ENDBRANCH   2   3
ENDBRANCH   1   2
BRANCH   1  36
ATOM     36  C   UNL     1       9.943   7.231  -2.953  1.00  0.00     0.002 C 
BRANCH  36  37
ATOM     37  C   UNL     1      11.100   6.267  -2.643  1.00  0.00     0.002 C 
BRANCH  37  38
ATOM     38  C   UNL     1      11.111   4.952  -3.437  1.00  0.00     0.021 C 
BRANCH  38  39
ATOM     39  C   UNL     1      11.478   5.131  -4.903  1.00  0.00     0.116 C 
BRANCH  39  40
ATOM     40  N   UNL     1      12.883   5.503  -5.069  1.00  0.00    -0.352 N 
ATOM     41  C   UNL     1      13.537   5.883  -6.225  1.00  0.00     0.251 C 
ATOM     42  H   UNL     1      13.432   5.479  -4.252  1.00  0.00     0.163 HD
ATOM     43  O   UNL     1      14.749   5.839  -6.308  1.00  0.00    -0.269 OA
BRANCH  41  44
ATOM     44  C   UNL     1      12.717   6.340  -7.360  1.00  0.00     0.039 A 
ATOM     45  C   UNL     1      12.939   5.843  -8.648  1.00  0.00     0.014 A 
ATOM     46  C   UNL     1      11.681   7.232  -7.098  1.00  0.00     0.014 A 
ATOM     47  C   UNL     1      12.051   6.189  -9.663  1.00  0.00     0.010 A 
ATOM     48  C   UNL     1      10.737   7.468  -8.066  1.00  0.00     0.010 A 
ATOM     49  C   UNL     1      10.940   6.988  -9.361  1.00  0.00    -0.014 A 
BRANCH  49  50
ATOM     50  C   UNL     1       9.923   7.261 -10.374  1.00  0.00     0.031 A 
ATOM     51  C   UNL     1       9.218   6.069 -10.935  1.00  0.00     0.074 A 
ATOM     52  C   UNL     1       9.457   8.511 -10.585  1.00  0.00     0.049 A 
ATOM     53  N   UNL     1       9.144   5.685 -12.169  1.00  0.00    -0.248 NA
ATOM     54  C   UNL     1       8.581   5.141  -9.987  1.00  0.00     0.031 C 
ATOM     55  C   UNL     1       9.795   9.732  -9.837  1.00  0.00     0.029 A 
ATOM     56  N   UNL     1       8.442   8.923 -11.392  1.00  0.00    -0.354 N 
ATOM     57  C   UNL     1       8.284   4.582 -12.179  1.00  0.00     0.074 A 
ATOM     58  C   UNL     1       8.111   4.197 -10.803  1.00  0.00     0.031 C 
ATOM     59  C   UNL     1       8.820  10.647 -10.015  1.00  0.00     0.029 A 
ATOM     60  C   UNL     1       7.911  10.156 -11.030  1.00  0.00     0.049 A 
ATOM     61  H   UNL     1       8.116   8.399 -12.159  1.00  0.00     0.167 HD
ATOM     62  C   UNL     1       7.609   4.200 -13.300  1.00  0.00     0.034 A 
ATOM     63  C   UNL     1       6.767  10.710 -11.491  1.00  0.00     0.034 A 
ATOM     64  C   UNL     1       8.140   4.841 -14.475  1.00  0.00     0.049 A 
ATOM     65  C   UNL     1       6.432  10.032 -12.761  1.00  0.00     0.074 A 
ATOM     66  C   UNL     1       9.345   4.843 -15.144  1.00  0.00     0.029 A 
ATOM     67  N   UNL     1       7.436   5.920 -14.947  1.00  0.00    -0.354 N 
ATOM     68  N   UNL     1       7.165  10.102 -13.837  1.00  0.00    -0.248 NA
ATOM     69  C   UNL     1       5.460   8.953 -12.732  1.00  0.00     0.031 C 
ATOM     70  C   UNL     1       9.483   6.171 -15.645  1.00  0.00     0.029 A 
ATOM     71  C   UNL     1       8.337   6.889 -15.289  1.00  0.00     0.049 A 
ATOM     72  H   UNL     1       6.457   5.984 -15.026  1.00  0.00     0.167 HD
ATOM     73  C   UNL     1       7.061   8.843 -14.409  1.00  0.00     0.074 A 
ATOM     74  C   UNL     1       5.895   8.237 -13.773  1.00  0.00     0.031 C 
ATOM     75  C   UNL     1       8.095   8.307 -15.122  1.00  0.00     0.034 A 
BRANCH  62  76
ATOM     76  C   UNL     1       6.251   3.525 -13.343  1.00  0.00     0.023 A 
ATOM     77  C   UNL     1       5.774   3.107 -14.611  1.00  0.00     0.012 A 
ATOM     78  C   UNL     1       5.314   3.522 -12.286  1.00  0.00     0.148 A 
ATOM     79  C   UNL     1       4.432   2.770 -14.826  1.00  0.00     0.002 A 
ATOM     80  C   UNL     1       4.000   3.106 -12.486  1.00  0.00     0.091 A 
ATOM     81  F   UNL     1       5.638   4.049 -11.102  1.00  0.00    -0.205 F 
ATOM     82  C   UNL     1       3.545   2.762 -13.760  1.00  0.00     0.022 A 
BRANCH  80  83
ATOM     83  S   UNL     1       2.830   3.012 -11.124  1.00  0.00     0.127 S 
ATOM     84  O   UNL     1       2.028   4.210 -11.344  1.00  0.00    -0.237 OA
ATOM     85  O   UNL     1       2.147   1.748 -11.400  1.00  0.00    -0.237 OA
ATOM     86  O   UNL     1       3.647   2.992  -9.917  1.00  0.00    -0.744 OA
ENDBRANCH  80  83
ENDBRANCH  62  76
BRANCH  63  87
ATOM     87  C   UNL     1       5.817  11.602 -10.795  1.00  0.00     0.023 A 
ATOM     88  C   UNL     1       4.988  12.457 -11.544  1.00  0.00     0.012 A 
ATOM     89  C   UNL     1       5.533  11.421  -9.422  1.00  0.00     0.148 A 
ATOM     90  C   UNL     1       3.888  13.088 -10.953  1.00  0.00     0.002 A 
ATOM     91  C   UNL     1       4.440  12.052  -8.839  1.00  0.00     0.091 A 
ATOM     92  F   UNL     1       6.280  10.559  -8.719  1.00  0.00    -0.205 F 
ATOM     93  C   UNL     1       3.607  12.878  -9.605  1.00  0.00     0.022 A 
BRANCH  91  94
ATOM     94  S   UNL     1       3.998  11.806  -7.113  1.00  0.00     0.127 S 
ATOM     95  O   UNL     1       3.804  13.181  -6.652  1.00  0.00    -0.237 OA
ATOM     96  O   UNL     1       2.774  11.018  -7.227  1.00  0.00    -0.237 OA
ATOM     97  O   UNL     1       5.134  11.124  -6.506  1.00  0.00    -0.744 OA
ENDBRANCH  91  94
ENDBRANCH  63  87
BRANCH  75  98
ATOM     98  C   UNL     1       9.226   9.218 -15.533  1.00  0.00     0.023 A 
ATOM     99  C   UNL     1      10.084   9.824 -14.592  1.00  0.00     0.012 A 
ATOM    100  C   UNL     1       9.549   9.301 -16.897  1.00  0.00     0.148 A 
ATOM    101  C   UNL     1      11.230  10.509 -15.004  1.00  0.00     0.002 A 
ATOM    102  C   UNL     1      10.716   9.939 -17.300  1.00  0.00     0.091 A 
ATOM    103  F   UNL     1       8.725   8.716 -17.780  1.00  0.00    -0.205 F 
ATOM    104  C   UNL     1      11.555  10.553 -16.357  1.00  0.00     0.022 A 
BRANCH 102 105
ATOM    105  S   UNL     1      11.261   9.901 -19.009  1.00  0.00     0.127 S 
ATOM    106  O   UNL     1      10.944  11.254 -19.461  1.00  0.00    -0.237 OA
ATOM    107  O   UNL     1      12.692   9.619 -18.878  1.00  0.00    -0.237 OA
ATOM    108  O   UNL     1      10.503   8.831 -19.646  1.00  0.00    -0.744 OA
ENDBRANCH 102 105
ENDBRANCH  75  98
ENDBRANCH  49  50
ENDBRANCH  41  44
ENDBRANCH  39  40
ENDBRANCH  38  39
ENDBRANCH  37  38
ENDBRANCH  36  37
ENDBRANCH   1  36
TORSDOF 21
