REMARK SMILES O=C(Cc1ccn[nH]1)Nc1sc2c(c1C(=O)NCCCCCCNC(=O)c1ccc(-c3c4nc(c(-c5cccc(S(=O)(=O)[O-])c5F)c5ccc([nH]5)c(-c5cccc(S(=O)(=O)[O-])c5F)c5nc(c(-c6cccc(S(=O)(=O)[O-])c6F)c6ccc3[nH]6)C=C5)C=C4)cc1)CCC2
REMARK SMILES IDX 20 1 19 2 18 3 17 4 15 5 16 6 14 8 10 9 11 10 12 11 13 12
REMARK SMILES IDX 92 13 90 14 91 15 9 16 1 17 2 18 3 20 4 21 5 22 8 23 6 24
REMARK SMILES IDX 7 25 21 27 22 28 23 29 24 30 25 31 26 33 27 34 28 35 89 36
REMARK SMILES IDX 29 37 88 38 30 39 31 40 32 41 82 42 33 43 87 44 81 45 83 46
REMARK SMILES IDX 34 47 86 48 80 49 79 50 35 52 67 53 47 54 66 55 48 56 51 57
REMARK SMILES IDX 65 58 84 59 49 60 50 61 64 63 85 64 52 65 36 66 37 67 45 68
REMARK SMILES IDX 38 69 40 70 46 71 39 72 41 73 42 74 43 75 44 76 68 77 69 78
REMARK SMILES IDX 77 79 70 80 72 81 78 82 71 83 73 84 74 85 75 86 76 87 53 88
REMARK SMILES IDX 54 89 62 90 55 91 57 92 63 93 56 94 58 95 59 96 60 97 61 98
REMARK H PARENT 17 7 9 19 8 26 24 32 83 51 51 62
REMARK Flexibility Score: inf
ROOT
ATOM      1  C   UNL     1      -3.402  -4.045   1.499  1.00  0.00     0.002 C 
ENDROOT
BRANCH   1   2
ATOM      2  C   UNL     1      -2.432  -3.347   2.459  1.00  0.00     0.021 C 
BRANCH   2   3
ATOM      3  C   UNL     1      -1.008  -3.874   2.354  1.00  0.00     0.116 C 
BRANCH   3   4
ATOM      4  N   UNL     1      -0.260  -3.243   1.310  1.00  0.00    -0.352 N 
ATOM      5  C   UNL     1       0.871  -2.475   1.328  1.00  0.00     0.254 C 
ATOM      6  O   UNL     1       1.504  -2.535   0.263  1.00  0.00    -0.269 OA
ATOM      7  H   UNL     1      -0.629  -3.389   0.409  1.00  0.00     0.163 HD
BRANCH   5   8
ATOM      8  C   UNL     1       1.385  -1.720   2.493  1.00  0.00     0.078 A 
ATOM      9  C   UNL     1       2.436  -0.811   2.303  1.00  0.00     0.108 A 
ATOM     10  S   UNL     1       3.242  -0.328   3.730  1.00  0.00    -0.122 S 
ATOM     11  C   UNL     1       2.029  -1.014   4.636  1.00  0.00     0.011 A 
ATOM     12  C   UNL     1       1.081  -1.697   3.909  1.00  0.00    -0.019 A 
ATOM     13  C   UNL     1       1.827  -1.007   6.104  1.00  0.00     0.047 C 
ATOM     14  C   UNL     1       0.071  -2.240   4.873  1.00  0.00     0.038 C 
ATOM     15  C   UNL     1       0.361  -1.482   6.199  1.00  0.00     0.010 C 
BRANCH   9  16
ATOM     16  N   UNL     1       3.014  -0.241   1.192  1.00  0.00    -0.317 N 
ATOM     17  O   UNL     1       1.068   0.224  -0.004  1.00  0.00    -0.274 OA
ATOM     18  C   UNL     1       2.289   0.111   0.067  1.00  0.00     0.230 C 
ATOM     19  H   UNL     1       3.984  -0.075   1.198  1.00  0.00     0.170 HD
BRANCH  18  20
ATOM     20  C   UNL     1       3.169   0.381  -1.141  1.00  0.00     0.155 C 
BRANCH  20  21
ATOM     21  C   UNL     1       4.070   1.540  -0.895  1.00  0.00     0.044 A 
ATOM     22  C   UNL     1       5.401   1.611  -0.547  1.00  0.00     0.045 A 
ATOM     23  N   UNL     1       3.627   2.835  -0.960  1.00  0.00    -0.282 N 
ATOM     24  C   UNL     1       5.666   2.986  -0.435  1.00  0.00     0.135 A 
ATOM     25  N   UNL     1       4.598   3.734  -0.716  1.00  0.00    -0.184 NA
ATOM     26  H   UNL     1       2.697   3.083  -1.165  1.00  0.00     0.190 HD
ENDBRANCH  20  21
ENDBRANCH  18  20
ENDBRANCH   9  16
ENDBRANCH   5   8
ENDBRANCH   3   4
ENDBRANCH   2   3
ENDBRANCH   1   2
BRANCH   1  27
ATOM     27  C   UNL     1      -3.403  -5.584   1.561  1.00  0.00     0.002 C 
BRANCH  27  28
ATOM     28  C   UNL     1      -3.525  -6.205   2.963  1.00  0.00     0.021 C 
BRANCH  28  29
ATOM     29  C   UNL     1      -4.907  -6.032   3.568  1.00  0.00     0.116 C 
BRANCH  29  30
ATOM     30  N   UNL     1      -5.920  -6.762   2.800  1.00  0.00    -0.352 N 
ATOM     31  C   UNL     1      -7.293  -6.768   2.947  1.00  0.00     0.251 C 
ATOM     32  H   UNL     1      -5.571  -7.329   2.075  1.00  0.00     0.163 HD
ATOM     33  O   UNL     1      -7.972  -7.660   2.471  1.00  0.00    -0.269 OA
BRANCH  31  34
ATOM     34  C   UNL     1      -7.917  -5.657   3.682  1.00  0.00     0.039 A 
ATOM     35  C   UNL     1      -8.985  -5.864   4.561  1.00  0.00     0.014 A 
ATOM     36  C   UNL     1      -7.382  -4.389   3.489  1.00  0.00     0.014 A 
ATOM     37  C   UNL     1      -9.465  -4.781   5.292  1.00  0.00     0.010 A 
ATOM     38  C   UNL     1      -7.712  -3.384   4.349  1.00  0.00     0.010 A 
ATOM     39  C   UNL     1      -8.813  -3.546   5.180  1.00  0.00    -0.014 A 
BRANCH  39  40
ATOM     40  C   UNL     1      -9.187  -2.400   5.993  1.00  0.00     0.031 A 
ATOM     41  C   UNL     1      -9.044  -2.624   7.455  1.00  0.00     0.074 A 
ATOM     42  C   UNL     1      -9.355  -1.180   5.434  1.00  0.00     0.049 A 
ATOM     43  N   UNL     1      -9.981  -2.689   8.342  1.00  0.00    -0.248 NA
ATOM     44  C   UNL     1      -7.716  -3.005   7.967  1.00  0.00     0.031 C 
ATOM     45  C   UNL     1      -9.169  -0.804   4.022  1.00  0.00     0.029 A 
ATOM     46  N   UNL     1      -9.546   0.023   6.033  1.00  0.00    -0.354 N 
ATOM     47  C   UNL     1      -9.321  -2.841   9.562  1.00  0.00     0.074 A 
ATOM     48  C   UNL     1      -8.000  -3.299   9.237  1.00  0.00     0.031 C 
ATOM     49  C   UNL     1      -8.977   0.529   3.932  1.00  0.00     0.029 A 
ATOM     50  C   UNL     1      -9.206   1.115   5.236  1.00  0.00     0.049 A 
ATOM     51  H   UNL     1      -9.893   0.116   6.949  1.00  0.00     0.167 HD
ATOM     52  C   UNL     1      -9.813  -2.266  10.697  1.00  0.00     0.034 A 
ATOM     53  C   UNL     1      -9.065   2.402   5.640  1.00  0.00     0.034 A 
ATOM     54  C   UNL     1     -11.185  -1.851  10.503  1.00  0.00     0.049 A 
ATOM     55  C   UNL     1      -9.772   2.526   6.934  1.00  0.00     0.074 A 
ATOM     56  C   UNL     1     -12.358  -2.478  10.130  1.00  0.00     0.029 A 
ATOM     57  N   UNL     1     -11.398  -0.507  10.307  1.00  0.00    -0.354 N 
ATOM     58  N   UNL     1     -11.063   2.392   7.060  1.00  0.00    -0.248 NA
ATOM     59  C   UNL     1      -8.999   2.341   8.150  1.00  0.00     0.031 C 
ATOM     60  C   UNL     1     -13.025  -1.536   9.291  1.00  0.00     0.029 A 
ATOM     61  C   UNL     1     -12.269  -0.362   9.264  1.00  0.00     0.049 A 
ATOM     62  H   UNL     1     -10.992   0.224  10.827  1.00  0.00     0.167 HD
ATOM     63  C   UNL     1     -11.214   1.645   8.221  1.00  0.00     0.074 A 
ATOM     64  C   UNL     1      -9.927   1.752   8.909  1.00  0.00     0.031 C 
ATOM     65  C   UNL     1     -12.252   0.767   8.358  1.00  0.00     0.034 A 
BRANCH  52  66
ATOM     66  C   UNL     1      -8.973  -1.661  11.816  1.00  0.00     0.023 A 
ATOM     67  C   UNL     1      -9.686  -1.090  12.899  1.00  0.00     0.012 A 
ATOM     68  C   UNL     1      -7.596  -1.348  11.739  1.00  0.00     0.148 A 
ATOM     69  C   UNL     1      -9.098  -0.168  13.771  1.00  0.00     0.002 A 
ATOM     70  C   UNL     1      -6.998  -0.476  12.645  1.00  0.00     0.091 A 
ATOM     71  F   UNL     1      -6.850  -1.796  10.731  1.00  0.00    -0.205 F 
ATOM     72  C   UNL     1      -7.754   0.148  13.638  1.00  0.00     0.022 A 
BRANCH  70  73
ATOM     73  S   UNL     1      -5.251  -0.056  12.537  1.00  0.00     0.127 S 
ATOM     74  O   UNL     1      -5.316   1.319  12.050  1.00  0.00    -0.237 OA
ATOM     75  O   UNL     1      -4.824  -0.204  13.928  1.00  0.00    -0.237 OA
ATOM     76  O   UNL     1      -4.663  -1.029  11.624  1.00  0.00    -0.744 OA
ENDBRANCH  70  73
ENDBRANCH  52  66
BRANCH  53  77
ATOM     77  C   UNL     1      -8.163   3.462   5.135  1.00  0.00     0.023 A 
ATOM     78  C   UNL     1      -8.460   4.815   5.396  1.00  0.00     0.012 A 
ATOM     79  C   UNL     1      -6.875   3.143   4.651  1.00  0.00     0.148 A 
ATOM     80  C   UNL     1      -7.494   5.814   5.214  1.00  0.00     0.002 A 
ATOM     81  C   UNL     1      -5.920   4.139   4.469  1.00  0.00     0.091 A 
ATOM     82  F   UNL     1      -6.560   1.855   4.460  1.00  0.00    -0.205 F 
ATOM     83  C   UNL     1      -6.222   5.476   4.761  1.00  0.00     0.022 A 
BRANCH  81  84
ATOM     84  S   UNL     1      -4.246   3.774   3.922  1.00  0.00     0.127 S 
ATOM     85  O   UNL     1      -4.071   4.732   2.830  1.00  0.00    -0.237 OA
ATOM     86  O   UNL     1      -3.467   4.064   5.123  1.00  0.00    -0.237 OA
ATOM     87  O   UNL     1      -4.263   2.378   3.503  1.00  0.00    -0.744 OA
ENDBRANCH  81  84
ENDBRANCH  53  77
BRANCH  65  88
ATOM     88  C   UNL     1     -13.362   0.814   7.337  1.00  0.00     0.023 A 
ATOM     89  C   UNL     1     -13.160   0.496   5.976  1.00  0.00     0.012 A 
ATOM     90  C   UNL     1     -14.672   1.009   7.798  1.00  0.00     0.148 A 
ATOM     91  C   UNL     1     -14.240   0.396   5.094  1.00  0.00     0.002 A 
ATOM     92  C   UNL     1     -15.747   0.862   6.930  1.00  0.00     0.091 A 
ATOM     93  F   UNL     1     -14.848   1.306   9.095  1.00  0.00    -0.205 F 
ATOM     94  C   UNL     1     -15.536   0.565   5.575  1.00  0.00     0.022 A 
BRANCH  92  95
ATOM     95  S   UNL     1     -17.439   0.941   7.519  1.00  0.00     0.127 S 
ATOM     96  O   UNL     1     -17.869   2.252   7.037  1.00  0.00    -0.237 OA
ATOM     97  O   UNL     1     -18.062  -0.196   6.840  1.00  0.00    -0.237 OA
ATOM     98  O   UNL     1     -17.365   0.798   8.968  1.00  0.00    -0.744 OA
ENDBRANCH  92  95
ENDBRANCH  65  88
ENDBRANCH  39  40
ENDBRANCH  31  34
ENDBRANCH  29  30
ENDBRANCH  28  29
ENDBRANCH  27  28
ENDBRANCH   1  27
TORSDOF 19
