REMARK SMILES [NH3+][C@H]1CN(C(=O)OCC2c3ccccc3-c3ccccc32)C[C@@H]1C(=O)NCCCCCCNC(=O)c1ccc(-c2c3nc(c(-c4cccc(S(=O)(=O)[O-])c4F)c4ccc([nH]4)c(-c4cccc(S(=O)(=O)[O-])c4F)c4nc(c(-c5cccc(S(=O)(=O)[O-])c5F)c5ccc2[nH]5)C=C4)C=C3)cc1
REMARK SMILES IDX 29 1 28 2 27 3 26 4 24 5 25 6 23 8 2 9 3 10 4 11 22 12 1 13
REMARK SMILES IDX 5 17 6 18 7 19 8 20 9 21 10 22 21 23 11 24 15 25 16 26 20 27
REMARK SMILES IDX 12 28 14 29 17 30 19 31 13 32 18 33 30 34 31 35 32 36 33 37
REMARK SMILES IDX 34 38 35 40 36 41 37 42 98 43 38 44 97 45 39 46 40 47 41 48
REMARK SMILES IDX 91 49 42 50 96 51 90 52 92 53 43 54 95 55 89 56 88 57 44 59
REMARK SMILES IDX 76 60 56 61 75 62 57 63 60 64 74 65 93 66 58 67 59 68 73 70
REMARK SMILES IDX 94 71 61 72 45 73 46 74 54 75 47 76 49 77 55 78 48 79 50 80
REMARK SMILES IDX 51 81 52 82 53 83 77 84 78 85 86 86 79 87 81 88 87 89 80 90
REMARK SMILES IDX 82 91 83 92 84 93 85 94 62 95 63 96 71 97 64 98 66 99 72 100
REMARK SMILES IDX 65 101 67 102 68 103 69 104 70 105
REMARK H PARENT 26 7 1 14 1 15 1 16 33 39 92 58 60 69
REMARK Flexibility Score: inf
ROOT
ATOM      1  C   UNL     1       4.429  -6.150   0.480  1.00  0.00     0.002 C 
ENDROOT
BRANCH   1   2
ATOM      2  C   UNL     1       2.961  -5.982   0.876  1.00  0.00     0.021 C 
BRANCH   2   3
ATOM      3  C   UNL     1       2.524  -4.604   1.360  1.00  0.00     0.116 C 
BRANCH   3   4
ATOM      4  N   UNL     1       2.556  -3.566   0.349  1.00  0.00    -0.356 N 
ATOM      5  C   UNL     1       1.887  -2.385   0.257  1.00  0.00     0.231 C 
ATOM      6  O   UNL     1       2.304  -1.611  -0.617  1.00  0.00    -0.274 OA
ATOM      7  H   UNL     1       3.167  -3.748  -0.401  1.00  0.00     0.163 HD
BRANCH   5   8
ATOM      8  C   UNL     1       0.597  -2.043   1.021  1.00  0.00     0.158 C 
ATOM      9  C   UNL     1       0.443  -0.491   1.111  1.00  0.00     0.215 C 
ATOM     10  C   UNL     1       1.231  -0.138   2.413  1.00  0.00     0.188 C 
ATOM     11  N   UNL     1       1.288  -1.386   3.150  1.00  0.00    -0.301 N 
ATOM     12  C   UNL     1       0.495  -2.393   2.492  1.00  0.00     0.143 C 
BRANCH   9  13
ATOM     13  N   UNL     1      -0.983  -0.110   1.217  1.00  0.00    -0.353 N 
ATOM     14  H   UNL     1      -1.060   0.906   1.274  1.00  0.00     0.344 HD
ATOM     15  H   UNL     1      -1.385  -0.529   2.055  1.00  0.00     0.344 HD
ATOM     16  H   UNL     1      -1.485  -0.443   0.394  1.00  0.00     0.344 HD
ENDBRANCH   9  13
BRANCH  11  17
ATOM     17  C   UNL     1       2.299  -1.749   3.999  1.00  0.00     0.410 C 
ATOM     18  O   UNL     1       2.754  -2.884   4.023  1.00  0.00    -0.224 OA
BRANCH  17  19
ATOM     19  O   UNL     1       2.695  -0.754   4.827  1.00  0.00    -0.448 OA
BRANCH  19  20
ATOM     20  C   UNL     1       3.577  -1.197   5.893  1.00  0.00     0.248 C 
BRANCH  20  21
ATOM     21  C   UNL     1       2.781  -1.753   7.098  1.00  0.00     0.088 C 
ATOM     22  C   UNL     1       2.927  -3.261   7.342  1.00  0.00    -0.029 A 
ATOM     23  C   UNL     1       3.320  -1.188   8.416  1.00  0.00    -0.029 A 
ATOM     24  C   UNL     1       2.490  -4.333   6.575  1.00  0.00     0.005 A 
ATOM     25  C   UNL     1       3.525  -3.498   8.597  1.00  0.00    -0.014 A 
ATOM     26  C   UNL     1       3.752  -2.234   9.258  1.00  0.00    -0.014 A 
ATOM     27  C   UNL     1       3.380   0.135   8.831  1.00  0.00     0.005 A 
ATOM     28  C   UNL     1       2.730  -5.636   7.024  1.00  0.00     0.000 A 
ATOM     29  C   UNL     1       3.752  -4.788   9.053  1.00  0.00     0.009 A 
ATOM     30  C   UNL     1       4.247  -1.968  10.523  1.00  0.00     0.009 A 
ATOM     31  C   UNL     1       3.890   0.405  10.105  1.00  0.00     0.000 A 
ATOM     32  C   UNL     1       3.364  -5.863   8.252  1.00  0.00     0.001 A 
ATOM     33  C   UNL     1       4.317  -0.638  10.943  1.00  0.00     0.001 A 
ENDBRANCH  20  21
ENDBRANCH  19  20
ENDBRANCH  17  19
ENDBRANCH  11  17
ENDBRANCH   5   8
ENDBRANCH   3   4
ENDBRANCH   2   3
ENDBRANCH   1   2
BRANCH   1  34
ATOM     34  C   UNL     1       5.488  -5.764   1.516  1.00  0.00     0.002 C 
BRANCH  34  35
ATOM     35  C   UNL     1       5.329  -6.332   2.930  1.00  0.00     0.021 C 
BRANCH  35  36
ATOM     36  C   UNL     1       5.160  -7.844   3.047  1.00  0.00     0.116 C 
BRANCH  36  37
ATOM     37  N   UNL     1       6.284  -8.594   2.513  1.00  0.00    -0.352 N 
ATOM     38  C   UNL     1       6.953  -9.668   3.051  1.00  0.00     0.251 C 
ATOM     39  H   UNL     1       6.615  -8.289   1.637  1.00  0.00     0.163 HD
ATOM     40  O   UNL     1       7.953 -10.104   2.487  1.00  0.00    -0.269 OA
BRANCH  38  41
ATOM     41  C   UNL     1       6.495 -10.287   4.318  1.00  0.00     0.039 A 
ATOM     42  C   UNL     1       7.448 -10.601   5.293  1.00  0.00     0.014 A 
ATOM     43  C   UNL     1       5.148 -10.586   4.541  1.00  0.00     0.014 A 
ATOM     44  C   UNL     1       7.046 -11.161   6.510  1.00  0.00     0.010 A 
ATOM     45  C   UNL     1       4.742 -11.095   5.776  1.00  0.00     0.010 A 
ATOM     46  C   UNL     1       5.686 -11.390   6.771  1.00  0.00    -0.014 A 
BRANCH  46  47
ATOM     47  C   UNL     1       5.233 -11.939   8.076  1.00  0.00     0.031 A 
ATOM     48  C   UNL     1       4.611 -13.309   8.145  1.00  0.00     0.074 A 
ATOM     49  C   UNL     1       5.316 -11.179   9.186  1.00  0.00     0.049 A 
ATOM     50  N   UNL     1       4.095 -13.930   9.175  1.00  0.00    -0.248 NA
ATOM     51  C   UNL     1       4.543 -14.074   6.889  1.00  0.00     0.031 C 
ATOM     52  C   UNL     1       5.845  -9.814   9.241  1.00  0.00     0.029 A 
ATOM     53  N   UNL     1       4.936 -11.439  10.479  1.00  0.00    -0.354 N 
ATOM     54  C   UNL     1       3.617 -15.142   8.689  1.00  0.00     0.074 A 
ATOM     55  C   UNL     1       3.878 -15.158   7.266  1.00  0.00     0.031 C 
ATOM     56  C   UNL     1       5.761  -9.360  10.502  1.00  0.00     0.029 A 
ATOM     57  C   UNL     1       5.154 -10.389  11.341  1.00  0.00     0.049 A 
ATOM     58  H   UNL     1       4.545 -12.296  10.764  1.00  0.00     0.167 HD
ATOM     59  C   UNL     1       3.044 -16.164   9.369  1.00  0.00     0.034 A 
ATOM     60  C   UNL     1       4.897 -10.272  12.659  1.00  0.00     0.034 A 
ATOM     61  C   UNL     1       2.829 -16.169  10.790  1.00  0.00     0.049 A 
ATOM     62  C   UNL     1       4.295 -11.441  13.395  1.00  0.00     0.074 A 
ATOM     63  C   UNL     1       2.291 -17.173  11.577  1.00  0.00     0.029 A 
ATOM     64  N   UNL     1       3.154 -15.126  11.642  1.00  0.00    -0.354 N 
ATOM     65  N   UNL     1       3.966 -12.624  12.937  1.00  0.00    -0.248 NA
ATOM     66  C   UNL     1       4.065 -11.271  14.838  1.00  0.00     0.031 C 
ATOM     67  C   UNL     1       2.298 -16.739  12.907  1.00  0.00     0.029 A 
ATOM     68  C   UNL     1       2.842 -15.465  12.947  1.00  0.00     0.049 A 
ATOM     69  H   UNL     1       3.548 -14.268  11.360  1.00  0.00     0.167 HD
ATOM     70  C   UNL     1       3.529 -13.351  14.039  1.00  0.00     0.074 A 
ATOM     71  C   UNL     1       3.654 -12.481  15.190  1.00  0.00     0.031 C 
ATOM     72  C   UNL     1       3.048 -14.617  14.091  1.00  0.00     0.034 A 
BRANCH  59  73
ATOM     73  C   UNL     1       2.683 -17.403   8.593  1.00  0.00     0.023 A 
ATOM     74  C   UNL     1       3.712 -18.276   8.184  1.00  0.00     0.012 A 
ATOM     75  C   UNL     1       1.342 -17.741   8.325  1.00  0.00     0.148 A 
ATOM     76  C   UNL     1       3.416 -19.453   7.499  1.00  0.00     0.002 A 
ATOM     77  C   UNL     1       1.052 -18.935   7.672  1.00  0.00     0.091 A 
ATOM     78  F   UNL     1       0.379 -16.889   8.703  1.00  0.00    -0.205 F 
ATOM     79  C   UNL     1       2.087 -19.787   7.252  1.00  0.00     0.022 A 
BRANCH  77  80
ATOM     80  S   UNL     1      -0.630 -19.489   7.366  1.00  0.00     0.127 S 
ATOM     81  O   UNL     1      -0.752 -19.276   5.925  1.00  0.00    -0.237 OA
ATOM     82  O   UNL     1      -0.573 -20.893   7.772  1.00  0.00    -0.237 OA
ATOM     83  O   UNL     1      -1.483 -18.652   8.198  1.00  0.00    -0.744 OA
ENDBRANCH  77  80
ENDBRANCH  59  73
BRANCH  60  84
ATOM     84  C   UNL     1       5.282  -9.034  13.395  1.00  0.00     0.023 A 
ATOM     85  C   UNL     1       6.355  -9.087  14.306  1.00  0.00     0.012 A 
ATOM     86  C   UNL     1       4.600  -7.817  13.207  1.00  0.00     0.148 A 
ATOM     87  C   UNL     1       6.720  -7.962  15.044  1.00  0.00     0.002 A 
ATOM     88  C   UNL     1       4.996  -6.687  13.916  1.00  0.00     0.091 A 
ATOM     89  F   UNL     1       3.582  -7.788  12.335  1.00  0.00    -0.205 F 
ATOM     90  C   UNL     1       6.044  -6.761  14.846  1.00  0.00     0.022 A 
BRANCH  88  91
ATOM     91  S   UNL     1       4.250  -5.074  13.664  1.00  0.00     0.127 S 
ATOM     92  O   UNL     1       3.569  -4.854  14.937  1.00  0.00    -0.237 OA
ATOM     93  O   UNL     1       5.423  -4.229  13.436  1.00  0.00    -0.237 OA
ATOM     94  O   UNL     1       3.385  -5.221  12.502  1.00  0.00    -0.744 OA
ENDBRANCH  88  91
ENDBRANCH  60  84
BRANCH  72  95
ATOM     95  C   UNL     1       2.660 -15.161  15.439  1.00  0.00     0.023 A 
ATOM     96  C   UNL     1       1.457 -14.739  16.038  1.00  0.00     0.012 A 
ATOM     97  C   UNL     1       3.444 -16.144  16.073  1.00  0.00     0.148 A 
ATOM     98  C   UNL     1       1.053 -15.269  17.263  1.00  0.00     0.002 A 
ATOM     99  C   UNL     1       3.014 -16.696  17.275  1.00  0.00     0.091 A 
ATOM    100  F   UNL     1       4.597 -16.515  15.498  1.00  0.00    -0.205 F 
ATOM    101  C   UNL     1       1.824 -16.255  17.875  1.00  0.00     0.022 A 
BRANCH  99 102
ATOM    102  S   UNL     1       3.906 -18.031  18.083  1.00  0.00     0.127 S 
ATOM    103  O   UNL     1       4.624 -17.316  19.136  1.00  0.00    -0.237 OA
ATOM    104  O   UNL     1       2.823 -18.891  18.560  1.00  0.00    -0.237 OA
ATOM    105  O   UNL     1       4.737 -18.632  17.049  1.00  0.00    -0.744 OA
ENDBRANCH  99 102
ENDBRANCH  72  95
ENDBRANCH  46  47
ENDBRANCH  38  41
ENDBRANCH  36  37
ENDBRANCH  35  36
ENDBRANCH  34  35
ENDBRANCH   1  34
TORSDOF 21
