REMARK SMILES O=C(NCCCCCCNC(=O)[C@H](NC(=O)[C@H]1CC(=O)N(CC2CC2)C1)c1ccccc1C(F)(F)F)c1ccc(-c2c3nc(c(-c4cccc(S(=O)(=O)[O-])c4F)c4ccc([nH]4)c(-c4cccc(S(=O)(=O)[O-])c4F)c4nc(c(-c5cccc(S(=O)(=O)[O-])c5F)c5ccc2[nH]5)C=C4)C=C3)cc1
REMARK SMILES IDX 7 1 6 2 5 3 4 4 3 5 1 6 2 7 37 9 38 10 99 11 39 12 98 13
REMARK SMILES IDX 40 14 41 15 42 16 92 17 43 18 97 19 91 20 93 21 44 22 96 23
REMARK SMILES IDX 90 24 89 25 45 27 77 28 57 29 76 30 58 31 61 32 75 33 94 34
REMARK SMILES IDX 59 35 60 36 74 38 95 39 62 40 46 41 47 42 55 43 48 44 50 45
REMARK SMILES IDX 56 46 49 47 51 48 52 49 53 50 54 51 78 52 79 53 87 54 80 55
REMARK SMILES IDX 82 56 88 57 81 58 83 59 84 60 85 61 86 62 63 63 64 64 72 65
REMARK SMILES IDX 65 66 67 67 73 68 66 69 68 70 69 71 70 72 71 73 8 74 9 75
REMARK SMILES IDX 10 76 11 77 12 79 13 80 27 81 28 82 32 83 29 84 31 85 30 86
REMARK SMILES IDX 33 87 34 88 35 89 36 90 14 91 15 92 16 94 17 95 18 96 26 97
REMARK SMILES IDX 19 98 21 99 20 100 22 101 23 102 24 103 25 104
REMARK H PARENT 3 8 93 26 61 37 10 78 14 93
REMARK Flexibility Score: inf
ROOT
ATOM      1  C   UNL     1      13.670   8.628  -4.286  1.00  0.00     0.002 C 
ENDROOT
BRANCH   1   2
ATOM      2  C   UNL     1      13.779   9.411  -2.973  1.00  0.00     0.002 C 
BRANCH   2   3
ATOM      3  C   UNL     1      13.028   8.806  -1.786  1.00  0.00     0.021 C 
BRANCH   3   4
ATOM      4  C   UNL     1      13.373   7.353  -1.494  1.00  0.00     0.116 C 
BRANCH   4   5
ATOM      5  N   UNL     1      14.787   7.165  -1.207  1.00  0.00    -0.352 N 
ATOM      6  O   UNL     1      16.585   6.655   0.056  1.00  0.00    -0.269 OA
ATOM      7  C   UNL     1      15.374   6.568  -0.117  1.00  0.00     0.251 C 
ATOM      8  H   UNL     1      15.409   7.513  -1.887  1.00  0.00     0.163 HD
BRANCH   7   9
ATOM      9  C   UNL     1      14.521   5.843   0.847  1.00  0.00     0.039 A 
ATOM     10  C   UNL     1      13.516   4.993   0.382  1.00  0.00     0.014 A 
ATOM     11  C   UNL     1      14.706   6.032   2.219  1.00  0.00     0.014 A 
ATOM     12  C   UNL     1      12.598   4.463   1.274  1.00  0.00     0.010 A 
ATOM     13  C   UNL     1      13.847   5.401   3.124  1.00  0.00     0.010 A 
ATOM     14  C   UNL     1      12.771   4.630   2.658  1.00  0.00    -0.014 A 
BRANCH  14  15
ATOM     15  C   UNL     1      11.873   3.887   3.577  1.00  0.00     0.031 A 
ATOM     16  C   UNL     1      10.968   4.591   4.548  1.00  0.00     0.074 A 
ATOM     17  C   UNL     1      11.871   2.541   3.498  1.00  0.00     0.049 A 
ATOM     18  N   UNL     1      10.100   4.072   5.379  1.00  0.00    -0.248 NA
ATOM     19  C   UNL     1      11.046   6.060   4.607  1.00  0.00     0.031 C 
ATOM     20  C   UNL     1      12.744   1.749   2.624  1.00  0.00     0.029 A 
ATOM     21  N   UNL     1      11.116   1.599   4.146  1.00  0.00    -0.354 N 
ATOM     22  C   UNL     1       9.550   5.139   6.079  1.00  0.00     0.074 A 
ATOM     23  C   UNL     1      10.191   6.339   5.583  1.00  0.00     0.031 C 
ATOM     24  C   UNL     1      12.449   0.450   2.761  1.00  0.00     0.029 A 
ATOM     25  C   UNL     1      11.422   0.308   3.784  1.00  0.00     0.049 A 
ATOM     26  H   UNL     1      10.422   1.825   4.807  1.00  0.00     0.167 HD
ATOM     27  C   UNL     1       8.591   5.118   7.036  1.00  0.00     0.034 A 
ATOM     28  C   UNL     1      10.953  -0.866   4.242  1.00  0.00     0.034 A 
ATOM     29  C   UNL     1       7.946   3.918   7.508  1.00  0.00     0.049 A 
ATOM     30  C   UNL     1       9.889  -0.851   5.299  1.00  0.00     0.074 A 
ATOM     31  C   UNL     1       6.929   3.798   8.439  1.00  0.00     0.029 A 
ATOM     32  N   UNL     1       8.261   2.631   7.097  1.00  0.00    -0.354 N 
ATOM     33  N   UNL     1       9.298   0.176   5.860  1.00  0.00    -0.248 NA
ATOM     34  C   UNL     1       9.406  -2.155   5.767  1.00  0.00     0.031 C 
ATOM     35  C   UNL     1       6.652   2.438   8.615  1.00  0.00     0.029 A 
ATOM     36  C   UNL     1       7.468   1.712   7.764  1.00  0.00     0.049 A 
ATOM     37  H   UNL     1       8.948   2.404   6.428  1.00  0.00     0.167 HD
ATOM     38  C   UNL     1       8.357  -0.357   6.729  1.00  0.00     0.074 A 
ATOM     39  C   UNL     1       8.430  -1.798   6.589  1.00  0.00     0.031 C 
ATOM     40  C   UNL     1       7.523   0.284   7.584  1.00  0.00     0.034 A 
BRANCH  27  41
ATOM     41  C   UNL     1       8.143   6.432   7.625  1.00  0.00     0.023 A 
ATOM     42  C   UNL     1       7.351   7.308   6.856  1.00  0.00     0.012 A 
ATOM     43  C   UNL     1       8.420   6.755   8.970  1.00  0.00     0.148 A 
ATOM     44  C   UNL     1       6.859   8.492   7.406  1.00  0.00     0.002 A 
ATOM     45  C   UNL     1       7.890   7.915   9.524  1.00  0.00     0.091 A 
ATOM     46  F   UNL     1       9.186   5.916   9.682  1.00  0.00    -0.205 F 
ATOM     47  C   UNL     1       7.118   8.789   8.742  1.00  0.00     0.022 A 
BRANCH  45  48
ATOM     48  S   UNL     1       8.095   8.350  11.256  1.00  0.00     0.127 S 
ATOM     49  O   UNL     1       8.914   9.558  11.162  1.00  0.00    -0.237 OA
ATOM     50  O   UNL     1       6.714   8.581  11.679  1.00  0.00    -0.237 OA
ATOM     51  O   UNL     1       8.745   7.209  11.886  1.00  0.00    -0.744 OA
ENDBRANCH  45  48
ENDBRANCH  27  41
BRANCH  28  52
ATOM     52  C   UNL     1      11.483  -2.147   3.698  1.00  0.00     0.023 A 
ATOM     53  C   UNL     1      10.642  -2.995   2.955  1.00  0.00     0.012 A 
ATOM     54  C   UNL     1      12.825  -2.521   3.907  1.00  0.00     0.148 A 
ATOM     55  C   UNL     1      11.115  -4.214   2.467  1.00  0.00     0.002 A 
ATOM     56  C   UNL     1      13.308  -3.703   3.362  1.00  0.00     0.091 A 
ATOM     57  F   UNL     1      13.609  -1.706   4.628  1.00  0.00    -0.205 F 
ATOM     58  C   UNL     1      12.449  -4.563   2.661  1.00  0.00     0.022 A 
BRANCH  56  59
ATOM     59  S   UNL     1      15.044  -4.153   3.442  1.00  0.00     0.127 S 
ATOM     60  O   UNL     1      15.028  -5.227   4.431  1.00  0.00    -0.237 OA
ATOM     61  O   UNL     1      15.310  -4.582   2.068  1.00  0.00    -0.237 OA
ATOM     62  O   UNL     1      15.745  -2.937   3.833  1.00  0.00    -0.744 OA
ENDBRANCH  56  59
ENDBRANCH  28  52
BRANCH  40  63
ATOM     63  C   UNL     1       6.598  -0.573   8.408  1.00  0.00     0.023 A 
ATOM     64  C   UNL     1       7.118  -1.380   9.440  1.00  0.00     0.012 A 
ATOM     65  C   UNL     1       5.208  -0.556   8.178  1.00  0.00     0.148 A 
ATOM     66  C   UNL     1       6.277  -2.194  10.196  1.00  0.00     0.002 A 
ATOM     67  C   UNL     1       4.370  -1.328   8.972  1.00  0.00     0.091 A 
ATOM     68  F   UNL     1       4.734   0.203   7.179  1.00  0.00    -0.205 F 
ATOM     69  C   UNL     1       4.903  -2.160   9.969  1.00  0.00     0.022 A 
BRANCH  67  70
ATOM     70  S   UNL     1       2.582  -1.277   8.816  1.00  0.00     0.127 S 
ATOM     71  O   UNL     1       2.297  -2.582   8.221  1.00  0.00    -0.237 OA
ATOM     72  O   UNL     1       2.154  -1.135  10.208  1.00  0.00    -0.237 OA
ATOM     73  O   UNL     1       2.284  -0.127   7.973  1.00  0.00    -0.744 OA
ENDBRANCH  67  70
ENDBRANCH  40  63
ENDBRANCH  14  15
ENDBRANCH   7   9
ENDBRANCH   4   5
ENDBRANCH   3   4
ENDBRANCH   2   3
ENDBRANCH   1   2
BRANCH   1  74
ATOM     74  C   UNL     1      12.246   8.334  -4.747  1.00  0.00     0.021 C 
BRANCH  74  75
ATOM     75  C   UNL     1      11.398   9.573  -4.955  1.00  0.00     0.116 C 
BRANCH  75  76
ATOM     76  N   UNL     1      11.707  10.307  -6.146  1.00  0.00    -0.354 N 
ATOM     77  C   UNL     1      10.845  10.853  -7.051  1.00  0.00     0.247 C 
ATOM     78  H   UNL     1      12.665  10.433  -6.336  1.00  0.00     0.163 HD
ATOM     79  O   UNL     1      11.351  11.687  -7.813  1.00  0.00    -0.272 OA
BRANCH  77  80
ATOM     80  C   UNL     1       9.270  10.574  -7.025  1.00  0.00     0.202 C 
BRANCH  80  81
ATOM     81  C   UNL     1       8.675  11.060  -8.375  1.00  0.00    -0.004 A 
ATOM     82  C   UNL     1       9.222  10.542  -9.575  1.00  0.00     0.007 A 
ATOM     83  C   UNL     1       7.668  12.046  -8.507  1.00  0.00     0.061 A 
ATOM     84  C   UNL     1       8.820  11.003 -10.835  1.00  0.00     0.000 A 
ATOM     85  C   UNL     1       7.251  12.471  -9.789  1.00  0.00     0.013 A 
ATOM     86  C   UNL     1       7.831  11.968 -10.942  1.00  0.00     0.001 A 
BRANCH  83  87
ATOM     87  C   UNL     1       6.942  12.679  -7.360  1.00  0.00     0.416 C 
ATOM     88  F   UNL     1       6.615  13.984  -7.570  1.00  0.00    -0.166 F 
ATOM     89  F   UNL     1       5.766  12.038  -7.115  1.00  0.00    -0.166 F 
ATOM     90  F   UNL     1       7.648  12.667  -6.210  1.00  0.00    -0.166 F 
ENDBRANCH  83  87
ENDBRANCH  80  81
BRANCH  80  91
ATOM     91  N   UNL     1       8.878   9.168  -6.811  1.00  0.00    -0.340 N 
ATOM     92  C   UNL     1       8.219   8.448  -5.873  1.00  0.00     0.226 C 
ATOM     93  H   UNL     1       9.179   8.596  -7.554  1.00  0.00     0.164 HD
ATOM     94  O   UNL     1       8.279   7.222  -6.062  1.00  0.00    -0.275 OA
BRANCH  92  95
ATOM     95  C   UNL     1       7.475   8.927  -4.615  1.00  0.00     0.107 C 
ATOM     96  C   UNL     1       8.301   9.264  -3.375  1.00  0.00     0.115 C 
ATOM     97  C   UNL     1       6.458  10.043  -4.749  1.00  0.00     0.133 C 
ATOM     98  C   UNL     1       7.574  10.390  -2.702  1.00  0.00     0.223 C 
ATOM     99  N   UNL     1       6.534  10.792  -3.511  1.00  0.00    -0.342 N 
ATOM    100  O   UNL     1       7.876  10.850  -1.610  1.00  0.00    -0.275 OA
BRANCH  99 101
ATOM    101  C   UNL     1       5.460  11.639  -3.012  1.00  0.00     0.123 C 
BRANCH 101 102
ATOM    102  C   UNL     1       5.667  13.125  -3.105  1.00  0.00     0.008 C 
ATOM    103  C   UNL     1       6.814  13.820  -3.794  1.00  0.00     0.006 C 
ATOM    104  C   UNL     1       5.452  13.802  -4.433  1.00  0.00     0.006 C 
ENDBRANCH 101 102
ENDBRANCH  99 101
ENDBRANCH  92  95
ENDBRANCH  80  91
ENDBRANCH  77  80
ENDBRANCH  75  76
ENDBRANCH  74  75
ENDBRANCH   1  74
TORSDOF 22
