REMARK SMILES Nc1c(Cl)ccc2c1C=C(C(=O)NCCCCCCNC(=O)c1ccc(-c3c4nc(c(-c5cccc(S(=O)(=O)[O-])c5F)c5ccc([nH]5)c(-c5cccc(S(=O)(=O)[O-])c5F)c5nc(c(-c6cccc(S(=O)(=O)[O-])c6F)c6ccc3[nH]6)C=C5)C=C4)cc1)[C@@H](C(F)(F)F)O2
REMARK SMILES IDX 17 1 16 2 15 3 14 4 13 5 11 6 12 7 10 9 2 10 3 11 8 12 4 13
REMARK SMILES IDX 5 14 7 15 9 16 6 17 91 18 86 19 1 20 87 23 88 24 89 25 90 26
REMARK SMILES IDX 18 27 19 28 20 29 21 30 22 32 23 33 24 34 85 35 25 36 84 37
REMARK SMILES IDX 26 38 27 39 28 40 78 41 29 42 83 43 77 44 79 45 30 46 82 47
REMARK SMILES IDX 76 48 75 49 31 51 63 52 43 53 62 54 44 55 47 56 61 57 80 58
REMARK SMILES IDX 45 59 46 60 60 62 81 63 48 64 32 65 33 66 41 67 34 68 36 69
REMARK SMILES IDX 42 70 35 71 37 72 38 73 39 74 40 75 64 76 65 77 73 78 66 79
REMARK SMILES IDX 68 80 74 81 67 82 69 83 70 84 71 85 72 86 49 87 50 88 58 89
REMARK SMILES IDX 51 90 53 91 59 92 52 93 54 94 55 95 56 96 57 97
REMARK H PARENT 13 8 1 21 1 22 20 31 79 50 47 61
REMARK Flexibility Score: inf
ROOT
ATOM      1  C   UNL     1      -6.156   6.135   3.851  1.00  0.00     0.002 C 
ENDROOT
BRANCH   1   2
ATOM      2  C   UNL     1      -6.295   4.632   3.573  1.00  0.00     0.002 C 
BRANCH   2   3
ATOM      3  C   UNL     1      -5.761   4.176   2.213  1.00  0.00     0.021 C 
BRANCH   3   4
ATOM      4  C   UNL     1      -4.304   4.556   1.972  1.00  0.00     0.116 C 
BRANCH   4   5
ATOM      5  N   UNL     1      -3.395   3.606   2.590  1.00  0.00    -0.352 N 
ATOM      6  C   UNL     1      -2.402   2.782   2.184  1.00  0.00     0.251 C 
ATOM      7  O   UNL     1      -1.857   2.134   3.085  1.00  0.00    -0.270 OA
ATOM      8  H   UNL     1      -3.541   3.546   3.561  1.00  0.00     0.163 HD
BRANCH   6   9
ATOM      9  C   UNL     1      -1.935   2.621   0.773  1.00  0.00     0.067 C 
ATOM     10  C   UNL     1       0.588   0.539  -1.029  1.00  0.00     0.061 A 
ATOM     11  C   UNL     1       0.995   0.358  -2.372  1.00  0.00     0.064 A 
ATOM     12  C   UNL     1      -0.490   1.417  -0.773  1.00  0.00     0.042 A 
ATOM     13  Cl  UNL     1       2.288  -0.729  -2.763  1.00  0.00    -0.082 Cl
ATOM     14  C   UNL     1       0.389   1.049  -3.422  1.00  0.00     0.026 A 
ATOM     15  C   UNL     1      -1.073   2.116  -1.839  1.00  0.00     0.130 A 
ATOM     16  C   UNL     1      -1.060   1.621   0.562  1.00  0.00     0.027 C 
ATOM     17  C   UNL     1      -0.649   1.930  -3.152  1.00  0.00     0.049 A 
ATOM     18  O   UNL     1      -2.114   2.984  -1.687  1.00  0.00    -0.475 OA
ATOM     19  C   UNL     1      -2.342   3.517  -0.359  1.00  0.00     0.314 C 
BRANCH  10  20
ATOM     20  N   UNL     1       1.166  -0.236  -0.015  1.00  0.00    -0.397 N 
ATOM     21  H   UNL     1       1.916  -0.839  -0.223  1.00  0.00     0.156 HD
ATOM     22  H   UNL     1       0.823  -0.178   0.906  1.00  0.00     0.156 HD
ENDBRANCH  10  20
BRANCH  19  23
ATOM     23  C   UNL     1      -1.726   4.924  -0.259  1.00  0.00     0.429 C 
ATOM     24  F   UNL     1      -2.398   5.799  -1.042  1.00  0.00    -0.167 F 
ATOM     25  F   UNL     1      -1.772   5.422   1.000  1.00  0.00    -0.167 F 
ATOM     26  F   UNL     1      -0.427   4.944  -0.637  1.00  0.00    -0.167 F 
ENDBRANCH  19  23
ENDBRANCH   6   9
ENDBRANCH   4   5
ENDBRANCH   3   4
ENDBRANCH   2   3
ENDBRANCH   1   2
BRANCH   1  27
ATOM     27  C   UNL     1      -6.677   7.053   2.740  1.00  0.00     0.021 C 
BRANCH  27  28
ATOM     28  C   UNL     1      -8.147   6.846   2.397  1.00  0.00     0.116 C 
BRANCH  28  29
ATOM     29  N   UNL     1      -9.000   7.115   3.543  1.00  0.00    -0.352 N 
ATOM     30  C   UNL     1     -10.033   8.009   3.644  1.00  0.00     0.251 C 
ATOM     31  H   UNL     1      -8.811   6.585   4.351  1.00  0.00     0.163 HD
ATOM     32  O   UNL     1     -10.502   8.299   4.741  1.00  0.00    -0.269 OA
BRANCH  30  33
ATOM     33  C   UNL     1     -10.571   8.619   2.415  1.00  0.00     0.039 A 
ATOM     34  C   UNL     1     -10.733  10.005   2.353  1.00  0.00     0.014 A 
ATOM     35  C   UNL     1     -10.914   7.808   1.328  1.00  0.00     0.014 A 
ATOM     36  C   UNL     1     -11.212  10.587   1.179  1.00  0.00     0.010 A 
ATOM     37  C   UNL     1     -11.342   8.394   0.143  1.00  0.00     0.010 A 
ATOM     38  C   UNL     1     -11.509   9.784   0.066  1.00  0.00    -0.014 A 
BRANCH  38  39
ATOM     39  C   UNL     1     -12.044  10.368  -1.184  1.00  0.00     0.031 A 
ATOM     40  C   UNL     1     -13.466  10.085  -1.579  1.00  0.00     0.074 A 
ATOM     41  C   UNL     1     -11.237  11.079  -1.993  1.00  0.00     0.049 A 
ATOM     42  N   UNL     1     -14.096  10.420  -2.672  1.00  0.00    -0.248 NA
ATOM     43  C   UNL     1     -14.281   9.310  -0.627  1.00  0.00     0.031 C 
ATOM     44  C   UNL     1      -9.829  11.382  -1.729  1.00  0.00     0.029 A 
ATOM     45  N   UNL     1     -11.480  11.650  -3.215  1.00  0.00    -0.354 N 
ATOM     46  C   UNL     1     -15.368   9.878  -2.554  1.00  0.00     0.074 A 
ATOM     47  C   UNL     1     -15.418   9.172  -1.294  1.00  0.00     0.031 C 
ATOM     48  C   UNL     1      -9.332  12.081  -2.763  1.00  0.00     0.029 A 
ATOM     49  C   UNL     1     -10.376  12.251  -3.770  1.00  0.00     0.049 A 
ATOM     50  H   UNL     1     -12.362  11.633  -3.653  1.00  0.00     0.167 HD
ATOM     51  C   UNL     1     -16.410   9.983  -3.409  1.00  0.00     0.034 A 
ATOM     52  C   UNL     1     -10.221  12.862  -4.961  1.00  0.00     0.034 A 
ATOM     53  C   UNL     1     -16.369  10.716  -4.644  1.00  0.00     0.049 A 
ATOM     54  C   UNL     1     -11.398  12.973  -5.889  1.00  0.00     0.074 A 
ATOM     55  C   UNL     1     -17.393  10.924  -5.550  1.00  0.00     0.029 A 
ATOM     56  N   UNL     1     -15.249  11.358  -5.145  1.00  0.00    -0.354 N 
ATOM     57  N   UNL     1     -12.621  12.532  -5.721  1.00  0.00    -0.248 NA
ATOM     58  C   UNL     1     -11.184  13.686  -7.157  1.00  0.00     0.031 C 
ATOM     59  C   UNL     1     -16.888  11.685  -6.607  1.00  0.00     0.029 A 
ATOM     60  C   UNL     1     -15.556  11.966  -6.348  1.00  0.00     0.049 A 
ATOM     61  H   UNL     1     -14.366  11.379  -4.709  1.00  0.00     0.167 HD
ATOM     62  C   UNL     1     -13.332  12.943  -6.842  1.00  0.00     0.074 A 
ATOM     63  C   UNL     1     -12.404  13.671  -7.683  1.00  0.00     0.031 C 
ATOM     64  C   UNL     1     -14.634  12.729  -7.148  1.00  0.00     0.034 A 
BRANCH  51  65
ATOM     65  C   UNL     1     -17.711   9.341  -3.018  1.00  0.00     0.023 A 
ATOM     66  C   UNL     1     -18.528   9.975  -2.061  1.00  0.00     0.012 A 
ATOM     67  C   UNL     1     -18.167   8.178  -3.664  1.00  0.00     0.148 A 
ATOM     68  C   UNL     1     -19.783   9.456  -1.749  1.00  0.00     0.002 A 
ATOM     69  C   UNL     1     -19.432   7.684  -3.371  1.00  0.00     0.091 A 
ATOM     70  F   UNL     1     -17.361   7.587  -4.558  1.00  0.00    -0.205 F 
ATOM     71  C   UNL     1     -20.239   8.319  -2.411  1.00  0.00     0.022 A 
BRANCH  69  72
ATOM     72  S   UNL     1     -20.137   6.258  -4.203  1.00  0.00     0.127 S 
ATOM     73  O   UNL     1     -20.289   5.315  -3.095  1.00  0.00    -0.237 OA
ATOM     74  O   UNL     1     -21.394   6.797  -4.722  1.00  0.00    -0.237 OA
ATOM     75  O   UNL     1     -19.172   5.862  -5.219  1.00  0.00    -0.744 OA
ENDBRANCH  69  72
ENDBRANCH  51  65
BRANCH  52  76
ATOM     76  C   UNL     1      -8.911  13.477  -5.300  1.00  0.00     0.023 A 
ATOM     77  C   UNL     1      -8.768  14.875  -5.218  1.00  0.00     0.012 A 
ATOM     78  C   UNL     1      -7.795  12.686  -5.635  1.00  0.00     0.148 A 
ATOM     79  C   UNL     1      -7.537  15.479  -5.473  1.00  0.00     0.002 A 
ATOM     80  C   UNL     1      -6.563  13.290  -5.851  1.00  0.00     0.091 A 
ATOM     81  F   UNL     1      -7.960  11.358  -5.704  1.00  0.00    -0.205 F 
ATOM     82  C   UNL     1      -6.433  14.687  -5.780  1.00  0.00     0.022 A 
BRANCH  80  83
ATOM     83  S   UNL     1      -5.062  12.352  -6.161  1.00  0.00     0.127 S 
ATOM     84  O   UNL     1      -4.695  12.810  -7.499  1.00  0.00    -0.237 OA
ATOM     85  O   UNL     1      -4.190  12.825  -5.086  1.00  0.00    -0.237 OA
ATOM     86  O   UNL     1      -5.442  10.950  -6.063  1.00  0.00    -0.744 OA
ENDBRANCH  80  83
ENDBRANCH  52  76
BRANCH  64  87
ATOM     87  C   UNL     1     -15.165  13.310  -8.428  1.00  0.00     0.023 A 
ATOM     88  C   UNL     1     -14.883  12.675  -9.652  1.00  0.00     0.012 A 
ATOM     89  C   UNL     1     -16.047  14.409  -8.399  1.00  0.00     0.148 A 
ATOM     90  C   UNL     1     -15.463  13.133 -10.834  1.00  0.00     0.002 A 
ATOM     91  C   UNL     1     -16.650  14.837  -9.575  1.00  0.00     0.091 A 
ATOM     92  F   UNL     1     -16.293  14.998  -7.220  1.00  0.00    -0.205 F 
ATOM     93  C   UNL     1     -16.355  14.204 -10.794  1.00  0.00     0.022 A 
BRANCH  91  94
ATOM     94  S   UNL     1     -17.867  16.157  -9.613  1.00  0.00     0.127 S 
ATOM     95  O   UNL     1     -17.147  17.203 -10.337  1.00  0.00    -0.237 OA
ATOM     96  O   UNL     1     -18.965  15.542 -10.359  1.00  0.00    -0.237 OA
ATOM     97  O   UNL     1     -18.174  16.464  -8.222  1.00  0.00    -0.744 OA
ENDBRANCH  91  94
ENDBRANCH  64  87
ENDBRANCH  38  39
ENDBRANCH  30  33
ENDBRANCH  28  29
ENDBRANCH  27  28
ENDBRANCH   1  27
TORSDOF 18
