REMARK SMILES [NH3+][C@H]1C=C[C@H](C(=O)N2CCCc3c(C(=O)NCCCCCCNC(=O)c4ccc(-c5c6nc(c(-c7cccc(S(=O)(=O)[O-])c7F)c7ccc([nH]7)c(-c7cccc(S(=O)(=O)[O-])c7F)c7nc(c(-c8cccc(S(=O)(=O)[O-])c8F)c8ccc5[nH]8)C=C7)C=C6)cc4)cccc32)C1
REMARK SMILES IDX 19 1 18 2 17 3 16 4 14 5 15 6 13 8 8 9 9 10 92 11 10 12
REMARK SMILES IDX 12 13 91 14 11 15 90 16 89 17 6 18 7 19 5 20 2 21 3 22 93 23
REMARK SMILES IDX 4 24 1 25 20 29 21 30 22 31 23 32 24 33 25 35 26 36 27 37
REMARK SMILES IDX 88 38 28 39 87 40 29 41 30 42 31 43 81 44 32 45 86 46 80 47
REMARK SMILES IDX 82 48 33 49 85 50 79 51 78 52 34 54 66 55 46 56 65 57 47 58
REMARK SMILES IDX 50 59 64 60 83 61 48 62 49 63 63 65 84 66 51 67 35 68 36 69
REMARK SMILES IDX 44 70 37 71 39 72 45 73 38 74 40 75 41 76 42 77 43 78 67 79
REMARK SMILES IDX 68 80 76 81 69 82 71 83 77 84 70 85 72 86 73 87 74 88 75 89
REMARK SMILES IDX 52 90 53 91 61 92 54 93 56 94 62 95 55 96 57 97 58 98 59 99
REMARK SMILES IDX 60 100
REMARK H PARENT 16 7 1 26 1 27 1 28 23 34 82 53 50 64
REMARK Flexibility Score: inf
ROOT
ATOM      1  C   UNL     1      -5.974   7.289  -6.239  1.00  0.00     0.002 C 
ENDROOT
BRANCH   1   2
ATOM      2  C   UNL     1      -5.074   6.117  -5.852  1.00  0.00     0.021 C 
BRANCH   2   3
ATOM      3  C   UNL     1      -5.690   5.194  -4.792  1.00  0.00     0.116 C 
BRANCH   3   4
ATOM      4  N   UNL     1      -5.906   3.871  -5.333  1.00  0.00    -0.352 N 
ATOM      5  C   UNL     1      -5.298   2.654  -5.364  1.00  0.00     0.251 C 
ATOM      6  O   UNL     1      -5.970   1.818  -5.990  1.00  0.00    -0.269 OA
ATOM      7  H   UNL     1      -6.754   3.842  -5.833  1.00  0.00     0.163 HD
BRANCH   5   8
ATOM      8  C   UNL     1      -3.997   2.182  -4.757  1.00  0.00     0.045 A 
ATOM      9  N   UNL     1      -0.479   2.826  -3.522  1.00  0.00    -0.312 N 
ATOM     10  C   UNL     1      -0.575   4.245  -3.218  1.00  0.00     0.126 C 
ATOM     11  C   UNL     1      -1.663   2.153  -3.974  1.00  0.00     0.048 A 
ATOM     12  C   UNL     1      -1.286   4.948  -4.349  1.00  0.00     0.027 C 
ATOM     13  C   UNL     1      -2.814   2.883  -4.395  1.00  0.00    -0.011 A 
ATOM     14  C   UNL     1      -1.688   0.752  -3.952  1.00  0.00     0.027 A 
ATOM     15  C   UNL     1      -2.691   4.376  -4.479  1.00  0.00     0.040 C 
ATOM     16  C   UNL     1      -2.837   0.059  -4.280  1.00  0.00     0.003 A 
ATOM     17  C   UNL     1      -3.968   0.767  -4.660  1.00  0.00     0.014 A 
BRANCH   9  18
ATOM     18  C   UNL     1       0.760   2.200  -3.549  1.00  0.00     0.234 C 
ATOM     19  O   UNL     1       1.118   1.493  -4.499  1.00  0.00    -0.274 OA
BRANCH  18  20
ATOM     20  C   UNL     1       1.650   2.276  -2.290  1.00  0.00     0.108 C 
ATOM     21  C   UNL     1       0.678   0.672  -0.738  1.00  0.00     0.205 C 
ATOM     22  C   UNL     1       0.584   2.056  -0.198  1.00  0.00     0.033 C 
ATOM     23  C   UNL     1       1.806   0.830  -1.768  1.00  0.00     0.087 C 
ATOM     24  C   UNL     1       1.119   2.940  -1.050  1.00  0.00    -0.012 C 
BRANCH  21  25
ATOM     25  N   UNL     1       0.987  -0.317   0.275  1.00  0.00    -0.352 N 
ATOM     26  H   UNL     1       0.210  -0.384   0.932  1.00  0.00     0.345 HD
ATOM     27  H   UNL     1       1.832  -0.040   0.774  1.00  0.00     0.345 HD
ATOM     28  H   UNL     1       1.136  -1.223  -0.169  1.00  0.00     0.345 HD
ENDBRANCH  21  25
ENDBRANCH  18  20
ENDBRANCH   9  18
ENDBRANCH   5   8
ENDBRANCH   3   4
ENDBRANCH   2   3
ENDBRANCH   1   2
BRANCH   1  29
ATOM     29  C   UNL     1      -6.196   8.289  -5.101  1.00  0.00     0.002 C 
BRANCH  29  30
ATOM     30  C   UNL     1      -4.924   8.969  -4.582  1.00  0.00     0.021 C 
BRANCH  30  31
ATOM     31  C   UNL     1      -4.125   9.715  -5.647  1.00  0.00     0.116 C 
BRANCH  31  32
ATOM     32  N   UNL     1      -4.936  10.726  -6.311  1.00  0.00    -0.352 N 
ATOM     33  C   UNL     1      -4.792  12.090  -6.310  1.00  0.00     0.251 C 
ATOM     34  H   UNL     1      -5.695  10.381  -6.835  1.00  0.00     0.163 HD
ATOM     35  O   UNL     1      -5.715  12.809  -6.678  1.00  0.00    -0.269 OA
BRANCH  33  36
ATOM     36  C   UNL     1      -3.513  12.682  -5.871  1.00  0.00     0.039 A 
ATOM     37  C   UNL     1      -3.525  13.797  -5.029  1.00  0.00     0.014 A 
ATOM     38  C   UNL     1      -2.303  12.142  -6.315  1.00  0.00     0.014 A 
ATOM     39  C   UNL     1      -2.315  14.347  -4.598  1.00  0.00     0.010 A 
ATOM     40  C   UNL     1      -1.104  12.642  -5.824  1.00  0.00     0.010 A 
ATOM     41  C   UNL     1      -1.097  13.761  -4.977  1.00  0.00    -0.014 A 
BRANCH  41  42
ATOM     42  C   UNL     1       0.207  14.310  -4.530  1.00  0.00     0.031 A 
ATOM     43  C   UNL     1       1.181  14.835  -5.550  1.00  0.00     0.074 A 
ATOM     44  C   UNL     1       0.553  14.239  -3.230  1.00  0.00     0.049 A 
ATOM     45  N   UNL     1       2.410  15.246  -5.381  1.00  0.00    -0.248 NA
ATOM     46  C   UNL     1       0.725  14.870  -6.950  1.00  0.00     0.031 C 
ATOM     47  C   UNL     1      -0.281  13.687  -2.160  1.00  0.00     0.029 A 
ATOM     48  N   UNL     1       1.714  14.600  -2.593  1.00  0.00    -0.354 N 
ATOM     49  C   UNL     1       2.888  15.543  -6.652  1.00  0.00     0.074 A 
ATOM     50  C   UNL     1       1.828  15.235  -7.586  1.00  0.00     0.031 C 
ATOM     51  C   UNL     1       0.396  13.743  -1.002  1.00  0.00     0.029 A 
ATOM     52  C   UNL     1       1.722  14.301  -1.251  1.00  0.00     0.049 A 
ATOM     53  H   UNL     1       2.469  15.033  -3.054  1.00  0.00     0.167 HD
ATOM     54  C   UNL     1       4.090  16.054  -7.008  1.00  0.00     0.034 A 
ATOM     55  C   UNL     1       2.693  14.447  -0.329  1.00  0.00     0.034 A 
ATOM     56  C   UNL     1       5.119  16.406  -6.069  1.00  0.00     0.049 A 
ATOM     57  C   UNL     1       4.005  15.058  -0.743  1.00  0.00     0.074 A 
ATOM     58  C   UNL     1       6.338  17.010  -6.315  1.00  0.00     0.029 A 
ATOM     59  N   UNL     1       5.050  16.183  -4.702  1.00  0.00    -0.354 N 
ATOM     60  N   UNL     1       4.386  15.466  -1.929  1.00  0.00    -0.248 NA
ATOM     61  C   UNL     1       5.007  15.265   0.313  1.00  0.00     0.031 C 
ATOM     62  C   UNL     1       7.018  17.131  -5.099  1.00  0.00     0.029 A 
ATOM     63  C   UNL     1       6.207  16.632  -4.092  1.00  0.00     0.049 A 
ATOM     64  H   UNL     1       4.290  15.765  -4.235  1.00  0.00     0.167 HD
ATOM     65  C   UNL     1       5.649  16.019  -1.755  1.00  0.00     0.074 A 
ATOM     66  C   UNL     1       5.965  15.902  -0.346  1.00  0.00     0.031 C 
ATOM     67  C   UNL     1       6.476  16.567  -2.679  1.00  0.00     0.034 A 
BRANCH  54  68
ATOM     68  C   UNL     1       4.339  16.309  -8.472  1.00  0.00     0.023 A 
ATOM     69  C   UNL     1       3.651  17.352  -9.126  1.00  0.00     0.012 A 
ATOM     70  C   UNL     1       5.292  15.556  -9.186  1.00  0.00     0.148 A 
ATOM     71  C   UNL     1       3.877  17.616 -10.476  1.00  0.00     0.002 A 
ATOM     72  C   UNL     1       5.548  15.857 -10.519  1.00  0.00     0.091 A 
ATOM     73  F   UNL     1       5.921  14.556  -8.554  1.00  0.00    -0.205 F 
ATOM     74  C   UNL     1       4.832  16.877 -11.168  1.00  0.00     0.022 A 
BRANCH  72  75
ATOM     75  S   UNL     1       6.817  15.020 -11.474  1.00  0.00     0.127 S 
ATOM     76  O   UNL     1       6.012  14.231 -12.406  1.00  0.00    -0.237 OA
ATOM     77  O   UNL     1       7.532  16.141 -12.085  1.00  0.00    -0.237 OA
ATOM     78  O   UNL     1       7.599  14.250 -10.517  1.00  0.00    -0.744 OA
ENDBRANCH  72  75
ENDBRANCH  54  68
BRANCH  55  79
ATOM     79  C   UNL     1       2.438  14.064   1.089  1.00  0.00     0.023 A 
ATOM     80  C   UNL     1       2.323  15.072   2.066  1.00  0.00     0.012 A 
ATOM     81  C   UNL     1       2.280  12.718   1.468  1.00  0.00     0.148 A 
ATOM     82  C   UNL     1       2.090  14.744   3.402  1.00  0.00     0.002 A 
ATOM     83  C   UNL     1       1.992  12.401   2.791  1.00  0.00     0.091 A 
ATOM     84  F   UNL     1       2.401  11.773   0.525  1.00  0.00    -0.205 F 
ATOM     85  C   UNL     1       1.915  13.410   3.763  1.00  0.00     0.022 A 
BRANCH  83  86
ATOM     86  S   UNL     1       1.622  10.724   3.320  1.00  0.00     0.127 S 
ATOM     87  O   UNL     1       2.803  10.393   4.112  1.00  0.00    -0.237 OA
ATOM     88  O   UNL     1       0.394  10.916   4.093  1.00  0.00    -0.237 OA
ATOM     89  O   UNL     1       1.445   9.955   2.095  1.00  0.00    -0.744 OA
ENDBRANCH  83  86
ENDBRANCH  55  79
BRANCH  67  90
ATOM     90  C   UNL     1       7.782  17.144  -2.201  1.00  0.00     0.023 A 
ATOM     91  C   UNL     1       8.832  16.290  -1.813  1.00  0.00     0.012 A 
ATOM     92  C   UNL     1       7.996  18.537  -2.235  1.00  0.00     0.148 A 
ATOM     93  C   UNL     1      10.070  16.816  -1.442  1.00  0.00     0.002 A 
ATOM     94  C   UNL     1       9.246  19.049  -1.914  1.00  0.00     0.091 A 
ATOM     95  F   UNL     1       6.976  19.331  -2.590  1.00  0.00    -0.205 F 
ATOM     96  C   UNL     1      10.280  18.192  -1.506  1.00  0.00     0.022 A 
BRANCH  94  97
ATOM     97  S   UNL     1       9.639  20.795  -2.067  1.00  0.00     0.127 S 
ATOM     98  O   UNL     1       9.757  21.197  -0.666  1.00  0.00    -0.237 OA
ATOM     99  O   UNL     1      10.904  20.764  -2.802  1.00  0.00    -0.237 OA
ATOM    100  O   UNL     1       8.530  21.396  -2.797  1.00  0.00    -0.744 OA
ENDBRANCH  94  97
ENDBRANCH  67  90
ENDBRANCH  41  42
ENDBRANCH  33  36
ENDBRANCH  31  32
ENDBRANCH  30  31
ENDBRANCH  29  30
ENDBRANCH   1  29
TORSDOF 19
