REMARK SMILES O=C(CSc1ccnc(C(=O)NCCCCCCNC(=O)c2ccc(-c3c4nc(c(-c5cccc(S(=O)(=O)[O-])c5F)c5ccc([nH]5)c(-c5cccc(S(=O)(=O)[O-])c5F)c5nc(c(-c6cccc(S(=O)(=O)[O-])c6F)c6ccc3[nH]6)C=C5)C=C4)cc2)c1)NNc1ccccn1
REMARK SMILES IDX 14 1 13 2 12 3 10 4 11 5 9 7 5 8 6 9 85 10 7 11 8 12 4 13
REMARK SMILES IDX 3 14 2 15 1 16 86 17 87 19 88 21 89 22 93 23 90 24 92 25
REMARK SMILES IDX 91 26 15 27 16 28 17 29 18 30 19 31 20 32 21 34 22 35 23 36
REMARK SMILES IDX 84 37 24 38 83 39 25 40 26 41 27 42 77 43 28 44 82 45 76 46
REMARK SMILES IDX 78 47 29 48 81 49 75 50 74 51 30 53 62 54 42 55 61 56 43 57
REMARK SMILES IDX 46 58 60 59 79 60 44 61 45 62 59 64 80 65 47 66 31 67 32 68
REMARK SMILES IDX 40 69 33 70 35 71 41 72 34 73 36 74 37 75 38 76 39 77 63 78
REMARK SMILES IDX 64 79 72 80 65 81 67 82 73 83 66 84 68 85 69 86 70 87 71 88
REMARK SMILES IDX 48 89 49 90 57 91 50 92 52 93 58 94 51 95 53 96 54 97 55 98
REMARK SMILES IDX 56 99
REMARK H PARENT 12 6 86 18 87 20 19 33 78 52 46 63
REMARK Flexibility Score: inf
ROOT
ATOM      1  C   UNL     1       4.076  -7.387   1.663  1.00  0.00     0.021 C 
ENDROOT
BRANCH   1   2
ATOM      2  C   UNL     1       4.330  -6.605   0.380  1.00  0.00     0.116 C 
BRANCH   2   3
ATOM      3  N   UNL     1       3.683  -7.177  -0.786  1.00  0.00    -0.351 N 
ATOM      4  C   UNL     1       2.907  -6.614  -1.779  1.00  0.00     0.269 C 
ATOM      5  O   UNL     1       2.454  -7.376  -2.636  1.00  0.00    -0.268 OA
ATOM      6  H   UNL     1       3.824  -8.146  -0.888  1.00  0.00     0.163 HD
BRANCH   4   7
ATOM      7  C   UNL     1       2.585  -5.146  -1.834  1.00  0.00     0.129 A 
ATOM      8  C   UNL     1       3.016  -2.844  -1.336  1.00  0.00     0.012 A 
ATOM      9  C   UNL     1       1.799  -2.519  -1.925  1.00  0.00     0.035 A 
ATOM     10  C   UNL     1       3.452  -4.167  -1.374  1.00  0.00     0.049 A 
ATOM     11  C   UNL     1       1.029  -3.543  -2.443  1.00  0.00     0.113 A 
ATOM     12  N   UNL     1       1.379  -4.843  -2.385  1.00  0.00    -0.251 NA
BRANCH   8  13
ATOM     13  S   UNL     1       4.066  -1.655  -0.516  1.00  0.00    -0.116 SA
BRANCH  13  14
ATOM     14  C   UNL     1       2.865  -0.827   0.611  1.00  0.00     0.176 C 
BRANCH  14  15
ATOM     15  C   UNL     1       2.035   0.194  -0.145  1.00  0.00     0.248 C 
ATOM     16  O   UNL     1       0.814   0.273  -0.030  1.00  0.00    -0.272 OA
ATOM     17  N   UNL     1       2.792   1.009  -0.963  1.00  0.00    -0.268 N 
ATOM     18  H   UNL     1       3.774   1.010  -0.892  1.00  0.00     0.191 HD
BRANCH  17  19
ATOM     19  N   UNL     1       2.157   1.826  -1.886  1.00  0.00    -0.282 N 
ATOM     20  H   UNL     1       1.181   1.955  -1.870  1.00  0.00     0.190 HD
BRANCH  19  21
ATOM     21  C   UNL     1       2.958   2.458  -2.839  1.00  0.00     0.144 A 
ATOM     22  C   UNL     1       4.048   1.816  -3.430  1.00  0.00     0.048 A 
ATOM     23  N   UNL     1       2.637   3.731  -3.143  1.00  0.00    -0.238 NA
ATOM     24  C   UNL     1       4.863   2.519  -4.313  1.00  0.00     0.005 A 
ATOM     25  C   UNL     1       3.445   4.396  -3.998  1.00  0.00     0.113 A 
ATOM     26  C   UNL     1       4.564   3.843  -4.596  1.00  0.00     0.020 A 
ENDBRANCH  19  21
ENDBRANCH  17  19
ENDBRANCH  14  15
ENDBRANCH  13  14
ENDBRANCH   8  13
ENDBRANCH   4   7
ENDBRANCH   2   3
ENDBRANCH   1   2
BRANCH   1  27
ATOM     27  C   UNL     1       4.697  -8.782   1.743  1.00  0.00     0.002 C 
BRANCH  27  28
ATOM     28  C   UNL     1       6.202  -8.875   1.482  1.00  0.00     0.002 C 
BRANCH  28  29
ATOM     29  C   UNL     1       7.091  -7.902   2.261  1.00  0.00     0.021 C 
BRANCH  29  30
ATOM     30  C   UNL     1       6.933  -7.926   3.778  1.00  0.00     0.116 C 
BRANCH  30  31
ATOM     31  N   UNL     1       7.259  -9.218   4.351  1.00  0.00    -0.352 N 
ATOM     32  C   UNL     1       8.078  -9.524   5.409  1.00  0.00     0.251 C 
ATOM     33  H   UNL     1       6.830  -9.990   3.917  1.00  0.00     0.163 HD
ATOM     34  O   UNL     1       8.357 -10.699   5.634  1.00  0.00    -0.269 OA
BRANCH  32  35
ATOM     35  C   UNL     1       8.633  -8.455   6.274  1.00  0.00     0.039 A 
ATOM     36  C   UNL     1       9.949  -8.580   6.729  1.00  0.00     0.014 A 
ATOM     37  C   UNL     1       7.855  -7.370   6.687  1.00  0.00     0.014 A 
ATOM     38  C   UNL     1      10.488  -7.612   7.582  1.00  0.00     0.010 A 
ATOM     39  C   UNL     1       8.417  -6.367   7.476  1.00  0.00     0.010 A 
ATOM     40  C   UNL     1       9.727  -6.494   7.959  1.00  0.00    -0.014 A 
BRANCH  40  41
ATOM     41  C   UNL     1      10.274  -5.482   8.900  1.00  0.00     0.031 A 
ATOM     42  C   UNL     1       9.643  -5.292  10.256  1.00  0.00     0.074 A 
ATOM     43  C   UNL     1      11.302  -4.699   8.522  1.00  0.00     0.049 A 
ATOM     44  N   UNL     1       9.976  -4.464  11.213  1.00  0.00    -0.248 NA
ATOM     45  C   UNL     1       8.465  -6.119  10.567  1.00  0.00     0.031 C 
ATOM     46  C   UNL     1      11.944  -4.723   7.207  1.00  0.00     0.029 A 
ATOM     47  N   UNL     1      11.975  -3.715   9.202  1.00  0.00    -0.354 N 
ATOM     48  C   UNL     1       9.031  -4.643  12.217  1.00  0.00     0.074 A 
ATOM     49  C   UNL     1       8.087  -5.627  11.737  1.00  0.00     0.031 C 
ATOM     50  C   UNL     1      12.923  -3.804   7.179  1.00  0.00     0.029 A 
ATOM     51  C   UNL     1      12.970  -3.116   8.466  1.00  0.00     0.049 A 
ATOM     52  H   UNL     1      11.766  -3.462  10.130  1.00  0.00     0.167 HD
ATOM     53  C   UNL     1       8.971  -4.068  13.442  1.00  0.00     0.034 A 
ATOM     54  C   UNL     1      13.829  -2.132   8.794  1.00  0.00     0.034 A 
ATOM     55  C   UNL     1       9.943  -3.132  13.938  1.00  0.00     0.049 A 
ATOM     56  C   UNL     1      13.799  -1.572  10.191  1.00  0.00     0.074 A 
ATOM     57  C   UNL     1      10.024  -2.556  15.194  1.00  0.00     0.029 A 
ATOM     58  N   UNL     1      11.007  -2.635  13.202  1.00  0.00    -0.354 N 
ATOM     59  N   UNL     1      12.995  -1.872  11.184  1.00  0.00    -0.248 NA
ATOM     60  C   UNL     1      14.825  -0.576  10.531  1.00  0.00     0.031 C 
ATOM     61  C   UNL     1      11.132  -1.701  15.212  1.00  0.00     0.029 A 
ATOM     62  C   UNL     1      11.753  -1.763  13.975  1.00  0.00     0.049 A 
ATOM     63  H   UNL     1      11.203  -2.868  12.265  1.00  0.00     0.167 HD
ATOM     64  C   UNL     1      13.445  -1.137  12.275  1.00  0.00     0.074 A 
ATOM     65  C   UNL     1      14.603  -0.392  11.825  1.00  0.00     0.031 C 
ATOM     66  C   UNL     1      12.938  -1.075  13.531  1.00  0.00     0.034 A 
BRANCH  53  67
ATOM     67  C   UNL     1       7.844  -4.484  14.354  1.00  0.00     0.023 A 
ATOM     68  C   UNL     1       7.839  -5.782  14.906  1.00  0.00     0.012 A 
ATOM     69  C   UNL     1       6.814  -3.587  14.695  1.00  0.00     0.148 A 
ATOM     70  C   UNL     1       6.807  -6.194  15.748  1.00  0.00     0.002 A 
ATOM     71  C   UNL     1       5.813  -3.990  15.573  1.00  0.00     0.091 A 
ATOM     72  F   UNL     1       6.819  -2.365  14.144  1.00  0.00    -0.205 F 
ATOM     73  C   UNL     1       5.800  -5.296  16.089  1.00  0.00     0.022 A 
BRANCH  71  74
ATOM     74  S   UNL     1       4.517  -2.880  16.136  1.00  0.00     0.127 S 
ATOM     75  O   UNL     1       3.358  -3.381  15.400  1.00  0.00    -0.237 OA
ATOM     76  O   UNL     1       4.486  -3.144  17.575  1.00  0.00    -0.237 OA
ATOM     77  O   UNL     1       4.957  -1.538  15.777  1.00  0.00    -0.744 OA
ENDBRANCH  71  74
ENDBRANCH  53  67
BRANCH  54  78
ATOM     78  C   UNL     1      14.856  -1.685   7.811  1.00  0.00     0.023 A 
ATOM     79  C   UNL     1      16.208  -2.023   8.021  1.00  0.00     0.012 A 
ATOM     80  C   UNL     1      14.500  -0.965   6.655  1.00  0.00     0.148 A 
ATOM     81  C   UNL     1      17.191  -1.622   7.116  1.00  0.00     0.002 A 
ATOM     82  C   UNL     1      15.476  -0.616   5.729  1.00  0.00     0.091 A 
ATOM     83  F   UNL     1      13.210  -0.646   6.477  1.00  0.00    -0.205 F 
ATOM     84  C   UNL     1      16.824  -0.928   5.966  1.00  0.00     0.022 A 
BRANCH  82  85
ATOM     85  S   UNL     1      15.081   0.162   4.159  1.00  0.00     0.127 S 
ATOM     86  O   UNL     1      15.598   1.512   4.353  1.00  0.00    -0.237 OA
ATOM     87  O   UNL     1      15.839  -0.660   3.215  1.00  0.00    -0.237 OA
ATOM     88  O   UNL     1      13.634   0.052   4.019  1.00  0.00    -0.744 OA
ENDBRANCH  82  85
ENDBRANCH  54  78
BRANCH  66  89
ATOM     89  C   UNL     1      13.659  -0.207  14.531  1.00  0.00     0.023 A 
ATOM     90  C   UNL     1      13.590   1.196  14.424  1.00  0.00     0.012 A 
ATOM     91  C   UNL     1      14.355  -0.785  15.611  1.00  0.00     0.148 A 
ATOM     92  C   UNL     1      14.238   2.009  15.354  1.00  0.00     0.002 A 
ATOM     93  C   UNL     1      14.956   0.032  16.561  1.00  0.00     0.091 A 
ATOM     94  F   UNL     1      14.429  -2.122  15.685  1.00  0.00    -0.205 F 
ATOM     95  C   UNL     1      14.910   1.429  16.427  1.00  0.00     0.022 A 
BRANCH  93  96
ATOM     96  S   UNL     1      15.754  -0.638  18.023  1.00  0.00     0.127 S 
ATOM     97  O   UNL     1      17.166  -0.571  17.651  1.00  0.00    -0.237 OA
ATOM     98  O   UNL     1      15.353   0.309  19.064  1.00  0.00    -0.237 OA
ATOM     99  O   UNL     1      15.208  -1.978  18.191  1.00  0.00    -0.744 OA
ENDBRANCH  93  96
ENDBRANCH  66  89
ENDBRANCH  40  41
ENDBRANCH  32  35
ENDBRANCH  30  31
ENDBRANCH  29  30
ENDBRANCH  28  29
ENDBRANCH  27  28
ENDBRANCH   1  27
TORSDOF 21
