REMARK SMILES O=C(NCCCCCCNC(=O)c1cc(S(=O)(=O)Nc2cccc(Cl)c2)ccc1O)c1ccc(-c2c3nc(c(-c4cccc(S(=O)(=O)[O-])c4F)c4ccc([nH]4)c(-c4cccc(S(=O)(=O)[O-])c4F)c4nc(c(-c5cccc(S(=O)(=O)[O-])c5F)c5ccc2[nH]5)C=C4)C=C3)cc1
REMARK SMILES IDX 6 1 5 2 4 3 3 4 1 5 2 6 31 8 32 9 93 10 33 11 92 12 34 13
REMARK SMILES IDX 35 14 36 15 86 16 37 17 91 18 85 19 87 20 38 21 90 22 84 23
REMARK SMILES IDX 83 24 39 26 71 27 51 28 70 29 52 30 55 31 69 32 88 33 53 34
REMARK SMILES IDX 54 35 68 37 89 38 56 39 40 40 41 41 49 42 42 43 44 44 50 45
REMARK SMILES IDX 43 46 45 47 46 48 47 49 48 50 72 51 73 52 81 53 74 54 76 55
REMARK SMILES IDX 82 56 75 57 77 58 78 59 79 60 80 61 57 62 58 63 66 64 59 65
REMARK SMILES IDX 61 66 67 67 60 68 62 69 63 70 64 71 65 72 7 73 8 74 9 75
REMARK SMILES IDX 10 76 11 77 12 79 13 80 14 81 29 82 15 83 28 84 27 85 30 86
REMARK SMILES IDX 16 88 17 89 18 90 19 91 20 93 21 94 26 95 22 96 24 97 23 98
REMARK SMILES IDX 25 99
REMARK H PARENT 3 7 87 25 55 36 10 78 30 87 19 92
REMARK Flexibility Score: inf
ROOT
ATOM      1  C   UNL     1       4.166  -2.261   3.050  1.00  0.00     0.002 C 
ENDROOT
BRANCH   1   2
ATOM      2  C   UNL     1       4.696  -0.988   2.383  1.00  0.00     0.021 C 
BRANCH   2   3
ATOM      3  C   UNL     1       4.431  -0.875   0.885  1.00  0.00     0.116 C 
BRANCH   3   4
ATOM      4  N   UNL     1       3.013  -0.899   0.570  1.00  0.00    -0.352 N 
ATOM      5  O   UNL     1       1.027  -0.093  -0.108  1.00  0.00    -0.269 OA
ATOM      6  C   UNL     1       2.249   0.022  -0.102  1.00  0.00     0.251 C 
ATOM      7  H   UNL     1       2.528  -1.696   0.885  1.00  0.00     0.163 HD
BRANCH   6   8
ATOM      8  C   UNL     1       2.894   1.161  -0.793  1.00  0.00     0.039 A 
ATOM      9  C   UNL     1       4.022   0.971  -1.597  1.00  0.00     0.014 A 
ATOM     10  C   UNL     1       2.341   2.435  -0.650  1.00  0.00     0.014 A 
ATOM     11  C   UNL     1       4.667   2.070  -2.161  1.00  0.00     0.010 A 
ATOM     12  C   UNL     1       2.950   3.527  -1.272  1.00  0.00     0.010 A 
ATOM     13  C   UNL     1       4.133   3.358  -2.008  1.00  0.00    -0.014 A 
BRANCH  13  14
ATOM     14  C   UNL     1       4.781   4.524  -2.661  1.00  0.00     0.031 A 
ATOM     15  C   UNL     1       5.362   5.640  -1.838  1.00  0.00     0.074 A 
ATOM     16  C   UNL     1       4.787   4.602  -4.005  1.00  0.00     0.049 A 
ATOM     17  N   UNL     1       5.886   6.770  -2.235  1.00  0.00    -0.248 NA
ATOM     18  C   UNL     1       5.341   5.468  -0.376  1.00  0.00     0.031 C 
ATOM     19  C   UNL     1       4.221   3.597  -4.907  1.00  0.00     0.029 A 
ATOM     20  N   UNL     1       5.254   5.581  -4.846  1.00  0.00    -0.354 N 
ATOM     21  C   UNL     1       6.215   7.466  -1.078  1.00  0.00     0.074 A 
ATOM     22  C   UNL     1       5.828   6.630   0.039  1.00  0.00     0.031 C 
ATOM     23  C   UNL     1       4.360   4.016  -6.173  1.00  0.00     0.029 A 
ATOM     24  C   UNL     1       4.977   5.338  -6.170  1.00  0.00     0.049 A 
ATOM     25  H   UNL     1       5.739   6.378  -4.531  1.00  0.00     0.167 HD
ATOM     26  C   UNL     1       6.795   8.684  -0.959  1.00  0.00     0.034 A 
ATOM     27  C   UNL     1       5.165   6.107  -7.261  1.00  0.00     0.034 A 
ATOM     28  C   UNL     1       7.198   9.498  -2.075  1.00  0.00     0.049 A 
ATOM     29  C   UNL     1       5.816   7.450  -7.105  1.00  0.00     0.074 A 
ATOM     30  C   UNL     1       7.856  10.715  -2.060  1.00  0.00     0.029 A 
ATOM     31  N   UNL     1       6.968   9.185  -3.407  1.00  0.00    -0.354 N 
ATOM     32  N   UNL     1       6.237   8.037  -6.011  1.00  0.00    -0.248 NA
ATOM     33  C   UNL     1       6.050   8.224  -8.331  1.00  0.00     0.031 C 
ATOM     34  C   UNL     1       7.998  11.152  -3.381  1.00  0.00     0.029 A 
ATOM     35  C   UNL     1       7.460  10.190  -4.222  1.00  0.00     0.049 A 
ATOM     36  H   UNL     1       6.520   8.369  -3.726  1.00  0.00     0.167 HD
ATOM     37  C   UNL     1       6.818   9.232  -6.418  1.00  0.00     0.074 A 
ATOM     38  C   UNL     1       6.703   9.280  -7.862  1.00  0.00     0.031 C 
ATOM     39  C   UNL     1       7.389  10.201  -5.662  1.00  0.00     0.034 A 
BRANCH  26  40
ATOM     40  C   UNL     1       7.050   9.205   0.433  1.00  0.00     0.023 A 
ATOM     41  C   UNL     1       8.062   8.622   1.223  1.00  0.00     0.012 A 
ATOM     42  C   UNL     1       6.321  10.297   0.943  1.00  0.00     0.148 A 
ATOM     43  C   UNL     1       8.316   9.090   2.512  1.00  0.00     0.002 A 
ATOM     44  C   UNL     1       6.610  10.787   2.213  1.00  0.00     0.091 A 
ATOM     45  F   UNL     1       5.348  10.827   0.189  1.00  0.00    -0.205 F 
ATOM     46  C   UNL     1       7.597  10.177   3.003  1.00  0.00     0.022 A 
BRANCH  44  47
ATOM     47  S   UNL     1       5.790  12.232   2.896  1.00  0.00     0.127 S 
ATOM     48  O   UNL     1       4.849  11.621   3.833  1.00  0.00    -0.237 OA
ATOM     49  O   UNL     1       6.899  12.950   3.526  1.00  0.00    -0.237 OA
ATOM     50  O   UNL     1       5.193  12.922   1.761  1.00  0.00    -0.744 OA
ENDBRANCH  44  47
ENDBRANCH  26  40
BRANCH  27  51
ATOM     51  C   UNL     1       4.756   5.586  -8.595  1.00  0.00     0.023 A 
ATOM     52  C   UNL     1       5.744   5.188  -9.515  1.00  0.00     0.012 A 
ATOM     53  C   UNL     1       3.397   5.408  -8.920  1.00  0.00     0.148 A 
ATOM     54  C   UNL     1       5.384   4.634 -10.744  1.00  0.00     0.002 A 
ATOM     55  C   UNL     1       3.047   4.804 -10.121  1.00  0.00     0.091 A 
ATOM     56  F   UNL     1       2.475   5.800  -8.029  1.00  0.00    -0.205 F 
ATOM     57  C   UNL     1       4.039   4.430 -11.041  1.00  0.00     0.022 A 
BRANCH  55  58
ATOM     58  S   UNL     1       1.352   4.373 -10.530  1.00  0.00     0.127 S 
ATOM     59  O   UNL     1       1.083   5.260 -11.659  1.00  0.00    -0.237 OA
ATOM     60  O   UNL     1       1.479   2.957 -10.875  1.00  0.00    -0.237 OA
ATOM     61  O   UNL     1       0.576   4.633  -9.326  1.00  0.00    -0.744 OA
ENDBRANCH  55  58
ENDBRANCH  27  51
BRANCH  39  62
ATOM     62  C   UNL     1       7.990  11.385  -6.373  1.00  0.00     0.023 A 
ATOM     63  C   UNL     1       7.154  12.376  -6.923  1.00  0.00     0.012 A 
ATOM     64  C   UNL     1       9.388  11.562  -6.401  1.00  0.00     0.148 A 
ATOM     65  C   UNL     1       7.702  13.517  -7.508  1.00  0.00     0.002 A 
ATOM     66  C   UNL     1       9.924  12.723  -6.942  1.00  0.00     0.091 A 
ATOM     67  F   UNL     1      10.164  10.595  -5.889  1.00  0.00    -0.205 F 
ATOM     68  C   UNL     1       9.084  13.697  -7.504  1.00  0.00     0.022 A 
BRANCH  66  69
ATOM     69  S   UNL     1      11.683  13.086  -6.891  1.00  0.00     0.127 S 
ATOM     70  O   UNL     1      12.054  12.958  -8.299  1.00  0.00    -0.237 OA
ATOM     71  O   UNL     1      11.702  14.455  -6.376  1.00  0.00    -0.237 OA
ATOM     72  O   UNL     1      12.273  12.097  -5.999  1.00  0.00    -0.744 OA
ENDBRANCH  66  69
ENDBRANCH  39  62
ENDBRANCH  13  14
ENDBRANCH   6   8
ENDBRANCH   3   4
ENDBRANCH   2   3
ENDBRANCH   1   2
BRANCH   1  73
ATOM     73  C   UNL     1       4.613  -3.583   2.419  1.00  0.00     0.002 C 
BRANCH  73  74
ATOM     74  C   UNL     1       6.122  -3.770   2.265  1.00  0.00     0.021 C 
BRANCH  74  75
ATOM     75  C   UNL     1       6.930  -3.639   3.551  1.00  0.00     0.116 C 
BRANCH  75  76
ATOM     76  N   UNL     1       6.667  -4.690   4.524  1.00  0.00    -0.352 N 
ATOM     77  C   UNL     1       7.573  -5.340   5.340  1.00  0.00     0.255 C 
ATOM     78  H   UNL     1       5.728  -4.972   4.612  1.00  0.00     0.163 HD
ATOM     79  O   UNL     1       7.211  -6.229   6.104  1.00  0.00    -0.269 OA
BRANCH  77  80
ATOM     80  C   UNL     1       9.015  -5.035   5.194  1.00  0.00     0.082 A 
ATOM     81  C   UNL     1       9.870  -6.082   4.819  1.00  0.00     0.040 A 
ATOM     82  C   UNL     1       9.500  -3.726   5.275  1.00  0.00     0.128 A 
ATOM     83  C   UNL     1      11.152  -5.781   4.351  1.00  0.00     0.088 A 
ATOM     84  C   UNL     1      10.742  -3.421   4.736  1.00  0.00     0.048 A 
ATOM     85  C   UNL     1      11.521  -4.443   4.195  1.00  0.00     0.026 A 
BRANCH  82  86
ATOM     86  O   UNL     1       8.733  -2.732   5.811  1.00  0.00    -0.507 OA
ATOM     87  H   UNL     1       7.894  -2.932   6.176  1.00  0.00     0.293 HD
ENDBRANCH  82  86
BRANCH  83  88
ATOM     88  S   UNL     1      12.223  -7.100   3.820  1.00  0.00     0.261 S 
ATOM     89  O   UNL     1      11.729  -8.330   4.410  1.00  0.00    -0.201 OA
ATOM     90  O   UNL     1      12.364  -6.980   2.386  1.00  0.00    -0.201 OA
BRANCH  88  91
ATOM     91  N   UNL     1      13.793  -6.904   4.476  1.00  0.00    -0.280 N 
ATOM     92  H   UNL     1      14.311  -7.692   4.758  1.00  0.00     0.180 HD
BRANCH  91  93
ATOM     93  C   UNL     1      14.351  -5.594   4.613  1.00  0.00     0.050 A 
ATOM     94  C   UNL     1      14.158  -4.929   5.828  1.00  0.00     0.027 A 
ATOM     95  C   UNL     1      14.978  -4.947   3.546  1.00  0.00     0.047 A 
ATOM     96  C   UNL     1      14.556  -3.600   5.971  1.00  0.00     0.004 A 
ATOM     97  C   UNL     1      15.388  -3.620   3.704  1.00  0.00     0.043 A 
ATOM     98  C   UNL     1      15.168  -2.941   4.904  1.00  0.00     0.020 A 
ATOM     99  Cl  UNL     1      16.135  -2.794   2.392  1.00  0.00    -0.084 Cl
ENDBRANCH  91  93
ENDBRANCH  88  91
ENDBRANCH  83  88
ENDBRANCH  77  80
ENDBRANCH  75  76
ENDBRANCH  74  75
ENDBRANCH  73  74
ENDBRANCH   1  73
TORSDOF 20
