REMARK SMILES COc1ncccc1C[C@H](C(=O)NCCCCCCNC(=O)c1ccc(-c2c3nc(c(-c4cccc(S(=O)(=O)[O-])c4F)c4ccc([nH]4)c(-c4cccc(S(=O)(=O)[O-])c4F)c4nc(c(-c5cccc(S(=O)(=O)[O-])c5F)c5ccc2[nH]5)C=C4)C=C3)cc1)c1ccc(F)cc1
REMARK SMILES IDX 16 1 15 2 14 3 13 4 11 5 12 6 10 8 9 9 8 10 3 11 4 12 5 13
REMARK SMILES IDX 7 14 6 15 2 16 1 17 86 18 87 19 92 20 88 21 91 22 89 23
REMARK SMILES IDX 90 24 17 25 18 26 19 27 20 28 21 29 22 31 23 32 24 33 85 34
REMARK SMILES IDX 25 35 84 36 26 37 27 38 28 39 78 40 29 41 83 42 77 43 79 44
REMARK SMILES IDX 30 45 82 46 76 47 75 48 31 50 63 51 43 52 62 53 44 54 47 55
REMARK SMILES IDX 61 56 80 57 45 58 46 59 60 61 81 62 48 63 32 64 33 65 41 66
REMARK SMILES IDX 34 67 36 68 42 69 35 70 37 71 38 72 39 73 40 74 64 75 65 76
REMARK SMILES IDX 73 77 66 78 68 79 74 80 67 81 69 82 70 83 71 84 72 85 49 86
REMARK SMILES IDX 50 87 58 88 51 89 53 90 59 91 52 92 54 93 55 94 56 95 57 96
REMARK H PARENT 13 7 20 30 79 49 47 60
REMARK Flexibility Score: inf
ROOT
ATOM      1  C   UNL     1       7.339  -2.191  -1.573  1.00  0.00     0.002 C 
ENDROOT
BRANCH   1   2
ATOM      2  C   UNL     1       6.607  -0.879  -1.879  1.00  0.00     0.021 C 
BRANCH   2   3
ATOM      3  C   UNL     1       5.263  -1.049  -2.591  1.00  0.00     0.116 C 
BRANCH   3   4
ATOM      4  N   UNL     1       4.303  -1.727  -1.738  1.00  0.00    -0.356 N 
ATOM      5  C   UNL     1       3.206  -1.241  -1.093  1.00  0.00     0.227 C 
ATOM      6  O   UNL     1       2.621  -2.014  -0.328  1.00  0.00    -0.274 OA
ATOM      7  H   UNL     1       4.471  -2.688  -1.606  1.00  0.00     0.163 HD
BRANCH   5   8
ATOM      8  C   UNL     1       2.706   0.192  -1.350  1.00  0.00     0.113 C 
BRANCH   8   9
ATOM      9  C   UNL     1       1.317   0.347  -0.657  1.00  0.00     0.059 C 
BRANCH   9  10
ATOM     10  C   UNL     1       0.643   1.677  -0.886  1.00  0.00     0.015 A 
ATOM     11  C   UNL     1       0.610   2.682   0.083  1.00  0.00     0.216 A 
ATOM     12  N   UNL     1       0.148   3.931  -0.141  1.00  0.00    -0.222 NA
ATOM     13  C   UNL     1      -0.337   4.187  -1.376  1.00  0.00     0.115 A 
ATOM     14  C   UNL     1       0.066   1.966  -2.130  1.00  0.00     0.011 A 
ATOM     15  C   UNL     1      -0.438   3.238  -2.378  1.00  0.00     0.021 A 
BRANCH  11  16
ATOM     16  O   UNL     1       0.805   2.368   1.405  1.00  0.00    -0.481 OA
ATOM     17  C   UNL     1       2.150   2.577   1.808  1.00  0.00     0.280 C 
ENDBRANCH  11  16
ENDBRANCH   9  10
ENDBRANCH   8   9
BRANCH   8  18
ATOM     18  C   UNL     1       3.704   1.285  -0.953  1.00  0.00    -0.035 A 
ATOM     19  C   UNL     1       4.621   1.123   0.098  1.00  0.00     0.007 A 
ATOM     20  C   UNL     1       3.709   2.506  -1.658  1.00  0.00     0.007 A 
ATOM     21  C   UNL     1       5.525   2.141   0.421  1.00  0.00     0.039 A 
ATOM     22  C   UNL     1       4.591   3.532  -1.314  1.00  0.00     0.039 A 
ATOM     23  C   UNL     1       5.495   3.338  -0.281  1.00  0.00     0.123 A 
ATOM     24  F   UNL     1       6.342   4.320   0.054  1.00  0.00    -0.207 F 
ENDBRANCH   8  18
ENDBRANCH   5   8
ENDBRANCH   3   4
ENDBRANCH   2   3
ENDBRANCH   1   2
BRANCH   1  25
ATOM     25  C   UNL     1       7.723  -3.013  -2.804  1.00  0.00     0.002 C 
BRANCH  25  26
ATOM     26  C   UNL     1       8.508  -2.243  -3.868  1.00  0.00     0.021 C 
BRANCH  26  27
ATOM     27  C   UNL     1       9.774  -1.564  -3.353  1.00  0.00     0.116 C 
BRANCH  27  28
ATOM     28  N   UNL     1      10.748  -2.532  -2.868  1.00  0.00    -0.352 N 
ATOM     29  C   UNL     1      12.008  -2.800  -3.345  1.00  0.00     0.251 C 
ATOM     30  H   UNL     1      10.464  -3.067  -2.091  1.00  0.00     0.163 HD
ATOM     31  O   UNL     1      12.618  -3.794  -2.972  1.00  0.00    -0.269 OA
BRANCH  29  32
ATOM     32  C   UNL     1      12.610  -1.881  -4.333  1.00  0.00     0.039 A 
ATOM     33  C   UNL     1      13.136  -2.404  -5.516  1.00  0.00     0.014 A 
ATOM     34  C   UNL     1      12.612  -0.502  -4.103  1.00  0.00     0.014 A 
ATOM     35  C   UNL     1      13.591  -1.533  -6.509  1.00  0.00     0.010 A 
ATOM     36  C   UNL     1      13.004   0.364  -5.119  1.00  0.00     0.010 A 
ATOM     37  C   UNL     1      13.485  -0.143  -6.336  1.00  0.00    -0.014 A 
BRANCH  37  38
ATOM     38  C   UNL     1      13.807   0.800  -7.437  1.00  0.00     0.031 A 
ATOM     39  C   UNL     1      14.917   1.800  -7.283  1.00  0.00     0.074 A 
ATOM     40  C   UNL     1      13.022   0.825  -8.532  1.00  0.00     0.049 A 
ATOM     41  N   UNL     1      15.276   2.762  -8.093  1.00  0.00    -0.248 NA
ATOM     42  C   UNL     1      15.714   1.725  -6.048  1.00  0.00     0.031 C 
ATOM     43  C   UNL     1      11.868  -0.048  -8.764  1.00  0.00     0.029 A 
ATOM     44  N   UNL     1      13.047   1.640  -9.637  1.00  0.00    -0.354 N 
ATOM     45  C   UNL     1      16.320   3.423  -7.458  1.00  0.00     0.074 A 
ATOM     46  C   UNL     1      16.516   2.772  -6.181  1.00  0.00     0.031 C 
ATOM     47  C   UNL     1      11.291   0.285  -9.929  1.00  0.00     0.029 A 
ATOM     48  C   UNL     1      12.004   1.419 -10.507  1.00  0.00     0.049 A 
ATOM     49  H   UNL     1      13.745   2.317  -9.792  1.00  0.00     0.167 HD
ATOM     50  C   UNL     1      17.064   4.462  -7.909  1.00  0.00     0.034 A 
ATOM     51  C   UNL     1      11.642   2.073 -11.628  1.00  0.00     0.034 A 
ATOM     52  C   UNL     1      16.875   5.094  -9.187  1.00  0.00     0.049 A 
ATOM     53  C   UNL     1      12.479   3.228 -12.104  1.00  0.00     0.074 A 
ATOM     54  C   UNL     1      17.628   6.099  -9.768  1.00  0.00     0.029 A 
ATOM     55  N   UNL     1      15.850   4.801 -10.073  1.00  0.00    -0.354 N 
ATOM     56  N   UNL     1      13.564   3.735 -11.569  1.00  0.00    -0.248 NA
ATOM     57  C   UNL     1      12.060   3.886 -13.350  1.00  0.00     0.031 C 
ATOM     58  C   UNL     1      17.036   6.438 -10.989  1.00  0.00     0.029 A 
ATOM     59  C   UNL     1      15.934   5.622 -11.185  1.00  0.00     0.049 A 
ATOM     60  H   UNL     1      15.162   4.110  -9.932  1.00  0.00     0.167 HD
ATOM     61  C   UNL     1      13.969   4.755 -12.422  1.00  0.00     0.074 A 
ATOM     62  C   UNL     1      13.030   4.775 -13.524  1.00  0.00     0.031 C 
ATOM     63  C   UNL     1      15.014   5.609 -12.294  1.00  0.00     0.034 A 
BRANCH  50  64
ATOM     64  C   UNL     1      18.182   4.955  -7.026  1.00  0.00     0.023 A 
ATOM     65  C   UNL     1      19.328   4.154  -6.843  1.00  0.00     0.012 A 
ATOM     66  C   UNL     1      18.127   6.229  -6.427  1.00  0.00     0.148 A 
ATOM     67  C   UNL     1      20.384   4.595  -6.047  1.00  0.00     0.002 A 
ATOM     68  C   UNL     1      19.204   6.681  -5.673  1.00  0.00     0.091 A 
ATOM     69  F   UNL     1      17.023   6.970  -6.598  1.00  0.00    -0.205 F 
ATOM     70  C   UNL     1      20.327   5.861  -5.472  1.00  0.00     0.022 A 
BRANCH  68  71
ATOM     71  S   UNL     1      19.263   8.326  -4.954  1.00  0.00     0.127 S 
ATOM     72  O   UNL     1      19.143   8.028  -3.527  1.00  0.00    -0.237 OA
ATOM     73  O   UNL     1      20.586   8.795  -5.369  1.00  0.00    -0.237 OA
ATOM     74  O   UNL     1      18.148   9.059  -5.535  1.00  0.00    -0.744 OA
ENDBRANCH  68  71
ENDBRANCH  50  64
BRANCH  51  75
ATOM     75  C   UNL     1      10.439   1.630 -12.389  1.00  0.00     0.023 A 
ATOM     76  C   UNL     1      10.597   1.027 -13.651  1.00  0.00     0.012 A 
ATOM     77  C   UNL     1       9.144   1.770 -11.851  1.00  0.00     0.148 A 
ATOM     78  C   UNL     1       9.486   0.597 -14.377  1.00  0.00     0.002 A 
ATOM     79  C   UNL     1       8.047   1.286 -12.552  1.00  0.00     0.091 A 
ATOM     80  F   UNL     1       9.014   2.356 -10.652  1.00  0.00    -0.205 F 
ATOM     81  C   UNL     1       8.213   0.716 -13.824  1.00  0.00     0.022 A 
BRANCH  79  82
ATOM     82  S   UNL     1       6.390   1.271 -11.858  1.00  0.00     0.127 S 
ATOM     83  O   UNL     1       5.707   2.258 -12.689  1.00  0.00    -0.237 OA
ATOM     84  O   UNL     1       5.981  -0.116 -12.084  1.00  0.00    -0.237 OA
ATOM     85  O   UNL     1       6.546   1.627 -10.454  1.00  0.00    -0.744 OA
ENDBRANCH  79  82
ENDBRANCH  51  75
BRANCH  63  86
ATOM     86  C   UNL     1      15.213   6.639 -13.376  1.00  0.00     0.023 A 
ATOM     87  C   UNL     1      14.331   7.735 -13.467  1.00  0.00     0.012 A 
ATOM     88  C   UNL     1      16.319   6.568 -14.246  1.00  0.00     0.148 A 
ATOM     89  C   UNL     1      14.532   8.730 -14.422  1.00  0.00     0.002 A 
ATOM     90  C   UNL     1      16.541   7.588 -15.162  1.00  0.00     0.091 A 
ATOM     91  F   UNL     1      17.138   5.510 -14.151  1.00  0.00    -0.205 F 
ATOM     92  C   UNL     1      15.643   8.663 -15.260  1.00  0.00     0.022 A 
BRANCH  90  93
ATOM     93  S   UNL     1      17.991   7.641 -16.222  1.00  0.00     0.127 S 
ATOM     94  O   UNL     1      17.397   7.471 -17.547  1.00  0.00    -0.237 OA
ATOM     95  O   UNL     1      18.517   8.980 -15.956  1.00  0.00    -0.237 OA
ATOM     96  O   UNL     1      18.852   6.551 -15.785  1.00  0.00    -0.744 OA
ENDBRANCH  90  93
ENDBRANCH  63  86
ENDBRANCH  37  38
ENDBRANCH  29  32
ENDBRANCH  27  28
ENDBRANCH  26  27
ENDBRANCH  25  26
ENDBRANCH   1  25
TORSDOF 20
