REMARK SMILES O=C(NCCCCCCNC(=O)c1ccc(-c2ccn(C(F)F)c(=O)c2)cc1O)c1ccc(-c2c3nc(c(-c4cccc(S(=O)(=O)[O-])c4F)c4ccc([nH]4)c(-c4cccc(S(=O)(=O)[O-])c4F)c4nc(c(-c5cccc(S(=O)(=O)[O-])c5F)c5ccc2[nH]5)C=C4)C=C3)cc1
REMARK SMILES IDX 6 1 5 2 4 3 3 4 1 5 2 6 30 8 31 9 92 10 32 11 91 12 33 13
REMARK SMILES IDX 34 14 35 15 85 16 36 17 90 18 84 19 86 20 37 21 89 22 83 23
REMARK SMILES IDX 82 24 38 26 70 27 50 28 69 29 51 30 54 31 68 32 87 33 52 34
REMARK SMILES IDX 53 35 67 37 88 38 55 39 39 40 40 41 48 42 41 43 43 44 49 45
REMARK SMILES IDX 42 46 44 47 45 48 46 49 47 50 71 51 72 52 80 53 73 54 75 55
REMARK SMILES IDX 81 56 74 57 76 58 77 59 78 60 79 61 56 62 57 63 65 64 58 65
REMARK SMILES IDX 60 66 66 67 59 68 61 69 62 70 63 71 64 72 7 73 8 74 9 75
REMARK SMILES IDX 10 76 11 77 12 79 13 80 14 81 28 82 15 83 27 84 16 85 29 86
REMARK SMILES IDX 17 88 18 89 26 90 19 91 24 92 20 93 25 94 21 95 22 96 23 97
REMARK H PARENT 3 7 86 25 54 36 10 78 29 87
REMARK Flexibility Score: inf
ROOT
ATOM      1  C   UNL     1       4.305  -1.690  -3.509  1.00  0.00     0.002 C 
ENDROOT
BRANCH   1   2
ATOM      2  C   UNL     1       4.805  -1.712  -2.062  1.00  0.00     0.021 C 
BRANCH   2   3
ATOM      3  C   UNL     1       4.538  -0.441  -1.263  1.00  0.00     0.116 C 
BRANCH   3   4
ATOM      4  N   UNL     1       3.122  -0.147  -1.153  1.00  0.00    -0.352 N 
ATOM      5  O   UNL     1       1.141   0.164  -0.139  1.00  0.00    -0.269 OA
ATOM      6  C   UNL     1       2.367   0.117  -0.039  1.00  0.00     0.251 C 
ATOM      7  H   UNL     1       2.629  -0.135  -2.005  1.00  0.00     0.163 HD
BRANCH   6   8
ATOM      8  C   UNL     1       3.008   0.342   1.276  1.00  0.00     0.039 A 
ATOM      9  C   UNL     1       2.386  -0.169   2.419  1.00  0.00     0.014 A 
ATOM     10  C   UNL     1       4.173   1.106   1.401  1.00  0.00     0.014 A 
ATOM     11  C   UNL     1       2.930   0.083   3.681  1.00  0.00     0.010 A 
ATOM     12  C   UNL     1       4.757   1.291   2.653  1.00  0.00     0.010 A 
ATOM     13  C   UNL     1       4.119   0.817   3.808  1.00  0.00    -0.014 A 
BRANCH  13  14
ATOM     14  C   UNL     1       4.654   1.173   5.147  1.00  0.00     0.031 A 
ATOM     15  C   UNL     1       4.698   2.616   5.575  1.00  0.00     0.074 A 
ATOM     16  C   UNL     1       5.122   0.213   5.968  1.00  0.00     0.049 A 
ATOM     17  N   UNL     1       5.133   3.128   6.697  1.00  0.00    -0.248 NA
ATOM     18  C   UNL     1       4.210   3.621   4.613  1.00  0.00     0.031 C 
ATOM     19  C   UNL     1       5.188  -1.214   5.650  1.00  0.00     0.029 A 
ATOM     20  N   UNL     1       5.636   0.296   7.239  1.00  0.00    -0.354 N 
ATOM     21  C   UNL     1       5.014   4.505   6.557  1.00  0.00     0.074 A 
ATOM     22  C   UNL     1       4.491   4.757   5.234  1.00  0.00     0.031 C 
ATOM     23  C   UNL     1       5.689  -1.875   6.707  1.00  0.00     0.029 A 
ATOM     24  C   UNL     1       5.999  -0.920   7.768  1.00  0.00     0.049 A 
ATOM     25  H   UNL     1       5.735   1.146   7.725  1.00  0.00     0.167 HD
ATOM     26  C   UNL     1       5.278   5.474   7.462  1.00  0.00     0.034 A 
ATOM     27  C   UNL     1       6.512  -1.233   8.974  1.00  0.00     0.034 A 
ATOM     28  C   UNL     1       5.709   5.223   8.807  1.00  0.00     0.049 A 
ATOM     29  C   UNL     1       6.746  -0.144   9.985  1.00  0.00     0.074 A 
ATOM     30  C   UNL     1       5.893   6.136   9.830  1.00  0.00     0.029 A 
ATOM     31  N   UNL     1       6.015   3.974   9.318  1.00  0.00    -0.354 N 
ATOM     32  N   UNL     1       6.502   1.139   9.877  1.00  0.00    -0.248 NA
ATOM     33  C   UNL     1       7.301  -0.543  11.287  1.00  0.00     0.031 C 
ATOM     34  C   UNL     1       6.320   5.437  10.961  1.00  0.00     0.029 A 
ATOM     35  C   UNL     1       6.396   4.090  10.641  1.00  0.00     0.049 A 
ATOM     36  H   UNL     1       5.968   3.129   8.815  1.00  0.00     0.167 HD
ATOM     37  C   UNL     1       6.854   1.699  11.100  1.00  0.00     0.074 A 
ATOM     38  C   UNL     1       7.319   0.614  11.940  1.00  0.00     0.031 C 
ATOM     39  C   UNL     1       6.809   2.997  11.481  1.00  0.00     0.034 A 
BRANCH  26  40
ATOM     40  C   UNL     1       5.036   6.901   7.060  1.00  0.00     0.023 A 
ATOM     41  C   UNL     1       3.717   7.396   7.038  1.00  0.00     0.012 A 
ATOM     42  C   UNL     1       6.112   7.772   6.801  1.00  0.00     0.148 A 
ATOM     43  C   UNL     1       3.470   8.736   6.749  1.00  0.00     0.002 A 
ATOM     44  C   UNL     1       5.859   9.114   6.545  1.00  0.00     0.091 A 
ATOM     45  F   UNL     1       7.355   7.271   6.815  1.00  0.00    -0.205 F 
ATOM     46  C   UNL     1       4.540   9.596   6.514  1.00  0.00     0.022 A 
BRANCH  44  47
ATOM     47  S   UNL     1       7.166  10.318   6.284  1.00  0.00     0.127 S 
ATOM     48  O   UNL     1       6.931  10.709   4.894  1.00  0.00    -0.237 OA
ATOM     49  O   UNL     1       6.836  11.345   7.271  1.00  0.00    -0.237 OA
ATOM     50  O   UNL     1       8.418   9.615   6.524  1.00  0.00    -0.744 OA
ENDBRANCH  44  47
ENDBRANCH  26  40
BRANCH  27  51
ATOM     51  C   UNL     1       6.752  -2.663   9.310  1.00  0.00     0.023 A 
ATOM     52  C   UNL     1       5.837  -3.332  10.144  1.00  0.00     0.012 A 
ATOM     53  C   UNL     1       7.821  -3.381   8.739  1.00  0.00     0.148 A 
ATOM     54  C   UNL     1       5.982  -4.693  10.408  1.00  0.00     0.002 A 
ATOM     55  C   UNL     1       7.939  -4.745   8.977  1.00  0.00     0.091 A 
ATOM     56  F   UNL     1       8.676  -2.719   7.948  1.00  0.00    -0.205 F 
ATOM     57  C   UNL     1       7.026  -5.402   9.818  1.00  0.00     0.022 A 
BRANCH  55  58
ATOM     58  S   UNL     1       9.185  -5.766   8.182  1.00  0.00     0.127 S 
ATOM     59  O   UNL     1       9.935  -6.271   9.330  1.00  0.00    -0.237 OA
ATOM     60  O   UNL     1       8.361  -6.762   7.498  1.00  0.00    -0.237 OA
ATOM     61  O   UNL     1       9.925  -4.877   7.297  1.00  0.00    -0.744 OA
ENDBRANCH  55  58
ENDBRANCH  27  51
BRANCH  39  62
ATOM     62  C   UNL     1       7.268   3.357  12.867  1.00  0.00     0.023 A 
ATOM     63  C   UNL     1       8.646   3.507  13.112  1.00  0.00     0.012 A 
ATOM     64  C   UNL     1       6.337   3.720  13.859  1.00  0.00     0.148 A 
ATOM     65  C   UNL     1       9.092   4.022  14.328  1.00  0.00     0.002 A 
ATOM     66  C   UNL     1       6.788   4.264  15.055  1.00  0.00     0.091 A 
ATOM     67  F   UNL     1       5.031   3.567  13.595  1.00  0.00    -0.205 F 
ATOM     68  C   UNL     1       8.165   4.413  15.292  1.00  0.00     0.022 A 
BRANCH  66  69
ATOM     69  S   UNL     1       5.675   4.876  16.326  1.00  0.00     0.127 S 
ATOM     70  O   UNL     1       5.985   3.987  17.446  1.00  0.00    -0.237 OA
ATOM     71  O   UNL     1       6.131   6.255  16.496  1.00  0.00    -0.237 OA
ATOM     72  O   UNL     1       4.329   4.738  15.786  1.00  0.00    -0.744 OA
ENDBRANCH  66  69
ENDBRANCH  39  62
ENDBRANCH  13  14
ENDBRANCH   6   8
ENDBRANCH   3   4
ENDBRANCH   2   3
ENDBRANCH   1   2
BRANCH   1  73
ATOM     73  C   UNL     1       4.798  -0.518  -4.362  1.00  0.00     0.002 C 
BRANCH  73  74
ATOM     74  C   UNL     1       6.316  -0.326  -4.410  1.00  0.00     0.021 C 
BRANCH  74  75
ATOM     75  C   UNL     1       7.111  -1.552  -4.849  1.00  0.00     0.116 C 
BRANCH  75  76
ATOM     76  N   UNL     1       6.795  -1.956  -6.208  1.00  0.00    -0.352 N 
ATOM     77  C   UNL     1       7.660  -2.309  -7.212  1.00  0.00     0.255 C 
ATOM     78  H   UNL     1       5.838  -1.978  -6.439  1.00  0.00     0.163 HD
ATOM     79  O   UNL     1       7.242  -2.558  -8.342  1.00  0.00    -0.269 OA
BRANCH  77  80
ATOM     80  C   UNL     1       9.114  -2.315  -6.958  1.00  0.00     0.081 A 
ATOM     81  C   UNL     1       9.908  -1.463  -7.736  1.00  0.00     0.018 A 
ATOM     82  C   UNL     1       9.706  -3.127  -5.985  1.00  0.00     0.128 A 
ATOM     83  C   UNL     1      11.284  -1.389  -7.508  1.00  0.00     0.010 A 
ATOM     84  C   UNL     1      11.077  -3.046  -5.751  1.00  0.00     0.055 A 
ATOM     85  C   UNL     1      11.875  -2.171  -6.505  1.00  0.00    -0.014 A 
BRANCH  82  86
ATOM     86  O   UNL     1       8.947  -3.997  -5.253  1.00  0.00    -0.507 OA
ATOM     87  H   UNL     1       8.025  -4.056  -5.404  1.00  0.00     0.293 HD
ENDBRANCH  82  86
BRANCH  85  88
ATOM     88  C   UNL     1      13.322  -2.102  -6.225  1.00  0.00    -0.011 A 
ATOM     89  C   UNL     1      14.181  -3.269  -6.290  1.00  0.00     0.027 A 
ATOM     90  C   UNL     1      13.848  -0.927  -5.833  1.00  0.00     0.080 A 
ATOM     91  C   UNL     1      15.463  -3.194  -5.917  1.00  0.00     0.095 A 
ATOM     92  C   UNL     1      15.285  -0.821  -5.455  1.00  0.00     0.255 A 
ATOM     93  N   UNL     1      16.010  -1.999  -5.491  1.00  0.00    -0.258 N 
ATOM     94  O   UNL     1      15.726   0.281  -5.134  1.00  0.00    -0.269 OA
BRANCH  93  95
ATOM     95  C   UNL     1      17.383  -1.937  -5.061  1.00  0.00     0.451 C 
ATOM     96  F   UNL     1      18.103  -1.096  -5.842  1.00  0.00    -0.185 F 
ATOM     97  F   UNL     1      17.474  -1.506  -3.780  1.00  0.00    -0.185 F 
ENDBRANCH  93  95
ENDBRANCH  85  88
ENDBRANCH  77  80
ENDBRANCH  75  76
ENDBRANCH  74  75
ENDBRANCH  73  74
ENDBRANCH   1  73
TORSDOF 19
