REMARK SMILES CC[NH2+]C(C)(C)C(=O)N[C@@](C)(C(=O)NCCCCCCNC(=O)c1ccc(-c2c3nc(c(-c4cccc(S(=O)(=O)[O-])c4F)c4ccc([nH]4)c(-c4cccc(S(=O)(=O)[O-])c4F)c4nc(c(-c5cccc(S(=O)(=O)[O-])c5F)c5ccc2[nH]5)C=C4)C=C3)cc1)C(F)(F)F
REMARK SMILES IDX 17 1 16 2 15 3 14 4 12 5 13 6 10 8 11 9 9 10 7 11 8 12 4 14
REMARK SMILES IDX 5 15 6 16 3 17 2 20 1 21 87 22 88 23 89 24 90 25 18 26 19 27
REMARK SMILES IDX 20 28 21 29 22 30 23 32 24 33 25 34 86 35 26 36 85 37 27 38
REMARK SMILES IDX 28 39 29 40 79 41 30 42 84 43 78 44 80 45 31 46 83 47 77 48
REMARK SMILES IDX 76 49 32 51 64 52 44 53 63 54 45 55 48 56 62 57 81 58 46 59
REMARK SMILES IDX 47 60 61 62 82 63 49 64 33 65 34 66 42 67 35 68 37 69 43 70
REMARK SMILES IDX 36 71 38 72 39 73 40 74 41 75 65 76 66 77 74 78 67 79 69 80
REMARK SMILES IDX 75 81 68 82 70 83 71 84 72 85 73 86 50 87 51 88 59 89 52 90
REMARK SMILES IDX 54 91 60 92 53 93 55 94 56 95 57 96 58 97
REMARK H PARENT 14 7 9 13 3 18 3 19 21 31 80 50 48 61
REMARK Flexibility Score: inf
ROOT
ATOM      1  C   UNL     1      -5.411  -6.615   2.487  1.00  0.00     0.002 C 
ENDROOT
BRANCH   1   2
ATOM      2  C   UNL     1      -4.803  -5.299   2.982  1.00  0.00     0.021 C 
BRANCH   2   3
ATOM      3  C   UNL     1      -3.803  -5.441   4.128  1.00  0.00     0.116 C 
BRANCH   3   4
ATOM      4  N   UNL     1      -2.616  -6.171   3.714  1.00  0.00    -0.354 N 
ATOM      5  C   UNL     1      -1.276  -5.974   3.867  1.00  0.00     0.254 C 
ATOM      6  O   UNL     1      -0.567  -6.845   3.352  1.00  0.00    -0.272 OA
ATOM      7  H   UNL     1      -2.827  -6.991   3.211  1.00  0.00     0.163 HD
BRANCH   5   8
ATOM      8  C   UNL     1      -0.672  -4.753   4.602  1.00  0.00     0.212 C 
ATOM      9  C   UNL     1      -1.253  -4.615   6.029  1.00  0.00     0.056 C 
BRANCH   8  10
ATOM     10  N   UNL     1      -1.109  -3.525   3.821  1.00  0.00    -0.329 N 
ATOM     11  C   UNL     1      -0.684  -2.598   2.923  1.00  0.00     0.281 C 
ATOM     12  O   UNL     1      -1.622  -1.994   2.385  1.00  0.00    -0.268 OA
ATOM     13  H   UNL     1      -2.046  -3.329   4.049  1.00  0.00     0.165 HD
BRANCH  11  14
ATOM     14  C   UNL     1       0.802  -2.272   2.610  1.00  0.00     0.169 C 
ATOM     15  C   UNL     1       1.452  -3.449   1.870  1.00  0.00     0.090 C 
ATOM     16  C   UNL     1       1.484  -1.932   3.955  1.00  0.00     0.090 C 
BRANCH  14  17
ATOM     17  N   UNL     1       1.001  -1.007   1.840  1.00  0.00    -0.334 N 
ATOM     18  H   UNL     1       0.616  -0.249   2.404  1.00  0.00     0.347 HD
ATOM     19  H   UNL     1       2.006  -0.979   1.668  1.00  0.00     0.347 HD
BRANCH  17  20
ATOM     20  C   UNL     1       0.413  -0.892   0.509  1.00  0.00     0.257 C 
ATOM     21  C   UNL     1       0.901   0.410  -0.122  1.00  0.00     0.071 C 
ENDBRANCH  17  20
ENDBRANCH  14  17
ENDBRANCH  11  14
ENDBRANCH   8  10
BRANCH   8  22
ATOM     22  C   UNL     1       0.822  -5.128   4.839  1.00  0.00     0.420 C 
ATOM     23  F   UNL     1       1.559  -5.288   3.728  1.00  0.00    -0.168 F 
ATOM     24  F   UNL     1       1.459  -4.200   5.596  1.00  0.00    -0.168 F 
ATOM     25  F   UNL     1       0.929  -6.284   5.550  1.00  0.00    -0.168 F 
ENDBRANCH   8  22
ENDBRANCH   5   8
ENDBRANCH   3   4
ENDBRANCH   2   3
ENDBRANCH   1   2
BRANCH   1  26
ATOM     26  C   UNL     1      -6.085  -7.474   3.562  1.00  0.00     0.002 C 
BRANCH  26  27
ATOM     27  C   UNL     1      -7.161  -6.768   4.390  1.00  0.00     0.021 C 
BRANCH  27  28
ATOM     28  C   UNL     1      -8.295  -6.137   3.586  1.00  0.00     0.116 C 
BRANCH  28  29
ATOM     29  N   UNL     1      -9.018  -7.114   2.790  1.00  0.00    -0.352 N 
ATOM     30  C   UNL     1     -10.369  -7.332   2.688  1.00  0.00     0.251 C 
ATOM     31  H   UNL     1      -8.456  -7.708   2.242  1.00  0.00     0.163 HD
ATOM     32  O   UNL     1     -10.779  -8.321   2.085  1.00  0.00    -0.269 OA
BRANCH  30  33
ATOM     33  C   UNL     1     -11.332  -6.398   3.316  1.00  0.00     0.039 A 
ATOM     34  C   UNL     1     -12.429  -6.930   3.998  1.00  0.00     0.014 A 
ATOM     35  C   UNL     1     -11.175  -5.012   3.218  1.00  0.00     0.014 A 
ATOM     36  C   UNL     1     -13.338  -6.075   4.626  1.00  0.00     0.010 A 
ATOM     37  C   UNL     1     -12.047  -4.162   3.900  1.00  0.00     0.010 A 
ATOM     38  C   UNL     1     -13.140  -4.684   4.608  1.00  0.00    -0.014 A 
BRANCH  38  39
ATOM     39  C   UNL     1     -14.054  -3.777   5.350  1.00  0.00     0.031 A 
ATOM     40  C   UNL     1     -14.907  -2.774   4.618  1.00  0.00     0.074 A 
ATOM     41  C   UNL     1     -14.075  -3.821   6.697  1.00  0.00     0.049 A 
ATOM     42  N   UNL     1     -15.760  -1.910   5.105  1.00  0.00    -0.248 NA
ATOM     43  C   UNL     1     -14.771  -2.719   3.153  1.00  0.00     0.031 C 
ATOM     44  C   UNL     1     -13.235  -4.687   7.528  1.00  0.00     0.029 A 
ATOM     45  N   UNL     1     -14.815  -3.108   7.608  1.00  0.00    -0.354 N 
ATOM     46  C   UNL     1     -16.247  -1.198   4.016  1.00  0.00     0.074 A 
ATOM     47  C   UNL     1     -15.567  -1.704   2.844  1.00  0.00     0.031 C 
ATOM     48  C   UNL     1     -13.512  -4.461   8.822  1.00  0.00     0.029 A 
ATOM     49  C   UNL     1     -14.532  -3.422   8.917  1.00  0.00     0.049 A 
ATOM     50  H   UNL     1     -15.486  -2.436   7.348  1.00  0.00     0.167 HD
ATOM     51  C   UNL     1     -17.200  -0.235   3.987  1.00  0.00     0.034 A 
ATOM     52  C   UNL     1     -15.038  -2.929  10.065  1.00  0.00     0.034 A 
ATOM     53  C   UNL     1     -17.904   0.242   5.148  1.00  0.00     0.049 A 
ATOM     54  C   UNL     1     -16.126  -1.892   9.998  1.00  0.00     0.074 A 
ATOM     55  C   UNL     1     -18.935   1.164   5.211  1.00  0.00     0.029 A 
ATOM     56  N   UNL     1     -17.653  -0.164   6.449  1.00  0.00    -0.354 N 
ATOM     57  N   UNL     1     -16.689  -1.352   8.944  1.00  0.00    -0.248 NA
ATOM     58  C   UNL     1     -16.679  -1.426  11.278  1.00  0.00     0.031 C 
ATOM     59  C   UNL     1     -19.298   1.325   6.553  1.00  0.00     0.029 A 
ATOM     60  C   UNL     1     -18.506   0.489   7.322  1.00  0.00     0.049 A 
ATOM     61  H   UNL     1     -16.968  -0.820   6.713  1.00  0.00     0.167 HD
ATOM     62  C   UNL     1     -17.682  -0.511   9.432  1.00  0.00     0.074 A 
ATOM     63  C   UNL     1     -17.665  -0.637  10.875  1.00  0.00     0.031 C 
ATOM     64  C   UNL     1     -18.517   0.312   8.751  1.00  0.00     0.034 A 
BRANCH  51  65
ATOM     65  C   UNL     1     -17.598   0.322   2.644  1.00  0.00     0.023 A 
ATOM     66  C   UNL     1     -18.369  -0.475   1.773  1.00  0.00     0.012 A 
ATOM     67  C   UNL     1     -17.293   1.648   2.280  1.00  0.00     0.148 A 
ATOM     68  C   UNL     1     -18.811   0.030   0.551  1.00  0.00     0.002 A 
ATOM     69  C   UNL     1     -17.770   2.157   1.077  1.00  0.00     0.091 A 
ATOM     70  F   UNL     1     -16.545   2.384   3.115  1.00  0.00    -0.205 F 
ATOM     71  C   UNL     1     -18.521   1.348   0.209  1.00  0.00     0.022 A 
BRANCH  69  72
ATOM     72  S   UNL     1     -17.519   3.865   0.577  1.00  0.00     0.127 S 
ATOM     73  O   UNL     1     -16.630   3.704  -0.576  1.00  0.00    -0.237 OA
ATOM     74  O   UNL     1     -18.880   4.287   0.238  1.00  0.00    -0.237 OA
ATOM     75  O   UNL     1     -16.936   4.541   1.721  1.00  0.00    -0.744 OA
ENDBRANCH  69  72
ENDBRANCH  51  65
BRANCH  52  76
ATOM     76  C   UNL     1     -14.573  -3.460  11.379  1.00  0.00     0.023 A 
ATOM     77  C   UNL     1     -15.454  -4.225  12.167  1.00  0.00     0.012 A 
ATOM     78  C   UNL     1     -13.269  -3.216  11.849  1.00  0.00     0.148 A 
ATOM     79  C   UNL     1     -15.060  -4.701  13.418  1.00  0.00     0.002 A 
ATOM     80  C   UNL     1     -12.863  -3.743  13.071  1.00  0.00     0.091 A 
ATOM     81  F   UNL     1     -12.447  -2.471  11.096  1.00  0.00    -0.205 F 
ATOM     82  C   UNL     1     -13.763  -4.468  13.866  1.00  0.00     0.022 A 
BRANCH  80  83
ATOM     83  S   UNL     1     -11.168  -3.603  13.648  1.00  0.00     0.127 S 
ATOM     84  O   UNL     1     -11.269  -2.518  14.619  1.00  0.00    -0.237 OA
ATOM     85  O   UNL     1     -10.927  -4.927  14.224  1.00  0.00    -0.237 OA
ATOM     86  O   UNL     1     -10.379  -3.324  12.454  1.00  0.00    -0.744 OA
ENDBRANCH  80  83
ENDBRANCH  52  76
BRANCH  64  87
ATOM     87  C   UNL     1     -19.502   1.120   9.555  1.00  0.00     0.023 A 
ATOM     88  C   UNL     1     -19.044   2.202  10.333  1.00  0.00     0.012 A 
ATOM     89  C   UNL     1     -20.881   0.842   9.501  1.00  0.00     0.148 A 
ATOM     90  C   UNL     1     -19.940   2.969  11.078  1.00  0.00     0.002 A 
ATOM     91  C   UNL     1     -21.773   1.641  10.208  1.00  0.00     0.091 A 
ATOM     92  F   UNL     1     -21.297  -0.203   8.771  1.00  0.00    -0.205 F 
ATOM     93  C   UNL     1     -21.303   2.695  11.007  1.00  0.00     0.022 A 
BRANCH  91  94
ATOM     94  S   UNL     1     -23.552   1.416  10.101  1.00  0.00     0.127 S 
ATOM     95  O   UNL     1     -23.847   0.759  11.373  1.00  0.00    -0.237 OA
ATOM     96  O   UNL     1     -24.036   2.794  10.001  1.00  0.00    -0.237 OA
ATOM     97  O   UNL     1     -23.780   0.612   8.908  1.00  0.00    -0.744 OA
ENDBRANCH  91  94
ENDBRANCH  64  87
ENDBRANCH  38  39
ENDBRANCH  30  33
ENDBRANCH  28  29
ENDBRANCH  27  28
ENDBRANCH  26  27
ENDBRANCH   1  26
TORSDOF 21
