REMARK SMILES CCSc1nc(CC(=O)N[C@@H](C(=O)NCCCCCCNC(=O)c2ccc(-c3c4nc(c(-c5cccc(S(=O)(=O)[O-])c5F)c5ccc([nH]5)c(-c5cccc(S(=O)(=O)[O-])c5F)c5nc(c(-c6cccc(S(=O)(=O)[O-])c6F)c6ccc3[nH]6)C=C5)C=C4)cc2)C2=C(C)N=N[C@@H]2C)cs1
REMARK SMILES IDX 16 1 15 2 14 3 12 4 13 5 11 7 10 8 8 9 9 10 7 12 6 13 4 14
REMARK SMILES IDX 5 15 95 16 94 17 3 18 2 19 1 20 87 21 88 22 92 23 89 24
REMARK SMILES IDX 90 25 91 26 93 27 17 28 18 29 19 30 20 31 21 32 22 33 23 35
REMARK SMILES IDX 24 36 25 37 86 38 26 39 85 40 27 41 28 42 29 43 79 44 30 45
REMARK SMILES IDX 84 46 78 47 80 48 31 49 83 50 77 51 76 52 32 54 64 55 44 56
REMARK SMILES IDX 63 57 45 58 48 59 62 60 81 61 46 62 47 63 61 65 82 66 49 67
REMARK SMILES IDX 33 68 34 69 42 70 35 71 37 72 43 73 36 74 38 75 39 76 40 77
REMARK SMILES IDX 41 78 65 79 66 80 74 81 67 82 69 83 75 84 68 85 70 86 71 87
REMARK SMILES IDX 72 88 73 89 50 90 51 91 59 92 52 93 54 94 60 95 53 96 55 97
REMARK SMILES IDX 56 98 57 99 58 100
REMARK H PARENT 14 6 10 11 21 34 80 53 48 64
REMARK Flexibility Score: inf
ROOT
ATOM      1  C   UNL     1       6.177  -0.603  -2.076  1.00  0.00     0.021 C 
ENDROOT
BRANCH   1   2
ATOM      2  C   UNL     1       5.179  -1.679  -1.676  1.00  0.00     0.116 C 
BRANCH   2   3
ATOM      3  N   UNL     1       4.489  -2.295  -2.786  1.00  0.00    -0.354 N 
ATOM      4  C   UNL     1       4.012  -3.573  -2.896  1.00  0.00     0.247 C 
ATOM      5  O   UNL     1       2.996  -3.687  -3.595  1.00  0.00    -0.272 OA
ATOM      6  H   UNL     1       4.341  -1.717  -3.569  1.00  0.00     0.163 HD
BRANCH   4   7
ATOM      7  C   UNL     1       4.648  -4.822  -2.154  1.00  0.00     0.202 C 
BRANCH   7   8
ATOM      8  N   UNL     1       6.043  -4.642  -1.761  1.00  0.00    -0.340 N 
ATOM      9  C   UNL     1       6.595  -4.481  -0.522  1.00  0.00     0.226 C 
ATOM     10  O   UNL     1       7.791  -4.177  -0.479  1.00  0.00    -0.275 OA
ATOM     11  H   UNL     1       6.686  -4.636  -2.506  1.00  0.00     0.164 HD
BRANCH   9  12
ATOM     12  C   UNL     1       5.796  -4.675   0.756  1.00  0.00     0.157 C 
BRANCH  12  13
ATOM     13  C   UNL     1       4.856  -3.563   1.097  1.00  0.00     0.062 A 
ATOM     14  C   UNL     1       2.815  -2.690   1.206  1.00  0.00     0.150 A 
ATOM     15  N   UNL     1       3.532  -3.658   0.678  1.00  0.00    -0.234 NA
ATOM     16  S   UNL     1       3.683  -1.568   2.163  1.00  0.00    -0.116 S 
ATOM     17  C   UNL     1       5.127  -2.449   1.872  1.00  0.00     0.092 A 
BRANCH  14  18
ATOM     18  S   UNL     1       1.077  -2.662   1.015  1.00  0.00    -0.096 SA
BRANCH  18  19
ATOM     19  C   UNL     1       0.851  -1.480  -0.341  1.00  0.00     0.074 C 
ATOM     20  C   UNL     1       0.993  -0.038   0.115  1.00  0.00     0.016 C 
ENDBRANCH  18  19
ENDBRANCH  14  18
ENDBRANCH  12  13
ENDBRANCH   9  12
ENDBRANCH   7   8
BRANCH   7  21
ATOM     21  C   UNL     1       4.605  -6.078  -2.993  1.00  0.00     0.011 C 
ATOM     22  C   UNL     1       4.830  -7.356  -2.651  1.00  0.00     0.064 C 
ATOM     23  C   UNL     1       4.189  -6.151  -4.432  1.00  0.00     0.156 C 
ATOM     24  C   UNL     1       5.248  -7.934  -1.346  1.00  0.00     0.069 C 
ATOM     25  N   UNL     1       4.621  -8.231  -3.688  1.00  0.00    -0.160 NA
ATOM     26  N   UNL     1       4.245  -7.613  -4.716  1.00  0.00    -0.181 NA
ATOM     27  C   UNL     1       5.122  -5.455  -5.414  1.00  0.00     0.040 C 
ENDBRANCH   7  21
ENDBRANCH   4   7
ENDBRANCH   2   3
ENDBRANCH   1   2
BRANCH   1  28
ATOM     28  C   UNL     1       5.552   0.751  -2.409  1.00  0.00     0.002 C 
BRANCH  28  29
ATOM     29  C   UNL     1       4.643   1.341  -1.324  1.00  0.00     0.002 C 
BRANCH  29  30
ATOM     30  C   UNL     1       5.258   1.445   0.075  1.00  0.00     0.021 C 
BRANCH  30  31
ATOM     31  C   UNL     1       6.530   2.280   0.163  1.00  0.00     0.116 C 
BRANCH  31  32
ATOM     32  N   UNL     1       6.326   3.642  -0.303  1.00  0.00    -0.352 N 
ATOM     33  C   UNL     1       6.607   4.833   0.318  1.00  0.00     0.251 C 
ATOM     34  H   UNL     1       5.927   3.721  -1.199  1.00  0.00     0.163 HD
ATOM     35  O   UNL     1       6.184   5.881  -0.159  1.00  0.00    -0.269 OA
BRANCH  33  36
ATOM     36  C   UNL     1       7.403   4.852   1.565  1.00  0.00     0.039 A 
ATOM     37  C   UNL     1       7.006   5.699   2.604  1.00  0.00     0.014 A 
ATOM     38  C   UNL     1       8.544   4.058   1.705  1.00  0.00     0.014 A 
ATOM     39  C   UNL     1       7.727   5.711   3.800  1.00  0.00     0.010 A 
ATOM     40  C   UNL     1       9.214   4.014   2.925  1.00  0.00     0.010 A 
ATOM     41  C   UNL     1       8.819   4.848   3.982  1.00  0.00    -0.014 A 
BRANCH  41  42
ATOM     42  C   UNL     1       9.556   4.801   5.271  1.00  0.00     0.031 A 
ATOM     43  C   UNL     1      11.015   5.170   5.327  1.00  0.00     0.074 A 
ATOM     44  C   UNL     1       8.932   4.349   6.377  1.00  0.00     0.049 A 
ATOM     45  N   UNL     1      11.833   5.141   6.347  1.00  0.00    -0.248 NA
ATOM     46  C   UNL     1      11.645   5.601   4.068  1.00  0.00     0.031 C 
ATOM     47  C   UNL     1       7.543   3.887   6.435  1.00  0.00     0.029 A 
ATOM     48  N   UNL     1       9.392   4.178   7.659  1.00  0.00    -0.354 N 
ATOM     49  C   UNL     1      13.076   5.512   5.850  1.00  0.00     0.074 A 
ATOM     50  C   UNL     1      12.914   5.730   4.429  1.00  0.00     0.031 C 
ATOM     51  C   UNL     1       7.264   3.488   7.686  1.00  0.00     0.029 A 
ATOM     52  C   UNL     1       8.459   3.633   8.511  1.00  0.00     0.049 A 
ATOM     53  H   UNL     1      10.302   4.421   7.943  1.00  0.00     0.167 HD
ATOM     54  C   UNL     1      14.242   5.681   6.517  1.00  0.00     0.034 A 
ATOM     55  C   UNL     1       8.557   3.278   9.807  1.00  0.00     0.034 A 
ATOM     56  C   UNL     1      14.390   5.504   7.937  1.00  0.00     0.049 A 
ATOM     57  C   UNL     1       9.853   3.514  10.534  1.00  0.00     0.074 A 
ATOM     58  C   UNL     1      15.505   5.742   8.721  1.00  0.00     0.029 A 
ATOM     59  N   UNL     1      13.399   5.033   8.783  1.00  0.00    -0.354 N 
ATOM     60  N   UNL     1      10.973   4.021  10.079  1.00  0.00    -0.248 NA
ATOM     61  C   UNL     1       9.889   3.165  11.961  1.00  0.00     0.031 C 
ATOM     62  C   UNL     1      15.197   5.384  10.037  1.00  0.00     0.029 A 
ATOM     63  C   UNL     1      13.879   4.959  10.079  1.00  0.00     0.049 A 
ATOM     64  H   UNL     1      12.488   4.787   8.504  1.00  0.00     0.167 HD
ATOM     65  C   UNL     1      11.833   4.086  11.169  1.00  0.00     0.074 A 
ATOM     66  C   UNL     1      11.097   3.587  12.312  1.00  0.00     0.031 C 
ATOM     67  C   UNL     1      13.120   4.509  11.218  1.00  0.00     0.034 A 
BRANCH  54  68
ATOM     68  C   UNL     1      15.448   6.125   5.729  1.00  0.00     0.023 A 
ATOM     69  C   UNL     1      15.506   7.439   5.222  1.00  0.00     0.012 A 
ATOM     70  C   UNL     1      16.550   5.266   5.550  1.00  0.00     0.148 A 
ATOM     71  C   UNL     1      16.627   7.882   4.520  1.00  0.00     0.002 A 
ATOM     72  C   UNL     1      17.683   5.730   4.891  1.00  0.00     0.091 A 
ATOM     73  F   UNL     1      16.469   4.014   6.022  1.00  0.00    -0.205 F 
ATOM     74  C   UNL     1      17.718   7.032   4.365  1.00  0.00     0.022 A 
BRANCH  72  75
ATOM     75  S   UNL     1      19.173   4.743   4.711  1.00  0.00     0.127 S 
ATOM     76  O   UNL     1      19.184   4.486   3.271  1.00  0.00    -0.237 OA
ATOM     77  O   UNL     1      20.210   5.665   5.174  1.00  0.00    -0.237 OA
ATOM     78  O   UNL     1      18.983   3.569   5.551  1.00  0.00    -0.744 OA
ENDBRANCH  72  75
ENDBRANCH  54  68
BRANCH  55  79
ATOM     79  C   UNL     1       7.376   2.708  10.517  1.00  0.00     0.023 A 
ATOM     80  C   UNL     1       6.736   3.463  11.519  1.00  0.00     0.012 A 
ATOM     81  C   UNL     1       6.874   1.434  10.191  1.00  0.00     0.148 A 
ATOM     82  C   UNL     1       5.641   2.944  12.210  1.00  0.00     0.002 A 
ATOM     83  C   UNL     1       5.748   0.946  10.843  1.00  0.00     0.091 A 
ATOM     84  F   UNL     1       7.503   0.727   9.242  1.00  0.00    -0.205 F 
ATOM     85  C   UNL     1       5.141   1.691  11.866  1.00  0.00     0.022 A 
BRANCH  83  86
ATOM     86  S   UNL     1       4.957  -0.596  10.372  1.00  0.00     0.127 S 
ATOM     87  O   UNL     1       5.269  -1.453  11.512  1.00  0.00    -0.237 OA
ATOM     88  O   UNL     1       3.553  -0.195  10.267  1.00  0.00    -0.237 OA
ATOM     89  O   UNL     1       5.566  -0.979   9.105  1.00  0.00    -0.744 OA
ENDBRANCH  83  86
ENDBRANCH  55  79
BRANCH  67  90
ATOM     90  C   UNL     1      13.812   4.496  12.556  1.00  0.00     0.023 A 
ATOM     91  C   UNL     1      14.183   3.272  13.146  1.00  0.00     0.012 A 
ATOM     92  C   UNL     1      14.159   5.704  13.193  1.00  0.00     0.148 A 
ATOM     93  C   UNL     1      14.858   3.250  14.366  1.00  0.00     0.002 A 
ATOM     94  C   UNL     1      14.878   5.676  14.381  1.00  0.00     0.091 A 
ATOM     95  F   UNL     1      13.781   6.858  12.623  1.00  0.00    -0.205 F 
ATOM     96  C   UNL     1      15.216   4.450  14.976  1.00  0.00     0.022 A 
BRANCH  94  97
ATOM     97  S   UNL     1      15.469   7.169  15.186  1.00  0.00     0.127 S 
ATOM     98  O   UNL     1      14.611   7.229  16.368  1.00  0.00    -0.237 OA
ATOM     99  O   UNL     1      16.867   6.839  15.462  1.00  0.00    -0.237 OA
ATOM    100  O   UNL     1      15.281   8.246  14.223  1.00  0.00    -0.744 OA
ENDBRANCH  94  97
ENDBRANCH  67  90
ENDBRANCH  41  42
ENDBRANCH  33  36
ENDBRANCH  31  32
ENDBRANCH  30  31
ENDBRANCH  29  30
ENDBRANCH  28  29
ENDBRANCH   1  28
TORSDOF 22
