REMARK SMILES O=C(CCn1cc(/C=C2/[NH+]=C(S)N(c3ccccc3)C2=O)c(-c2ccc(Br)cc2)n1)NCCCCCCNC(=O)c1ccc(-c2c3nc(c(-c4cccc(S(=O)(=O)[O-])c4F)c4ccc([nH]4)c(-c4cccc(S(=O)(=O)[O-])c4F)c4nc(c(-c5cccc(S(=O)(=O)[O-])c5F)c5ccc2[nH]5)C=C4)C=C3)cc1
REMARK SMILES IDX 34 1 33 2 32 3 31 4 1 5 2 6 3 8 4 9 5 10 6 11 30 12 7 13
REMARK SMILES IDX 22 14 8 15 9 16 10 17 20 18 11 19 13 21 21 22 12 23 14 25
REMARK SMILES IDX 15 26 19 27 16 28 18 29 17 30 23 31 24 32 29 33 25 34 28 35
REMARK SMILES IDX 26 36 27 37 35 38 36 39 37 40 38 41 39 42 40 44 41 45 42 46
REMARK SMILES IDX 103 47 43 48 102 49 44 50 45 51 46 52 96 53 47 54 101 55
REMARK SMILES IDX 95 56 97 57 48 58 100 59 94 60 93 61 49 63 81 64 61 65 80 66
REMARK SMILES IDX 62 67 65 68 79 69 98 70 63 71 64 72 78 74 99 75 66 76 50 77
REMARK SMILES IDX 51 78 59 79 52 80 54 81 60 82 53 83 55 84 56 85 57 86 58 87
REMARK SMILES IDX 82 88 83 89 91 90 84 91 86 92 92 93 85 94 87 95 88 96 89 97
REMARK SMILES IDX 90 98 67 99 68 100 76 101 69 102 71 103 77 104 70 105 72 106
REMARK SMILES IDX 73 107 74 108 75 109
REMARK H PARENT 31 7 10 20 12 24 38 43 97 62 65 73
REMARK Flexibility Score: inf
ROOT
ATOM      1  C   UNL     1       3.752   0.976  -3.839  1.00  0.00     0.002 C 
ENDROOT
BRANCH   1   2
ATOM      2  C   UNL     1       2.260   0.975  -3.492  1.00  0.00     0.021 C 
BRANCH   2   3
ATOM      3  C   UNL     1       1.814  -0.114  -2.513  1.00  0.00     0.116 C 
BRANCH   3   4
ATOM      4  N   UNL     1       2.596  -0.063  -1.295  1.00  0.00    -0.356 N 
ATOM      5  O   UNL     1       0.879  -0.297   0.213  1.00  0.00    -0.275 OA
ATOM      6  C   UNL     1       2.062  -0.095  -0.034  1.00  0.00     0.221 C 
ATOM      7  H   UNL     1       3.575  -0.002  -1.379  1.00  0.00     0.163 HD
BRANCH   6   8
ATOM      8  C   UNL     1       3.063   0.196   1.063  1.00  0.00     0.123 C 
BRANCH   8   9
ATOM      9  C   UNL     1       4.020  -0.959   1.317  1.00  0.00     0.154 C 
BRANCH   9  10
ATOM     10  N   UNL     1       5.046  -1.179   0.311  1.00  0.00    -0.271 N 
ATOM     11  C   UNL     1       5.834  -0.253  -0.318  1.00  0.00     0.117 A 
ATOM     12  N   UNL     1       5.351  -2.444  -0.028  1.00  0.00    -0.172 NA
ATOM     13  C   UNL     1       6.636  -0.956  -1.193  1.00  0.00     0.025 A 
ATOM     14  C   UNL     1       6.343  -2.331  -0.924  1.00  0.00     0.100 A 
BRANCH  13  15
ATOM     15  C   UNL     1       7.620  -0.361  -2.049  1.00  0.00     0.072 C 
ATOM     16  C   UNL     1       8.042  -0.736  -3.270  1.00  0.00     0.217 C 
ATOM     17  N   UNL     1       9.162  -0.205  -3.872  1.00  0.00    -0.228 N 
ATOM     18  C   UNL     1       7.495  -1.799  -4.166  1.00  0.00     0.386 C 
ATOM     19  C   UNL     1       9.352  -0.951  -4.919  1.00  0.00     0.321 C 
ATOM     20  H   UNL     1       9.697   0.567  -3.575  1.00  0.00     0.313 HD
ATOM     21  N   UNL     1       8.456  -1.960  -5.127  1.00  0.00    -0.149 N 
ATOM     22  O   UNL     1       6.406  -2.345  -4.058  1.00  0.00    -0.236 OA
BRANCH  19  23
ATOM     23  S   UNL     1      10.643  -0.571  -6.012  1.00  0.00    -0.055 SA
ATOM     24  H   UNL     1      11.355   0.480  -5.524  1.00  0.00     0.116 HD
ENDBRANCH  19  23
BRANCH  21  25
ATOM     25  C   UNL     1       8.440  -3.029  -6.068  1.00  0.00     0.137 A 
ATOM     26  C   UNL     1       9.620  -3.631  -6.527  1.00  0.00     0.052 A 
ATOM     27  C   UNL     1       7.224  -3.586  -6.503  1.00  0.00     0.052 A 
ATOM     28  C   UNL     1       9.583  -4.723  -7.405  1.00  0.00     0.004 A 
ATOM     29  C   UNL     1       7.184  -4.671  -7.383  1.00  0.00     0.004 A 
ATOM     30  C   UNL     1       8.366  -5.239  -7.836  1.00  0.00     0.000 A 
ENDBRANCH  21  25
ENDBRANCH  13  15
BRANCH  14  31
ATOM     31  C   UNL     1       6.990  -3.519  -1.475  1.00  0.00     0.003 A 
ATOM     32  C   UNL     1       8.388  -3.624  -1.475  1.00  0.00     0.011 A 
ATOM     33  C   UNL     1       6.224  -4.486  -2.141  1.00  0.00     0.011 A 
ATOM     34  C   UNL     1       9.016  -4.637  -2.202  1.00  0.00     0.016 A 
ATOM     35  C   UNL     1       6.852  -5.492  -2.879  1.00  0.00     0.016 A 
ATOM     36  C   UNL     1       8.244  -5.552  -2.917  1.00  0.00     0.018 A 
ATOM     37  Br  UNL     1       9.098  -6.864  -3.976  1.00  0.00    -0.051 Br
ENDBRANCH  14  31
ENDBRANCH   9  10
ENDBRANCH   8   9
ENDBRANCH   6   8
ENDBRANCH   3   4
ENDBRANCH   2   3
ENDBRANCH   1   2
BRANCH   1  38
ATOM     38  C   UNL     1       4.333  -0.354  -4.312  1.00  0.00     0.002 C 
BRANCH  38  39
ATOM     39  C   UNL     1       3.698  -1.013  -5.541  1.00  0.00     0.021 C 
BRANCH  39  40
ATOM     40  C   UNL     1       3.954  -0.262  -6.840  1.00  0.00     0.116 C 
BRANCH  40  41
ATOM     41  N   UNL     1       5.367  -0.287  -7.240  1.00  0.00    -0.352 N 
ATOM     42  C   UNL     1       5.988   0.450  -8.229  1.00  0.00     0.251 C 
ATOM     43  H   UNL     1       5.944  -0.908  -6.740  1.00  0.00     0.163 HD
ATOM     44  O   UNL     1       7.071   0.105  -8.689  1.00  0.00    -0.269 OA
BRANCH  42  45
ATOM     45  C   UNL     1       5.316   1.671  -8.704  1.00  0.00     0.039 A 
ATOM     46  C   UNL     1       5.159   1.945 -10.065  1.00  0.00     0.014 A 
ATOM     47  C   UNL     1       4.761   2.503  -7.736  1.00  0.00     0.014 A 
ATOM     48  C   UNL     1       4.350   3.015 -10.444  1.00  0.00     0.010 A 
ATOM     49  C   UNL     1       3.843   3.449  -8.110  1.00  0.00     0.010 A 
ATOM     50  C   UNL     1       3.669   3.749  -9.459  1.00  0.00    -0.014 A 
BRANCH  50  51
ATOM     51  C   UNL     1       2.674   4.755  -9.825  1.00  0.00     0.031 A 
ATOM     52  C   UNL     1       1.584   4.265 -10.716  1.00  0.00     0.074 A 
ATOM     53  C   UNL     1       2.599   5.959  -9.214  1.00  0.00     0.049 A 
ATOM     54  N   UNL     1       1.353   4.599 -11.944  1.00  0.00    -0.248 NA
ATOM     55  C   UNL     1       0.731   3.168 -10.231  1.00  0.00     0.031 C 
ATOM     56  C   UNL     1       3.399   6.434  -8.075  1.00  0.00     0.029 A 
ATOM     57  N   UNL     1       1.683   6.955  -9.370  1.00  0.00    -0.354 N 
ATOM     58  C   UNL     1       0.171   3.945 -12.294  1.00  0.00     0.074 A 
ATOM     59  C   UNL     1      -0.030   2.926 -11.300  1.00  0.00     0.031 C 
ATOM     60  C   UNL     1       2.766   7.466  -7.479  1.00  0.00     0.029 A 
ATOM     61  C   UNL     1       1.638   7.848  -8.303  1.00  0.00     0.049 A 
ATOM     62  H   UNL     1       1.107   7.036 -10.164  1.00  0.00     0.167 HD
ATOM     63  C   UNL     1      -0.691   4.482 -13.204  1.00  0.00     0.034 A 
ATOM     64  C   UNL     1       0.717   8.815  -8.089  1.00  0.00     0.034 A 
ATOM     65  C   UNL     1      -0.070   5.567 -13.923  1.00  0.00     0.049 A 
ATOM     66  C   UNL     1       0.080   9.098  -9.390  1.00  0.00     0.074 A 
ATOM     67  C   UNL     1       1.008   5.718 -14.767  1.00  0.00     0.029 A 
ATOM     68  N   UNL     1      -0.405   6.822 -13.481  1.00  0.00    -0.354 N 
ATOM     69  N   UNL     1       0.710   9.622 -10.404  1.00  0.00    -0.248 NA
ATOM     70  C   UNL     1      -1.191   8.466  -9.699  1.00  0.00     0.031 C 
ATOM     71  C   UNL     1       1.521   7.020 -14.486  1.00  0.00     0.029 A 
ATOM     72  C   UNL     1       0.702   7.620 -13.525  1.00  0.00     0.049 A 
ATOM     73  H   UNL     1      -1.300   7.101 -13.179  1.00  0.00     0.167 HD
ATOM     74  C   UNL     1       0.161   8.987 -11.508  1.00  0.00     0.074 A 
ATOM     75  C   UNL     1      -1.100   8.430 -11.031  1.00  0.00     0.031 C 
ATOM     76  C   UNL     1       0.925   8.717 -12.607  1.00  0.00     0.034 A 
BRANCH  63  77
ATOM     77  C   UNL     1      -2.208   4.365 -13.171  1.00  0.00     0.023 A 
ATOM     78  C   UNL     1      -2.918   4.947 -14.250  1.00  0.00     0.012 A 
ATOM     79  C   UNL     1      -2.970   4.005 -12.037  1.00  0.00     0.148 A 
ATOM     80  C   UNL     1      -4.287   5.226 -14.174  1.00  0.00     0.002 A 
ATOM     81  C   UNL     1      -4.346   4.211 -11.997  1.00  0.00     0.091 A 
ATOM     82  F   UNL     1      -2.365   3.584 -10.925  1.00  0.00    -0.205 F 
ATOM     83  C   UNL     1      -5.005   4.853 -13.046  1.00  0.00     0.022 A 
BRANCH  81  84
ATOM     84  S   UNL     1      -5.333   3.704 -10.581  1.00  0.00     0.127 S 
ATOM     85  O   UNL     1      -5.626   4.990  -9.956  1.00  0.00    -0.237 OA
ATOM     86  O   UNL     1      -6.472   3.054 -11.229  1.00  0.00    -0.237 OA
ATOM     87  O   UNL     1      -4.483   2.797  -9.819  1.00  0.00    -0.744 OA
ENDBRANCH  81  84
ENDBRANCH  63  77
BRANCH  64  88
ATOM     88  C   UNL     1       0.194   9.377  -6.825  1.00  0.00     0.023 A 
ATOM     89  C   UNL     1      -0.410  10.650  -6.828  1.00  0.00     0.012 A 
ATOM     90  C   UNL     1       0.021   8.556  -5.689  1.00  0.00     0.148 A 
ATOM     91  C   UNL     1      -1.205  11.073  -5.757  1.00  0.00     0.002 A 
ATOM     92  C   UNL     1      -0.769   8.982  -4.625  1.00  0.00     0.091 A 
ATOM     93  F   UNL     1       0.552   7.326  -5.696  1.00  0.00    -0.205 F 
ATOM     94  C   UNL     1      -1.396  10.234  -4.663  1.00  0.00     0.022 A 
BRANCH  92  95
ATOM     95  S   UNL     1      -1.089   7.947  -3.190  1.00  0.00     0.127 S 
ATOM     96  O   UNL     1      -0.798   8.863  -2.086  1.00  0.00    -0.237 OA
ATOM     97  O   UNL     1      -2.502   7.623  -3.361  1.00  0.00    -0.237 OA
ATOM     98  O   UNL     1      -0.165   6.825  -3.295  1.00  0.00    -0.744 OA
ENDBRANCH  92  95
ENDBRANCH  64  88
BRANCH  76  99
ATOM     99  C   UNL     1       2.229   9.457 -12.758  1.00  0.00     0.023 A 
ATOM    100  C   UNL     1       3.314   9.286 -11.874  1.00  0.00     0.012 A 
ATOM    101  C   UNL     1       2.411  10.225 -13.920  1.00  0.00     0.148 A 
ATOM    102  C   UNL     1       4.549   9.886 -12.138  1.00  0.00     0.002 A 
ATOM    103  C   UNL     1       3.652  10.777 -14.204  1.00  0.00     0.091 A 
ATOM    104  F   UNL     1       1.365  10.378 -14.747  1.00  0.00    -0.205 F 
ATOM    105  C   UNL     1       4.723  10.619 -13.310  1.00  0.00     0.022 A 
BRANCH 103 106
ATOM    106  S   UNL     1       3.966  11.614 -15.759  1.00  0.00     0.127 S 
ATOM    107  O   UNL     1       3.984  13.017 -15.352  1.00  0.00    -0.237 OA
ATOM    108  O   UNL     1       5.269  11.072 -16.149  1.00  0.00    -0.237 OA
ATOM    109  O   UNL     1       2.876  11.230 -16.647  1.00  0.00    -0.744 OA
ENDBRANCH 103 106
ENDBRANCH  76  99
ENDBRANCH  50  51
ENDBRANCH  42  45
ENDBRANCH  40  41
ENDBRANCH  39  40
ENDBRANCH  38  39
ENDBRANCH   1  38
TORSDOF 22
