REMARK SMILES COc1cc(/C=N/[NH+]=C2\NC(=O)[C@@H](CC(=O)NCCCCCCNC(=O)c3ccc(-c4c5nc(c(-c6cccc(S(=O)(=O)[O-])c6F)c6ccc([nH]6)c(-c6cccc(S(=O)(=O)[O-])c6F)c6nc(c(-c7cccc(S(=O)(=O)[O-])c7F)c7ccc4[nH]7)C=C6)C=C5)cc3)S2)cc(I)c1OC
REMARK SMILES IDX 20 1 19 2 18 3 17 4 15 5 16 6 14 8 13 9 8 10 9 11 10 13
REMARK SMILES IDX 90 14 11 15 12 17 7 18 6 19 5 20 3 21 4 22 94 23 92 24 91 25
REMARK SMILES IDX 93 26 2 27 1 28 95 29 96 30 21 31 22 32 23 33 24 34 25 35
REMARK SMILES IDX 26 37 27 38 28 39 89 40 29 41 88 42 30 43 31 44 32 45 82 46
REMARK SMILES IDX 33 47 87 48 81 49 83 50 34 51 86 52 80 53 79 54 35 56 67 57
REMARK SMILES IDX 47 58 66 59 48 60 51 61 65 62 84 63 49 64 50 65 64 67 85 68
REMARK SMILES IDX 52 69 36 70 37 71 45 72 38 73 40 74 46 75 39 76 41 77 42 78
REMARK SMILES IDX 43 79 44 80 68 81 69 82 77 83 70 84 72 85 78 86 71 87 73 88
REMARK SMILES IDX 74 89 75 90 76 91 53 92 54 93 62 94 55 95 57 96 63 97 56 98
REMARK SMILES IDX 58 99 59 100 60 101 61 102
REMARK H PARENT 17 7 8 12 10 16 24 36 83 55 51 66
REMARK Flexibility Score: inf
ROOT
ATOM      1  C   UNL     1       6.694  10.664   6.106  1.00  0.00     0.002 C 
ENDROOT
BRANCH   1   2
ATOM      2  C   UNL     1       7.274   9.664   5.099  1.00  0.00     0.021 C 
BRANCH   2   3
ATOM      3  C   UNL     1       8.065   8.516   5.728  1.00  0.00     0.116 C 
BRANCH   3   4
ATOM      4  N   UNL     1       7.205   7.644   6.507  1.00  0.00    -0.356 N 
ATOM      5  C   UNL     1       6.853   6.348   6.290  1.00  0.00     0.221 C 
ATOM      6  O   UNL     1       6.144   5.775   7.116  1.00  0.00    -0.275 OA
ATOM      7  H   UNL     1       6.817   8.053   7.314  1.00  0.00     0.163 HD
BRANCH   5   8
ATOM      8  C   UNL     1       7.369   5.623   5.068  1.00  0.00     0.127 C 
BRANCH   8   9
ATOM      9  C   UNL     1       6.737   6.146   3.791  1.00  0.00     0.183 C 
ATOM     10  N   UNL     1       5.872   4.045   0.680  1.00  0.00    -0.142 N 
ATOM     11  C   UNL     1       6.024   4.666   1.801  1.00  0.00     0.337 C 
ATOM     12  H   UNL     1       6.598   3.921   0.026  1.00  0.00     0.343 HD
ATOM     13  N   UNL     1       5.032   4.902   2.689  1.00  0.00    -0.202 N 
ATOM     14  S   UNL     1       7.515   5.370   2.324  1.00  0.00    -0.020 SA
ATOM     15  C   UNL     1       5.272   5.770   3.707  1.00  0.00     0.322 C 
ATOM     16  H   UNL     1       4.159   4.456   2.602  1.00  0.00     0.316 HD
ATOM     17  O   UNL     1       4.387   6.232   4.410  1.00  0.00    -0.246 OA
BRANCH  10  18
ATOM     18  N   UNL     1       4.569   3.565   0.486  1.00  0.00    -0.093 NA
ATOM     19  C   UNL     1       3.833   4.389  -0.192  1.00  0.00     0.166 C 
BRANCH  19  20
ATOM     20  C   UNL     1       2.415   4.081  -0.421  1.00  0.00     0.002 A 
ATOM     21  C   UNL     1       0.646   2.472  -0.670  1.00  0.00     0.162 A 
ATOM     22  C   UNL     1       2.008   2.762  -0.574  1.00  0.00     0.060 A 
ATOM     23  C   UNL     1      -0.330   3.499  -0.614  1.00  0.00     0.174 A 
ATOM     24  C   UNL     1       0.106   4.829  -0.459  1.00  0.00     0.060 A 
ATOM     25  C   UNL     1       1.482   5.115  -0.386  1.00  0.00     0.028 A 
ATOM     26  I   UNL     1      -1.111   6.523  -0.152  1.00  0.00    -0.040 I 
BRANCH  21  27
ATOM     27  O   UNL     1       0.206   1.185  -0.888  1.00  0.00    -0.493 OA
ATOM     28  C   UNL     1       0.824   0.206  -0.057  1.00  0.00     0.278 C 
ENDBRANCH  21  27
BRANCH  23  29
ATOM     29  O   UNL     1      -1.613   3.018  -0.585  1.00  0.00    -0.492 OA
ATOM     30  C   UNL     1      -2.657   3.744  -1.207  1.00  0.00     0.278 C 
ENDBRANCH  23  29
ENDBRANCH  19  20
ENDBRANCH  10  18
ENDBRANCH   8   9
ENDBRANCH   5   8
ENDBRANCH   3   4
ENDBRANCH   2   3
ENDBRANCH   1   2
BRANCH   1  31
ATOM     31  C   UNL     1       7.717  11.317   7.040  1.00  0.00     0.002 C 
BRANCH  31  32
ATOM     32  C   UNL     1       8.896  11.999   6.341  1.00  0.00     0.021 C 
BRANCH  32  33
ATOM     33  C   UNL     1       8.511  13.106   5.364  1.00  0.00     0.116 C 
BRANCH  33  34
ATOM     34  N   UNL     1       7.847  14.217   6.028  1.00  0.00    -0.352 N 
ATOM     35  C   UNL     1       8.145  15.556   5.986  1.00  0.00     0.251 C 
ATOM     36  H   UNL     1       7.074  13.973   6.586  1.00  0.00     0.163 HD
ATOM     37  O   UNL     1       7.589  16.332   6.759  1.00  0.00    -0.269 OA
BRANCH  35  38
ATOM     38  C   UNL     1       9.145  16.061   5.020  1.00  0.00     0.039 A 
ATOM     39  C   UNL     1      10.111  16.971   5.459  1.00  0.00     0.014 A 
ATOM     40  C   UNL     1       9.126  15.647   3.685  1.00  0.00     0.014 A 
ATOM     41  C   UNL     1      11.091  17.424   4.572  1.00  0.00     0.010 A 
ATOM     42  C   UNL     1      10.142  16.047   2.821  1.00  0.00     0.010 A 
ATOM     43  C   UNL     1      11.131  16.944   3.252  1.00  0.00    -0.014 A 
BRANCH  43  44
ATOM     44  C   UNL     1      12.204  17.359   2.313  1.00  0.00     0.031 A 
ATOM     45  C   UNL     1      11.867  18.136   1.069  1.00  0.00     0.074 A 
ATOM     46  C   UNL     1      13.471  16.956   2.532  1.00  0.00     0.049 A 
ATOM     47  N   UNL     1      12.657  18.532   0.105  1.00  0.00    -0.248 NA
ATOM     48  C   UNL     1      10.452  18.491   0.868  1.00  0.00     0.031 C 
ATOM     49  C   UNL     1      13.913  16.129   3.656  1.00  0.00     0.029 A 
ATOM     50  N   UNL     1      14.616  17.162   1.802  1.00  0.00    -0.354 N 
ATOM     51  C   UNL     1      11.835  19.147  -0.832  1.00  0.00     0.074 A 
ATOM     52  C   UNL     1      10.480  19.045  -0.336  1.00  0.00     0.031 C 
ATOM     53  C   UNL     1      15.231  15.898   3.542  1.00  0.00     0.029 A 
ATOM     54  C   UNL     1      15.724  16.537   2.325  1.00  0.00     0.049 A 
ATOM     55  H   UNL     1      14.641  17.706   0.982  1.00  0.00     0.167 HD
ATOM     56  C   UNL     1      12.179  19.768  -1.986  1.00  0.00     0.034 A 
ATOM     57  C   UNL     1      16.993  16.481   1.875  1.00  0.00     0.034 A 
ATOM     58  C   UNL     1      13.532  19.913  -2.450  1.00  0.00     0.049 A 
ATOM     59  C   UNL     1      17.358  17.225   0.619  1.00  0.00     0.074 A 
ATOM     60  C   UNL     1      13.992  20.609  -3.555  1.00  0.00     0.029 A 
ATOM     61  N   UNL     1      14.643  19.352  -1.841  1.00  0.00    -0.354 N 
ATOM     62  N   UNL     1      16.592  17.944  -0.165  1.00  0.00    -0.248 NA
ATOM     63  C   UNL     1      18.768  17.182   0.206  1.00  0.00     0.031 C 
ATOM     64  C   UNL     1      15.381  20.453  -3.622  1.00  0.00     0.029 A 
ATOM     65  C   UNL     1      15.788  19.677  -2.548  1.00  0.00     0.049 A 
ATOM     66  H   UNL     1      14.621  18.802  -1.024  1.00  0.00     0.167 HD
ATOM     67  C   UNL     1      17.431  18.467  -1.142  1.00  0.00     0.074 A 
ATOM     68  C   UNL     1      18.768  17.999  -0.839  1.00  0.00     0.031 C 
ATOM     69  C   UNL     1      17.120  19.251  -2.204  1.00  0.00     0.034 A 
BRANCH  56  70
ATOM     70  C   UNL     1      11.076  20.394  -2.799  1.00  0.00     0.023 A 
ATOM     71  C   UNL     1      10.448  21.566  -2.329  1.00  0.00     0.012 A 
ATOM     72  C   UNL     1      10.698  19.862  -4.047  1.00  0.00     0.148 A 
ATOM     73  C   UNL     1       9.440  22.179  -3.070  1.00  0.00     0.002 A 
ATOM     74  C   UNL     1       9.721  20.503  -4.801  1.00  0.00     0.091 A 
ATOM     75  F   UNL     1      11.289  18.734  -4.468  1.00  0.00    -0.205 F 
ATOM     76  C   UNL     1       9.084  21.654  -4.309  1.00  0.00     0.022 A 
BRANCH  74  77
ATOM     77  S   UNL     1       9.247  19.947  -6.442  1.00  0.00     0.127 S 
ATOM     78  O   UNL     1       7.933  19.360  -6.186  1.00  0.00    -0.237 OA
ATOM     79  O   UNL     1       9.217  21.201  -7.197  1.00  0.00    -0.237 OA
ATOM     80  O   UNL     1      10.281  19.012  -6.862  1.00  0.00    -0.744 OA
ENDBRANCH  74  77
ENDBRANCH  56  70
BRANCH  57  81
ATOM     81  C   UNL     1      18.027  15.753   2.663  1.00  0.00     0.023 A 
ATOM     82  C   UNL     1      19.017  16.487   3.344  1.00  0.00     0.012 A 
ATOM     83  C   UNL     1      18.014  14.349   2.774  1.00  0.00     0.148 A 
ATOM     84  C   UNL     1      19.994  15.835   4.098  1.00  0.00     0.002 A 
ATOM     85  C   UNL     1      18.957  13.709   3.571  1.00  0.00     0.091 A 
ATOM     86  F   UNL     1      17.071  13.668   2.108  1.00  0.00    -0.205 F 
ATOM     87  C   UNL     1      19.957  14.449   4.220  1.00  0.00     0.022 A 
BRANCH  85  88
ATOM     88  S   UNL     1      18.902  11.943   3.893  1.00  0.00     0.127 S 
ATOM     89  O   UNL     1      20.035  11.460   3.108  1.00  0.00    -0.237 OA
ATOM     90  O   UNL     1      19.090  11.893   5.343  1.00  0.00    -0.237 OA
ATOM     91  O   UNL     1      17.586  11.505   3.446  1.00  0.00    -0.744 OA
ENDBRANCH  85  88
ENDBRANCH  57  81
BRANCH  69  92
ATOM     92  C   UNL     1      18.245  19.683  -3.108  1.00  0.00     0.023 A 
ATOM     93  C   UNL     1      18.831  18.752  -3.987  1.00  0.00     0.012 A 
ATOM     94  C   UNL     1      18.666  21.027  -3.141  1.00  0.00     0.148 A 
ATOM     95  C   UNL     1      19.840  19.145  -4.866  1.00  0.00     0.002 A 
ATOM     96  C   UNL     1      19.640  21.421  -4.052  1.00  0.00     0.091 A 
ATOM     97  F   UNL     1      18.110  21.894  -2.282  1.00  0.00    -0.205 F 
ATOM     98  C   UNL     1      20.235  20.480  -4.907  1.00  0.00     0.022 A 
BRANCH  96  99
ATOM     99  S   UNL     1      20.141  23.136  -4.238  1.00  0.00     0.127 S 
ATOM    100  O   UNL     1      21.453  23.135  -3.594  1.00  0.00    -0.237 OA
ATOM    101  O   UNL     1      20.176  23.295  -5.693  1.00  0.00    -0.237 OA
ATOM    102  O   UNL     1      19.116  23.927  -3.571  1.00  0.00    -0.744 OA
ENDBRANCH  96  99
ENDBRANCH  69  92
ENDBRANCH  43  44
ENDBRANCH  35  38
ENDBRANCH  33  34
ENDBRANCH  32  33
ENDBRANCH  31  32
ENDBRANCH   1  31
TORSDOF 21
