REMARK SMILES O=C(NCCCCCCNC(=O)[C@H]1CC[C@H]2CCCC[C@@H]2N1C(=O)c1ccn[nH]1)c1ccc(-c2c3nc(c(-c4cccc(S(=O)(=O)[O-])c4F)c4ccc([nH]4)c(-c4cccc(S(=O)(=O)[O-])c4F)c4nc(c(-c5cccc(S(=O)(=O)[O-])c5F)c5ccc2[nH]5)C=C4)C=C3)cc1
REMARK SMILES IDX 6 1 5 2 4 3 3 4 1 5 2 6 30 8 31 9 92 10 32 11 91 12 33 13
REMARK SMILES IDX 34 14 35 15 85 16 36 17 90 18 84 19 86 20 37 21 89 22 83 23
REMARK SMILES IDX 82 24 38 26 70 27 50 28 69 29 51 30 54 31 68 32 87 33 52 34
REMARK SMILES IDX 53 35 67 37 88 38 55 39 39 40 40 41 48 42 41 43 43 44 49 45
REMARK SMILES IDX 42 46 44 47 45 48 46 49 47 50 71 51 72 52 80 53 73 54 75 55
REMARK SMILES IDX 81 56 74 57 76 58 77 59 78 60 79 61 56 62 57 63 65 64 58 65
REMARK SMILES IDX 60 66 66 67 59 68 61 69 62 70 63 71 64 72 7 73 8 74 9 75
REMARK SMILES IDX 10 76 11 77 12 79 13 80 14 81 22 82 15 83 21 84 16 85 20 86
REMARK SMILES IDX 17 87 19 88 18 89 23 90 24 91 25 92 26 93 29 94 27 95 28 96
REMARK H PARENT 3 7 86 25 54 36 10 78 29 97
REMARK Flexibility Score: inf
ROOT
ATOM      1  C   UNL     1       3.906   3.780  -1.045  1.00  0.00     0.002 C 
ENDROOT
BRANCH   1   2
ATOM      2  C   UNL     1       4.366   2.385  -1.474  1.00  0.00     0.021 C 
BRANCH   2   3
ATOM      3  C   UNL     1       4.238   1.297  -0.412  1.00  0.00     0.116 C 
BRANCH   3   4
ATOM      4  N   UNL     1       2.859   1.019  -0.060  1.00  0.00    -0.352 N 
ATOM      5  O   UNL     1       0.986  -0.213   0.141  1.00  0.00    -0.269 OA
ATOM      6  C   UNL     1       2.200  -0.186  -0.034  1.00  0.00     0.251 C 
ATOM      7  H   UNL     1       2.321   1.803   0.197  1.00  0.00     0.163 HD
BRANCH   6   8
ATOM      8  C   UNL     1       2.952  -1.445  -0.245  1.00  0.00     0.039 A 
ATOM      9  C   UNL     1       4.147  -1.694   0.438  1.00  0.00     0.014 A 
ATOM     10  C   UNL     1       2.437  -2.400  -1.126  1.00  0.00     0.014 A 
ATOM     11  C   UNL     1       4.876  -2.850   0.162  1.00  0.00     0.010 A 
ATOM     12  C   UNL     1       3.140  -3.585  -1.358  1.00  0.00     0.010 A 
ATOM     13  C   UNL     1       4.376  -3.811  -0.733  1.00  0.00    -0.014 A 
BRANCH  13  14
ATOM     14  C   UNL     1       5.112  -5.084  -0.932  1.00  0.00     0.031 A 
ATOM     15  C   UNL     1       5.755  -5.420  -2.249  1.00  0.00     0.074 A 
ATOM     16  C   UNL     1       5.179  -5.956   0.093  1.00  0.00     0.049 A 
ATOM     17  N   UNL     1       6.461  -6.474  -2.571  1.00  0.00    -0.248 NA
ATOM     18  C   UNL     1       5.583  -4.457  -3.348  1.00  0.00     0.031 C 
ATOM     19  C   UNL     1       4.541  -5.765   1.398  1.00  0.00     0.029 A 
ATOM     20  N   UNL     1       5.802  -7.173   0.201  1.00  0.00    -0.354 N 
ATOM     21  C   UNL     1       6.789  -6.322  -3.912  1.00  0.00     0.074 A 
ATOM     22  C   UNL     1       6.202  -5.072  -4.348  1.00  0.00     0.031 C 
ATOM     23  C   UNL     1       4.820  -6.818   2.181  1.00  0.00     0.029 A 
ATOM     24  C   UNL     1       5.629  -7.770   1.428  1.00  0.00     0.049 A 
ATOM     25  H   UNL     1       6.322  -7.579  -0.529  1.00  0.00     0.167 HD
ATOM     26  C   UNL     1       7.528  -7.139  -4.700  1.00  0.00     0.034 A 
ATOM     27  C   UNL     1       6.072  -8.952   1.897  1.00  0.00     0.034 A 
ATOM     28  C   UNL     1       8.148  -8.357  -4.250  1.00  0.00     0.049 A 
ATOM     29  C   UNL     1       6.930  -9.812   1.014  1.00  0.00     0.074 A 
ATOM     30  C   UNL     1       8.980  -9.210  -4.955  1.00  0.00     0.029 A 
ATOM     31  N   UNL     1       8.005  -8.899  -2.982  1.00  0.00    -0.354 N 
ATOM     32  N   UNL     1       7.356  -9.574  -0.202  1.00  0.00    -0.248 NA
ATOM     33  C   UNL     1       7.392 -11.089   1.576  1.00  0.00     0.031 C 
ATOM     34  C   UNL     1       9.338 -10.270  -4.113  1.00  0.00     0.029 A 
ATOM     35  C   UNL     1       8.727 -10.076  -2.885  1.00  0.00     0.049 A 
ATOM     36  H   UNL     1       7.468  -8.504  -2.257  1.00  0.00     0.167 HD
ATOM     37  C   UNL     1       8.147 -10.662  -0.547  1.00  0.00     0.074 A 
ATOM     38  C   UNL     1       8.167 -11.546   0.601  1.00  0.00     0.031 C 
ATOM     39  C   UNL     1       8.778 -10.919  -1.718  1.00  0.00     0.034 A 
BRANCH  26  40
ATOM     40  C   UNL     1       7.772  -6.715  -6.123  1.00  0.00     0.023 A 
ATOM     41  C   UNL     1       8.758  -5.743  -6.387  1.00  0.00     0.012 A 
ATOM     42  C   UNL     1       7.103  -7.333  -7.197  1.00  0.00     0.148 A 
ATOM     43  C   UNL     1       9.067  -5.384  -7.698  1.00  0.00     0.002 A 
ATOM     44  C   UNL     1       7.436  -6.989  -8.503  1.00  0.00     0.091 A 
ATOM     45  F   UNL     1       6.152  -8.237  -6.923  1.00  0.00    -0.205 F 
ATOM     46  C   UNL     1       8.415  -6.014  -8.755  1.00  0.00     0.022 A 
BRANCH  44  47
ATOM     47  S   UNL     1       6.692  -7.790  -9.930  1.00  0.00     0.127 S 
ATOM     48  O   UNL     1       5.753  -6.765 -10.385  1.00  0.00    -0.237 OA
ATOM     49  O   UNL     1       7.843  -7.995 -10.810  1.00  0.00    -0.237 OA
ATOM     50  O   UNL     1       6.091  -9.017  -9.428  1.00  0.00    -0.744 OA
ENDBRANCH  44  47
ENDBRANCH  26  40
BRANCH  27  51
ATOM     51  C   UNL     1       5.769  -9.342   3.301  1.00  0.00     0.023 A 
ATOM     52  C   UNL     1       6.800  -9.321   4.259  1.00  0.00     0.012 A 
ATOM     53  C   UNL     1       4.460  -9.664   3.708  1.00  0.00     0.148 A 
ATOM     54  C   UNL     1       6.535  -9.625   5.595  1.00  0.00     0.002 A 
ATOM     55  C   UNL     1       4.193  -9.912   5.050  1.00  0.00     0.091 A 
ATOM     56  F   UNL     1       3.492  -9.704   2.781  1.00  0.00    -0.205 F 
ATOM     57  C   UNL     1       5.230  -9.906   5.994  1.00  0.00     0.022 A 
BRANCH  55  58
ATOM     58  S   UNL     1       2.507 -10.127   5.631  1.00  0.00     0.127 S 
ATOM     59  O   UNL     1       2.330 -11.572   5.523  1.00  0.00    -0.237 OA
ATOM     60  O   UNL     1       2.573  -9.617   7.002  1.00  0.00    -0.237 OA
ATOM     61  O   UNL     1       1.704  -9.306   4.734  1.00  0.00    -0.744 OA
ENDBRANCH  55  58
ENDBRANCH  27  51
BRANCH  39  62
ATOM     62  C   UNL     1       9.543 -12.209  -1.822  1.00  0.00     0.023 A 
ATOM     63  C   UNL     1       8.835 -13.411  -2.019  1.00  0.00     0.012 A 
ATOM     64  C   UNL     1      10.950 -12.229  -1.794  1.00  0.00     0.148 A 
ATOM     65  C   UNL     1       9.517 -14.618  -2.164  1.00  0.00     0.002 A 
ATOM     66  C   UNL     1      11.624 -13.432  -1.975  1.00  0.00     0.091 A 
ATOM     67  F   UNL     1      11.606 -11.079  -1.580  1.00  0.00    -0.205 F 
ATOM     68  C   UNL     1      10.910 -14.628  -2.154  1.00  0.00     0.022 A 
BRANCH  66  69
ATOM     69  S   UNL     1      13.418 -13.505  -2.051  1.00  0.00     0.127 S 
ATOM     70  O   UNL     1      13.763 -13.860  -0.677  1.00  0.00    -0.237 OA
ATOM     71  O   UNL     1      13.655 -14.565  -3.033  1.00  0.00    -0.237 OA
ATOM     72  O   UNL     1      13.840 -12.181  -2.491  1.00  0.00    -0.744 OA
ENDBRANCH  66  69
ENDBRANCH  39  62
ENDBRANCH  13  14
ENDBRANCH   6   8
ENDBRANCH   3   4
ENDBRANCH   2   3
ENDBRANCH   1   2
BRANCH   1  73
ATOM     73  C   UNL     1       4.534   4.319   0.243  1.00  0.00     0.002 C 
BRANCH  73  74
ATOM     74  C   UNL     1       6.064   4.250   0.322  1.00  0.00     0.021 C 
BRANCH  74  75
ATOM     75  C   UNL     1       6.802   5.056  -0.745  1.00  0.00     0.116 C 
BRANCH  75  76
ATOM     76  N   UNL     1       6.608   6.477  -0.559  1.00  0.00    -0.354 N 
ATOM     77  C   UNL     1       7.481   7.444  -0.150  1.00  0.00     0.242 C 
ATOM     78  H   UNL     1       5.700   6.800  -0.761  1.00  0.00     0.163 HD
ATOM     79  O   UNL     1       7.079   8.611  -0.211  1.00  0.00    -0.273 OA
BRANCH  77  80
ATOM     80  C   UNL     1       8.975   7.112   0.117  1.00  0.00     0.175 C 
ATOM     81  C   UNL     1       9.771   8.352   0.567  1.00  0.00     0.036 C 
ATOM     82  N   UNL     1       9.346   5.962   0.964  1.00  0.00    -0.322 N 
ATOM     83  C   UNL     1      11.250   8.033   0.858  1.00  0.00     0.008 C 
ATOM     84  C   UNL     1      10.766   5.557   0.871  1.00  0.00     0.089 C 
ATOM     85  C   UNL     1      11.650   6.678   0.266  1.00  0.00     0.012 C 
ATOM     86  C   UNL     1      11.015   4.265   0.088  1.00  0.00     0.025 C 
ATOM     87  C   UNL     1      13.125   6.326   0.474  1.00  0.00     0.006 C 
ATOM     88  C   UNL     1      12.489   3.863   0.223  1.00  0.00     0.002 C 
ATOM     89  C   UNL     1      13.450   4.983  -0.188  1.00  0.00     0.000 C 
BRANCH  82  90
ATOM     90  C   UNL     1       8.674   5.823   2.191  1.00  0.00     0.272 C 
ATOM     91  O   UNL     1       7.831   6.633   2.567  1.00  0.00    -0.267 OA
BRANCH  90  92
ATOM     92  C   UNL     1       9.005   4.665   2.980  1.00  0.00     0.123 A 
ATOM     93  C   UNL     1       9.483   4.570   4.272  1.00  0.00     0.055 A 
ATOM     94  N   UNL     1       8.823   3.373   2.573  1.00  0.00    -0.273 N 
ATOM     95  C   UNL     1       9.630   3.191   4.506  1.00  0.00     0.135 A 
ATOM     96  N   UNL     1       9.242   2.458   3.461  1.00  0.00    -0.183 NA
ATOM     97  H   UNL     1       8.421   3.135   1.706  1.00  0.00     0.190 HD
ENDBRANCH  90  92
ENDBRANCH  82  90
ENDBRANCH  77  80
ENDBRANCH  75  76
ENDBRANCH  74  75
ENDBRANCH  73  74
ENDBRANCH   1  73
TORSDOF 18
