REMARK SMILES CC[C@](C)(NS(=O)(=O)c1ccc(C(=O)OC)cc1)C(=O)NCCCCCCNC(=O)c1ccc(-c2c3nc(c(-c4cccc(S(=O)(=O)[O-])c4F)c4ccc([nH]4)c(-c4cccc(S(=O)(=O)[O-])c4F)c4nc(c(-c5cccc(S(=O)(=O)[O-])c5F)c5ccc2[nH]5)C=C4)C=C3)cc1
REMARK SMILES IDX 23 1 22 2 21 3 19 4 20 5 3 7 4 8 2 9 1 10 5 11 6 13 7 14
REMARK SMILES IDX 8 15 9 16 10 17 18 18 11 19 17 20 12 21 13 22 14 23 15 24
REMARK SMILES IDX 16 25 24 26 25 27 26 28 27 29 28 30 29 31 30 33 31 34 32 35
REMARK SMILES IDX 93 36 33 37 92 38 34 39 35 40 36 41 86 42 37 43 91 44 85 45
REMARK SMILES IDX 87 46 38 47 90 48 84 49 83 50 39 52 71 53 51 54 70 55 52 56
REMARK SMILES IDX 55 57 69 58 88 59 53 60 54 61 68 63 89 64 56 65 40 66 41 67
REMARK SMILES IDX 49 68 42 69 44 70 50 71 43 72 45 73 46 74 47 75 48 76 72 77
REMARK SMILES IDX 73 78 81 79 74 80 76 81 82 82 75 83 77 84 78 85 79 86 80 87
REMARK SMILES IDX 57 88 58 89 66 90 59 91 61 92 67 93 60 94 62 95 63 96 64 97
REMARK SMILES IDX 65 98
REMARK H PARENT 21 6 5 12 28 32 87 51 55 62
REMARK Flexibility Score: inf
ROOT
ATOM      1  C   UNL     1       2.909  -5.155   3.378  1.00  0.00     0.021 C 
ENDROOT
BRANCH   1   2
ATOM      2  C   UNL     1       2.256  -3.778   3.375  1.00  0.00     0.116 C 
BRANCH   2   3
ATOM      3  N   UNL     1       2.853  -2.860   2.420  1.00  0.00    -0.354 N 
ATOM      4  C   UNL     1       2.392  -2.144   1.366  1.00  0.00     0.241 C 
ATOM      5  O   UNL     1       3.227  -1.365   0.878  1.00  0.00    -0.273 OA
ATOM      6  H   UNL     1       3.816  -2.727   2.575  1.00  0.00     0.163 HD
BRANCH   4   7
ATOM      7  C   UNL     1       0.971  -2.246   0.764  1.00  0.00     0.108 C 
ATOM      8  C   UNL     1       0.825  -1.086  -0.288  1.00  0.00     0.040 C 
BRANCH   7   9
ATOM      9  C   UNL     1      -0.124  -1.983   1.830  1.00  0.00     0.030 C 
ATOM     10  C   UNL     1       0.091  -0.677   2.609  1.00  0.00     0.006 C 
ENDBRANCH   7   9
BRANCH   7  11
ATOM     11  N   UNL     1       0.667  -3.416  -0.092  1.00  0.00    -0.196 NA
ATOM     12  H   UNL     1       0.872  -3.074  -1.031  1.00  0.00     0.142 HD
BRANCH  11  13
ATOM     13  S   UNL     1       1.214  -4.977  -0.132  1.00  0.00     0.241 S 
ATOM     14  O   UNL     1       0.824  -5.585   1.118  1.00  0.00    -0.207 OA
ATOM     15  O   UNL     1       0.702  -5.493  -1.385  1.00  0.00    -0.207 OA
BRANCH  13  16
ATOM     16  C   UNL     1       2.990  -5.051  -0.282  1.00  0.00     0.082 A 
ATOM     17  C   UNL     1       3.619  -6.252   0.077  1.00  0.00     0.022 A 
ATOM     18  C   UNL     1       3.770  -3.942  -0.596  1.00  0.00     0.022 A 
ATOM     19  C   UNL     1       5.003  -6.289   0.288  1.00  0.00     0.017 A 
ATOM     20  C   UNL     1       5.148  -3.958  -0.320  1.00  0.00     0.017 A 
ATOM     21  C   UNL     1       5.762  -5.117   0.174  1.00  0.00     0.060 A 
BRANCH  21  22
ATOM     22  C   UNL     1       7.163  -5.138   0.686  1.00  0.00     0.337 C 
ATOM     23  O   UNL     1       7.732  -6.160   1.044  1.00  0.00    -0.246 OA
BRANCH  22  24
ATOM     24  O   UNL     1       7.665  -3.881   0.787  1.00  0.00    -0.465 OA
ATOM     25  C   UNL     1       8.958  -3.817   1.398  1.00  0.00     0.282 C 
ENDBRANCH  22  24
ENDBRANCH  21  22
ENDBRANCH  13  16
ENDBRANCH  11  13
ENDBRANCH   7  11
ENDBRANCH   4   7
ENDBRANCH   2   3
ENDBRANCH   1   2
BRANCH   1  26
ATOM     26  C   UNL     1       4.428  -5.188   3.549  1.00  0.00     0.002 C 
BRANCH  26  27
ATOM     27  C   UNL     1       4.908  -5.286   4.990  1.00  0.00     0.002 C 
BRANCH  27  28
ATOM     28  C   UNL     1       4.329  -6.467   5.771  1.00  0.00     0.021 C 
BRANCH  28  29
ATOM     29  C   UNL     1       4.358  -7.802   5.032  1.00  0.00     0.116 C 
BRANCH  29  30
ATOM     30  N   UNL     1       5.717  -8.286   4.837  1.00  0.00    -0.352 N 
ATOM     31  C   UNL     1       6.312  -9.374   5.428  1.00  0.00     0.251 C 
ATOM     32  H   UNL     1       6.275  -7.773   4.209  1.00  0.00     0.163 HD
ATOM     33  O   UNL     1       7.526  -9.539   5.381  1.00  0.00    -0.269 OA
BRANCH  31  34
ATOM     34  C   UNL     1       5.451 -10.340   6.140  1.00  0.00     0.039 A 
ATOM     35  C   UNL     1       5.744 -10.679   7.461  1.00  0.00     0.014 A 
ATOM     36  C   UNL     1       4.317 -10.855   5.504  1.00  0.00     0.014 A 
ATOM     37  C   UNL     1       4.867 -11.509   8.162  1.00  0.00     0.010 A 
ATOM     38  C   UNL     1       3.403 -11.605   6.233  1.00  0.00     0.010 A 
ATOM     39  C   UNL     1       3.679 -11.961   7.562  1.00  0.00    -0.014 A 
BRANCH  39  40
ATOM     40  C   UNL     1       2.736 -12.848   8.291  1.00  0.00     0.031 A 
ATOM     41  C   UNL     1       2.460 -14.232   7.762  1.00  0.00     0.074 A 
ATOM     42  C   UNL     1       2.090 -12.398   9.385  1.00  0.00     0.049 A 
ATOM     43  N   UNL     1       1.636 -15.140   8.216  1.00  0.00    -0.248 NA
ATOM     44  C   UNL     1       3.184 -14.641   6.544  1.00  0.00     0.031 C 
ATOM     45  C   UNL     1       2.210 -11.052   9.949  1.00  0.00     0.029 A 
ATOM     46  N   UNL     1       1.182 -13.020  10.206  1.00  0.00    -0.354 N 
ATOM     47  C   UNL     1       1.725 -16.209   7.332  1.00  0.00     0.074 A 
ATOM     48  C   UNL     1       2.637 -15.818   6.282  1.00  0.00     0.031 C 
ATOM     49  C   UNL     1       1.410 -10.951  11.024  1.00  0.00     0.029 A 
ATOM     50  C   UNL     1       0.700 -12.212  11.211  1.00  0.00     0.049 A 
ATOM     51  H   UNL     1       0.902 -13.956  10.087  1.00  0.00     0.167 HD
ATOM     52  C   UNL     1       1.137 -17.427   7.408  1.00  0.00     0.034 A 
ATOM     53  C   UNL     1      -0.216 -12.461  12.168  1.00  0.00     0.034 A 
ATOM     54  C   UNL     1       0.263 -17.829   8.474  1.00  0.00     0.049 A 
ATOM     55  C   UNL     1      -0.826 -13.837  12.250  1.00  0.00     0.074 A 
ATOM     56  C   UNL     1      -0.348 -19.055   8.670  1.00  0.00     0.029 A 
ATOM     57  N   UNL     1      -0.120 -17.016   9.529  1.00  0.00    -0.354 N 
ATOM     58  N   UNL     1      -0.627 -14.877  11.476  1.00  0.00    -0.248 NA
ATOM     59  C   UNL     1      -1.750 -14.090  13.365  1.00  0.00     0.031 C 
ATOM     60  C   UNL     1      -1.111 -18.978   9.839  1.00  0.00     0.029 A 
ATOM     61  C   UNL     1      -0.947 -17.716  10.387  1.00  0.00     0.049 A 
ATOM     62  H   UNL     1       0.157 -16.079   9.649  1.00  0.00     0.167 HD
ATOM     63  C   UNL     1      -1.359 -15.917  12.039  1.00  0.00     0.074 A 
ATOM     64  C   UNL     1      -1.990 -15.386  13.229  1.00  0.00     0.031 C 
ATOM     65  C   UNL     1      -1.506 -17.192  11.606  1.00  0.00     0.034 A 
BRANCH  52  66
ATOM     66  C   UNL     1       1.481 -18.437   6.344  1.00  0.00     0.023 A 
ATOM     67  C   UNL     1       2.774 -19.001   6.319  1.00  0.00     0.012 A 
ATOM     68  C   UNL     1       0.518 -18.878   5.416  1.00  0.00     0.148 A 
ATOM     69  C   UNL     1       3.113 -19.962   5.369  1.00  0.00     0.002 A 
ATOM     70  C   UNL     1       0.849 -19.872   4.503  1.00  0.00     0.091 A 
ATOM     71  F   UNL     1      -0.700 -18.318   5.445  1.00  0.00    -0.205 F 
ATOM     72  C   UNL     1       2.148 -20.406   4.470  1.00  0.00     0.022 A 
BRANCH  70  73
ATOM     73  S   UNL     1      -0.340 -20.575   3.355  1.00  0.00     0.127 S 
ATOM     74  O   UNL     1       0.205 -20.148   2.067  1.00  0.00    -0.237 OA
ATOM     75  O   UNL     1      -0.215 -22.007   3.626  1.00  0.00    -0.237 OA
ATOM     76  O   UNL     1      -1.630 -19.997   3.704  1.00  0.00    -0.744 OA
ENDBRANCH  70  73
ENDBRANCH  52  66
BRANCH  53  77
ATOM     77  C   UNL     1      -0.579 -11.410  13.163  1.00  0.00     0.023 A 
ATOM     78  C   UNL     1      -0.227 -11.578  14.517  1.00  0.00     0.012 A 
ATOM     79  C   UNL     1      -1.286 -10.256  12.778  1.00  0.00     0.148 A 
ATOM     80  C   UNL     1      -0.623 -10.645  15.477  1.00  0.00     0.002 A 
ATOM     81  C   UNL     1      -1.625  -9.301  13.730  1.00  0.00     0.091 A 
ATOM     82  F   UNL     1      -1.622 -10.115  11.488  1.00  0.00    -0.205 F 
ATOM     83  C   UNL     1      -1.315  -9.504  15.084  1.00  0.00     0.022 A 
BRANCH  81  84
ATOM     84  S   UNL     1      -2.400  -7.742  13.289  1.00  0.00     0.127 S 
ATOM     85  O   UNL     1      -3.770  -7.946  13.751  1.00  0.00    -0.237 OA
ATOM     86  O   UNL     1      -1.621  -6.782  14.072  1.00  0.00    -0.237 OA
ATOM     87  O   UNL     1      -2.227  -7.615  11.848  1.00  0.00    -0.744 OA
ENDBRANCH  81  84
ENDBRANCH  53  77
BRANCH  65  88
ATOM     88  C   UNL     1      -2.317 -18.132  12.458  1.00  0.00     0.023 A 
ATOM     89  C   UNL     1      -3.716 -17.990  12.540  1.00  0.00     0.012 A 
ATOM     90  C   UNL     1      -1.690 -19.203  13.126  1.00  0.00     0.148 A 
ATOM     91  C   UNL     1      -4.473 -18.874  13.308  1.00  0.00     0.002 A 
ATOM     92  C   UNL     1      -2.456 -20.111  13.844  1.00  0.00     0.091 A 
ATOM     93  F   UNL     1      -0.355 -19.311  13.049  1.00  0.00    -0.205 F 
ATOM     94  C   UNL     1      -3.845 -19.940  13.949  1.00  0.00     0.022 A 
BRANCH  92  95
ATOM     95  S   UNL     1      -1.745 -21.569  14.615  1.00  0.00     0.127 S 
ATOM     96  O   UNL     1      -1.800 -21.213  16.032  1.00  0.00    -0.237 OA
ATOM     97  O   UNL     1      -2.682 -22.620  14.213  1.00  0.00    -0.237 OA
ATOM     98  O   UNL     1      -0.408 -21.708  14.056  1.00  0.00    -0.744 OA
ENDBRANCH  92  95
ENDBRANCH  65  88
ENDBRANCH  39  40
ENDBRANCH  31  34
ENDBRANCH  29  30
ENDBRANCH  28  29
ENDBRANCH  27  28
ENDBRANCH  26  27
ENDBRANCH   1  26
TORSDOF 22
