REMARK SMILES Cc1c(Cl)cc2c(c1C)O[C@H](C(F)(F)F)C(C(=O)NCCCCCCNC(=O)c1ccc(-c3c4nc(c(-c5cccc(S(=O)(=O)[O-])c5F)c5ccc([nH]5)c(-c5cccc(S(=O)(=O)[O-])c5F)c5nc(c(-c6cccc(S(=O)(=O)[O-])c6F)c6ccc3[nH]6)C=C5)C=C4)cc1)=C2
REMARK SMILES IDX 23 1 22 2 21 3 20 4 19 5 17 6 18 7 16 9 1 10 2 11 3 12 8 13
REMARK SMILES IDX 4 14 5 15 7 16 9 17 6 18 10 19 92 20 11 21 12 22 13 23 14 24
REMARK SMILES IDX 15 25 24 26 25 27 26 28 27 29 28 31 29 32 30 33 91 34 31 35
REMARK SMILES IDX 90 36 32 37 33 38 34 39 84 40 35 41 89 42 83 43 85 44 36 45
REMARK SMILES IDX 88 46 82 47 81 48 37 50 69 51 49 52 68 53 50 54 53 55 67 56
REMARK SMILES IDX 86 57 51 58 52 59 66 61 87 62 54 63 38 64 39 65 47 66 40 67
REMARK SMILES IDX 42 68 48 69 41 70 43 71 44 72 45 73 46 74 70 75 71 76 79 77
REMARK SMILES IDX 72 78 74 79 80 80 73 81 75 82 76 83 77 84 78 85 55 86 56 87
REMARK SMILES IDX 64 88 57 89 59 90 65 91 58 92 60 93 61 94 62 95 63 96
REMARK H PARENT 19 8 26 30 85 49 53 60
REMARK Flexibility Score: inf
ROOT
ATOM      1  C   UNL     1       1.332 -11.904  -1.705  1.00  0.00     0.002 C 
ENDROOT
BRANCH   1   2
ATOM      2  C   UNL     1      -0.010 -11.219  -1.410  1.00  0.00     0.002 C 
BRANCH   2   3
ATOM      3  C   UNL     1       0.101  -9.801  -0.844  1.00  0.00     0.021 C 
BRANCH   3   4
ATOM      4  C   UNL     1       0.909  -8.859  -1.729  1.00  0.00     0.116 C 
BRANCH   4   5
ATOM      5  N   UNL     1       0.085  -8.253  -2.761  1.00  0.00    -0.352 N 
ATOM      6  C   UNL     1      -0.293  -7.005  -3.123  1.00  0.00     0.251 C 
ATOM      7  O   UNL     1      -1.017  -6.939  -4.122  1.00  0.00    -0.270 OA
ATOM      8  H   UNL     1      -0.303  -8.934  -3.358  1.00  0.00     0.163 HD
BRANCH   6   9
ATOM      9  C   UNL     1       0.096  -5.751  -2.412  1.00  0.00     0.067 C 
ATOM     10  C   UNL     1       0.913   0.339  -0.176  1.00  0.00     0.046 C 
ATOM     11  C   UNL     1       0.533  -0.936  -0.882  1.00  0.00    -0.026 A 
ATOM     12  C   UNL     1      -0.262  -0.942  -2.047  1.00  0.00     0.045 A 
ATOM     13  C   UNL     1       0.975  -2.175  -0.364  1.00  0.00    -0.004 A 
ATOM     14  Cl  UNL     1      -0.881   0.513  -2.752  1.00  0.00    -0.084 Cl
ATOM     15  C   UNL     1      -0.600  -2.139  -2.692  1.00  0.00     0.032 A 
ATOM     16  C   UNL     1       0.632  -3.363  -1.037  1.00  0.00     0.131 A 
ATOM     17  C   UNL     1       1.825  -2.295   0.880  1.00  0.00     0.049 C 
ATOM     18  C   UNL     1      -0.149  -3.357  -2.191  1.00  0.00     0.019 A 
ATOM     19  O   UNL     1       1.064  -4.527  -0.469  1.00  0.00    -0.475 OA
ATOM     20  C   UNL     1      -0.508  -4.621  -2.826  1.00  0.00     0.025 C 
ATOM     21  C   UNL     1       1.126  -5.694  -1.321  1.00  0.00     0.314 C 
BRANCH  21  22
ATOM     22  C   UNL     1       2.562  -5.864  -1.849  1.00  0.00     0.429 C 
ATOM     23  F   UNL     1       3.411  -6.154  -0.835  1.00  0.00    -0.167 F 
ATOM     24  F   UNL     1       2.669  -6.875  -2.743  1.00  0.00    -0.167 F 
ATOM     25  F   UNL     1       3.021  -4.749  -2.463  1.00  0.00    -0.167 F 
ENDBRANCH  21  22
ENDBRANCH   6   9
ENDBRANCH   4   5
ENDBRANCH   3   4
ENDBRANCH   2   3
ENDBRANCH   1   2
BRANCH   1  26
ATOM     26  C   UNL     1       2.347 -11.872  -0.559  1.00  0.00     0.021 C 
BRANCH  26  27
ATOM     27  C   UNL     1       1.849 -12.501   0.738  1.00  0.00     0.116 C 
BRANCH  27  28
ATOM     28  N   UNL     1       1.493 -13.899   0.553  1.00  0.00    -0.352 N 
ATOM     29  C   UNL     1       2.000 -15.008   1.177  1.00  0.00     0.251 C 
ATOM     30  H   UNL     1       0.789 -14.072  -0.114  1.00  0.00     0.163 HD
ATOM     31  O   UNL     1       1.753 -16.130   0.739  1.00  0.00    -0.269 OA
BRANCH  29  32
ATOM     32  C   UNL     1       2.850 -14.844   2.372  1.00  0.00     0.039 A 
ATOM     33  C   UNL     1       4.038 -15.570   2.466  1.00  0.00     0.014 A 
ATOM     34  C   UNL     1       2.467 -13.973   3.397  1.00  0.00     0.014 A 
ATOM     35  C   UNL     1       4.868 -15.388   3.573  1.00  0.00     0.010 A 
ATOM     36  C   UNL     1       3.330 -13.739   4.462  1.00  0.00     0.010 A 
ATOM     37  C   UNL     1       4.531 -14.455   4.568  1.00  0.00    -0.014 A 
BRANCH  37  38
ATOM     38  C   UNL     1       5.417 -14.230   5.737  1.00  0.00     0.031 A 
ATOM     39  C   UNL     1       4.939 -14.582   7.119  1.00  0.00     0.074 A 
ATOM     40  C   UNL     1       6.627 -13.665   5.557  1.00  0.00     0.049 A 
ATOM     41  N   UNL     1       5.556 -14.441   8.263  1.00  0.00    -0.248 NA
ATOM     42  C   UNL     1       3.585 -15.150   7.237  1.00  0.00     0.031 C 
ATOM     43  C   UNL     1       7.173 -13.230   4.270  1.00  0.00     0.029 A 
ATOM     44  N   UNL     1       7.613 -13.351   6.459  1.00  0.00    -0.354 N 
ATOM     45  C   UNL     1       4.666 -14.885   9.232  1.00  0.00     0.074 A 
ATOM     46  C   UNL     1       3.446 -15.254   8.551  1.00  0.00     0.031 C 
ATOM     47  C   UNL     1       8.403 -12.726   4.462  1.00  0.00     0.029 A 
ATOM     48  C   UNL     1       8.722 -12.774   5.886  1.00  0.00     0.049 A 
ATOM     49  H   UNL     1       7.534 -13.523   7.425  1.00  0.00     0.167 HD
ATOM     50  C   UNL     1       4.861 -15.015  10.565  1.00  0.00     0.034 A 
ATOM     51  C   UNL     1       9.868 -12.336   6.445  1.00  0.00     0.034 A 
ATOM     52  C   UNL     1       6.091 -14.684  11.230  1.00  0.00     0.049 A 
ATOM     53  C   UNL     1      10.057 -12.493   7.931  1.00  0.00     0.074 A 
ATOM     54  C   UNL     1       6.407 -14.831  12.569  1.00  0.00     0.029 A 
ATOM     55  N   UNL     1       7.207 -14.143  10.611  1.00  0.00    -0.354 N 
ATOM     56  N   UNL     1       9.254 -13.038   8.812  1.00  0.00    -0.248 NA
ATOM     57  C   UNL     1      11.323 -12.003   8.497  1.00  0.00     0.031 C 
ATOM     58  C   UNL     1       7.708 -14.359  12.763  1.00  0.00     0.029 A 
ATOM     59  C   UNL     1       8.212 -13.943  11.541  1.00  0.00     0.049 A 
ATOM     60  H   UNL     1       7.275 -13.933   9.652  1.00  0.00     0.167 HD
ATOM     61  C   UNL     1       9.927 -12.986  10.028  1.00  0.00     0.074 A 
ATOM     62  C   UNL     1      11.216 -12.379   9.765  1.00  0.00     0.031 C 
ATOM     63  C   UNL     1       9.510 -13.388  11.254  1.00  0.00     0.034 A 
BRANCH  50  64
ATOM     64  C   UNL     1       3.749 -15.610  11.388  1.00  0.00     0.023 A 
ATOM     65  C   UNL     1       3.466 -16.986  11.268  1.00  0.00     0.012 A 
ATOM     66  C   UNL     1       3.056 -14.843  12.345  1.00  0.00     0.148 A 
ATOM     67  C   UNL     1       2.496 -17.586  12.069  1.00  0.00     0.002 A 
ATOM     68  C   UNL     1       2.124 -15.458  13.173  1.00  0.00     0.091 A 
ATOM     69  F   UNL     1       3.327 -13.533  12.432  1.00  0.00    -0.205 F 
ATOM     70  C   UNL     1       1.836 -16.825  13.030  1.00  0.00     0.022 A 
BRANCH  68  71
ATOM     71  S   UNL     1       1.278 -14.591  14.500  1.00  0.00     0.127 S 
ATOM     72  O   UNL     1      -0.109 -14.624  14.037  1.00  0.00    -0.237 OA
ATOM     73  O   UNL     1       1.557 -15.449  15.652  1.00  0.00    -0.237 OA
ATOM     74  O   UNL     1       1.878 -13.266  14.564  1.00  0.00    -0.744 OA
ENDBRANCH  68  71
ENDBRANCH  50  64
BRANCH  51  75
ATOM     75  C   UNL     1      10.957 -11.790   5.585  1.00  0.00     0.023 A 
ATOM     76  C   UNL     1      12.150 -12.524   5.439  1.00  0.00     0.012 A 
ATOM     77  C   UNL     1      10.809 -10.576   4.885  1.00  0.00     0.148 A 
ATOM     78  C   UNL     1      13.187 -12.048   4.635  1.00  0.00     0.002 A 
ATOM     79  C   UNL     1      11.822 -10.136   4.040  1.00  0.00     0.091 A 
ATOM     80  F   UNL     1       9.673  -9.884   5.046  1.00  0.00    -0.205 F 
ATOM     81  C   UNL     1      13.019 -10.861   3.927  1.00  0.00     0.022 A 
BRANCH  79  82
ATOM     82  S   UNL     1      11.641  -8.694   2.984  1.00  0.00     0.127 S 
ATOM     83  O   UNL     1      12.586  -7.759   3.590  1.00  0.00    -0.237 OA
ATOM     84  O   UNL     1      12.046  -9.222   1.681  1.00  0.00    -0.237 OA
ATOM     85  O   UNL     1      10.237  -8.317   3.070  1.00  0.00    -0.744 OA
ENDBRANCH  79  82
ENDBRANCH  51  75
BRANCH  63  86
ATOM     86  C   UNL     1      10.450 -13.207  12.417  1.00  0.00     0.023 A 
ATOM     87  C   UNL     1      10.683 -11.914  12.927  1.00  0.00     0.012 A 
ATOM     88  C   UNL     1      11.000 -14.322  13.081  1.00  0.00     0.148 A 
ATOM     89  C   UNL     1      11.466 -11.732  14.066  1.00  0.00     0.002 A 
ATOM     90  C   UNL     1      11.734 -14.137  14.246  1.00  0.00     0.091 A 
ATOM     91  F   UNL     1      10.776 -15.543  12.571  1.00  0.00    -0.205 F 
ATOM     92  C   UNL     1      11.978 -12.843  14.733  1.00  0.00     0.022 A 
BRANCH  90  93
ATOM     93  S   UNL     1      12.340 -15.509  15.236  1.00  0.00     0.127 S 
ATOM     94  O   UNL     1      13.785 -15.399  15.043  1.00  0.00    -0.237 OA
ATOM     95  O   UNL     1      11.875 -15.150  16.576  1.00  0.00    -0.237 OA
ATOM     96  O   UNL     1      11.729 -16.709  14.681  1.00  0.00    -0.744 OA
ENDBRANCH  90  93
ENDBRANCH  63  86
ENDBRANCH  37  38
ENDBRANCH  29  32
ENDBRANCH  27  28
ENDBRANCH  26  27
ENDBRANCH   1  26
TORSDOF 17
