REMARK SMILES CC1(C)[C@H]2CC[C@]1(C)[C@](O)(CC(=O)NCCCCCCNC(=O)c1ccc(-c3c4nc(c(-c5cccc(S(=O)(=O)[O-])c5F)c5ccc([nH]5)c(-c5cccc(S(=O)(=O)[O-])c5F)c5nc(c(-c6cccc(S(=O)(=O)[O-])c6F)c6ccc3[nH]6)C=C5)C=C4)cc1)C2
REMARK SMILES IDX 18 1 17 2 16 3 15 4 14 5 12 6 13 7 11 9 9 10 1 11 2 12 3 13
REMARK SMILES IDX 4 14 7 15 5 16 87 17 6 18 8 19 10 20 19 22 20 23 21 24 22 25
REMARK SMILES IDX 23 27 24 28 25 29 86 30 26 31 85 32 27 33 28 34 29 35 79 36
REMARK SMILES IDX 30 37 84 38 78 39 80 40 31 41 83 42 77 43 76 44 32 46 64 47
REMARK SMILES IDX 44 48 63 49 45 50 48 51 62 52 81 53 46 54 47 55 61 57 82 58
REMARK SMILES IDX 49 59 33 60 34 61 42 62 35 63 37 64 43 65 36 66 38 67 39 68
REMARK SMILES IDX 40 69 41 70 65 71 66 72 74 73 67 74 69 75 75 76 68 77 70 78
REMARK SMILES IDX 71 79 72 80 73 81 50 82 51 83 59 84 52 85 54 86 60 87 53 88
REMARK SMILES IDX 55 89 56 90 57 91 58 92
REMARK H PARENT 14 8 10 21 21 26 80 45 48 56
REMARK Flexibility Score: inf
ROOT
ATOM      1  C   UNL     1       6.902  -2.011  -3.214  1.00  0.00     0.002 C 
ENDROOT
BRANCH   1   2
ATOM      2  C   UNL     1       5.559  -2.551  -2.729  1.00  0.00     0.002 C 
BRANCH   2   3
ATOM      3  C   UNL     1       4.365  -1.625  -2.938  1.00  0.00     0.021 C 
BRANCH   3   4
ATOM      4  C   UNL     1       3.741  -1.606  -4.339  1.00  0.00     0.116 C 
BRANCH   4   5
ATOM      5  N   UNL     1       2.587  -2.499  -4.436  1.00  0.00    -0.356 N 
ATOM      6  C   UNL     1       1.236  -2.248  -4.475  1.00  0.00     0.222 C 
ATOM      7  O   UNL     1       0.479  -3.220  -4.442  1.00  0.00    -0.275 OA
ATOM      8  H   UNL     1       2.820  -3.455  -4.482  1.00  0.00     0.163 HD
BRANCH   6   9
ATOM      9  C   UNL     1       0.709  -0.826  -4.630  1.00  0.00     0.135 C 
BRANCH   9  10
ATOM     10  C   UNL     1      -0.140  -0.135  -3.508  1.00  0.00     0.080 C 
ATOM     11  C   UNL     1      -0.119   0.497   0.402  1.00  0.00     0.012 C 
ATOM     12  C   UNL     1      -0.375   0.658  -1.122  1.00  0.00    -0.024 C 
ATOM     13  C   UNL     1      -1.751   1.332  -1.225  1.00  0.00     0.012 C 
ATOM     14  C   UNL     1       0.765   1.408  -1.843  1.00  0.00    -0.002 C 
ATOM     15  C   UNL     1      -0.132  -0.635  -1.997  1.00  0.00     0.002 C 
ATOM     16  C   UNL     1       1.978   0.461  -1.674  1.00  0.00     0.005 C 
ATOM     17  C   UNL     1       0.356   1.343  -3.332  1.00  0.00     0.040 C 
ATOM     18  C   UNL     1       1.319  -0.927  -1.600  1.00  0.00     0.010 C 
ATOM     19  C   UNL     1      -1.073  -1.794  -1.703  1.00  0.00     0.015 C 
BRANCH  10  20
ATOM     20  O   UNL     1      -1.495  -0.155  -3.985  1.00  0.00    -0.389 OA
ATOM     21  H   UNL     1      -2.075   0.263  -3.329  1.00  0.00     0.211 HD
ENDBRANCH  10  20
ENDBRANCH   9  10
ENDBRANCH   6   9
ENDBRANCH   4   5
ENDBRANCH   3   4
ENDBRANCH   2   3
ENDBRANCH   1   2
BRANCH   1  22
ATOM     22  C   UNL     1       7.258  -0.580  -2.789  1.00  0.00     0.021 C 
BRANCH  22  23
ATOM     23  C   UNL     1       7.067  -0.242  -1.310  1.00  0.00     0.116 C 
BRANCH  23  24
ATOM     24  N   UNL     1       7.912  -1.040  -0.439  1.00  0.00    -0.352 N 
ATOM     25  C   UNL     1       9.023  -0.676   0.280  1.00  0.00     0.251 C 
ATOM     26  H   UNL     1       7.648  -1.985  -0.352  1.00  0.00     0.163 HD
ATOM     27  O   UNL     1       9.714  -1.539   0.814  1.00  0.00    -0.269 OA
BRANCH  25  28
ATOM     28  C   UNL     1       9.403   0.749   0.400  1.00  0.00     0.039 A 
ATOM     29  C   UNL     1      10.732   1.111   0.162  1.00  0.00     0.014 A 
ATOM     30  C   UNL     1       8.469   1.719   0.776  1.00  0.00     0.014 A 
ATOM     31  C   UNL     1      11.112   2.454   0.248  1.00  0.00     0.010 A 
ATOM     32  C   UNL     1       8.836   3.064   0.800  1.00  0.00     0.010 A 
ATOM     33  C   UNL     1      10.162   3.446   0.543  1.00  0.00    -0.014 A 
BRANCH  33  34
ATOM     34  C   UNL     1      10.538   4.884   0.573  1.00  0.00     0.031 A 
ATOM     35  C   UNL     1      10.454   5.669   1.853  1.00  0.00     0.074 A 
ATOM     36  C   UNL     1      10.879   5.506  -0.574  1.00  0.00     0.049 A 
ATOM     37  N   UNL     1      10.698   6.938   2.060  1.00  0.00    -0.248 NA
ATOM     38  C   UNL     1      10.014   4.941   3.055  1.00  0.00     0.031 C 
ATOM     39  C   UNL     1      10.922   4.876  -1.895  1.00  0.00     0.029 A 
ATOM     40  N   UNL     1      11.226   6.812  -0.817  1.00  0.00    -0.354 N 
ATOM     41  C   UNL     1      10.409   7.169   3.399  1.00  0.00     0.074 A 
ATOM     42  C   UNL     1       9.944   5.915   3.952  1.00  0.00     0.031 C 
ATOM     43  C   UNL     1      11.272   5.796  -2.809  1.00  0.00     0.029 A 
ATOM     44  C   UNL     1      11.454   7.084  -2.146  1.00  0.00     0.049 A 
ATOM     45  H   UNL     1      11.303   7.490  -0.108  1.00  0.00     0.167 HD
ATOM     46  C   UNL     1      10.545   8.313   4.113  1.00  0.00     0.034 A 
ATOM     47  C   UNL     1      11.770   8.239  -2.764  1.00  0.00     0.034 A 
ATOM     48  C   UNL     1      11.053   9.546   3.575  1.00  0.00     0.049 A 
ATOM     49  C   UNL     1      11.965   9.483  -1.940  1.00  0.00     0.074 A 
ATOM     50  C   UNL     1      11.318  10.730   4.239  1.00  0.00     0.029 A 
ATOM     51  N   UNL     1      11.368   9.758   2.241  1.00  0.00    -0.354 N 
ATOM     52  N   UNL     1      11.850   9.639  -0.643  1.00  0.00    -0.248 NA
ATOM     53  C   UNL     1      12.372  10.701  -2.656  1.00  0.00     0.031 C 
ATOM     54  C   UNL     1      11.776  11.665   3.304  1.00  0.00     0.029 A 
ATOM     55  C   UNL     1      11.816  11.055   2.061  1.00  0.00     0.049 A 
ATOM     56  H   UNL     1      11.285   9.085   1.528  1.00  0.00     0.167 HD
ATOM     57  C   UNL     1      12.203  10.958  -0.384  1.00  0.00     0.074 A 
ATOM     58  C   UNL     1      12.557  11.553  -1.657  1.00  0.00     0.031 C 
ATOM     59  C   UNL     1      12.219  11.621   0.799  1.00  0.00     0.034 A 
BRANCH  46  60
ATOM     60  C   UNL     1      10.191   8.271   5.577  1.00  0.00     0.023 A 
ATOM     61  C   UNL     1      11.035   7.587   6.476  1.00  0.00     0.012 A 
ATOM     62  C   UNL     1       9.065   8.956   6.074  1.00  0.00     0.148 A 
ATOM     63  C   UNL     1      10.747   7.556   7.840  1.00  0.00     0.002 A 
ATOM     64  C   UNL     1       8.808   8.957   7.441  1.00  0.00     0.091 A 
ATOM     65  F   UNL     1       8.261   9.584   5.204  1.00  0.00    -0.205 F 
ATOM     66  C   UNL     1       9.641   8.249   8.323  1.00  0.00     0.022 A 
BRANCH  64  67
ATOM     67  S   UNL     1       7.452   9.884   8.169  1.00  0.00     0.127 S 
ATOM     68  O   UNL     1       6.521   8.814   8.525  1.00  0.00    -0.237 OA
ATOM     69  O   UNL     1       8.098  10.533   9.310  1.00  0.00    -0.237 OA
ATOM     70  O   UNL     1       6.990  10.798   7.134  1.00  0.00    -0.744 OA
ENDBRANCH  64  67
ENDBRANCH  46  60
BRANCH  47  71
ATOM     71  C   UNL     1      11.993   8.254  -4.237  1.00  0.00     0.023 A 
ATOM     72  C   UNL     1      13.299   8.421  -4.737  1.00  0.00     0.012 A 
ATOM     73  C   UNL     1      10.930   8.066  -5.142  1.00  0.00     0.148 A 
ATOM     74  C   UNL     1      13.539   8.430  -6.112  1.00  0.00     0.002 A 
ATOM     75  C   UNL     1      11.184   8.019  -6.508  1.00  0.00     0.091 A 
ATOM     76  F   UNL     1       9.692   7.921  -4.647  1.00  0.00    -0.205 F 
ATOM     77  C   UNL     1      12.485   8.217  -6.996  1.00  0.00     0.022 A 
BRANCH  75  78
ATOM     78  S   UNL     1       9.910   7.616  -7.709  1.00  0.00     0.127 S 
ATOM     79  O   UNL     1       9.683   8.906  -8.351  1.00  0.00    -0.237 OA
ATOM     80  O   UNL     1      10.584   6.620  -8.543  1.00  0.00    -0.237 OA
ATOM     81  O   UNL     1       8.794   7.087  -6.933  1.00  0.00    -0.744 OA
ENDBRANCH  75  78
ENDBRANCH  47  71
BRANCH  59  82
ATOM     82  C   UNL     1      12.664  13.060   0.790  1.00  0.00     0.023 A 
ATOM     83  C   UNL     1      11.812  14.052   0.265  1.00  0.00     0.012 A 
ATOM     84  C   UNL     1      13.889  13.438   1.375  1.00  0.00     0.148 A 
ATOM     85  C   UNL     1      12.186  15.395   0.295  1.00  0.00     0.002 A 
ATOM     86  C   UNL     1      14.233  14.783   1.443  1.00  0.00     0.091 A 
ATOM     87  F   UNL     1      14.694  12.478   1.851  1.00  0.00    -0.205 F 
ATOM     88  C   UNL     1      13.389  15.762   0.894  1.00  0.00     0.022 A 
BRANCH  86  89
ATOM     89  S   UNL     1      15.717  15.353   2.281  1.00  0.00     0.127 S 
ATOM     90  O   UNL     1      16.575  15.716   1.154  1.00  0.00    -0.237 OA
ATOM     91  O   UNL     1      15.219  16.489   3.059  1.00  0.00    -0.237 OA
ATOM     92  O   UNL     1      16.179  14.230   3.085  1.00  0.00    -0.744 OA
ENDBRANCH  86  89
ENDBRANCH  59  82
ENDBRANCH  33  34
ENDBRANCH  25  28
ENDBRANCH  23  24
ENDBRANCH  22  23
ENDBRANCH   1  22
TORSDOF 18
