REMARK SMILES CCOC(=O)c1nc(Nc2cccc(C(=O)NCCCCCCNC(=O)c3ccc(-c4c5nc(c(-c6cccc(S(=O)(=O)[O-])c6F)c6ccc([nH]6)c(-c6cccc(S(=O)(=O)[O-])c6F)c6nc(c(-c7cccc(S(=O)(=O)[O-])c7F)c7ccc4[nH]7)C=C6)C=C5)cc3)c2)c2ccccc2n1
REMARK SMILES IDX 19 1 18 2 17 3 15 4 16 5 14 7 10 8 11 9 90 10 12 11 13 12
REMARK SMILES IDX 9 13 8 15 6 16 7 17 97 18 96 19 91 20 95 21 92 22 94 23
REMARK SMILES IDX 93 24 4 25 5 26 3 27 2 28 1 29 20 30 21 31 22 32 23 33 24 34
REMARK SMILES IDX 25 35 26 37 27 38 28 39 89 40 29 41 88 42 30 43 31 44 32 45
REMARK SMILES IDX 82 46 33 47 87 48 81 49 83 50 34 51 86 52 80 53 79 54 35 56
REMARK SMILES IDX 67 57 47 58 66 59 48 60 51 61 65 62 84 63 49 64 50 65 64 67
REMARK SMILES IDX 85 68 52 69 36 70 37 71 45 72 38 73 40 74 46 75 39 76 41 77
REMARK SMILES IDX 42 78 43 79 44 80 68 81 69 82 77 83 70 84 72 85 78 86 71 87
REMARK SMILES IDX 73 88 74 89 75 90 76 91 53 92 54 93 62 94 55 95 57 96 63 97
REMARK SMILES IDX 56 98 58 99 59 100 60 101 61 102
REMARK H PARENT 17 6 9 14 24 36 83 55 51 66
REMARK Flexibility Score: inf
ROOT
ATOM      1  C   UNL     1       1.849   3.135   6.009  1.00  0.00     0.021 C 
ENDROOT
BRANCH   1   2
ATOM      2  C   UNL     1       2.662   2.401   4.950  1.00  0.00     0.116 C 
BRANCH   2   3
ATOM      3  N   UNL     1       3.303   3.271   3.977  1.00  0.00    -0.352 N 
ATOM      4  C   UNL     1       4.564   3.211   3.418  1.00  0.00     0.251 C 
ATOM      5  O   UNL     1       4.911   4.098   2.640  1.00  0.00    -0.269 OA
ATOM      6  H   UNL     1       2.749   4.023   3.667  1.00  0.00     0.163 HD
BRANCH   4   7
ATOM      7  C   UNL     1       5.533   2.140   3.784  1.00  0.00     0.041 A 
ATOM      8  C   UNL     1       6.007  -0.107   4.624  1.00  0.00     0.040 A 
ATOM      9  C   UNL     1       7.358   0.238   4.721  1.00  0.00     0.026 A 
ATOM     10  C   UNL     1       5.127   0.838   4.078  1.00  0.00     0.040 A 
ATOM     11  C   UNL     1       7.805   1.496   4.300  1.00  0.00     0.003 A 
ATOM     12  C   UNL     1       6.893   2.453   3.849  1.00  0.00     0.014 A 
BRANCH   8  13
ATOM     13  N   UNL     1       5.549  -1.360   5.078  1.00  0.00    -0.340 N 
ATOM     14  H   UNL     1       6.092  -1.794   5.774  1.00  0.00     0.168 HD
BRANCH  13  15
ATOM     15  C   UNL     1       4.404  -2.064   4.652  1.00  0.00     0.142 A 
ATOM     16  C   UNL     1       2.856  -2.428   3.005  1.00  0.00     0.241 A 
ATOM     17  N   UNL     1       3.980  -1.820   3.403  1.00  0.00    -0.204 NA
ATOM     18  N   UNL     1       2.126  -3.280   3.736  1.00  0.00    -0.222 NA
ATOM     19  C   UNL     1       2.572  -3.546   4.967  1.00  0.00     0.077 A 
ATOM     20  C   UNL     1       3.719  -2.942   5.513  1.00  0.00     0.043 A 
ATOM     21  C   UNL     1       1.864  -4.456   5.741  1.00  0.00     0.029 A 
ATOM     22  C   UNL     1       4.086  -3.236   6.854  1.00  0.00     0.014 A 
ATOM     23  C   UNL     1       2.246  -4.770   7.048  1.00  0.00     0.002 A 
ATOM     24  C   UNL     1       3.352  -4.149   7.611  1.00  0.00     0.001 A 
BRANCH  16  25
ATOM     25  C   UNL     1       2.405  -2.087   1.621  1.00  0.00     0.376 C 
ATOM     26  O   UNL     1       3.147  -1.953   0.665  1.00  0.00    -0.242 OA
BRANCH  25  27
ATOM     27  O   UNL     1       1.061  -1.853   1.627  1.00  0.00    -0.460 OA
BRANCH  27  28
ATOM     28  C   UNL     1       0.505  -1.465   0.364  1.00  0.00     0.230 C 
ATOM     29  C   UNL     1       0.778   0.001   0.067  1.00  0.00     0.049 C 
ENDBRANCH  27  28
ENDBRANCH  25  27
ENDBRANCH  16  25
ENDBRANCH  13  15
ENDBRANCH   8  13
ENDBRANCH   4   7
ENDBRANCH   2   3
ENDBRANCH   1   2
BRANCH   1  30
ATOM     30  C   UNL     1       0.614   3.888   5.518  1.00  0.00     0.002 C 
BRANCH  30  31
ATOM     31  C   UNL     1      -0.395   3.082   4.697  1.00  0.00     0.002 C 
BRANCH  31  32
ATOM     32  C   UNL     1      -0.882   1.765   5.308  1.00  0.00     0.021 C 
BRANCH  32  33
ATOM     33  C   UNL     1      -1.437   1.846   6.727  1.00  0.00     0.116 C 
BRANCH  33  34
ATOM     34  N   UNL     1      -2.557   2.762   6.843  1.00  0.00    -0.352 N 
ATOM     35  C   UNL     1      -3.796   2.575   7.402  1.00  0.00     0.251 C 
ATOM     36  H   UNL     1      -2.404   3.657   6.461  1.00  0.00     0.163 HD
ATOM     37  O   UNL     1      -4.654   3.444   7.266  1.00  0.00    -0.269 OA
BRANCH  35  38
ATOM     38  C   UNL     1      -4.116   1.338   8.154  1.00  0.00     0.039 A 
ATOM     39  C   UNL     1      -5.384   0.772   7.995  1.00  0.00     0.014 A 
ATOM     40  C   UNL     1      -3.208   0.763   9.049  1.00  0.00     0.014 A 
ATOM     41  C   UNL     1      -5.731  -0.379   8.708  1.00  0.00     0.010 A 
ATOM     42  C   UNL     1      -3.527  -0.429   9.700  1.00  0.00     0.010 A 
ATOM     43  C   UNL     1      -4.801  -0.999   9.557  1.00  0.00    -0.014 A 
BRANCH  43  44
ATOM     44  C   UNL     1      -5.165  -2.224  10.317  1.00  0.00     0.031 A 
ATOM     45  C   UNL     1      -5.206  -2.207  11.822  1.00  0.00     0.074 A 
ATOM     46  C   UNL     1      -5.415  -3.370   9.655  1.00  0.00     0.049 A 
ATOM     47  N   UNL     1      -5.518  -3.171  12.650  1.00  0.00    -0.248 NA
ATOM     48  C   UNL     1      -4.819  -0.952  12.486  1.00  0.00     0.031 C 
ATOM     49  C   UNL     1      -5.317  -3.546   8.205  1.00  0.00     0.029 A 
ATOM     50  N   UNL     1      -5.783  -4.608  10.117  1.00  0.00    -0.354 N 
ATOM     51  C   UNL     1      -5.341  -2.650  13.927  1.00  0.00     0.074 A 
ATOM     52  C   UNL     1      -4.846  -1.301  13.764  1.00  0.00     0.031 C 
ATOM     53  C   UNL     1      -5.625  -4.816   7.896  1.00  0.00     0.029 A 
ATOM     54  C   UNL     1      -5.926  -5.548   9.122  1.00  0.00     0.049 A 
ATOM     55  H   UNL     1      -5.932  -4.806  11.070  1.00  0.00     0.167 HD
ATOM     56  C   UNL     1      -5.601  -3.224  15.127  1.00  0.00     0.034 A 
ATOM     57  C   UNL     1      -6.266  -6.850   9.190  1.00  0.00     0.034 A 
ATOM     58  C   UNL     1      -6.127  -4.554  15.287  1.00  0.00     0.049 A 
ATOM     59  C   UNL     1      -6.620  -7.447  10.523  1.00  0.00     0.074 A 
ATOM     60  C   UNL     1      -6.491  -5.204  16.453  1.00  0.00     0.029 A 
ATOM     61  N   UNL     1      -6.361  -5.441  14.247  1.00  0.00    -0.354 N 
ATOM     62  N   UNL     1      -6.596  -6.889  11.710  1.00  0.00    -0.248 NA
ATOM     63  C   UNL     1      -7.099  -8.837  10.523  1.00  0.00     0.031 C 
ATOM     64  C   UNL     1      -6.930  -6.490  16.118  1.00  0.00     0.029 A 
ATOM     65  C   UNL     1      -6.867  -6.631  14.741  1.00  0.00     0.049 A 
ATOM     66  H   UNL     1      -6.193  -5.252  13.295  1.00  0.00     0.167 HD
ATOM     67  C   UNL     1      -7.089  -7.844  12.591  1.00  0.00     0.074 A 
ATOM     68  C   UNL     1      -7.425  -9.008  11.796  1.00  0.00     0.031 C 
ATOM     69  C   UNL     1      -7.241  -7.767  13.937  1.00  0.00     0.034 A 
BRANCH  56  70
ATOM     70  C   UNL     1      -5.371  -2.385  16.359  1.00  0.00     0.023 A 
ATOM     71  C   UNL     1      -6.216  -1.285  16.618  1.00  0.00     0.012 A 
ATOM     72  C   UNL     1      -4.343  -2.692  17.272  1.00  0.00     0.148 A 
ATOM     73  C   UNL     1      -6.013  -0.476  17.735  1.00  0.00     0.002 A 
ATOM     74  C   UNL     1      -4.177  -1.909  18.410  1.00  0.00     0.091 A 
ATOM     75  F   UNL     1      -3.534  -3.727  17.004  1.00  0.00    -0.205 F 
ATOM     76  C   UNL     1      -5.000  -0.793  18.635  1.00  0.00     0.022 A 
BRANCH  74  77
ATOM     77  S   UNL     1      -2.952  -2.284  19.669  1.00  0.00     0.127 S 
ATOM     78  O   UNL     1      -1.944  -1.255  19.417  1.00  0.00    -0.237 OA
ATOM     79  O   UNL     1      -3.712  -2.103  20.906  1.00  0.00    -0.237 OA
ATOM     80  O   UNL     1      -2.528  -3.655  19.417  1.00  0.00    -0.744 OA
ENDBRANCH  74  77
ENDBRANCH  56  70
BRANCH  57  81
ATOM     81  C   UNL     1      -6.363  -7.647   7.935  1.00  0.00     0.023 A 
ATOM     82  C   UNL     1      -7.632  -8.022   7.446  1.00  0.00     0.012 A 
ATOM     83  C   UNL     1      -5.213  -7.986   7.199  1.00  0.00     0.148 A 
ATOM     84  C   UNL     1      -7.748  -8.744   6.258  1.00  0.00     0.002 A 
ATOM     85  C   UNL     1      -5.341  -8.656   5.988  1.00  0.00     0.091 A 
ATOM     86  F   UNL     1      -4.019  -7.625   7.687  1.00  0.00    -0.205 F 
ATOM     87  C   UNL     1      -6.603  -9.051   5.523  1.00  0.00     0.022 A 
BRANCH  85  88
ATOM     88  S   UNL     1      -3.937  -8.972   4.912  1.00  0.00     0.127 S 
ATOM     89  O   UNL     1      -3.823 -10.426   4.989  1.00  0.00    -0.237 OA
ATOM     90  O   UNL     1      -4.421  -8.458   3.630  1.00  0.00    -0.237 OA
ATOM     91  O   UNL     1      -2.826  -8.221   5.480  1.00  0.00    -0.744 OA
ENDBRANCH  85  88
ENDBRANCH  57  81
BRANCH  69  92
ATOM     92  C   UNL     1      -7.831  -8.963  14.639  1.00  0.00     0.023 A 
ATOM     93  C   UNL     1      -7.078 -10.147  14.769  1.00  0.00     0.012 A 
ATOM     94  C   UNL     1      -9.114  -8.895  15.216  1.00  0.00     0.148 A 
ATOM     95  C   UNL     1      -7.611 -11.258  15.424  1.00  0.00     0.002 A 
ATOM     96  C   UNL     1      -9.618  -9.989  15.911  1.00  0.00     0.091 A 
ATOM     97  F   UNL     1      -9.827  -7.769  15.065  1.00  0.00    -0.205 F 
ATOM     98  C   UNL     1      -8.874 -11.175  16.003  1.00  0.00     0.022 A 
BRANCH  96  99
ATOM     99  S   UNL     1     -11.196  -9.930  16.768  1.00  0.00     0.127 S 
ATOM    100  O   UNL     1     -12.064 -10.661  15.847  1.00  0.00    -0.237 OA
ATOM    101  O   UNL     1     -10.900 -10.635  18.016  1.00  0.00    -0.237 OA
ATOM    102  O   UNL     1     -11.502  -8.516  16.937  1.00  0.00    -0.744 OA
ENDBRANCH  96  99
ENDBRANCH  69  92
ENDBRANCH  43  44
ENDBRANCH  35  38
ENDBRANCH  33  34
ENDBRANCH  32  33
ENDBRANCH  31  32
ENDBRANCH  30  31
ENDBRANCH   1  30
TORSDOF 21
