REMARK SMILES CC1=C[C@H](C)[C@@H](C(=O)NCCCCCCNC(=O)c2ccc(-c3c4nc(c(-c5cccc(S(=O)(=O)[O-])c5F)c5ccc([nH]5)c(-c5cccc(S(=O)(=O)[O-])c5F)c5nc(c(-c6cccc(S(=O)(=O)[O-])c6F)c6ccc3[nH]6)C=C5)C=C4)cc2)[C@H](C(=O)Nc2cccnc2)C1
REMARK SMILES IDX 13 1 12 2 11 3 10 4 9 5 7 6 8 7 6 9 1 10 2 11 3 12 92 13
REMARK SMILES IDX 4 14 82 15 5 16 83 17 84 18 85 19 86 21 87 22 91 23 88 24
REMARK SMILES IDX 90 25 89 26 14 27 15 28 16 29 17 30 18 32 19 33 20 34 81 35
REMARK SMILES IDX 21 36 80 37 22 38 23 39 24 40 74 41 25 42 79 43 73 44 75 45
REMARK SMILES IDX 26 46 78 47 72 48 71 49 27 51 59 52 39 53 58 54 40 55 43 56
REMARK SMILES IDX 57 57 76 58 41 59 42 60 56 62 77 63 44 64 28 65 29 66 37 67
REMARK SMILES IDX 30 68 32 69 38 70 31 71 33 72 34 73 35 74 36 75 60 76 61 77
REMARK SMILES IDX 69 78 62 79 64 80 70 81 63 82 65 83 66 84 67 85 68 86 45 87
REMARK SMILES IDX 46 88 54 89 47 90 49 91 55 92 48 93 50 94 51 95 52 96 53 97
REMARK H PARENT 9 8 85 20 16 31 75 50 43 61
REMARK Flexibility Score: inf
ROOT
ATOM      1  C   UNL     1       5.303   0.829   4.040  1.00  0.00     0.002 C 
ENDROOT
BRANCH   1   2
ATOM      2  C   UNL     1       5.263   2.197   3.345  1.00  0.00     0.002 C 
BRANCH   2   3
ATOM      3  C   UNL     1       4.110   2.379   2.361  1.00  0.00     0.021 C 
BRANCH   3   4
ATOM      4  C   UNL     1       2.746   2.252   3.017  1.00  0.00     0.116 C 
BRANCH   4   5
ATOM      5  N   UNL     1       2.238   3.504   3.539  1.00  0.00    -0.356 N 
ATOM      6  C   UNL     1       0.977   4.028   3.476  1.00  0.00     0.224 C 
ATOM      7  O   UNL     1       0.758   5.064   4.109  1.00  0.00    -0.275 OA
ATOM      8  H   UNL     1       2.900   4.061   4.011  1.00  0.00     0.163 HD
BRANCH   6   9
ATOM      9  C   UNL     1      -0.154   3.349   2.673  1.00  0.00     0.098 C 
ATOM     10  C   UNL     1       0.453  -0.308   0.187  1.00  0.00     0.039 C 
ATOM     11  C   UNL     1       0.162   0.901   1.035  1.00  0.00    -0.076 C 
ATOM     12  C   UNL     1      -0.293   0.794   2.297  1.00  0.00    -0.024 C 
ATOM     13  C   UNL     1       0.519   2.213   0.387  1.00  0.00     0.044 C 
ATOM     14  C   UNL     1      -0.388   1.936   3.276  1.00  0.00     0.022 C 
ATOM     15  C   UNL     1       0.100   3.476   1.151  1.00  0.00     0.096 C 
ATOM     16  C   UNL     1      -1.626   1.886   4.188  1.00  0.00     0.013 C 
BRANCH  15  17
ATOM     17  C   UNL     1      -0.951   4.319   0.386  1.00  0.00     0.228 C 
ATOM     18  O   UNL     1      -0.837   5.550   0.353  1.00  0.00    -0.274 OA
ATOM     19  N   UNL     1      -1.934   3.761  -0.388  1.00  0.00    -0.324 N 
ATOM     20  H   UNL     1      -2.247   4.320  -1.136  1.00  0.00     0.169 HD
BRANCH  19  21
ATOM     21  C   UNL     1      -2.560   2.515  -0.275  1.00  0.00     0.059 A 
ATOM     22  C   UNL     1      -2.948   2.018   0.957  1.00  0.00     0.029 A 
ATOM     23  C   UNL     1      -2.866   1.753  -1.394  1.00  0.00     0.137 A 
ATOM     24  C   UNL     1      -3.479   0.734   1.056  1.00  0.00     0.022 A 
ATOM     25  N   UNL     1      -3.395   0.506  -1.338  1.00  0.00    -0.263 NA
ATOM     26  C   UNL     1      -3.651   0.009  -0.108  1.00  0.00     0.111 A 
ENDBRANCH  19  21
ENDBRANCH  15  17
ENDBRANCH   6   9
ENDBRANCH   4   5
ENDBRANCH   3   4
ENDBRANCH   2   3
ENDBRANCH   1   2
BRANCH   1  27
ATOM     27  C   UNL     1       5.316  -0.385   3.105  1.00  0.00     0.021 C 
BRANCH  27  28
ATOM     28  C   UNL     1       6.434  -0.376   2.068  1.00  0.00     0.116 C 
BRANCH  28  29
ATOM     29  N   UNL     1       7.742  -0.223   2.687  1.00  0.00    -0.352 N 
ATOM     30  C   UNL     1       8.860  -1.008   2.569  1.00  0.00     0.251 C 
ATOM     31  H   UNL     1       7.838   0.558   3.278  1.00  0.00     0.163 HD
ATOM     32  O   UNL     1       9.802  -0.855   3.337  1.00  0.00    -0.269 OA
BRANCH  30  33
ATOM     33  C   UNL     1       8.915  -2.040   1.514  1.00  0.00     0.039 A 
ATOM     34  C   UNL     1       9.403  -3.309   1.834  1.00  0.00     0.014 A 
ATOM     35  C   UNL     1       8.496  -1.750   0.213  1.00  0.00     0.014 A 
ATOM     36  C   UNL     1       9.425  -4.304   0.856  1.00  0.00     0.010 A 
ATOM     37  C   UNL     1       8.448  -2.762  -0.739  1.00  0.00     0.010 A 
ATOM     38  C   UNL     1       8.922  -4.046  -0.431  1.00  0.00    -0.014 A 
BRANCH  38  39
ATOM     39  C   UNL     1       8.878  -5.108  -1.466  1.00  0.00     0.031 A 
ATOM     40  C   UNL     1       9.662  -4.952  -2.741  1.00  0.00     0.074 A 
ATOM     41  C   UNL     1       8.063  -6.167  -1.296  1.00  0.00     0.049 A 
ATOM     42  N   UNL     1       9.693  -5.735  -3.788  1.00  0.00    -0.248 NA
ATOM     43  C   UNL     1      10.499  -3.747  -2.871  1.00  0.00     0.031 C 
ATOM     44  C   UNL     1       7.194  -6.389  -0.137  1.00  0.00     0.029 A 
ATOM     45  N   UNL     1       7.804  -7.240  -2.112  1.00  0.00    -0.354 N 
ATOM     46  C   UNL     1      10.513  -5.100  -4.713  1.00  0.00     0.074 A 
ATOM     47  C   UNL     1      10.941  -3.855  -4.116  1.00  0.00     0.031 C 
ATOM     48  C   UNL     1       6.497  -7.521  -0.319  1.00  0.00     0.029 A 
ATOM     49  C   UNL     1       6.838  -8.087  -1.620  1.00  0.00     0.049 A 
ATOM     50  H   UNL     1       8.267  -7.389  -2.969  1.00  0.00     0.167 HD
ATOM     51  C   UNL     1      10.893  -5.526  -5.941  1.00  0.00     0.034 A 
ATOM     52  C   UNL     1       6.276  -9.184  -2.164  1.00  0.00     0.034 A 
ATOM     53  C   UNL     1      10.498  -6.785  -6.511  1.00  0.00     0.049 A 
ATOM     54  C   UNL     1       6.751  -9.656  -3.511  1.00  0.00     0.074 A 
ATOM     55  C   UNL     1      10.910  -7.353  -7.704  1.00  0.00     0.029 A 
ATOM     56  N   UNL     1       9.592  -7.664  -5.941  1.00  0.00    -0.354 N 
ATOM     57  N   UNL     1       7.653  -9.125  -4.300  1.00  0.00    -0.248 NA
ATOM     58  C   UNL     1       6.159 -10.898  -4.029  1.00  0.00     0.031 C 
ATOM     59  C   UNL     1      10.222  -8.557  -7.874  1.00  0.00     0.029 A 
ATOM     60  C   UNL     1       9.418  -8.762  -6.765  1.00  0.00     0.049 A 
ATOM     61  H   UNL     1       9.138  -7.528  -5.078  1.00  0.00     0.167 HD
ATOM     62  C   UNL     1       7.767  -9.988  -5.384  1.00  0.00     0.074 A 
ATOM     63  C   UNL     1       6.855 -11.085  -5.142  1.00  0.00     0.031 C 
ATOM     64  C   UNL     1       8.549  -9.876  -6.486  1.00  0.00     0.034 A 
BRANCH  51  65
ATOM     65  C   UNL     1      11.811  -4.644  -6.745  1.00  0.00     0.023 A 
ATOM     66  C   UNL     1      13.159  -4.498  -6.360  1.00  0.00     0.012 A 
ATOM     67  C   UNL     1      11.360  -4.032  -7.931  1.00  0.00     0.148 A 
ATOM     68  C   UNL     1      14.037  -3.733  -7.128  1.00  0.00     0.002 A 
ATOM     69  C   UNL     1      12.252  -3.313  -8.717  1.00  0.00     0.091 A 
ATOM     70  F   UNL     1      10.070  -4.168  -8.269  1.00  0.00    -0.205 F 
ATOM     71  C   UNL     1      13.588  -3.153  -8.311  1.00  0.00     0.022 A 
BRANCH  69  72
ATOM     72  S   UNL     1      11.795  -2.599 -10.300  1.00  0.00     0.127 S 
ATOM     73  O   UNL     1      11.885  -1.168 -10.014  1.00  0.00    -0.237 OA
ATOM     74  O   UNL     1      12.844  -3.113 -11.181  1.00  0.00    -0.237 OA
ATOM     75  O   UNL     1      10.456  -3.091 -10.593  1.00  0.00    -0.744 OA
ENDBRANCH  69  72
ENDBRANCH  51  65
BRANCH  52  76
ATOM     76  C   UNL     1       5.225  -9.934  -1.419  1.00  0.00     0.023 A 
ATOM     77  C   UNL     1       5.503 -11.224  -0.927  1.00  0.00     0.012 A 
ATOM     78  C   UNL     1       3.955  -9.370  -1.187  1.00  0.00     0.148 A 
ATOM     79  C   UNL     1       4.522 -11.957  -0.259  1.00  0.00     0.002 A 
ATOM     80  C   UNL     1       3.002 -10.081  -0.468  1.00  0.00     0.091 A 
ATOM     81  F   UNL     1       3.706  -8.145  -1.670  1.00  0.00    -0.205 F 
ATOM     82  C   UNL     1       3.276 -11.383  -0.021  1.00  0.00     0.022 A 
BRANCH  80  83
ATOM     83  S   UNL     1       1.423  -9.366   0.001  1.00  0.00     0.127 S 
ATOM     84  O   UNL     1       0.496 -10.098  -0.858  1.00  0.00    -0.237 OA
ATOM     85  O   UNL     1       1.347  -9.706   1.422  1.00  0.00    -0.237 OA
ATOM     86  O   UNL     1       1.543  -7.939  -0.266  1.00  0.00    -0.744 OA
ENDBRANCH  80  83
ENDBRANCH  52  76
BRANCH  64  87
ATOM     87  C   UNL     1       8.505 -10.992  -7.495  1.00  0.00     0.023 A 
ATOM     88  C   UNL     1       7.372 -11.163  -8.314  1.00  0.00     0.012 A 
ATOM     89  C   UNL     1       9.627 -11.823  -7.684  1.00  0.00     0.148 A 
ATOM     90  C   UNL     1       7.344 -12.165  -9.284  1.00  0.00     0.002 A 
ATOM     91  C   UNL     1       9.614 -12.783  -8.688  1.00  0.00     0.091 A 
ATOM     92  F   UNL     1      10.689 -11.655  -6.882  1.00  0.00    -0.205 F 
ATOM     93  C   UNL     1       8.468 -12.965  -9.479  1.00  0.00     0.022 A 
BRANCH  91  94
ATOM     94  S   UNL     1      11.050 -13.787  -9.079  1.00  0.00     0.127 S 
ATOM     95  O   UNL     1      10.624 -15.107  -8.617  1.00  0.00    -0.237 OA
ATOM     96  O   UNL     1      11.137 -13.648 -10.533  1.00  0.00    -0.237 OA
ATOM     97  O   UNL     1      12.164 -13.201  -8.347  1.00  0.00    -0.744 OA
ENDBRANCH  91  94
ENDBRANCH  64  87
ENDBRANCH  38  39
ENDBRANCH  30  33
ENDBRANCH  28  29
ENDBRANCH  27  28
ENDBRANCH   1  27
TORSDOF 18
