REMARK SMILES C[C@@H]1CCCCN1S(=O)(=O)c1ccc(CCC(=O)NCCCCCCNC(=O)c2ccc(-c3c4nc(c(-c5cccc(S(=O)(=O)[O-])c5F)c5ccc([nH]5)c(-c5cccc(S(=O)(=O)[O-])c5F)c5nc(c(-c6cccc(S(=O)(=O)[O-])c6F)c6ccc3[nH]6)C=C5)C=C4)cc2)cc1
REMARK SMILES IDX 22 1 21 2 20 3 19 4 17 5 18 6 16 8 15 9 14 10 11 11 12 12
REMARK SMILES IDX 93 13 13 14 92 15 8 16 9 17 10 18 7 19 1 20 2 21 3 22 4 23
REMARK SMILES IDX 6 24 5 25 23 26 24 27 25 28 26 29 27 30 28 32 29 33 30 34
REMARK SMILES IDX 91 35 31 36 90 37 32 38 33 39 34 40 84 41 35 42 89 43 83 44
REMARK SMILES IDX 85 45 36 46 88 47 82 48 81 49 37 51 69 52 49 53 68 54 50 55
REMARK SMILES IDX 53 56 67 57 86 58 51 59 52 60 66 62 87 63 54 64 38 65 39 66
REMARK SMILES IDX 47 67 40 68 42 69 48 70 41 71 43 72 44 73 45 74 46 75 70 76
REMARK SMILES IDX 71 77 79 78 72 79 74 80 80 81 73 82 75 83 76 84 77 85 78 86
REMARK SMILES IDX 55 87 56 88 64 89 57 90 59 91 65 92 58 93 60 94 61 95 62 96
REMARK SMILES IDX 63 97
REMARK H PARENT 19 7 26 31 85 50 53 61
REMARK Flexibility Score: inf
ROOT
ATOM      1  C   UNL     1       2.838  -5.692  -2.666  1.00  0.00     0.002 C 
ENDROOT
BRANCH   1   2
ATOM      2  C   UNL     1       3.581  -4.352  -2.705  1.00  0.00     0.021 C 
BRANCH   2   3
ATOM      3  C   UNL     1       5.107  -4.430  -2.623  1.00  0.00     0.116 C 
BRANCH   3   4
ATOM      4  N   UNL     1       5.692  -4.637  -3.942  1.00  0.00    -0.356 N 
ATOM      5  C   UNL     1       6.444  -3.809  -4.719  1.00  0.00     0.220 C 
ATOM      6  O   UNL     1       6.706  -4.169  -5.870  1.00  0.00    -0.275 OA
ATOM      7  H   UNL     1       5.513  -5.521  -4.336  1.00  0.00     0.163 HD
BRANCH   5   8
ATOM      8  C   UNL     1       6.981  -2.493  -4.189  1.00  0.00     0.105 C 
BRANCH   8   9
ATOM      9  C   UNL     1       6.232  -1.275  -4.748  1.00  0.00     0.045 C 
BRANCH   9  10
ATOM     10  C   UNL     1       4.985  -0.954  -3.958  1.00  0.00    -0.047 A 
ATOM     11  C   UNL     1       2.717  -0.821  -2.324  1.00  0.00     0.082 A 
ATOM     12  C   UNL     1       2.578  -1.101  -3.689  1.00  0.00     0.022 A 
ATOM     13  C   UNL     1       3.972  -0.500  -1.802  1.00  0.00     0.022 A 
ATOM     14  C   UNL     1       3.713  -1.172  -4.502  1.00  0.00     0.005 A 
ATOM     15  C   UNL     1       5.096  -0.537  -2.625  1.00  0.00     0.005 A 
BRANCH  11  16
ATOM     16  S   UNL     1       1.432  -1.349  -1.206  1.00  0.00     0.243 S 
ATOM     17  O   UNL     1       2.079  -1.943  -0.056  1.00  0.00    -0.207 OA
ATOM     18  O   UNL     1       0.519  -2.164  -1.990  1.00  0.00    -0.207 OA
BRANCH  16  19
ATOM     19  N   UNL     1       0.569   0.019  -0.706  1.00  0.00    -0.195 NA
ATOM     20  C   UNL     1       2.088   0.856   1.157  1.00  0.00     0.026 C 
ATOM     21  C   UNL     1       1.267   1.192  -0.089  1.00  0.00     0.070 C 
ATOM     22  C   UNL     1       0.240   2.294   0.274  1.00  0.00     0.020 C 
ATOM     23  C   UNL     1      -1.113   2.104  -0.399  1.00  0.00     0.003 C 
ATOM     24  C   UNL     1      -0.657  -0.348   0.052  1.00  0.00     0.103 C 
ATOM     25  C   UNL     1      -1.706   0.752  -0.031  1.00  0.00     0.017 C 
ENDBRANCH  16  19
ENDBRANCH  11  16
ENDBRANCH   9  10
ENDBRANCH   8   9
ENDBRANCH   5   8
ENDBRANCH   3   4
ENDBRANCH   2   3
ENDBRANCH   1   2
BRANCH   1  26
ATOM     26  C   UNL     1       2.785  -6.391  -1.300  1.00  0.00     0.002 C 
BRANCH  26  27
ATOM     27  C   UNL     1       2.215  -5.580  -0.126  1.00  0.00     0.021 C 
BRANCH  27  28
ATOM     28  C   UNL     1       0.777  -5.074  -0.277  1.00  0.00     0.116 C 
BRANCH  28  29
ATOM     29  N   UNL     1      -0.212  -6.139  -0.210  1.00  0.00    -0.352 N 
ATOM     30  C   UNL     1      -1.353  -6.262   0.548  1.00  0.00     0.251 C 
ATOM     31  H   UNL     1      -0.035  -6.901  -0.809  1.00  0.00     0.163 HD
ATOM     32  O   UNL     1      -1.985  -7.317   0.498  1.00  0.00    -0.269 OA
BRANCH  30  33
ATOM     33  C   UNL     1      -1.834  -5.176   1.444  1.00  0.00     0.039 A 
ATOM     34  C   UNL     1      -2.339  -5.523   2.702  1.00  0.00     0.014 A 
ATOM     35  C   UNL     1      -1.869  -3.837   1.052  1.00  0.00     0.014 A 
ATOM     36  C   UNL     1      -2.805  -4.534   3.583  1.00  0.00     0.010 A 
ATOM     37  C   UNL     1      -2.291  -2.849   1.956  1.00  0.00     0.010 A 
ATOM     38  C   UNL     1      -2.750  -3.172   3.239  1.00  0.00    -0.014 A 
BRANCH  38  39
ATOM     39  C   UNL     1      -3.084  -2.113   4.243  1.00  0.00     0.031 A 
ATOM     40  C   UNL     1      -4.175  -1.088   4.024  1.00  0.00     0.074 A 
ATOM     41  C   UNL     1      -2.339  -2.017   5.365  1.00  0.00     0.049 A 
ATOM     42  N   UNL     1      -4.635  -0.188   4.860  1.00  0.00    -0.248 NA
ATOM     43  C   UNL     1      -4.802  -1.033   2.695  1.00  0.00     0.031 C 
ATOM     44  C   UNL     1      -1.145  -2.813   5.657  1.00  0.00     0.029 A 
ATOM     45  N   UNL     1      -2.470  -1.207   6.470  1.00  0.00    -0.354 N 
ATOM     46  C   UNL     1      -5.581   0.552   4.158  1.00  0.00     0.074 A 
ATOM     47  C   UNL     1      -5.595   0.026   2.809  1.00  0.00     0.031 C 
ATOM     48  C   UNL     1      -0.683  -2.489   6.875  1.00  0.00     0.029 A 
ATOM     49  C   UNL     1      -1.542  -1.460   7.454  1.00  0.00     0.049 A 
ATOM     50  H   UNL     1      -3.162  -0.511   6.548  1.00  0.00     0.167 HD
ATOM     51  C   UNL     1      -6.396   1.544   4.598  1.00  0.00     0.034 A 
ATOM     52  C   UNL     1      -1.412  -0.958   8.698  1.00  0.00     0.034 A 
ATOM     53  C   UNL     1      -6.441   2.026   5.956  1.00  0.00     0.049 A 
ATOM     54  C   UNL     1      -2.424   0.029   9.214  1.00  0.00     0.074 A 
ATOM     55  C   UNL     1      -7.321   2.936   6.520  1.00  0.00     0.029 A 
ATOM     56  N   UNL     1      -5.577   1.638   6.966  1.00  0.00    -0.354 N 
ATOM     57  N   UNL     1      -3.461   0.544   8.601  1.00  0.00    -0.248 NA
ATOM     58  C   UNL     1      -2.277   0.461  10.613  1.00  0.00     0.031 C 
ATOM     59  C   UNL     1      -6.989   3.098   7.870  1.00  0.00     0.029 A 
ATOM     60  C   UNL     1      -5.905   2.284   8.149  1.00  0.00     0.049 A 
ATOM     61  H   UNL     1      -4.837   0.997   6.861  1.00  0.00     0.167 HD
ATOM     62  C   UNL     1      -4.109   1.331   9.548  1.00  0.00     0.074 A 
ATOM     63  C   UNL     1      -3.365   1.200  10.783  1.00  0.00     0.031 C 
ATOM     64  C   UNL     1      -5.208   2.110   9.396  1.00  0.00     0.034 A 
BRANCH  51  65
ATOM     65  C   UNL     1      -7.401   2.116   3.627  1.00  0.00     0.023 A 
ATOM     66  C   UNL     1      -8.512   1.332   3.254  1.00  0.00     0.012 A 
ATOM     67  C   UNL     1      -7.312   3.446   3.169  1.00  0.00     0.148 A 
ATOM     68  C   UNL     1      -9.500   1.847   2.417  1.00  0.00     0.002 A 
ATOM     69  C   UNL     1      -8.325   3.967   2.367  1.00  0.00     0.091 A 
ATOM     70  F   UNL     1      -6.244   4.176   3.521  1.00  0.00    -0.205 F 
ATOM     71  C   UNL     1      -9.413   3.166   1.983  1.00  0.00     0.022 A 
BRANCH  69  72
ATOM     72  S   UNL     1      -8.349   5.681   1.827  1.00  0.00     0.127 S 
ATOM     73  O   UNL     1      -7.995   5.550   0.414  1.00  0.00    -0.237 OA
ATOM     74  O   UNL     1      -9.739   6.066   2.074  1.00  0.00    -0.237 OA
ATOM     75  O   UNL     1      -7.373   6.375   2.656  1.00  0.00    -0.744 OA
ENDBRANCH  69  72
ENDBRANCH  51  65
BRANCH  52  76
ATOM     76  C   UNL     1      -0.354  -1.490   9.603  1.00  0.00     0.023 A 
ATOM     77  C   UNL     1      -0.727  -2.336  10.666  1.00  0.00     0.012 A 
ATOM     78  C   UNL     1       1.006  -1.189   9.407  1.00  0.00     0.148 A 
ATOM     79  C   UNL     1       0.233  -2.844  11.541  1.00  0.00     0.002 A 
ATOM     80  C   UNL     1       1.963  -1.742  10.252  1.00  0.00     0.091 A 
ATOM     81  F   UNL     1       1.339  -0.370   8.399  1.00  0.00    -0.205 F 
ATOM     82  C   UNL     1       1.577  -2.556  11.328  1.00  0.00     0.022 A 
BRANCH  80  83
ATOM     83  S   UNL     1       3.723  -1.524   9.965  1.00  0.00     0.127 S 
ATOM     84  O   UNL     1       4.062  -0.499  10.948  1.00  0.00    -0.237 OA
ATOM     85  O   UNL     1       4.250  -2.858  10.258  1.00  0.00    -0.237 OA
ATOM     86  O   UNL     1       3.838  -1.133   8.567  1.00  0.00    -0.744 OA
ENDBRANCH  80  83
ENDBRANCH  52  76
BRANCH  64  87
ATOM     87  C   UNL     1      -5.695   2.872  10.602  1.00  0.00     0.023 A 
ATOM     88  C   UNL     1      -4.956   3.975  11.074  1.00  0.00     0.012 A 
ATOM     89  C   UNL     1      -6.899   2.525  11.246  1.00  0.00     0.148 A 
ATOM     90  C   UNL     1      -5.383   4.694  12.191  1.00  0.00     0.002 A 
ATOM     91  C   UNL     1      -7.341   3.273  12.334  1.00  0.00     0.091 A 
ATOM     92  F   UNL     1      -7.583   1.460  10.803  1.00  0.00    -0.205 F 
ATOM     93  C   UNL     1      -6.579   4.349  12.815  1.00  0.00     0.022 A 
BRANCH  91  94
ATOM     94  S   UNL     1      -8.915   2.940  13.135  1.00  0.00     0.127 S 
ATOM     95  O   UNL     1      -8.507   2.114  14.269  1.00  0.00    -0.237 OA
ATOM     96  O   UNL     1      -9.380   4.281  13.495  1.00  0.00    -0.237 OA
ATOM     97  O   UNL     1      -9.732   2.277  12.127  1.00  0.00    -0.744 OA
ENDBRANCH  91  94
ENDBRANCH  64  87
ENDBRANCH  38  39
ENDBRANCH  30  33
ENDBRANCH  28  29
ENDBRANCH  27  28
ENDBRANCH  26  27
ENDBRANCH   1  26
TORSDOF 20
