REMARK SMILES CCC(CC)(NC(=O)N[C@@H](C)[C@@H]1CCCO1)C(=O)NCCCCCCNC(=O)c1ccc(-c2c3nc(c(-c4cccc(S(=O)(=O)[O-])c4F)c4ccc([nH]4)c(-c4cccc(S(=O)(=O)[O-])c4F)c4nc(c(-c5cccc(S(=O)(=O)[O-])c5F)c5ccc2[nH]5)C=C4)C=C3)cc1
REMARK SMILES IDX 22 1 21 2 20 3 19 4 17 5 18 6 3 8 2 9 1 10 4 11 5 12 6 13
REMARK SMILES IDX 7 14 8 16 9 17 10 19 11 20 12 21 13 22 16 23 14 24 15 25
REMARK SMILES IDX 23 26 24 27 25 28 26 29 27 30 28 32 29 33 30 34 91 35 31 36
REMARK SMILES IDX 90 37 32 38 33 39 34 40 84 41 35 42 89 43 83 44 85 45 36 46
REMARK SMILES IDX 88 47 82 48 81 49 37 51 69 52 49 53 68 54 50 55 53 56 67 57
REMARK SMILES IDX 86 58 51 59 52 60 66 62 87 63 54 64 38 65 39 66 47 67 40 68
REMARK SMILES IDX 42 69 48 70 41 71 43 72 44 73 45 74 46 75 70 76 71 77 79 78
REMARK SMILES IDX 72 79 74 80 80 81 73 82 75 83 76 84 77 85 78 86 55 87 56 88
REMARK SMILES IDX 64 89 57 90 59 91 65 92 58 93 60 94 61 95 62 96 63 97
REMARK H PARENT 19 7 6 15 9 18 26 31 85 50 53 61
REMARK Flexibility Score: inf
ROOT
ATOM      1  C   UNL     1       3.955   5.902  -2.812  1.00  0.00     0.002 C 
ENDROOT
BRANCH   1   2
ATOM      2  C   UNL     1       2.443   5.698  -2.877  1.00  0.00     0.021 C 
BRANCH   2   3
ATOM      3  C   UNL     1       1.877   4.385  -3.436  1.00  0.00     0.116 C 
BRANCH   3   4
ATOM      4  N   UNL     1       2.507   3.128  -3.042  1.00  0.00    -0.354 N 
ATOM      5  C   UNL     1       2.192   2.150  -2.128  1.00  0.00     0.245 C 
ATOM      6  O   UNL     1       2.826   1.093  -2.221  1.00  0.00    -0.272 OA
ATOM      7  H   UNL     1       3.336   2.940  -3.538  1.00  0.00     0.163 HD
BRANCH   5   8
ATOM      8  C   UNL     1       0.991   2.295  -1.148  1.00  0.00     0.120 C 
BRANCH   8   9
ATOM      9  C   UNL     1       0.920   1.330   0.071  1.00  0.00     0.035 C 
ATOM     10  C   UNL     1       0.990  -0.166  -0.188  1.00  0.00     0.007 C 
ENDBRANCH   8   9
BRANCH   8  11
ATOM     11  C   UNL     1      -0.244   2.041  -2.087  1.00  0.00     0.035 C 
ATOM     12  C   UNL     1      -1.636   2.190  -1.492  1.00  0.00     0.007 C 
ENDBRANCH   8  11
BRANCH   8  13
ATOM     13  N   UNL     1       1.020   3.663  -0.600  1.00  0.00    -0.324 N 
ATOM     14  C   UNL     1       1.887   4.356   0.151  1.00  0.00     0.315 C 
ATOM     15  H   UNL     1       0.221   4.187  -0.839  1.00  0.00     0.166 HD
ATOM     16  O   UNL     1       1.481   5.427   0.617  1.00  0.00    -0.249 OA
ATOM     17  N   UNL     1       3.164   4.049   0.405  1.00  0.00    -0.333 N 
ATOM     18  H   UNL     1       3.618   4.806   0.840  1.00  0.00     0.165 HD
BRANCH  17  19
ATOM     19  C   UNL     1       4.102   2.917   0.232  1.00  0.00     0.109 C 
ATOM     20  C   UNL     1       5.079   3.142  -0.922  1.00  0.00     0.034 C 
BRANCH  19  21
ATOM     21  C   UNL     1       4.846   2.619   1.577  1.00  0.00     0.140 C 
ATOM     22  C   UNL     1       6.332   2.999   1.685  1.00  0.00     0.036 C 
ATOM     23  O   UNL     1       4.788   1.193   1.822  1.00  0.00    -0.376 OA
ATOM     24  C   UNL     1       7.053   1.691   1.932  1.00  0.00     0.031 C 
ATOM     25  C   UNL     1       6.062   0.650   1.479  1.00  0.00     0.160 C 
ENDBRANCH  19  21
ENDBRANCH  17  19
ENDBRANCH   8  13
ENDBRANCH   5   8
ENDBRANCH   3   4
ENDBRANCH   2   3
ENDBRANCH   1   2
BRANCH   1  26
ATOM     26  C   UNL     1       4.749   5.531  -4.060  1.00  0.00     0.002 C 
BRANCH  26  27
ATOM     27  C   UNL     1       4.338   6.297  -5.314  1.00  0.00     0.021 C 
BRANCH  27  28
ATOM     28  C   UNL     1       4.451   7.811  -5.194  1.00  0.00     0.116 C 
BRANCH  28  29
ATOM     29  N   UNL     1       5.828   8.262  -5.049  1.00  0.00    -0.352 N 
ATOM     30  C   UNL     1       6.440   9.321  -5.688  1.00  0.00     0.251 C 
ATOM     31  H   UNL     1       6.388   7.752  -4.421  1.00  0.00     0.163 HD
ATOM     32  O   UNL     1       7.636   9.514  -5.589  1.00  0.00    -0.269 OA
BRANCH  30  33
ATOM     33  C   UNL     1       5.594  10.197  -6.528  1.00  0.00     0.039 A 
ATOM     34  C   UNL     1       5.917  10.361  -7.876  1.00  0.00     0.014 A 
ATOM     35  C   UNL     1       4.432  10.760  -5.995  1.00  0.00     0.014 A 
ATOM     36  C   UNL     1       5.027  11.036  -8.713  1.00  0.00     0.010 A 
ATOM     37  C   UNL     1       3.516  11.368  -6.845  1.00  0.00     0.010 A 
ATOM     38  C   UNL     1       3.801  11.508  -8.213  1.00  0.00    -0.014 A 
BRANCH  38  39
ATOM     39  C   UNL     1       2.786  12.119  -9.107  1.00  0.00     0.031 A 
ATOM     40  C   UNL     1       2.366  13.548  -8.908  1.00  0.00     0.074 A 
ATOM     41  C   UNL     1       2.164  11.354 -10.025  1.00  0.00     0.049 A 
ATOM     42  N   UNL     1       1.450  14.233  -9.541  1.00  0.00    -0.248 NA
ATOM     43  C   UNL     1       3.043  14.296  -7.835  1.00  0.00     0.031 C 
ATOM     44  C   UNL     1       2.412   9.928 -10.245  1.00  0.00     0.029 A 
ATOM     45  N   UNL     1       1.168  11.659 -10.919  1.00  0.00    -0.354 N 
ATOM     46  C   UNL     1       1.418  15.478  -8.927  1.00  0.00     0.074 A 
ATOM     47  C   UNL     1       2.376  15.440  -7.844  1.00  0.00     0.031 C 
ATOM     48  C   UNL     1       1.584   9.480 -11.203  1.00  0.00     0.029 A 
ATOM     49  C   UNL     1       0.730  10.578 -11.646  1.00  0.00     0.049 A 
ATOM     50  H   UNL     1       0.801  12.567 -11.029  1.00  0.00     0.167 HD
ATOM     51  C   UNL     1       0.684  16.568  -9.256  1.00  0.00     0.034 A 
ATOM     52  C   UNL     1      -0.257  10.475 -12.558  1.00  0.00     0.034 A 
ATOM     53  C   UNL     1      -0.243  16.611 -10.354  1.00  0.00     0.049 A 
ATOM     54  C   UNL     1      -1.031  11.707 -12.939  1.00  0.00     0.074 A 
ATOM     55  C   UNL     1      -0.962  17.692 -10.832  1.00  0.00     0.029 A 
ATOM     56  N   UNL     1      -0.590  15.521 -11.139  1.00  0.00    -0.354 N 
ATOM     57  N   UNL     1      -0.919  12.927 -12.471  1.00  0.00    -0.248 NA
ATOM     58  C   UNL     1      -2.040  11.560 -13.998  1.00  0.00     0.031 C 
ATOM     59  C   UNL     1      -1.762  17.250 -11.892  1.00  0.00     0.029 A 
ATOM     60  C   UNL     1      -1.524  15.899 -12.088  1.00  0.00     0.049 A 
ATOM     61  H   UNL     1      -0.226  14.613 -11.036  1.00  0.00     0.167 HD
ATOM     62  C   UNL     1      -1.826  13.697 -13.190  1.00  0.00     0.074 A 
ATOM     63  C   UNL     1      -2.459  12.811 -14.146  1.00  0.00     0.031 C 
ATOM     64  C   UNL     1      -2.119  15.015 -13.059  1.00  0.00     0.034 A 
BRANCH  51  65
ATOM     65  C   UNL     1       0.904  17.820  -8.447  1.00  0.00     0.023 A 
ATOM     66  C   UNL     1       2.121  18.522  -8.575  1.00  0.00     0.012 A 
ATOM     67  C   UNL     1      -0.092  18.319  -7.586  1.00  0.00     0.148 A 
ATOM     68  C   UNL     1       2.362  19.673  -7.827  1.00  0.00     0.002 A 
ATOM     69  C   UNL     1       0.138  19.494  -6.878  1.00  0.00     0.091 A 
ATOM     70  F   UNL     1      -1.234  17.628  -7.456  1.00  0.00    -0.205 F 
ATOM     71  C   UNL     1       1.368  20.164  -6.987  1.00  0.00     0.022 A 
BRANCH  69  72
ATOM     72  S   UNL     1      -1.111  20.248  -5.829  1.00  0.00     0.127 S 
ATOM     73  O   UNL     1      -0.615  19.917  -4.495  1.00  0.00    -0.237 OA
ATOM     74  O   UNL     1      -1.002  21.663  -6.186  1.00  0.00    -0.237 OA
ATOM     75  O   UNL     1      -2.373  19.626  -6.205  1.00  0.00    -0.744 OA
ENDBRANCH  69  72
ENDBRANCH  51  65
BRANCH  52  76
ATOM     76  C   UNL     1      -0.523   9.161 -13.207  1.00  0.00     0.023 A 
ATOM     77  C   UNL     1      -0.165   8.965 -14.554  1.00  0.00     0.012 A 
ATOM     78  C   UNL     1      -1.071   8.086 -12.478  1.00  0.00     0.148 A 
ATOM     79  C   UNL     1      -0.366   7.729 -15.171  1.00  0.00     0.002 A 
ATOM     80  C   UNL     1      -1.216   6.843 -13.081  1.00  0.00     0.091 A 
ATOM     81  F   UNL     1      -1.415   8.297 -11.200  1.00  0.00    -0.205 F 
ATOM     82  C   UNL     1      -0.879   6.666 -14.432  1.00  0.00     0.022 A 
BRANCH  80  83
ATOM     83  S   UNL     1      -1.731   5.384 -12.168  1.00  0.00     0.127 S 
ATOM     84  O   UNL     1      -3.058   5.135 -12.725  1.00  0.00    -0.237 OA
ATOM     85  O   UNL     1      -0.708   4.411 -12.552  1.00  0.00    -0.237 OA
ATOM     86  O   UNL     1      -1.696   5.766 -10.762  1.00  0.00    -0.744 OA
ENDBRANCH  80  83
ENDBRANCH  52  76
BRANCH  64  87
ATOM     87  C   UNL     1      -3.167  15.591 -13.975  1.00  0.00     0.023 A 
ATOM     88  C   UNL     1      -4.525  15.278 -13.763  1.00  0.00     0.012 A 
ATOM     89  C   UNL     1      -2.818  16.503 -14.990  1.00  0.00     0.148 A 
ATOM     90  C   UNL     1      -5.516  15.843 -14.565  1.00  0.00     0.002 A 
ATOM     91  C   UNL     1      -3.815  17.098 -15.754  1.00  0.00     0.091 A 
ATOM     92  F   UNL     1      -1.520  16.774 -15.187  1.00  0.00    -0.205 F 
ATOM     93  C   UNL     1      -5.163  16.761 -15.550  1.00  0.00     0.022 A 
BRANCH  91  94
ATOM     94  S   UNL     1      -3.465  18.360 -16.984  1.00  0.00     0.127 S 
ATOM     95  O   UNL     1      -3.724  17.642 -18.230  1.00  0.00    -0.237 OA
ATOM     96  O   UNL     1      -4.449  19.392 -16.658  1.00  0.00    -0.237 OA
ATOM     97  O   UNL     1      -2.079  18.757 -16.770  1.00  0.00    -0.744 OA
ENDBRANCH  91  94
ENDBRANCH  64  87
ENDBRANCH  38  39
ENDBRANCH  30  33
ENDBRANCH  28  29
ENDBRANCH  27  28
ENDBRANCH  26  27
ENDBRANCH   1  26
TORSDOF 21
