REMARK SMILES O=C(CSc1nc(O)cc(=O)[nH]1)Nc1cccc(C(=O)NCCCCCCNC(=O)c2ccc(-c3c4nc(c(-c5cccc(S(=O)(=O)[O-])c5F)c5ccc([nH]5)c(-c5cccc(S(=O)(=O)[O-])c5F)c5nc(c(-c6cccc(S(=O)(=O)[O-])c6F)c6ccc3[nH]6)C=C5)C=C4)cc2)c1
REMARK SMILES IDX 23 1 22 2 21 3 19 4 20 5 18 7 14 8 15 9 94 10 16 11 17 12
REMARK SMILES IDX 13 13 1 14 2 15 3 17 4 18 5 19 6 20 12 21 7 22 10 23 9 25
REMARK SMILES IDX 11 26 8 27 24 29 25 30 26 31 27 32 28 33 29 34 30 36 31 37
REMARK SMILES IDX 32 38 93 39 33 40 92 41 34 42 35 43 36 44 86 45 37 46 91 47
REMARK SMILES IDX 85 48 87 49 38 50 90 51 84 52 83 53 39 55 71 56 51 57 70 58
REMARK SMILES IDX 52 59 55 60 69 61 88 62 53 63 54 64 68 66 89 67 56 68 40 69
REMARK SMILES IDX 41 70 49 71 42 72 44 73 50 74 43 75 45 76 46 77 47 78 48 79
REMARK SMILES IDX 72 80 73 81 81 82 74 83 76 84 82 85 75 86 77 87 78 88 79 89
REMARK SMILES IDX 80 90 57 91 58 92 66 93 59 94 61 95 67 96 60 97 62 98 63 99
REMARK SMILES IDX 64 100 65 101
REMARK H PARENT 21 6 13 16 12 24 8 28 28 35 87 54 55 65
REMARK Flexibility Score: inf
ROOT
ATOM      1  C   UNL     1       0.072  -3.856  -2.344  1.00  0.00     0.021 C 
ENDROOT
BRANCH   1   2
ATOM      2  C   UNL     1      -0.165  -3.186  -0.997  1.00  0.00     0.116 C 
BRANCH   2   3
ATOM      3  N   UNL     1      -0.820  -4.029  -0.003  1.00  0.00    -0.352 N 
ATOM      4  C   UNL     1      -0.589  -4.153   1.354  1.00  0.00     0.251 C 
ATOM      5  O   UNL     1      -1.251  -4.959   2.006  1.00  0.00    -0.269 OA
ATOM      6  H   UNL     1      -1.541  -4.600  -0.354  1.00  0.00     0.163 HD
BRANCH   4   7
ATOM      7  C   UNL     1       0.504  -3.396   2.024  1.00  0.00     0.041 A 
ATOM      8  C   UNL     1       2.103  -1.589   1.944  1.00  0.00     0.041 A 
ATOM      9  C   UNL     1       2.854  -2.217   2.943  1.00  0.00     0.026 A 
ATOM     10  C   UNL     1       0.861  -2.114   1.609  1.00  0.00     0.040 A 
ATOM     11  C   UNL     1       2.401  -3.408   3.520  1.00  0.00     0.003 A 
ATOM     12  C   UNL     1       1.247  -4.021   3.030  1.00  0.00     0.014 A 
BRANCH   8  13
ATOM     13  N   UNL     1       2.691  -0.519   1.236  1.00  0.00    -0.325 N 
ATOM     14  O   UNL     1       1.096  -0.105  -0.414  1.00  0.00    -0.274 OA
ATOM     15  C   UNL     1       2.185   0.122   0.106  1.00  0.00     0.234 C 
ATOM     16  H   UNL     1       3.554  -0.189   1.577  1.00  0.00     0.169 HD
BRANCH  15  17
ATOM     17  C   UNL     1       3.142   1.121  -0.533  1.00  0.00     0.178 C 
BRANCH  17  18
ATOM     18  S   UNL     1       4.261   1.891   0.670  1.00  0.00    -0.078 SA
BRANCH  18  19
ATOM     19  C   UNL     1       3.161   2.966   1.482  1.00  0.00     0.172 A 
ATOM     20  N   UNL     1       3.306   4.242   1.385  1.00  0.00    -0.189 NA
ATOM     21  N   UNL     1       2.232   2.353   2.265  1.00  0.00    -0.301 N 
ATOM     22  C   UNL     1       2.448   5.002   2.125  1.00  0.00     0.218 A 
ATOM     23  C   UNL     1       1.371   3.068   3.036  1.00  0.00     0.255 A 
ATOM     24  H   UNL     1       2.183   1.370   2.273  1.00  0.00     0.172 HD
ATOM     25  C   UNL     1       1.503   4.523   2.937  1.00  0.00     0.139 A 
ATOM     26  O   UNL     1       0.566   2.536   3.790  1.00  0.00    -0.269 OA
BRANCH  22  27
ATOM     27  O   UNL     1       2.606   6.357   2.012  1.00  0.00    -0.493 OA
ATOM     28  H   UNL     1       3.265   6.706   1.446  1.00  0.00     0.295 HD
ENDBRANCH  22  27
ENDBRANCH  18  19
ENDBRANCH  17  18
ENDBRANCH  15  17
ENDBRANCH   8  13
ENDBRANCH   4   7
ENDBRANCH   2   3
ENDBRANCH   1   2
BRANCH   1  29
ATOM     29  C   UNL     1      -1.175  -4.221  -3.145  1.00  0.00     0.002 C 
BRANCH  29  30
ATOM     30  C   UNL     1      -2.164  -3.083  -3.410  1.00  0.00     0.002 C 
BRANCH  30  31
ATOM     31  C   UNL     1      -1.582  -1.813  -4.036  1.00  0.00     0.021 C 
BRANCH  31  32
ATOM     32  C   UNL     1      -0.802  -2.012  -5.331  1.00  0.00     0.116 C 
BRANCH  32  33
ATOM     33  N   UNL     1      -1.614  -2.585  -6.393  1.00  0.00    -0.352 N 
ATOM     34  C   UNL     1      -1.803  -2.139  -7.681  1.00  0.00     0.251 C 
ATOM     35  H   UNL     1      -2.098  -3.409  -6.157  1.00  0.00     0.163 HD
ATOM     36  O   UNL     1      -2.651  -2.661  -8.394  1.00  0.00    -0.269 OA
BRANCH  34  37
ATOM     37  C   UNL     1      -0.990  -1.014  -8.195  1.00  0.00     0.039 A 
ATOM     38  C   UNL     1      -1.623   0.017  -8.894  1.00  0.00     0.014 A 
ATOM     39  C   UNL     1       0.392  -0.977  -7.989  1.00  0.00     0.014 A 
ATOM     40  C   UNL     1      -0.878   1.114  -9.336  1.00  0.00     0.010 A 
ATOM     41  C   UNL     1       1.117   0.151  -8.362  1.00  0.00     0.010 A 
ATOM     42  C   UNL     1       0.493   1.205  -9.046  1.00  0.00    -0.014 A 
BRANCH  42  43
ATOM     43  C   UNL     1       1.301   2.383  -9.459  1.00  0.00     0.031 A 
ATOM     44  C   UNL     1       2.453   2.205 -10.413  1.00  0.00     0.074 A 
ATOM     45  C   UNL     1       1.054   3.593  -8.917  1.00  0.00     0.049 A 
ATOM     46  N   UNL     1       3.339   3.081 -10.811  1.00  0.00    -0.248 NA
ATOM     47  C   UNL     1       2.652   0.857 -10.974  1.00  0.00     0.031 C 
ATOM     48  C   UNL     1       0.002   3.887  -7.941  1.00  0.00     0.029 A 
ATOM     49  N   UNL     1       1.689   4.798  -9.090  1.00  0.00    -0.354 N 
ATOM     50  C   UNL     1       4.212   2.388 -11.642  1.00  0.00     0.074 A 
ATOM     51  C   UNL     1       3.777   1.009 -11.658  1.00  0.00     0.031 C 
ATOM     52  C   UNL     1       0.063   5.186  -7.604  1.00  0.00     0.029 A 
ATOM     53  C   UNL     1       1.179   5.810  -8.307  1.00  0.00     0.049 A 
ATOM     54  H   UNL     1       2.439   4.927  -9.715  1.00  0.00     0.167 HD
ATOM     55  C   UNL     1       5.261   2.861 -12.356  1.00  0.00     0.034 A 
ATOM     56  C   UNL     1       1.577   7.089  -8.161  1.00  0.00     0.034 A 
ATOM     57  C   UNL     1       5.671   4.239 -12.368  1.00  0.00     0.049 A 
ATOM     58  C   UNL     1       2.749   7.586  -8.967  1.00  0.00     0.074 A 
ATOM     59  C   UNL     1       6.691   4.826 -13.095  1.00  0.00     0.029 A 
ATOM     60  N   UNL     1       5.082   5.245 -11.619  1.00  0.00    -0.354 N 
ATOM     61  N   UNL     1       3.488   6.940  -9.836  1.00  0.00    -0.248 NA
ATOM     62  C   UNL     1       3.122   8.998  -8.797  1.00  0.00     0.031 C 
ATOM     63  C   UNL     1       6.732   6.185 -12.770  1.00  0.00     0.029 A 
ATOM     64  C   UNL     1       5.715   6.450 -11.868  1.00  0.00     0.049 A 
ATOM     65  H   UNL     1       4.325   5.121 -11.002  1.00  0.00     0.167 HD
ATOM     66  C   UNL     1       4.372   7.879 -10.356  1.00  0.00     0.074 A 
ATOM     67  C   UNL     1       4.071   9.140  -9.712  1.00  0.00     0.031 C 
ATOM     68  C   UNL     1       5.354   7.711 -11.275  1.00  0.00     0.034 A 
BRANCH  55  69
ATOM     69  C   UNL     1       6.009   1.891 -13.235  1.00  0.00     0.023 A 
ATOM     70  C   UNL     1       5.389   1.393 -14.400  1.00  0.00     0.012 A 
ATOM     71  C   UNL     1       7.341   1.530 -12.953  1.00  0.00     0.148 A 
ATOM     72  C   UNL     1       6.071   0.528 -15.254  1.00  0.00     0.002 A 
ATOM     73  C   UNL     1       8.031   0.706 -13.834  1.00  0.00     0.091 A 
ATOM     74  F   UNL     1       7.907   2.001 -11.833  1.00  0.00    -0.205 F 
ATOM     75  C   UNL     1       7.394   0.194 -14.977  1.00  0.00     0.022 A 
BRANCH  73  76
ATOM     76  S   UNL     1       9.761   0.278 -13.614  1.00  0.00     0.127 S 
ATOM     77  O   UNL     1       9.680  -1.161 -13.363  1.00  0.00    -0.237 OA
ATOM     78  O   UNL     1      10.333   0.638 -14.912  1.00  0.00    -0.237 OA
ATOM     79  O   UNL     1      10.236   1.076 -12.493  1.00  0.00    -0.744 OA
ENDBRANCH  73  76
ENDBRANCH  55  69
BRANCH  56  80
ATOM     80  C   UNL     1       0.842   8.015  -7.251  1.00  0.00     0.023 A 
ATOM     81  C   UNL     1       0.127   9.100  -7.797  1.00  0.00     0.012 A 
ATOM     82  C   UNL     1       0.867   7.845  -5.854  1.00  0.00     0.148 A 
ATOM     83  C   UNL     1      -0.505  10.027  -6.968  1.00  0.00     0.002 A 
ATOM     84  C   UNL     1       0.186   8.739  -5.036  1.00  0.00     0.091 A 
ATOM     85  F   UNL     1       1.560   6.814  -5.351  1.00  0.00    -0.205 F 
ATOM     86  C   UNL     1      -0.481   9.843  -5.588  1.00  0.00     0.022 A 
BRANCH  84  87
ATOM     87  S   UNL     1       0.066   8.511  -3.258  1.00  0.00     0.127 S 
ATOM     88  O   UNL     1       0.945   9.566  -2.761  1.00  0.00    -0.237 OA
ATOM     89  O   UNL     1      -1.361   8.733  -3.021  1.00  0.00    -0.237 OA
ATOM     90  O   UNL     1       0.510   7.146  -3.007  1.00  0.00    -0.744 OA
ENDBRANCH  84  87
ENDBRANCH  56  80
BRANCH  68  91
ATOM     91  C   UNL     1       6.130   8.927 -11.707  1.00  0.00     0.023 A 
ATOM     92  C   UNL     1       7.060   9.524 -10.834  1.00  0.00     0.012 A 
ATOM     93  C   UNL     1       5.991   9.427 -13.018  1.00  0.00     0.148 A 
ATOM     94  C   UNL     1       7.816  10.620 -11.248  1.00  0.00     0.002 A 
ATOM     95  C   UNL     1       6.787  10.483 -13.441  1.00  0.00     0.091 A 
ATOM     96  F   UNL     1       5.088   8.854 -13.827  1.00  0.00    -0.205 F 
ATOM     97  C   UNL     1       7.690  11.090 -12.553  1.00  0.00     0.022 A 
BRANCH  95  98
ATOM     98  S   UNL     1       6.767  11.089 -15.131  1.00  0.00     0.127 S 
ATOM     99  O   UNL     1       6.152  12.406 -14.968  1.00  0.00    -0.237 OA
ATOM    100  O   UNL     1       8.191  11.118 -15.464  1.00  0.00    -0.237 OA
ATOM    101  O   UNL     1       5.985  10.127 -15.896  1.00  0.00    -0.744 OA
ENDBRANCH  95  98
ENDBRANCH  68  91
ENDBRANCH  42  43
ENDBRANCH  34  37
ENDBRANCH  32  33
ENDBRANCH  31  32
ENDBRANCH  30  31
ENDBRANCH  29  30
ENDBRANCH   1  29
TORSDOF 21
