REMARK SMILES C[C@@H]1CCC[C@@H](C)C1[N@H+]1CCO[C@H](CC(=O)NCCCCCCNC(=O)c2ccc(-c3c4nc(c(-c5cccc(S(=O)(=O)[O-])c5F)c5ccc([nH]5)c(-c5cccc(S(=O)(=O)[O-])c5F)c5nc(c(-c6cccc(S(=O)(=O)[O-])c6F)c6ccc3[nH]6)C=C5)C=C4)cc2)C1
REMARK SMILES IDX 21 1 20 2 19 3 18 4 17 5 15 6 16 7 14 9 13 10 9 11 10 12
REMARK SMILES IDX 90 13 11 15 12 16 8 17 1 18 2 19 3 20 4 21 6 22 5 23 7 24
REMARK SMILES IDX 22 25 23 26 24 27 25 28 26 30 27 31 28 32 89 33 29 34 88 35
REMARK SMILES IDX 30 36 31 37 32 38 82 39 33 40 87 41 81 42 83 43 34 44 86 45
REMARK SMILES IDX 80 46 79 47 35 49 67 50 47 51 66 52 48 53 51 54 65 55 84 56
REMARK SMILES IDX 49 57 50 58 64 60 85 61 52 62 36 63 37 64 45 65 38 66 40 67
REMARK SMILES IDX 46 68 39 69 41 70 42 71 43 72 44 73 68 74 69 75 77 76 70 77
REMARK SMILES IDX 72 78 78 79 71 80 73 81 74 82 75 83 76 84 53 85 54 86 62 87
REMARK SMILES IDX 55 88 57 89 63 90 56 91 58 92 59 93 60 94 61 95
REMARK H PARENT 17 8 9 14 24 29 83 48 51 59
REMARK Flexibility Score: inf
ROOT
ATOM      1  C   UNL     1      -5.064   6.525  -4.453  1.00  0.00     0.002 C 
ENDROOT
BRANCH   1   2
ATOM      2  C   UNL     1      -3.587   6.131  -4.379  1.00  0.00     0.002 C 
BRANCH   2   3
ATOM      3  C   UNL     1      -3.315   4.746  -3.788  1.00  0.00     0.021 C 
BRANCH   3   4
ATOM      4  C   UNL     1      -3.921   3.580  -4.569  1.00  0.00     0.116 C 
BRANCH   4   5
ATOM      5  N   UNL     1      -3.115   3.220  -5.718  1.00  0.00    -0.356 N 
ATOM      6  C   UNL     1      -2.205   2.212  -5.848  1.00  0.00     0.222 C 
ATOM      7  O   UNL     1      -1.644   2.066  -6.937  1.00  0.00    -0.275 OA
ATOM      8  H   UNL     1      -3.242   3.781  -6.516  1.00  0.00     0.163 HD
BRANCH   6   9
ATOM      9  C   UNL     1      -1.933   1.263  -4.695  1.00  0.00     0.138 C 
BRANCH   9  10
ATOM     10  C   UNL     1      -0.967   1.784  -3.619  1.00  0.00     0.182 C 
ATOM     11  N   UNL     1      -0.886   2.590  -1.180  1.00  0.00    -0.328 N 
ATOM     12  C   UNL     1      -0.184   3.757  -1.707  1.00  0.00     0.291 C 
ATOM     13  C   UNL     1      -1.657   1.903  -2.233  1.00  0.00     0.295 C 
ATOM     14  H   UNL     1      -1.526   3.033  -0.520  1.00  0.00     0.348 HD
ATOM     15  C   UNL     1       0.514   3.533  -3.056  1.00  0.00     0.222 C 
ATOM     16  O   UNL     1      -0.388   3.025  -4.035  1.00  0.00    -0.366 OA
BRANCH  11  17
ATOM     17  C   UNL     1      -0.264   1.713  -0.176  1.00  0.00     0.189 C 
ATOM     18  C   UNL     1       1.328  -0.237   0.170  1.00  0.00     0.014 C 
ATOM     19  C   UNL     1       1.108   1.099  -0.563  1.00  0.00     0.045 C 
ATOM     20  C   UNL     1       2.294   2.041  -0.300  1.00  0.00     0.009 C 
ATOM     21  C   UNL     1       2.308   2.645   1.100  1.00  0.00     0.001 C 
ATOM     22  C   UNL     1      -0.213   2.329   1.260  1.00  0.00     0.045 C 
ATOM     23  C   UNL     1       0.976   3.265   1.509  1.00  0.00     0.009 C 
ATOM     24  C   UNL     1      -1.529   2.996   1.684  1.00  0.00     0.014 C 
ENDBRANCH  11  17
ENDBRANCH   9  10
ENDBRANCH   6   9
ENDBRANCH   4   5
ENDBRANCH   3   4
ENDBRANCH   2   3
ENDBRANCH   1   2
BRANCH   1  25
ATOM     25  C   UNL     1      -5.842   6.399  -3.140  1.00  0.00     0.021 C 
BRANCH  25  26
ATOM     26  C   UNL     1      -5.293   7.237  -1.987  1.00  0.00     0.116 C 
BRANCH  26  27
ATOM     27  N   UNL     1      -5.343   8.660  -2.286  1.00  0.00    -0.352 N 
ATOM     28  C   UNL     1      -6.098   9.650  -1.708  1.00  0.00     0.251 C 
ATOM     29  H   UNL     1      -4.747   8.956  -3.011  1.00  0.00     0.163 HD
ATOM     30  O   UNL     1      -6.197  10.742  -2.262  1.00  0.00    -0.269 OA
BRANCH  28  31
ATOM     31  C   UNL     1      -6.790   9.408  -0.423  1.00  0.00     0.039 A 
ATOM     32  C   UNL     1      -8.101   9.867  -0.262  1.00  0.00     0.014 A 
ATOM     33  C   UNL     1      -6.136   8.769   0.634  1.00  0.00     0.014 A 
ATOM     34  C   UNL     1      -8.771   9.641   0.943  1.00  0.00     0.010 A 
ATOM     35  C   UNL     1      -6.828   8.487   1.810  1.00  0.00     0.010 A 
ATOM     36  C   UNL     1      -8.149   8.927   1.981  1.00  0.00    -0.014 A 
BRANCH  36  37
ATOM     37  C   UNL     1      -8.865   8.629   3.248  1.00  0.00     0.031 A 
ATOM     38  C   UNL     1      -8.379   9.205   4.552  1.00  0.00     0.074 A 
ATOM     39  C   UNL     1      -9.908   7.774   3.237  1.00  0.00     0.049 A 
ATOM     40  N   UNL     1      -8.845   9.020   5.760  1.00  0.00    -0.248 NA
ATOM     41  C   UNL     1      -7.199  10.084   4.495  1.00  0.00     0.031 C 
ATOM     42  C   UNL     1     -10.425   7.089   2.050  1.00  0.00     0.029 A 
ATOM     43  N   UNL     1     -10.702   7.315   4.257  1.00  0.00    -0.354 N 
ATOM     44  C   UNL     1      -8.002   9.728   6.608  1.00  0.00     0.074 A 
ATOM     45  C   UNL     1      -6.974  10.321   5.780  1.00  0.00     0.031 C 
ATOM     46  C   UNL     1     -11.450   6.300   2.410  1.00  0.00     0.029 A 
ATOM     47  C   UNL     1     -11.649   6.402   3.852  1.00  0.00     0.049 A 
ATOM     48  H   UNL     1     -10.604   7.611   5.191  1.00  0.00     0.167 HD
ATOM     49  C   UNL     1      -8.092   9.898   7.948  1.00  0.00     0.034 A 
ATOM     50  C   UNL     1     -12.570   5.723   4.563  1.00  0.00     0.034 A 
ATOM     51  C   UNL     1      -9.143   9.347   8.761  1.00  0.00     0.049 A 
ATOM     52  C   UNL     1     -12.677   5.968   6.044  1.00  0.00     0.074 A 
ATOM     53  C   UNL     1      -9.371   9.532  10.114  1.00  0.00     0.029 A 
ATOM     54  N   UNL     1     -10.141   8.504   8.300  1.00  0.00    -0.354 N 
ATOM     55  N   UNL     1     -11.970   6.770   6.801  1.00  0.00    -0.248 NA
ATOM     56  C   UNL     1     -13.735   5.242   6.763  1.00  0.00     0.031 C 
ATOM     57  C   UNL     1     -10.499   8.787  10.473  1.00  0.00     0.029 A 
ATOM     58  C   UNL     1     -10.985   8.155   9.340  1.00  0.00     0.049 A 
ATOM     59  H   UNL     1     -10.236   8.197   7.369  1.00  0.00     0.167 HD
ATOM     60  C   UNL     1     -12.518   6.676   8.075  1.00  0.00     0.074 A 
ATOM     61  C   UNL     1     -13.632   5.754   7.982  1.00  0.00     0.031 C 
ATOM     62  C   UNL     1     -12.126   7.284   9.221  1.00  0.00     0.034 A 
BRANCH  49  63
ATOM     63  C   UNL     1      -7.061  10.770   8.617  1.00  0.00     0.023 A 
ATOM     64  C   UNL     1      -7.104  12.166   8.419  1.00  0.00     0.012 A 
ATOM     65  C   UNL     1      -6.099  10.226   9.490  1.00  0.00     0.148 A 
ATOM     66  C   UNL     1      -6.188  13.003   9.053  1.00  0.00     0.002 A 
ATOM     67  C   UNL     1      -5.215  11.071  10.152  1.00  0.00     0.091 A 
ATOM     68  F   UNL     1      -6.061   8.896   9.651  1.00  0.00    -0.205 F 
ATOM     69  C   UNL     1      -5.252  12.458   9.927  1.00  0.00     0.022 A 
BRANCH  67  70
ATOM     70  S   UNL     1      -4.021  10.478  11.356  1.00  0.00     0.127 S 
ATOM     71  O   UNL     1      -2.762  10.658  10.636  1.00  0.00    -0.237 OA
ATOM     72  O   UNL     1      -4.223  11.401  12.472  1.00  0.00    -0.237 OA
ATOM     73  O   UNL     1      -4.388   9.096  11.637  1.00  0.00    -0.744 OA
ENDBRANCH  67  70
ENDBRANCH  49  63
BRANCH  50  74
ATOM     74  C   UNL     1     -13.518   4.804   3.870  1.00  0.00     0.023 A 
ATOM     75  C   UNL     1     -14.876   5.163   3.767  1.00  0.00     0.012 A 
ATOM     76  C   UNL     1     -13.083   3.594   3.296  1.00  0.00     0.148 A 
ATOM     77  C   UNL     1     -15.790   4.319   3.136  1.00  0.00     0.002 A 
ATOM     78  C   UNL     1     -13.989   2.784   2.621  1.00  0.00     0.091 A 
ATOM     79  F   UNL     1     -11.790   3.261   3.416  1.00  0.00    -0.205 F 
ATOM     80  C   UNL     1     -15.346   3.135   2.555  1.00  0.00     0.022 A 
BRANCH  78  81
ATOM     81  S   UNL     1     -13.476   1.310   1.730  1.00  0.00     0.127 S 
ATOM     82  O   UNL     1     -13.947   0.247   2.614  1.00  0.00    -0.237 OA
ATOM     83  O   UNL     1     -14.214   1.440   0.473  1.00  0.00    -0.237 OA
ATOM     84  O   UNL     1     -12.031   1.426   1.587  1.00  0.00    -0.744 OA
ENDBRANCH  78  81
ENDBRANCH  50  74
BRANCH  62  85
ATOM     85  C   UNL     1     -12.922   7.005  10.469  1.00  0.00     0.023 A 
ATOM     86  C   UNL     1     -12.807   5.754  11.106  1.00  0.00     0.012 A 
ATOM     87  C   UNL     1     -13.724   8.007  11.050  1.00  0.00     0.148 A 
ATOM     88  C   UNL     1     -13.502   5.494  12.287  1.00  0.00     0.002 A 
ATOM     89  C   UNL     1     -14.376   7.757  12.252  1.00  0.00     0.091 A 
ATOM     90  F   UNL     1     -13.836   9.184  10.417  1.00  0.00    -0.205 F 
ATOM     91  C   UNL     1     -14.275   6.498  12.865  1.00  0.00     0.022 A 
BRANCH  89  92
ATOM     92  S   UNL     1     -15.316   9.020  13.116  1.00  0.00     0.127 S 
ATOM     93  O   UNL     1     -16.691   8.589  12.871  1.00  0.00    -0.237 OA
ATOM     94  O   UNL     1     -14.863   8.855  14.498  1.00  0.00    -0.237 OA
ATOM     95  O   UNL     1     -14.938  10.288  12.506  1.00  0.00    -0.744 OA
ENDBRANCH  89  92
ENDBRANCH  62  85
ENDBRANCH  36  37
ENDBRANCH  28  31
ENDBRANCH  26  27
ENDBRANCH  25  26
ENDBRANCH   1  25
TORSDOF 18
