REMARK SMILES O=C(NCCCCCCNC(=O)c1ccc(N2C(=O)/C(=C/c3ccco3)SC2=S)cc1)c1ccc(-c2c3nc(c(-c4cccc(S(=O)(=O)[O-])c4F)c4ccc([nH]4)c(-c4cccc(S(=O)(=O)[O-])c4F)c4nc(c(-c5cccc(S(=O)(=O)[O-])c5F)c5ccc2[nH]5)C=C4)C=C3)cc1
REMARK SMILES IDX 6 1 5 2 4 3 3 4 1 5 2 6 32 8 33 9 94 10 34 11 93 12 35 13
REMARK SMILES IDX 36 14 37 15 87 16 38 17 92 18 86 19 88 20 39 21 91 22 85 23
REMARK SMILES IDX 84 24 40 26 72 27 52 28 71 29 53 30 56 31 70 32 89 33 54 34
REMARK SMILES IDX 55 35 69 37 90 38 57 39 41 40 42 41 50 42 43 43 45 44 51 45
REMARK SMILES IDX 44 46 46 47 47 48 48 49 49 50 73 51 74 52 82 53 75 54 77 55
REMARK SMILES IDX 83 56 76 57 78 58 79 59 80 60 81 61 58 62 59 63 67 64 60 65
REMARK SMILES IDX 62 66 68 67 61 68 63 69 64 70 65 71 66 72 7 73 8 74 9 75
REMARK SMILES IDX 10 76 11 77 12 79 13 80 14 81 31 82 15 83 30 84 16 85 17 86
REMARK SMILES IDX 18 87 28 88 19 89 20 90 27 91 29 92 21 93 22 94 23 95 26 96
REMARK SMILES IDX 24 97 25 98
REMARK H PARENT 3 7 88 25 56 36 10 78
REMARK Flexibility Score: inf
ROOT
ATOM      1  C   UNL     1       4.304  -2.598   2.641  1.00  0.00     0.002 C 
ENDROOT
BRANCH   1   2
ATOM      2  C   UNL     1       4.782  -1.241   2.123  1.00  0.00     0.021 C 
BRANCH   2   3
ATOM      3  C   UNL     1       4.514  -0.994   0.643  1.00  0.00     0.116 C 
BRANCH   3   4
ATOM      4  N   UNL     1       3.093  -0.997   0.336  1.00  0.00    -0.352 N 
ATOM      5  O   UNL     1       1.099  -0.110  -0.217  1.00  0.00    -0.269 OA
ATOM      6  C   UNL     1       2.322  -0.004  -0.217  1.00  0.00     0.251 C 
ATOM      7  H   UNL     1       2.616  -1.829   0.555  1.00  0.00     0.163 HD
BRANCH   6   8
ATOM      8  C   UNL     1       2.972   1.196  -0.784  1.00  0.00     0.039 A 
ATOM      9  C   UNL     1       4.094   1.076  -1.610  1.00  0.00     0.014 A 
ATOM     10  C   UNL     1       2.449   2.456  -0.488  1.00  0.00     0.014 A 
ATOM     11  C   UNL     1       4.773   2.216  -2.026  1.00  0.00     0.010 A 
ATOM     12  C   UNL     1       3.086   3.599  -0.976  1.00  0.00     0.010 A 
ATOM     13  C   UNL     1       4.270   3.490  -1.722  1.00  0.00    -0.014 A 
BRANCH  13  14
ATOM     14  C   UNL     1       4.955   4.704  -2.235  1.00  0.00     0.031 A 
ATOM     15  C   UNL     1       5.538   5.717  -1.291  1.00  0.00     0.074 A 
ATOM     16  C   UNL     1       5.006   4.910  -3.565  1.00  0.00     0.049 A 
ATOM     17  N   UNL     1       6.105   6.864  -1.562  1.00  0.00    -0.248 NA
ATOM     18  C   UNL     1       5.468   5.407   0.146  1.00  0.00     0.031 C 
ATOM     19  C   UNL     1       4.448   4.011  -4.577  1.00  0.00     0.029 A 
ATOM     20  N   UNL     1       5.525   5.950  -4.292  1.00  0.00    -0.354 N 
ATOM     21  C   UNL     1       6.416   7.437  -0.334  1.00  0.00     0.074 A 
ATOM     22  C   UNL     1       5.969   6.511   0.685  1.00  0.00     0.031 C 
ATOM     23  C   UNL     1       4.650   4.539  -5.793  1.00  0.00     0.029 A 
ATOM     24  C   UNL     1       5.295   5.838  -5.643  1.00  0.00     0.049 A 
ATOM     25  H   UNL     1       6.014   6.703  -3.888  1.00  0.00     0.167 HD
ATOM     26  C   UNL     1       7.023   8.621  -0.081  1.00  0.00     0.034 A 
ATOM     27  C   UNL     1       5.538   6.699  -6.649  1.00  0.00     0.034 A 
ATOM     28  C   UNL     1       7.475   9.529  -1.103  1.00  0.00     0.049 A 
ATOM     29  C   UNL     1       6.205   8.008  -6.343  1.00  0.00     0.074 A 
ATOM     30  C   UNL     1       8.157  10.723  -0.952  1.00  0.00     0.029 A 
ATOM     31  N   UNL     1       7.272   9.355  -2.464  1.00  0.00    -0.354 N 
ATOM     32  N   UNL     1       6.596   8.482  -5.186  1.00  0.00    -0.248 NA
ATOM     33  C   UNL     1       6.493   8.889  -7.483  1.00  0.00     0.031 C 
ATOM     34  C   UNL     1       8.330  11.291  -2.218  1.00  0.00     0.029 A 
ATOM     35  C   UNL     1       7.801  10.427  -3.163  1.00  0.00     0.049 A 
ATOM     36  H   UNL     1       6.818   8.583  -2.873  1.00  0.00     0.167 HD
ATOM     37  C   UNL     1       7.213   9.697  -5.459  1.00  0.00     0.074 A 
ATOM     38  C   UNL     1       7.149   9.881  -6.895  1.00  0.00     0.031 C 
ATOM     39  C   UNL     1       7.777  10.578  -4.597  1.00  0.00     0.034 A 
BRANCH  26  40
ATOM     40  C   UNL     1       7.239   9.004   1.362  1.00  0.00     0.023 A 
ATOM     41  C   UNL     1       8.180   8.302   2.144  1.00  0.00     0.012 A 
ATOM     42  C   UNL     1       6.542  10.087   1.934  1.00  0.00     0.148 A 
ATOM     43  C   UNL     1       8.389   8.640   3.481  1.00  0.00     0.002 A 
ATOM     44  C   UNL     1       6.790  10.449   3.253  1.00  0.00     0.091 A 
ATOM     45  F   UNL     1       5.638  10.733   1.184  1.00  0.00    -0.205 F 
ATOM     46  C   UNL     1       7.701   9.718   4.032  1.00  0.00     0.022 A 
BRANCH  44  47
ATOM     47  S   UNL     1       6.016  11.874   4.026  1.00  0.00     0.127 S 
ATOM     48  O   UNL     1       5.068  11.235   4.938  1.00  0.00    -0.237 OA
ATOM     49  O   UNL     1       7.151  12.522   4.684  1.00  0.00    -0.237 OA
ATOM     50  O   UNL     1       5.423  12.645   2.943  1.00  0.00    -0.744 OA
ENDBRANCH  44  47
ENDBRANCH  26  40
BRANCH  27  51
ATOM     51  C   UNL     1       5.167   6.321  -8.040  1.00  0.00     0.023 A 
ATOM     52  C   UNL     1       6.178   6.015  -8.971  1.00  0.00     0.012 A 
ATOM     53  C   UNL     1       3.816   6.200  -8.423  1.00  0.00     0.148 A 
ATOM     54  C   UNL     1       5.850   5.617 -10.267  1.00  0.00     0.002 A 
ATOM     55  C   UNL     1       3.497   5.747  -9.697  1.00  0.00     0.091 A 
ATOM     56  F   UNL     1       2.872   6.499  -7.520  1.00  0.00    -0.205 F 
ATOM     57  C   UNL     1       4.512   5.471 -10.626  1.00  0.00     0.022 A 
BRANCH  55  58
ATOM     58  S   UNL     1       1.810   5.399 -10.205  1.00  0.00     0.127 S 
ATOM     59  O   UNL     1       1.602   6.399 -11.249  1.00  0.00    -0.237 OA
ATOM     60  O   UNL     1       1.922   4.021 -10.684  1.00  0.00    -0.237 OA
ATOM     61  O   UNL     1       0.994   5.559  -9.009  1.00  0.00    -0.744 OA
ENDBRANCH  55  58
ENDBRANCH  27  51
BRANCH  39  62
ATOM     62  C   UNL     1       8.435  11.802  -5.176  1.00  0.00     0.023 A 
ATOM     63  C   UNL     1       7.653  12.848  -5.704  1.00  0.00     0.012 A 
ATOM     64  C   UNL     1       9.835  11.948  -5.112  1.00  0.00     0.148 A 
ATOM     65  C   UNL     1       8.258  14.011  -6.182  1.00  0.00     0.002 A 
ATOM     66  C   UNL     1      10.426  13.130  -5.539  1.00  0.00     0.091 A 
ATOM     67  F   UNL     1      10.561  10.931  -4.625  1.00  0.00    -0.205 F 
ATOM     68  C   UNL     1       9.641  14.158  -6.086  1.00  0.00     0.022 A 
BRANCH  66  69
ATOM     69  S   UNL     1      12.184  13.448  -5.359  1.00  0.00     0.127 S 
ATOM     70  O   UNL     1      12.633  13.436  -6.751  1.00  0.00    -0.237 OA
ATOM     71  O   UNL     1      12.196  14.767  -4.726  1.00  0.00    -0.237 OA
ATOM     72  O   UNL     1      12.707  12.372  -4.529  1.00  0.00    -0.744 OA
ENDBRANCH  66  69
ENDBRANCH  39  62
ENDBRANCH  13  14
ENDBRANCH   6   8
ENDBRANCH   3   4
ENDBRANCH   2   3
ENDBRANCH   1   2
BRANCH   1  73
ATOM     73  C   UNL     1       4.839  -3.812   1.875  1.00  0.00     0.002 C 
BRANCH  73  74
ATOM     74  C   UNL     1       6.364  -3.890   1.760  1.00  0.00     0.021 C 
BRANCH  74  75
ATOM     75  C   UNL     1       7.106  -3.872   3.094  1.00  0.00     0.116 C 
BRANCH  75  76
ATOM     76  N   UNL     1       6.775  -5.030   3.909  1.00  0.00    -0.352 N 
ATOM     77  C   UNL     1       7.617  -5.969   4.442  1.00  0.00     0.251 C 
ATOM     78  H   UNL     1       5.818  -5.156   4.104  1.00  0.00     0.163 HD
ATOM     79  O   UNL     1       7.177  -7.005   4.937  1.00  0.00    -0.269 OA
BRANCH  77  80
ATOM     80  C   UNL     1       9.072  -5.734   4.412  1.00  0.00     0.039 A 
ATOM     81  C   UNL     1       9.906  -6.706   3.862  1.00  0.00     0.016 A 
ATOM     82  C   UNL     1       9.609  -4.555   4.934  1.00  0.00     0.016 A 
ATOM     83  C   UNL     1      11.282  -6.473   3.789  1.00  0.00     0.027 A 
ATOM     84  C   UNL     1      10.983  -4.328   4.862  1.00  0.00     0.027 A 
ATOM     85  C   UNL     1      11.838  -5.286   4.297  1.00  0.00     0.051 A 
BRANCH  85  86
ATOM     86  N   UNL     1      13.243  -5.055   4.218  1.00  0.00    -0.261 N 
ATOM     87  C   UNL     1      13.919  -5.313   3.026  1.00  0.00     0.270 C 
ATOM     88  C   UNL     1      14.017  -4.600   5.279  1.00  0.00     0.152 C 
ATOM     89  O   UNL     1      13.454  -5.745   1.978  1.00  0.00    -0.268 OA
ATOM     90  C   UNL     1      15.361  -4.974   3.170  1.00  0.00     0.084 C 
ATOM     91  S   UNL     1      15.685  -4.403   4.754  1.00  0.00    -0.054 SA
ATOM     92  S   UNL     1      13.616  -4.361   6.887  1.00  0.00    -0.051 S 
ATOM     93  C   UNL     1      16.213  -5.097   2.144  1.00  0.00     0.068 C 
BRANCH  93  94
ATOM     94  C   UNL     1      17.602  -4.822   2.256  1.00  0.00     0.127 A 
ATOM     95  C   UNL     1      18.553  -5.381   3.103  1.00  0.00     0.050 A 
ATOM     96  O   UNL     1      18.245  -3.905   1.459  1.00  0.00    -0.465 OA
ATOM     97  C   UNL     1      19.790  -4.749   2.844  1.00  0.00     0.042 A 
ATOM     98  C   UNL     1      19.546  -3.851   1.837  1.00  0.00     0.195 A 
ENDBRANCH  93  94
ENDBRANCH  85  86
ENDBRANCH  77  80
ENDBRANCH  75  76
ENDBRANCH  74  75
ENDBRANCH  73  74
ENDBRANCH   1  73
TORSDOF 18
