REMARK SMILES CC(C)[C@@H]([NH3+])C(=O)N[C@@H](Cc1ccccc1)C(=O)NCCCCCCNC(=O)c1ccc(-c2c3nc(c(-c4cccc(S(=O)(=O)[O-])c4F)c4ccc([nH]4)c(-c4cccc(S(=O)(=O)[O-])c4F)c4nc(c(-c5cccc(S(=O)(=O)[O-])c5F)c5ccc2[nH]5)C=C4)C=C3)cc1
REMARK SMILES IDX 22 1 21 2 20 3 19 4 17 5 18 6 9 8 8 9 6 10 7 11 4 13 2 14
REMARK SMILES IDX 1 15 3 16 5 17 10 21 11 22 12 23 16 24 13 25 15 26 14 27
REMARK SMILES IDX 23 28 24 29 25 30 26 31 27 32 28 34 29 35 30 36 91 37 31 38
REMARK SMILES IDX 90 39 32 40 33 41 34 42 84 43 35 44 89 45 83 46 85 47 36 48
REMARK SMILES IDX 88 49 82 50 81 51 37 53 69 54 49 55 68 56 50 57 53 58 67 59
REMARK SMILES IDX 86 60 51 61 52 62 66 64 87 65 54 66 38 67 39 68 47 69 40 70
REMARK SMILES IDX 42 71 48 72 41 73 43 74 44 75 45 76 46 77 70 78 71 79 79 80
REMARK SMILES IDX 72 81 74 82 80 83 73 84 75 85 76 86 77 87 78 88 55 89 56 90
REMARK SMILES IDX 64 91 57 92 59 93 65 94 58 95 60 96 61 97 62 98 63 99
REMARK H PARENT 19 7 8 12 5 18 5 19 5 20 26 33 85 52 53 63
REMARK Flexibility Score: inf
ROOT
ATOM      1  C   UNL     1      -3.983  -4.662   6.868  1.00  0.00     0.002 C 
ENDROOT
BRANCH   1   2
ATOM      2  C   UNL     1      -3.520  -3.271   6.428  1.00  0.00     0.021 C 
BRANCH   2   3
ATOM      3  C   UNL     1      -2.121  -3.225   5.830  1.00  0.00     0.116 C 
BRANCH   3   4
ATOM      4  N   UNL     1      -2.030  -3.842   4.524  1.00  0.00    -0.354 N 
ATOM      5  C   UNL     1      -1.150  -3.617   3.508  1.00  0.00     0.242 C 
ATOM      6  O   UNL     1      -0.974  -4.558   2.721  1.00  0.00    -0.273 OA
ATOM      7  H   UNL     1      -2.709  -4.531   4.341  1.00  0.00     0.163 HD
BRANCH   5   8
ATOM      8  C   UNL     1      -0.290  -2.334   3.382  1.00  0.00     0.175 C 
BRANCH   8   9
ATOM      9  N   UNL     1      -0.985  -1.076   3.678  1.00  0.00    -0.339 N 
ATOM     10  C   UNL     1      -1.411  -0.092   2.841  1.00  0.00     0.279 C 
ATOM     11  O   UNL     1      -2.173   0.762   3.304  1.00  0.00    -0.268 OA
ATOM     12  H   UNL     1      -1.172  -0.920   4.632  1.00  0.00     0.164 HD
BRANCH  10  13
ATOM     13  C   UNL     1      -0.940  -0.000   1.372  1.00  0.00     0.273 C 
BRANCH  13  14
ATOM     14  C   UNL     1       0.594   0.185   1.252  1.00  0.00     0.051 C 
ATOM     15  C   UNL     1       1.054   0.305  -0.204  1.00  0.00     0.014 C 
ATOM     16  C   UNL     1       1.062   1.421   2.031  1.00  0.00     0.014 C 
ENDBRANCH  13  14
BRANCH  13  17
ATOM     17  N   UNL     1      -1.458  -1.161   0.620  1.00  0.00    -0.347 N 
ATOM     18  H   UNL     1      -1.085  -2.021   1.021  1.00  0.00     0.345 HD
ATOM     19  H   UNL     1      -1.171  -1.089  -0.357  1.00  0.00     0.345 HD
ATOM     20  H   UNL     1      -2.477  -1.174   0.674  1.00  0.00     0.345 HD
ENDBRANCH  13  17
ENDBRANCH  10  13
ENDBRANCH   8   9
BRANCH   8  21
ATOM     21  C   UNL     1       1.086  -2.447   4.069  1.00  0.00     0.070 C 
BRANCH  21  22
ATOM     22  C   UNL     1       1.104  -2.652   5.564  1.00  0.00    -0.045 A 
ATOM     23  C   UNL     1       0.922  -1.576   6.444  1.00  0.00     0.004 A 
ATOM     24  C   UNL     1       1.309  -3.935   6.094  1.00  0.00     0.004 A 
ATOM     25  C   UNL     1       0.910  -1.786   7.824  1.00  0.00     0.000 A 
ATOM     26  C   UNL     1       1.304  -4.141   7.475  1.00  0.00     0.000 A 
ATOM     27  C   UNL     1       1.099  -3.068   8.339  1.00  0.00     0.000 A 
ENDBRANCH  21  22
ENDBRANCH   8  21
ENDBRANCH   5   8
ENDBRANCH   3   4
ENDBRANCH   2   3
ENDBRANCH   1   2
BRANCH   1  28
ATOM     28  C   UNL     1      -3.017  -5.441   7.768  1.00  0.00     0.002 C 
BRANCH  28  29
ATOM     29  C   UNL     1      -2.500  -4.704   9.008  1.00  0.00     0.021 C 
BRANCH  29  30
ATOM     30  C   UNL     1      -3.568  -4.126   9.928  1.00  0.00     0.116 C 
BRANCH  30  31
ATOM     31  N   UNL     1      -4.504  -5.131  10.397  1.00  0.00    -0.352 N 
ATOM     32  C   UNL     1      -5.015  -5.336  11.651  1.00  0.00     0.251 C 
ATOM     33  H   UNL     1      -4.819  -5.761   9.709  1.00  0.00     0.163 HD
ATOM     34  O   UNL     1      -5.694  -6.340  11.864  1.00  0.00    -0.269 OA
BRANCH  32  35
ATOM     35  C   UNL     1      -4.749  -4.379  12.751  1.00  0.00     0.039 A 
ATOM     36  C   UNL     1      -4.533  -4.890  14.034  1.00  0.00     0.014 A 
ATOM     37  C   UNL     1      -4.764  -2.996  12.548  1.00  0.00     0.014 A 
ATOM     38  C   UNL     1      -4.314  -4.020  15.104  1.00  0.00     0.010 A 
ATOM     39  C   UNL     1      -4.470  -2.131  13.603  1.00  0.00     0.010 A 
ATOM     40  C   UNL     1      -4.270  -2.632  14.896  1.00  0.00    -0.014 A 
BRANCH  40  41
ATOM     41  C   UNL     1      -4.050  -1.703  16.034  1.00  0.00     0.031 A 
ATOM     42  C   UNL     1      -5.131  -0.739  16.450  1.00  0.00     0.074 A 
ATOM     43  C   UNL     1      -2.862  -1.696  16.669  1.00  0.00     0.049 A 
ATOM     44  N   UNL     1      -5.130   0.127  17.431  1.00  0.00    -0.248 NA
ATOM     45  C   UNL     1      -6.363  -0.725  15.644  1.00  0.00     0.031 C 
ATOM     46  C   UNL     1      -1.705  -2.517  16.307  1.00  0.00     0.029 A 
ATOM     47  N   UNL     1      -2.425  -0.962  17.744  1.00  0.00    -0.354 N 
ATOM     48  C   UNL     1      -6.339   0.806  17.342  1.00  0.00     0.074 A 
ATOM     49  C   UNL     1      -7.033   0.282  16.186  1.00  0.00     0.031 C 
ATOM     50  C   UNL     1      -0.696  -2.252  17.152  1.00  0.00     0.029 A 
ATOM     51  C   UNL     1      -1.126  -1.233  18.105  1.00  0.00     0.049 A 
ATOM     52  H   UNL     1      -2.988  -0.304  18.211  1.00  0.00     0.167 HD
ATOM     53  C   UNL     1      -6.846   1.754  18.167  1.00  0.00     0.034 A 
ATOM     54  C   UNL     1      -0.371  -0.726  19.099  1.00  0.00     0.034 A 
ATOM     55  C   UNL     1      -6.178   2.233  19.346  1.00  0.00     0.049 A 
ATOM     56  C   UNL     1      -0.982   0.276  20.042  1.00  0.00     0.074 A 
ATOM     57  C   UNL     1      -6.646   3.120  20.301  1.00  0.00     0.029 A 
ATOM     58  N   UNL     1      -4.898   1.869  19.733  1.00  0.00    -0.354 N 
ATOM     59  N   UNL     1      -2.195   0.775  20.044  1.00  0.00    -0.248 NA
ATOM     60  C   UNL     1      -0.136   0.750  21.146  1.00  0.00     0.031 C 
ATOM     61  C   UNL     1      -5.641   3.302  21.258  1.00  0.00     0.029 A 
ATOM     62  C   UNL     1      -4.555   2.515  20.908  1.00  0.00     0.049 A 
ATOM     63  H   UNL     1      -4.318   1.241  19.244  1.00  0.00     0.167 HD
ATOM     64  C   UNL     1      -2.266   1.598  21.162  1.00  0.00     0.074 A 
ATOM     65  C   UNL     1      -0.984   1.505  21.830  1.00  0.00     0.031 C 
ATOM     66  C   UNL     1      -3.293   2.376  21.588  1.00  0.00     0.034 A 
BRANCH  53  67
ATOM     67  C   UNL     1      -8.222   2.287  17.857  1.00  0.00     0.023 A 
ATOM     68  C   UNL     1      -9.346   1.460  18.061  1.00  0.00     0.012 A 
ATOM     69  C   UNL     1      -8.410   3.611  17.416  1.00  0.00     0.148 A 
ATOM     70  C   UNL     1     -10.632   1.929  17.797  1.00  0.00     0.002 A 
ATOM     71  C   UNL     1      -9.699   4.085  17.195  1.00  0.00     0.091 A 
ATOM     72  F   UNL     1      -7.329   4.376  17.206  1.00  0.00    -0.205 F 
ATOM     73  C   UNL     1     -10.809   3.243  17.374  1.00  0.00     0.022 A 
BRANCH  71  74
ATOM     74  S   UNL     1     -10.037   5.786  16.723  1.00  0.00     0.127 S 
ATOM     75  O   UNL     1     -10.439   5.629  15.326  1.00  0.00    -0.237 OA
ATOM     76  O   UNL     1     -11.126   6.148  17.633  1.00  0.00    -0.237 OA
ATOM     77  O   UNL     1      -8.798   6.516  16.941  1.00  0.00    -0.744 OA
ENDBRANCH  71  74
ENDBRANCH  53  67
BRANCH  54  78
ATOM     78  C   UNL     1       1.018  -1.224  19.304  1.00  0.00     0.023 A 
ATOM     79  C   UNL     1       1.304  -2.031  20.423  1.00  0.00     0.012 A 
ATOM     80  C   UNL     1       2.046  -0.933  18.387  1.00  0.00     0.148 A 
ATOM     81  C   UNL     1       2.595  -2.512  20.643  1.00  0.00     0.002 A 
ATOM     82  C   UNL     1       3.318  -1.461  18.583  1.00  0.00     0.091 A 
ATOM     83  F   UNL     1       1.758  -0.153  17.336  1.00  0.00    -0.205 F 
ATOM     84  C   UNL     1       3.598  -2.236  19.718  1.00  0.00     0.022 A 
BRANCH  82  85
ATOM     85  S   UNL     1       4.631  -1.267  17.373  1.00  0.00     0.127 S 
ATOM     86  O   UNL     1       5.508  -0.303  18.036  1.00  0.00    -0.237 OA
ATOM     87  O   UNL     1       5.168  -2.627  17.286  1.00  0.00    -0.237 OA
ATOM     88  O   UNL     1       3.980  -0.804  16.159  1.00  0.00    -0.744 OA
ENDBRANCH  82  85
ENDBRANCH  54  78
BRANCH  66  89
ATOM     89  C   UNL     1      -3.081   3.178  22.845  1.00  0.00     0.023 A 
ATOM     90  C   UNL     1      -2.228   4.299  22.820  1.00  0.00     0.012 A 
ATOM     91  C   UNL     1      -3.771   2.860  24.031  1.00  0.00     0.148 A 
ATOM     92  C   UNL     1      -2.035   5.069  23.966  1.00  0.00     0.002 A 
ATOM     93  C   UNL     1      -3.610   3.660  25.157  1.00  0.00     0.091 A 
ATOM     94  F   UNL     1      -4.563   1.778  24.043  1.00  0.00    -0.205 F 
ATOM     95  C   UNL     1      -2.734   4.757  25.130  1.00  0.00     0.022 A 
BRANCH  93  96
ATOM     96  S   UNL     1      -4.545   3.386  26.666  1.00  0.00     0.127 S 
ATOM     97  O   UNL     1      -3.547   2.747  27.523  1.00  0.00    -0.237 OA
ATOM     98  O   UNL     1      -4.907   4.747  27.064  1.00  0.00    -0.237 OA
ATOM     99  O   UNL     1      -5.676   2.551  26.286  1.00  0.00    -0.744 OA
ENDBRANCH  93  96
ENDBRANCH  66  89
ENDBRANCH  40  41
ENDBRANCH  32  35
ENDBRANCH  30  31
ENDBRANCH  29  30
ENDBRANCH  28  29
ENDBRANCH   1  28
TORSDOF 22
