REMARK SMILES Cn1cc(C[C@@H](NC(=O)OCC2c3ccccc3-c3ccccc32)C(=O)NCCCCCCNC(=O)c2ccc(-c3c4nc(c(-c5cccc(S(=O)(=O)[O-])c5F)c5ccc([nH]5)c(-c5cccc(S(=O)(=O)[O-])c5F)c5nc(c(-c6cccc(S(=O)(=O)[O-])c6F)c6ccc3[nH]6)C=C5)C=C4)cc2)c2ccccc21
REMARK SMILES IDX 30 1 29 2 28 3 27 4 25 5 26 6 6 8 5 9 4 10 1 11 2 12 3 13
REMARK SMILES IDX 105 14 100 15 104 16 101 17 103 18 102 19 7 20 8 21 9 23
REMARK SMILES IDX 10 24 11 25 12 26 13 27 24 28 14 29 18 30 19 31 23 32 15 33
REMARK SMILES IDX 17 34 20 35 22 36 16 37 21 38 31 39 32 40 33 41 34 42 35 43
REMARK SMILES IDX 36 45 37 46 38 47 99 48 39 49 98 50 40 51 41 52 42 53 92 54
REMARK SMILES IDX 43 55 97 56 91 57 93 58 44 59 96 60 90 61 89 62 45 64 77 65
REMARK SMILES IDX 57 66 76 67 58 68 61 69 75 70 94 71 59 72 60 73 74 75 95 76
REMARK SMILES IDX 62 77 46 78 47 79 55 80 48 81 50 82 56 83 49 84 51 85 52 86
REMARK SMILES IDX 53 87 54 88 78 89 79 90 87 91 80 92 82 93 88 94 81 95 83 96
REMARK SMILES IDX 84 97 85 98 86 99 63 100 64 101 72 102 65 103 67 104 73 105
REMARK SMILES IDX 66 106 68 107 69 108 70 109 71 110
REMARK H PARENT 27 7 7 22 34 44 93 63 61 74
REMARK Flexibility Score: inf
ROOT
ATOM      1  C   UNL     1      -0.324  -7.683  -2.749  1.00  0.00     0.002 C 
ENDROOT
BRANCH   1   2
ATOM      2  C   UNL     1      -0.140  -6.186  -2.476  1.00  0.00     0.021 C 
BRANCH   2   3
ATOM      3  C   UNL     1      -0.677  -5.746  -1.120  1.00  0.00     0.116 C 
BRANCH   3   4
ATOM      4  N   UNL     1       0.226  -6.115  -0.041  1.00  0.00    -0.354 N 
ATOM      5  C   UNL     1       0.658  -5.391   1.036  1.00  0.00     0.243 C 
ATOM      6  O   UNL     1       1.403  -5.960   1.843  1.00  0.00    -0.273 OA
ATOM      7  H   UNL     1       0.583  -7.031  -0.095  1.00  0.00     0.163 HD
BRANCH   5   8
ATOM      8  C   UNL     1       0.327  -3.890   1.185  1.00  0.00     0.179 C 
BRANCH   8   9
ATOM      9  C   UNL     1       0.997  -3.100   0.029  1.00  0.00     0.073 C 
BRANCH   9  10
ATOM     10  C   UNL     1       0.957  -1.598   0.129  1.00  0.00    -0.020 A 
ATOM     11  C   UNL     1       2.510   1.675   0.286  1.00  0.00     0.149 C 
ATOM     12  N   UNL     1       1.633   0.526   0.274  1.00  0.00    -0.350 N 
ATOM     13  C   UNL     1       2.045  -0.776   0.365  1.00  0.00     0.090 A 
ATOM     14  C   UNL     1       0.271   0.586   0.078  1.00  0.00     0.048 A 
ATOM     15  C   UNL     1      -0.165  -0.729  -0.105  1.00  0.00     0.003 A 
ATOM     16  C   UNL     1      -0.601   1.685   0.002  1.00  0.00     0.027 A 
ATOM     17  C   UNL     1      -1.517  -0.933  -0.459  1.00  0.00     0.010 A 
ATOM     18  C   UNL     1      -1.948   1.440  -0.277  1.00  0.00     0.002 A 
ATOM     19  C   UNL     1      -2.400   0.149  -0.517  1.00  0.00     0.001 A 
ENDBRANCH   9  10
ENDBRANCH   8   9
BRANCH   8  20
ATOM     20  N   UNL     1      -1.072  -3.530   1.421  1.00  0.00    -0.309 N 
ATOM     21  C   UNL     1      -2.210  -4.224   1.180  1.00  0.00     0.407 C 
ATOM     22  H   UNL     1      -1.208  -2.639   1.819  1.00  0.00     0.167 HD
ATOM     23  O   UNL     1      -3.200  -3.650   0.730  1.00  0.00    -0.225 OA
BRANCH  21  24
ATOM     24  O   UNL     1      -2.167  -5.532   1.532  1.00  0.00    -0.449 OA
BRANCH  24  25
ATOM     25  C   UNL     1      -3.427  -6.238   1.427  1.00  0.00     0.248 C 
BRANCH  25  26
ATOM     26  C   UNL     1      -4.203  -6.322   2.759  1.00  0.00     0.088 C 
ATOM     27  C   UNL     1      -3.607  -7.340   3.727  1.00  0.00    -0.029 A 
ATOM     28  C   UNL     1      -4.157  -5.048   3.592  1.00  0.00    -0.029 A 
ATOM     29  C   UNL     1      -3.530  -8.719   3.587  1.00  0.00     0.005 A 
ATOM     30  C   UNL     1      -3.172  -6.696   4.905  1.00  0.00    -0.014 A 
ATOM     31  C   UNL     1      -3.467  -5.282   4.801  1.00  0.00    -0.014 A 
ATOM     32  C   UNL     1      -4.644  -3.791   3.273  1.00  0.00     0.005 A 
ATOM     33  C   UNL     1      -2.994  -9.458   4.643  1.00  0.00     0.000 A 
ATOM     34  C   UNL     1      -2.632  -7.430   5.947  1.00  0.00     0.009 A 
ATOM     35  C   UNL     1      -3.186  -4.233   5.660  1.00  0.00     0.009 A 
ATOM     36  C   UNL     1      -4.350  -2.733   4.133  1.00  0.00     0.000 A 
ATOM     37  C   UNL     1      -2.546  -8.819   5.811  1.00  0.00     0.001 A 
ATOM     38  C   UNL     1      -3.616  -2.949   5.309  1.00  0.00     0.001 A 
ENDBRANCH  25  26
ENDBRANCH  24  25
ENDBRANCH  21  24
ENDBRANCH   8  20
ENDBRANCH   5   8
ENDBRANCH   3   4
ENDBRANCH   2   3
ENDBRANCH   1   2
BRANCH   1  39
ATOM     39  C   UNL     1      -1.778  -8.174  -2.742  1.00  0.00     0.002 C 
BRANCH  39  40
ATOM     40  C   UNL     1      -2.736  -7.416  -3.667  1.00  0.00     0.021 C 
BRANCH  40  41
ATOM     41  C   UNL     1      -2.307  -7.349  -5.130  1.00  0.00     0.116 C 
BRANCH  41  42
ATOM     42  N   UNL     1      -2.129  -8.669  -5.718  1.00  0.00    -0.352 N 
ATOM     43  C   UNL     1      -2.589  -9.150  -6.919  1.00  0.00     0.251 C 
ATOM     44  H   UNL     1      -1.607  -9.306  -5.179  1.00  0.00     0.163 HD
ATOM     45  O   UNL     1      -2.466 -10.339  -7.199  1.00  0.00    -0.269 OA
BRANCH  43  46
ATOM     46  C   UNL     1      -3.257  -8.230  -7.862  1.00  0.00     0.039 A 
ATOM     47  C   UNL     1      -4.507  -8.583  -8.377  1.00  0.00     0.014 A 
ATOM     48  C   UNL     1      -2.663  -7.014  -8.211  1.00  0.00     0.014 A 
ATOM     49  C   UNL     1      -5.200  -7.679  -9.185  1.00  0.00     0.010 A 
ATOM     50  C   UNL     1      -3.376  -6.095  -8.976  1.00  0.00     0.010 A 
ATOM     51  C   UNL     1      -4.655  -6.414  -9.457  1.00  0.00    -0.014 A 
BRANCH  51  52
ATOM     52  C   UNL     1      -5.432  -5.382 -10.186  1.00  0.00     0.031 A 
ATOM     53  C   UNL     1      -4.988  -4.905 -11.539  1.00  0.00     0.074 A 
ATOM     54  C   UNL     1      -6.476  -4.793  -9.569  1.00  0.00     0.049 A 
ATOM     55  N   UNL     1      -5.495  -3.957 -12.282  1.00  0.00    -0.248 NA
ATOM     56  C   UNL     1      -3.808  -5.563 -12.123  1.00  0.00     0.031 C 
ATOM     57  C   UNL     1      -6.950  -5.114  -8.221  1.00  0.00     0.029 A 
ATOM     58  N   UNL     1      -7.301  -3.775  -9.977  1.00  0.00    -0.354 N 
ATOM     59  C   UNL     1      -4.683  -3.881 -13.406  1.00  0.00     0.074 A 
ATOM     60  C   UNL     1      -3.635  -4.865 -13.237  1.00  0.00     0.031 C 
ATOM     61  C   UNL     1      -7.974  -4.304  -7.910  1.00  0.00     0.029 A 
ATOM     62  C   UNL     1      -8.214  -3.391  -9.023  1.00  0.00     0.049 A 
ATOM     63  H   UNL     1      -7.245  -3.360 -10.868  1.00  0.00     0.167 HD
ATOM     64  C   UNL     1      -4.816  -3.085 -14.493  1.00  0.00     0.034 A 
ATOM     65  C   UNL     1      -9.134  -2.407  -9.037  1.00  0.00     0.034 A 
ATOM     66  C   UNL     1      -5.888  -2.145 -14.680  1.00  0.00     0.049 A 
ATOM     67  C   UNL     1      -9.276  -1.556 -10.268  1.00  0.00     0.074 A 
ATOM     68  C   UNL     1      -6.176  -1.380 -15.797  1.00  0.00     0.029 A 
ATOM     69  N   UNL     1      -6.841  -1.833 -13.724  1.00  0.00    -0.354 N 
ATOM     70  N   UNL     1      -8.613  -1.624 -11.397  1.00  0.00    -0.248 NA
ATOM     71  C   UNL     1     -10.309  -0.510 -10.239  1.00  0.00     0.031 C 
ATOM     72  C   UNL     1      -7.300  -0.596 -15.511  1.00  0.00     0.029 A 
ATOM     73  C   UNL     1      -7.710  -0.874 -14.217  1.00  0.00     0.049 A 
ATOM     74  H   UNL     1      -6.893  -2.234 -12.826  1.00  0.00     0.167 HD
ATOM     75  C   UNL     1      -9.159  -0.645 -12.219  1.00  0.00     0.074 A 
ATOM     76  C   UNL     1     -10.226  -0.016 -11.467  1.00  0.00     0.031 C 
ATOM     77  C   UNL     1      -8.795  -0.286 -13.474  1.00  0.00     0.034 A 
BRANCH  64  78
ATOM     78  C   UNL     1      -3.816  -3.251 -15.605  1.00  0.00     0.023 A 
ATOM     79  C   UNL     1      -3.919  -4.369 -16.457  1.00  0.00     0.012 A 
ATOM     80  C   UNL     1      -2.822  -2.284 -15.848  1.00  0.00     0.148 A 
ATOM     81  C   UNL     1      -3.033  -4.535 -17.520  1.00  0.00     0.002 A 
ATOM     82  C   UNL     1      -1.963  -2.440 -16.930  1.00  0.00     0.091 A 
ATOM     83  F   UNL     1      -2.723  -1.242 -15.010  1.00  0.00    -0.205 F 
ATOM     84  C   UNL     1      -2.063  -3.567 -17.762  1.00  0.00     0.022 A 
BRANCH  82  85
ATOM     85  S   UNL     1      -0.721  -1.213 -17.357  1.00  0.00     0.127 S 
ATOM     86  O   UNL     1       0.501  -1.846 -16.863  1.00  0.00    -0.237 OA
ATOM     87  O   UNL     1      -0.829  -1.153 -18.815  1.00  0.00    -0.237 OA
ATOM     88  O   UNL     1      -1.120   0.009 -16.672  1.00  0.00    -0.744 OA
ENDBRANCH  82  85
ENDBRANCH  64  78
BRANCH  65  89
ATOM     89  C   UNL     1     -10.036  -2.223  -7.867  1.00  0.00     0.023 A 
ATOM     90  C   UNL     1     -11.388  -2.602  -7.978  1.00  0.00     0.012 A 
ATOM     91  C   UNL     1      -9.559  -1.728  -6.638  1.00  0.00     0.148 A 
ATOM     92  C   UNL     1     -12.253  -2.474  -6.891  1.00  0.00     0.002 A 
ATOM     93  C   UNL     1     -10.415  -1.650  -5.545  1.00  0.00     0.091 A 
ATOM     94  F   UNL     1      -8.275  -1.353  -6.558  1.00  0.00    -0.205 F 
ATOM     95  C   UNL     1     -11.765  -2.011  -5.673  1.00  0.00     0.022 A 
BRANCH  93  96
ATOM     96  S   UNL     1      -9.827  -1.192  -3.910  1.00  0.00     0.127 S 
ATOM     97  O   UNL     1     -10.246   0.203  -3.820  1.00  0.00    -0.237 OA
ATOM     98  O   UNL     1     -10.565  -2.115  -3.046  1.00  0.00    -0.237 OA
ATOM     99  O   UNL     1      -8.390  -1.431  -3.941  1.00  0.00    -0.744 OA
ENDBRANCH  93  96
ENDBRANCH  65  89
BRANCH  77 100
ATOM    100  C   UNL     1      -9.547   0.847 -14.117  1.00  0.00     0.023 A 
ATOM    101  C   UNL     1      -9.274   2.169 -13.715  1.00  0.00     0.012 A 
ATOM    102  C   UNL     1     -10.461   0.616 -15.164  1.00  0.00     0.148 A 
ATOM    103  C   UNL     1      -9.913   3.244 -14.330  1.00  0.00     0.002 A 
ATOM    104  C   UNL     1     -11.066   1.694 -15.799  1.00  0.00     0.091 A 
ATOM    105  F   UNL     1     -10.724  -0.651 -15.517  1.00  0.00    -0.205 F 
ATOM    106  C   UNL     1     -10.799   3.008 -15.378  1.00  0.00     0.022 A 
BRANCH 104 107
ATOM    107  S   UNL     1     -12.156   1.486 -17.212  1.00  0.00     0.127 S 
ATOM    108  O   UNL     1     -13.471   1.690 -16.607  1.00  0.00    -0.237 OA
ATOM    109  O   UNL     1     -11.722   2.561 -18.105  1.00  0.00    -0.237 OA
ATOM    110  O   UNL     1     -11.898   0.144 -17.717  1.00  0.00    -0.744 OA
ENDBRANCH 104 107
ENDBRANCH  77 100
ENDBRANCH  51  52
ENDBRANCH  43  46
ENDBRANCH  41  42
ENDBRANCH  40  41
ENDBRANCH  39  40
ENDBRANCH   1  39
TORSDOF 22
