REMARK SMILES O=C(NCCCCCCNC(=O)c1cc2ncoc2cn1)c1ccc(-c2c3nc(c(-c4cccc(S(=O)(=O)[O-])c4F)c4ccc([nH]4)c(-c4cccc(S(=O)(=O)[O-])c4F)c4nc(c(-c5cccc(S(=O)(=O)[O-])c5F)c5ccc2[nH]5)C=C4)C=C3)cc1
REMARK SMILES IDX 5 1 4 2 3 3 1 4 2 5 22 7 23 8 84 9 24 10 83 11 25 12 26 13
REMARK SMILES IDX 27 14 77 15 28 16 82 17 76 18 78 19 29 20 81 21 75 22 74 23
REMARK SMILES IDX 30 25 62 26 42 27 61 28 43 29 46 30 60 31 79 32 44 33 45 34
REMARK SMILES IDX 59 36 80 37 47 38 31 39 32 40 40 41 33 42 35 43 41 44 34 45
REMARK SMILES IDX 36 46 37 47 38 48 39 49 63 50 64 51 72 52 65 53 67 54 73 55
REMARK SMILES IDX 66 56 68 57 69 58 70 59 71 60 48 61 49 62 57 63 50 64 52 65
REMARK SMILES IDX 58 66 51 67 53 68 54 69 55 70 56 71 6 72 7 73 8 74 9 75
REMARK SMILES IDX 10 76 11 77 12 79 13 80 14 81 21 82 15 83 20 84 16 85 19 86
REMARK SMILES IDX 17 87 18 88
REMARK H PARENT 3 6 78 24 46 35 10 78
REMARK Flexibility Score: inf
ROOT
ATOM      1  C   UNL     1       4.556  -2.410  -2.181  1.00  0.00     0.021 C 
ENDROOT
BRANCH   1   2
ATOM      2  C   UNL     1       4.173  -1.327  -1.190  1.00  0.00     0.116 C 
BRANCH   2   3
ATOM      3  N   UNL     1       2.721  -1.190  -0.972  1.00  0.00    -0.352 N 
ATOM      4  O   UNL     1       0.919  -0.451   0.225  1.00  0.00    -0.269 OA
ATOM      5  C   UNL     1       2.055  -0.264  -0.165  1.00  0.00     0.251 C 
ATOM      6  H   UNL     1       2.150  -1.831  -1.455  1.00  0.00     0.163 HD
BRANCH   5   7
ATOM      7  C   UNL     1       2.781   0.977   0.174  1.00  0.00     0.039 A 
ATOM      8  C   UNL     1       2.758   1.609   1.418  1.00  0.00     0.014 A 
ATOM      9  C   UNL     1       3.604   1.445  -0.830  1.00  0.00     0.014 A 
ATOM     10  C   UNL     1       3.631   2.681   1.617  1.00  0.00     0.010 A 
ATOM     11  C   UNL     1       4.709   2.142  -0.472  1.00  0.00     0.010 A 
ATOM     12  C   UNL     1       4.610   2.938   0.644  1.00  0.00    -0.014 A 
BRANCH  12  13
ATOM     13  C   UNL     1       5.566   4.030   0.700  1.00  0.00     0.031 A 
ATOM     14  C   UNL     1       6.312   4.124   1.970  1.00  0.00     0.074 A 
ATOM     15  C   UNL     1       5.878   4.777  -0.388  1.00  0.00     0.049 A 
ATOM     16  N   UNL     1       6.116   4.981   2.914  1.00  0.00    -0.248 NA
ATOM     17  C   UNL     1       7.261   3.055   2.308  1.00  0.00     0.031 C 
ATOM     18  C   UNL     1       5.449   4.617  -1.792  1.00  0.00     0.029 A 
ATOM     19  N   UNL     1       6.775   5.789  -0.486  1.00  0.00    -0.354 N 
ATOM     20  C   UNL     1       7.100   4.717   3.854  1.00  0.00     0.074 A 
ATOM     21  C   UNL     1       7.627   3.412   3.542  1.00  0.00     0.031 C 
ATOM     22  C   UNL     1       6.276   5.306  -2.608  1.00  0.00     0.029 A 
ATOM     23  C   UNL     1       7.151   6.112  -1.787  1.00  0.00     0.049 A 
ATOM     24  H   UNL     1       7.133   6.259   0.301  1.00  0.00     0.167 HD
ATOM     25  C   UNL     1       7.596   5.702   4.650  1.00  0.00     0.034 A 
ATOM     26  C   UNL     1       8.136   6.970  -2.145  1.00  0.00     0.034 A 
ATOM     27  C   UNL     1       6.811   6.906   4.575  1.00  0.00     0.049 A 
ATOM     28  C   UNL     1       8.320   7.877  -0.986  1.00  0.00     0.074 A 
ATOM     29  C   UNL     1       5.492   7.223   4.829  1.00  0.00     0.029 A 
ATOM     30  N   UNL     1       7.288   7.901   3.753  1.00  0.00    -0.354 N 
ATOM     31  N   UNL     1       7.397   8.694  -0.559  1.00  0.00    -0.248 NA
ATOM     32  C   UNL     1       9.361   7.545  -0.027  1.00  0.00     0.031 C 
ATOM     33  C   UNL     1       5.117   8.104   3.772  1.00  0.00     0.029 A 
ATOM     34  C   UNL     1       6.243   8.331   2.977  1.00  0.00     0.049 A 
ATOM     35  H   UNL     1       8.212   8.241   3.727  1.00  0.00     0.167 HD
ATOM     36  C   UNL     1       7.481   8.614   0.825  1.00  0.00     0.074 A 
ATOM     37  C   UNL     1       8.770   7.976   1.091  1.00  0.00     0.031 C 
ATOM     38  C   UNL     1       6.383   8.801   1.614  1.00  0.00     0.034 A 
BRANCH  25  39
ATOM     39  C   UNL     1       8.990   5.700   5.200  1.00  0.00     0.023 A 
ATOM     40  C   UNL     1       9.268   6.513   6.316  1.00  0.00     0.012 A 
ATOM     41  C   UNL     1      10.085   5.125   4.518  1.00  0.00     0.148 A 
ATOM     42  C   UNL     1      10.582   6.738   6.737  1.00  0.00     0.002 A 
ATOM     43  C   UNL     1      11.381   5.287   4.985  1.00  0.00     0.091 A 
ATOM     44  F   UNL     1       9.888   4.528   3.337  1.00  0.00    -0.205 F 
ATOM     45  C   UNL     1      11.639   6.111   6.083  1.00  0.00     0.022 A 
BRANCH  43  46
ATOM     46  S   UNL     1      12.770   4.468   4.195  1.00  0.00     0.127 S 
ATOM     47  O   UNL     1      13.395   5.578   3.482  1.00  0.00    -0.237 OA
ATOM     48  O   UNL     1      13.519   3.969   5.348  1.00  0.00    -0.237 OA
ATOM     49  O   UNL     1      12.179   3.423   3.370  1.00  0.00    -0.744 OA
ENDBRANCH  43  46
ENDBRANCH  25  39
BRANCH  26  50
ATOM     50  C   UNL     1       9.129   6.874  -3.246  1.00  0.00     0.023 A 
ATOM     51  C   UNL     1       9.944   7.992  -3.523  1.00  0.00     0.012 A 
ATOM     52  C   UNL     1       9.503   5.629  -3.802  1.00  0.00     0.148 A 
ATOM     53  C   UNL     1      11.128   7.862  -4.259  1.00  0.00     0.002 A 
ATOM     54  C   UNL     1      10.680   5.506  -4.540  1.00  0.00     0.091 A 
ATOM     55  F   UNL     1       8.763   4.546  -3.531  1.00  0.00    -0.205 F 
ATOM     56  C   UNL     1      11.505   6.618  -4.753  1.00  0.00     0.022 A 
BRANCH  54  57
ATOM     57  S   UNL     1      11.235   3.928  -5.204  1.00  0.00     0.127 S 
ATOM     58  O   UNL     1      11.629   4.290  -6.566  1.00  0.00    -0.237 OA
ATOM     59  O   UNL     1      12.345   3.595  -4.315  1.00  0.00    -0.237 OA
ATOM     60  O   UNL     1      10.081   3.038  -5.132  1.00  0.00    -0.744 OA
ENDBRANCH  54  57
ENDBRANCH  26  50
BRANCH  38  61
ATOM     61  C   UNL     1       5.122   9.319   0.965  1.00  0.00     0.023 A 
ATOM     62  C   UNL     1       4.343   8.528   0.093  1.00  0.00     0.012 A 
ATOM     63  C   UNL     1       4.610  10.548   1.409  1.00  0.00     0.148 A 
ATOM     64  C   UNL     1       3.079   8.957  -0.325  1.00  0.00     0.002 A 
ATOM     65  C   UNL     1       3.341  10.955   1.019  1.00  0.00     0.091 A 
ATOM     66  F   UNL     1       5.362  11.274   2.250  1.00  0.00    -0.205 F 
ATOM     67  C   UNL     1       2.572  10.165   0.149  1.00  0.00     0.022 A 
BRANCH  65  68
ATOM     68  S   UNL     1       2.584  12.445   1.671  1.00  0.00     0.127 S 
ATOM     69  O   UNL     1       2.489  13.286   0.479  1.00  0.00    -0.237 OA
ATOM     70  O   UNL     1       1.302  11.948   2.172  1.00  0.00    -0.237 OA
ATOM     71  O   UNL     1       3.483  12.939   2.706  1.00  0.00    -0.744 OA
ENDBRANCH  65  68
ENDBRANCH  38  61
ENDBRANCH  12  13
ENDBRANCH   5   7
ENDBRANCH   2   3
ENDBRANCH   1   2
BRANCH   1  72
ATOM     72  C   UNL     1       4.142  -2.122  -3.632  1.00  0.00     0.002 C 
BRANCH  72  73
ATOM     73  C   UNL     1       4.711  -0.859  -4.300  1.00  0.00     0.002 C 
BRANCH  73  74
ATOM     74  C   UNL     1       6.233  -0.683  -4.269  1.00  0.00     0.021 C 
BRANCH  74  75
ATOM     75  C   UNL     1       7.046  -1.881  -4.754  1.00  0.00     0.116 C 
BRANCH  75  76
ATOM     76  N   UNL     1       6.723  -2.248  -6.124  1.00  0.00    -0.351 N 
ATOM     77  C   UNL     1       7.587  -2.418  -7.182  1.00  0.00     0.269 C 
ATOM     78  H   UNL     1       5.769  -2.393  -6.318  1.00  0.00     0.163 HD
ATOM     79  O   UNL     1       7.141  -2.601  -8.314  1.00  0.00    -0.268 OA
BRANCH  77  80
ATOM     80  C   UNL     1       9.059  -2.371  -6.952  1.00  0.00     0.130 A 
ATOM     81  C   UNL     1       9.831  -1.605  -7.819  1.00  0.00     0.066 A 
ATOM     82  N   UNL     1       9.534  -3.104  -5.896  1.00  0.00    -0.247 NA
ATOM     83  C   UNL     1      11.187  -1.559  -7.508  1.00  0.00     0.113 A 
ATOM     84  C   UNL     1      10.855  -3.030  -5.597  1.00  0.00     0.161 A 
ATOM     85  N   UNL     1      12.232  -0.913  -8.121  1.00  0.00    -0.216 NA
ATOM     86  C   UNL     1      11.657  -2.253  -6.405  1.00  0.00     0.172 A 
ATOM     87  C   UNL     1      13.251  -1.165  -7.328  1.00  0.00     0.309 A 
ATOM     88  O   UNL     1      12.995  -2.015  -6.292  1.00  0.00    -0.442 OA
ENDBRANCH  77  80
ENDBRANCH  75  76
ENDBRANCH  74  75
ENDBRANCH  73  74
ENDBRANCH  72  73
ENDBRANCH   1  72
TORSDOF 16
