REMARK SMILES Cc1nn(-c2ccc(C(=O)NCCCCCCNC(=O)c3ccc(-c4c5nc(c(-c6cccc(S(=O)(=O)[O-])c6F)c6ccc([nH]6)c(-c6cccc(S(=O)(=O)[O-])c6F)c6nc(c(-c7cccc(S(=O)(=O)[O-])c7F)c7ccc4[nH]7)C=C6)C=C5)cc3)cc2)c2c1[C@@H](c1ccc[nH]c1=O)SCC(O)=N2
REMARK SMILES IDX 14 1 13 2 12 3 11 4 9 5 10 6 8 8 5 9 6 10 85 11 7 12 84 13
REMARK SMILES IDX 4 14 1 15 2 16 3 17 87 18 86 19 88 20 89 21 90 22 94 23
REMARK SMILES IDX 91 24 93 25 95 26 92 27 96 29 97 30 100 32 98 33 99 35 15 37
REMARK SMILES IDX 16 38 17 39 18 40 19 41 20 43 21 44 22 45 83 46 23 47 82 48
REMARK SMILES IDX 24 49 25 50 26 51 76 52 27 53 81 54 75 55 77 56 28 57 80 58
REMARK SMILES IDX 74 59 73 60 29 62 61 63 41 64 60 65 42 66 45 67 59 68 78 69
REMARK SMILES IDX 43 70 44 71 58 73 79 74 46 75 30 76 31 77 39 78 32 79 34 80
REMARK SMILES IDX 40 81 33 82 35 83 36 84 37 85 38 86 62 87 63 88 71 89 64 90
REMARK SMILES IDX 66 91 72 92 65 93 67 94 68 95 69 96 70 97 47 98 48 99 56 100
REMARK SMILES IDX 49 101 51 102 57 103 50 104 52 105 53 106 54 107 55 108
REMARK H PARENT 11 7 93 28 99 36 18 42 77 61 45 72
REMARK Flexibility Score: 90.00
ROOT
ATOM      1  C   UNL     1      -2.559 -10.936  -4.050  1.00  0.00     0.002 C 
ENDROOT
BRANCH   1   2
ATOM      2  C   UNL     1      -2.317  -9.499  -3.570  1.00  0.00     0.021 C 
BRANCH   2   3
ATOM      3  C   UNL     1      -0.830  -9.187  -3.403  1.00  0.00     0.116 C 
BRANCH   3   4
ATOM      4  N   UNL     1      -0.231  -8.925  -4.695  1.00  0.00    -0.352 N 
ATOM      5  C   UNL     1       0.171  -7.771  -5.311  1.00  0.00     0.251 C 
ATOM      6  O   UNL     1       0.667  -7.878  -6.435  1.00  0.00    -0.269 OA
ATOM      7  H   UNL     1      -0.084  -9.735  -5.235  1.00  0.00     0.163 HD
BRANCH   5   8
ATOM      8  C   UNL     1       0.133  -6.439  -4.646  1.00  0.00     0.039 A 
ATOM      9  C   UNL     1       0.307  -3.940  -3.426  1.00  0.00     0.067 A 
ATOM     10  C   UNL     1       1.071  -4.202  -4.567  1.00  0.00     0.029 A 
ATOM     11  C   UNL     1      -0.566  -4.890  -2.908  1.00  0.00     0.029 A 
ATOM     12  C   UNL     1       1.008  -5.464  -5.151  1.00  0.00     0.016 A 
ATOM     13  C   UNL     1      -0.707  -6.102  -3.578  1.00  0.00     0.016 A 
BRANCH   9  14
ATOM     14  N   UNL     1       0.230  -2.634  -2.913  1.00  0.00    -0.215 N 
ATOM     15  C   UNL     1       0.310  -0.509  -0.108  1.00  0.00     0.069 C 
ATOM     16  C   UNL     1       0.194  -1.083  -1.478  1.00  0.00     0.067 A 
ATOM     17  N   UNL     1       0.441  -2.387  -1.609  1.00  0.00    -0.171 NA
ATOM     18  C   UNL     1      -0.141  -0.450  -2.734  1.00  0.00     0.038 A 
ATOM     19  C   UNL     1      -0.173  -1.517  -3.629  1.00  0.00     0.164 A 
BRANCH  18  20
ATOM     20  C   UNL     1      -0.510   1.012  -2.936  1.00  0.00     0.118 C 
BRANCH  20  21
ATOM     21  C   UNL     1       0.454   1.993  -2.284  1.00  0.00     0.035 A 
ATOM     22  C   UNL     1       1.734   1.754  -1.930  1.00  0.00     0.012 A 
ATOM     23  C   UNL     1      -0.122   3.337  -1.926  1.00  0.00     0.252 A 
ATOM     24  C   UNL     1       2.497   2.691  -1.141  1.00  0.00     0.018 A 
ATOM     25  N   UNL     1       0.702   4.188  -1.227  1.00  0.00    -0.329 N 
ATOM     26  O   UNL     1      -1.261   3.681  -2.219  1.00  0.00    -0.269 OA
ATOM     27  C   UNL     1       1.966   3.873  -0.815  1.00  0.00     0.086 A 
ATOM     28  H   UNL     1       0.358   5.084  -1.010  1.00  0.00     0.169 HD
ENDBRANCH  20  21
BRANCH  20  29
ATOM     29  S   UNL     1      -0.775   1.602  -4.672  1.00  0.00    -0.139 SA
BRANCH  29  30
ATOM     30  C   UNL     1       0.287   0.495  -5.608  1.00  0.00     0.167 CG0
ATOM     31  G   UNL     1      -0.437  -0.801  -5.792  1.00  0.00     0.000 G0
ENDBRANCH  29  30
ENDBRANCH  20  29
ENDBRANCH  18  20
BRANCH  19  32
ATOM     32  N   UNL     1      -0.618  -1.701  -4.898  1.00  0.00    -0.197 NA
ATOM     33  C   UNL     1      -0.437  -0.801  -5.792  1.00  0.00     0.197 CG0
ATOM     34  G   UNL     1       0.287   0.495  -5.608  1.00  0.00     0.000 G0
BRANCH  33  35
ATOM     35  O   UNL     1      -0.944  -1.029  -7.017  1.00  0.00    -0.496 OA
ATOM     36  H   UNL     1      -0.832  -0.394  -7.696  1.00  0.00     0.295 HD
ENDBRANCH  33  35
ENDBRANCH  19  32
ENDBRANCH   9  14
ENDBRANCH   5   8
ENDBRANCH   3   4
ENDBRANCH   2   3
ENDBRANCH   1   2
BRANCH   1  37
ATOM     37  C   UNL     1      -1.901 -12.026  -3.185  1.00  0.00     0.002 C 
BRANCH  37  38
ATOM     38  C   UNL     1      -2.172 -11.936  -1.673  1.00  0.00     0.021 C 
BRANCH  38  39
ATOM     39  C   UNL     1      -3.609 -12.270  -1.322  1.00  0.00     0.116 C 
BRANCH  39  40
ATOM     40  N   UNL     1      -3.916 -13.683  -1.593  1.00  0.00    -0.352 N 
ATOM     41  C   UNL     1      -5.109 -14.355  -1.440  1.00  0.00     0.251 C 
ATOM     42  H   UNL     1      -3.165 -14.223  -1.931  1.00  0.00     0.163 HD
ATOM     43  O   UNL     1      -5.137 -15.589  -1.371  1.00  0.00    -0.269 OA
BRANCH  41  44
ATOM     44  C   UNL     1      -6.351 -13.577  -1.387  1.00  0.00     0.039 A 
ATOM     45  C   UNL     1      -7.442 -13.921  -0.582  1.00  0.00     0.014 A 
ATOM     46  C   UNL     1      -6.384 -12.436  -2.178  1.00  0.00     0.014 A 
ATOM     47  C   UNL     1      -8.548 -13.075  -0.570  1.00  0.00     0.010 A 
ATOM     48  C   UNL     1      -7.317 -11.482  -1.935  1.00  0.00     0.010 A 
ATOM     49  C   UNL     1      -8.466 -11.862  -1.262  1.00  0.00    -0.014 A 
BRANCH  49  50
ATOM     50  C   UNL     1      -9.539 -10.890  -1.319  1.00  0.00     0.031 A 
ATOM     51  C   UNL     1      -9.817 -10.231  -0.022  1.00  0.00     0.074 A 
ATOM     52  C   UNL     1      -9.970 -10.437  -2.520  1.00  0.00     0.049 A 
ATOM     53  N   UNL     1     -10.878 -10.356   0.702  1.00  0.00    -0.248 NA
ATOM     54  C   UNL     1      -8.725  -9.507   0.649  1.00  0.00     0.031 C 
ATOM     55  C   UNL     1      -9.475 -10.801  -3.860  1.00  0.00     0.029 A 
ATOM     56  N   UNL     1     -10.810  -9.409  -2.795  1.00  0.00    -0.354 N 
ATOM     57  C   UNL     1     -10.684  -9.512   1.793  1.00  0.00     0.074 A 
ATOM     58  C   UNL     1      -9.273  -9.248   1.838  1.00  0.00     0.031 C 
ATOM     59  C   UNL     1      -9.816  -9.839  -4.745  1.00  0.00     0.029 A 
ATOM     60  C   UNL     1     -10.672  -8.879  -4.077  1.00  0.00     0.049 A 
ATOM     61  H   UNL     1     -11.464  -9.066  -2.143  1.00  0.00     0.167 HD
ATOM     62  C   UNL     1     -11.736  -8.874   2.379  1.00  0.00     0.034 A 
ATOM     63  C   UNL     1     -11.169  -7.697  -4.523  1.00  0.00     0.034 A 
ATOM     64  C   UNL     1     -12.985  -9.394   1.870  1.00  0.00     0.049 A 
ATOM     65  C   UNL     1     -12.245  -7.302  -3.581  1.00  0.00     0.074 A 
ATOM     66  C   UNL     1     -13.589 -10.634   1.851  1.00  0.00     0.029 A 
ATOM     67  N   UNL     1     -13.599  -8.648   0.889  1.00  0.00    -0.354 N 
ATOM     68  N   UNL     1     -13.351  -7.980  -3.445  1.00  0.00    -0.248 NA
ATOM     69  C   UNL     1     -11.879  -6.467  -2.446  1.00  0.00     0.031 C 
ATOM     70  C   UNL     1     -14.190 -10.723   0.562  1.00  0.00     0.029 A 
ATOM     71  C   UNL     1     -14.008  -9.505  -0.097  1.00  0.00     0.049 A 
ATOM     72  H   UNL     1     -13.722  -7.672   0.896  1.00  0.00     0.167 HD
ATOM     73  C   UNL     1     -13.545  -8.041  -2.070  1.00  0.00     0.074 A 
ATOM     74  C   UNL     1     -12.679  -6.998  -1.515  1.00  0.00     0.031 C 
ATOM     75  C   UNL     1     -14.128  -9.132  -1.490  1.00  0.00     0.034 A 
BRANCH  62  76
ATOM     76  C   UNL     1     -11.702  -7.536   3.088  1.00  0.00     0.023 A 
ATOM     77  C   UNL     1     -12.917  -7.109   3.676  1.00  0.00     0.012 A 
ATOM     78  C   UNL     1     -10.676  -6.571   2.980  1.00  0.00     0.148 A 
ATOM     79  C   UNL     1     -13.134  -5.777   4.039  1.00  0.00     0.002 A 
ATOM     80  C   UNL     1     -10.874  -5.260   3.401  1.00  0.00     0.091 A 
ATOM     81  F   UNL     1      -9.533  -6.864   2.360  1.00  0.00    -0.205 F 
ATOM     82  C   UNL     1     -12.113  -4.849   3.897  1.00  0.00     0.022 A 
BRANCH  80  83
ATOM     83  S   UNL     1      -9.578  -4.020   3.272  1.00  0.00     0.127 S 
ATOM     84  O   UNL     1     -10.072  -3.195   2.174  1.00  0.00    -0.237 OA
ATOM     85  O   UNL     1      -9.632  -3.393   4.593  1.00  0.00    -0.237 OA
ATOM     86  O   UNL     1      -8.348  -4.758   3.012  1.00  0.00    -0.744 OA
ENDBRANCH  80  83
ENDBRANCH  62  76
BRANCH  63  87
ATOM     87  C   UNL     1     -10.616  -6.764  -5.536  1.00  0.00     0.023 A 
ATOM     88  C   UNL     1     -11.445  -5.807  -6.155  1.00  0.00     0.012 A 
ATOM     89  C   UNL     1      -9.219  -6.636  -5.705  1.00  0.00     0.148 A 
ATOM     90  C   UNL     1     -10.901  -4.750  -6.900  1.00  0.00     0.002 A 
ATOM     91  C   UNL     1      -8.683  -5.590  -6.451  1.00  0.00     0.091 A 
ATOM     92  F   UNL     1      -8.412  -7.482  -5.053  1.00  0.00    -0.205 F 
ATOM     93  C   UNL     1      -9.520  -4.638  -7.044  1.00  0.00     0.022 A 
BRANCH  91  94
ATOM     94  S   UNL     1      -6.908  -5.372  -6.642  1.00  0.00     0.127 S 
ATOM     95  O   UNL     1      -6.785  -5.153  -8.084  1.00  0.00    -0.237 OA
ATOM     96  O   UNL     1      -6.665  -4.193  -5.816  1.00  0.00    -0.237 OA
ATOM     97  O   UNL     1      -6.305  -6.612  -6.169  1.00  0.00    -0.744 OA
ENDBRANCH  91  94
ENDBRANCH  63  87
BRANCH  75  98
ATOM     98  C   UNL     1     -14.742 -10.177  -2.390  1.00  0.00     0.023 A 
ATOM     99  C   UNL     1     -13.973 -10.976  -3.263  1.00  0.00     0.012 A 
ATOM    100  C   UNL     1     -16.087 -10.514  -2.175  1.00  0.00     0.148 A 
ATOM    101  C   UNL     1     -14.534 -12.081  -3.911  1.00  0.00     0.002 A 
ATOM    102  C   UNL     1     -16.627 -11.643  -2.777  1.00  0.00     0.091 A 
ATOM    103  F   UNL     1     -16.803  -9.747  -1.340  1.00  0.00    -0.205 F 
ATOM    104  C   UNL     1     -15.857 -12.425  -3.653  1.00  0.00     0.022 A 
BRANCH 102 105
ATOM    105  S   UNL     1     -18.273 -12.219  -2.363  1.00  0.00     0.127 S 
ATOM    106  O   UNL     1     -19.034 -11.849  -3.554  1.00  0.00    -0.237 OA
ATOM    107  O   UNL     1     -18.068 -13.658  -2.188  1.00  0.00    -0.237 OA
ATOM    108  O   UNL     1     -18.645 -11.521  -1.138  1.00  0.00    -0.744 OA
ENDBRANCH 102 105
ENDBRANCH  75  98
ENDBRANCH  49  50
ENDBRANCH  41  44
ENDBRANCH  39  40
ENDBRANCH  38  39
ENDBRANCH  37  38
ENDBRANCH   1  37
TORSDOF 19
