REMARK SMILES O=C(CCNc1cc(N2CCC3(CC2)OCCO3)c2noc3c2c1C(=O)c1ccccc1-3)NCCCCCCNC(=O)c1ccc(-c2c3nc(c(-c4cccc(S(=O)(=O)[O-])c4F)c4ccc([nH]4)c(-c4cccc(S(=O)(=O)[O-])c4F)c4nc(c(-c5cccc(S(=O)(=O)[O-])c5F)c5ccc2[nH]5)C=C4)C=C3)cc1
REMARK SMILES IDX 36 1 35 2 34 3 33 4 1 5 2 6 3 8 4 9 5 10 6 12 7 13 24 14
REMARK SMILES IDX 8 15 23 16 25 17 19 18 22 19 26 20 27 21 20 22 21 23 32 24
REMARK SMILES IDX 28 25 31 26 29 27 30 28 9 29 10 30 14 31 11 32 13 33 12 34
REMARK SMILES IDX 15 35 18 36 16 37 17 38 37 39 38 40 39 41 40 42 41 43 42 45
REMARK SMILES IDX 43 46 44 47 105 48 45 49 104 50 46 51 47 52 48 53 98 54
REMARK SMILES IDX 49 55 103 56 97 57 99 58 50 59 102 60 96 61 95 62 51 64
REMARK SMILES IDX 83 65 63 66 82 67 64 68 67 69 81 70 100 71 65 72 66 73 80 75
REMARK SMILES IDX 101 76 68 77 52 78 53 79 61 80 54 81 56 82 62 83 55 84 57 85
REMARK SMILES IDX 58 86 59 87 60 88 84 89 85 90 93 91 86 92 88 93 94 94 87 95
REMARK SMILES IDX 89 96 90 97 91 98 92 99 69 100 70 101 78 102 71 103 73 104
REMARK SMILES IDX 79 105 72 106 74 107 75 108 76 109 77 110
REMARK H PARENT 33 7 5 11 40 44 99 63 67 74
REMARK Flexibility Score: inf
ROOT
ATOM      1  C   UNL     1       4.237  -0.241  -3.566  1.00  0.00     0.002 C 
ENDROOT
BRANCH   1   2
ATOM      2  C   UNL     1       2.706  -0.127  -3.453  1.00  0.00     0.021 C 
BRANCH   2   3
ATOM      3  C   UNL     1       2.103  -0.936  -2.307  1.00  0.00     0.116 C 
BRANCH   3   4
ATOM      4  N   UNL     1       2.673  -0.508  -1.052  1.00  0.00    -0.356 N 
ATOM      5  O   UNL     1       0.838   0.542  -0.152  1.00  0.00    -0.275 OA
ATOM      6  C   UNL     1       2.020   0.220  -0.094  1.00  0.00     0.221 C 
ATOM      7  H   UNL     1       3.608  -0.759  -0.870  1.00  0.00     0.163 HD
BRANCH   6   8
ATOM      8  C   UNL     1       2.936   0.710   1.006  1.00  0.00     0.121 C 
BRANCH   8   9
ATOM      9  C   UNL     1       3.754  -0.397   1.660  1.00  0.00     0.123 C 
BRANCH   9  10
ATOM     10  N   UNL     1       4.768  -0.946   0.742  1.00  0.00    -0.384 N 
ATOM     11  H   UNL     1       4.494  -1.394  -0.091  1.00  0.00     0.160 HD
BRANCH  10  12
ATOM     12  C   UNL     1       6.133  -0.823   1.065  1.00  0.00     0.048 A 
ATOM     13  C   UNL     1       6.993  -0.313   0.006  1.00  0.00     0.054 A 
ATOM     14  C   UNL     1       6.688  -1.311   2.268  1.00  0.00     0.059 A 
ATOM     15  C   UNL     1       8.426  -0.205   0.035  1.00  0.00     0.069 A 
ATOM     16  C   UNL     1       8.060  -1.166   2.263  1.00  0.00     0.065 A 
ATOM     17  C   UNL     1       6.051  -1.942   3.462  1.00  0.00     0.196 C 
ATOM     18  C   UNL     1       8.945  -0.671   1.272  1.00  0.00     0.138 A 
ATOM     19  C   UNL     1       8.797  -1.502   3.345  1.00  0.00     0.176 A 
ATOM     20  O   UNL     1       4.859  -2.216   3.502  1.00  0.00    -0.288 OA
ATOM     21  C   UNL     1       6.915  -2.234   4.661  1.00  0.00     0.034 A 
ATOM     22  N   UNL     1      10.203  -0.735   1.776  1.00  0.00    -0.077 NA
ATOM     23  O   UNL     1      10.099  -1.251   3.078  1.00  0.00    -0.355 OA
ATOM     24  C   UNL     1       8.310  -2.008   4.601  1.00  0.00     0.032 A 
ATOM     25  C   UNL     1       6.329  -2.705   5.838  1.00  0.00     0.013 A 
ATOM     26  C   UNL     1       9.103  -2.248   5.721  1.00  0.00     0.013 A 
ATOM     27  C   UNL     1       7.128  -2.940   6.957  1.00  0.00     0.001 A 
ATOM     28  C   UNL     1       8.506  -2.711   6.898  1.00  0.00     0.001 A 
BRANCH  15  29
ATOM     29  N   UNL     1       9.155   0.272  -1.030  1.00  0.00    -0.369 N 
ATOM     30  C   UNL     1      10.244  -0.517  -1.598  1.00  0.00     0.122 C 
ATOM     31  C   UNL     1       8.858   1.547  -1.663  1.00  0.00     0.122 C 
ATOM     32  C   UNL     1       9.928  -0.790  -3.068  1.00  0.00     0.087 C 
ATOM     33  C   UNL     1       8.526   1.322  -3.128  1.00  0.00     0.087 C 
ATOM     34  C   UNL     1       9.616   0.505  -3.824  1.00  0.00     0.171 C 
ATOM     35  O   UNL     1      10.811   1.306  -3.942  1.00  0.00    -0.347 OA
ATOM     36  O   UNL     1       9.150   0.168  -5.146  1.00  0.00    -0.347 OA
ATOM     37  C   UNL     1      11.233   1.123  -5.295  1.00  0.00     0.192 C 
ATOM     38  C   UNL     1       9.937   0.955  -6.036  1.00  0.00     0.192 C 
ENDBRANCH  15  29
ENDBRANCH  10  12
ENDBRANCH   9  10
ENDBRANCH   8   9
ENDBRANCH   6   8
ENDBRANCH   3   4
ENDBRANCH   2   3
ENDBRANCH   1   2
BRANCH   1  39
ATOM     39  C   UNL     1       4.775  -1.629  -3.939  1.00  0.00     0.002 C 
BRANCH  39  40
ATOM     40  C   UNL     1       4.145  -2.256  -5.185  1.00  0.00     0.021 C 
BRANCH  40  41
ATOM     41  C   UNL     1       4.166  -1.347  -6.412  1.00  0.00     0.116 C 
BRANCH  41  42
ATOM     42  N   UNL     1       5.377  -1.464  -7.207  1.00  0.00    -0.352 N 
ATOM     43  C   UNL     1       5.612  -2.308  -8.272  1.00  0.00     0.251 C 
ATOM     44  H   UNL     1       6.119  -0.868  -6.955  1.00  0.00     0.163 HD
ATOM     45  O   UNL     1       6.674  -2.296  -8.875  1.00  0.00    -0.269 OA
BRANCH  43  46
ATOM     46  C   UNL     1       4.534  -3.244  -8.643  1.00  0.00     0.039 A 
ATOM     47  C   UNL     1       3.325  -2.738  -9.132  1.00  0.00     0.014 A 
ATOM     48  C   UNL     1       4.681  -4.596  -8.330  1.00  0.00     0.014 A 
ATOM     49  C   UNL     1       2.209  -3.563  -9.162  1.00  0.00     0.010 A 
ATOM     50  C   UNL     1       3.571  -5.433  -8.408  1.00  0.00     0.010 A 
ATOM     51  C   UNL     1       2.325  -4.903  -8.770  1.00  0.00    -0.014 A 
BRANCH  51  52
ATOM     52  C   UNL     1       1.102  -5.714  -8.758  1.00  0.00     0.031 A 
ATOM     53  C   UNL     1       1.013  -6.722  -9.845  1.00  0.00     0.074 A 
ATOM     54  C   UNL     1       0.384  -5.913  -7.634  1.00  0.00     0.049 A 
ATOM     55  N   UNL     1       1.633  -7.860  -9.775  1.00  0.00    -0.248 NA
ATOM     56  C   UNL     1       0.427  -6.438 -11.152  1.00  0.00     0.031 C 
ATOM     57  C   UNL     1       0.918  -5.780  -6.271  1.00  0.00     0.029 A 
ATOM     58  N   UNL     1      -0.856  -6.479  -7.457  1.00  0.00    -0.354 N 
ATOM     59  C   UNL     1       1.592  -8.422 -11.032  1.00  0.00     0.074 A 
ATOM     60  C   UNL     1       0.811  -7.519 -11.850  1.00  0.00     0.031 C 
ATOM     61  C   UNL     1       0.102  -6.440  -5.423  1.00  0.00     0.029 A 
ATOM     62  C   UNL     1      -1.085  -6.879  -6.144  1.00  0.00     0.049 A 
ATOM     63  H   UNL     1      -1.512  -6.590  -8.182  1.00  0.00     0.167 HD
ATOM     64  C   UNL     1       2.217  -9.590 -11.336  1.00  0.00     0.034 A 
ATOM     65  C   UNL     1      -1.900  -7.899  -5.761  1.00  0.00     0.034 A 
ATOM     66  C   UNL     1       2.926 -10.210 -10.256  1.00  0.00     0.049 A 
ATOM     67  C   UNL     1      -1.170  -9.090  -6.339  1.00  0.00     0.074 A 
ATOM     68  C   UNL     1       4.209 -10.163  -9.752  1.00  0.00     0.029 A 
ATOM     69  N   UNL     1       2.212 -10.940  -9.334  1.00  0.00    -0.354 N 
ATOM     70  N   UNL     1      -0.097  -9.646  -5.836  1.00  0.00    -0.248 NA
ATOM     71  C   UNL     1      -1.442  -9.447  -7.733  1.00  0.00     0.031 C 
ATOM     72  C   UNL     1       4.089 -10.476  -8.361  1.00  0.00     0.029 A 
ATOM     73  C   UNL     1       2.732 -10.652  -8.095  1.00  0.00     0.049 A 
ATOM     74  H   UNL     1       1.467 -11.554  -9.527  1.00  0.00     0.167 HD
ATOM     75  C   UNL     1       0.600 -10.160  -6.933  1.00  0.00     0.074 A 
ATOM     76  C   UNL     1      -0.296 -10.026  -8.064  1.00  0.00     0.031 C 
ATOM     77  C   UNL     1       1.920 -10.507  -6.905  1.00  0.00     0.034 A 
BRANCH  64  78
ATOM     78  C   UNL     1       2.058 -10.269 -12.636  1.00  0.00     0.023 A 
ATOM     79  C   UNL     1       0.946 -11.118 -12.787  1.00  0.00     0.012 A 
ATOM     80  C   UNL     1       3.029 -10.201 -13.648  1.00  0.00     0.148 A 
ATOM     81  C   UNL     1       0.813 -11.917 -13.918  1.00  0.00     0.002 A 
ATOM     82  C   UNL     1       2.889 -11.000 -14.778  1.00  0.00     0.091 A 
ATOM     83  F   UNL     1       4.081  -9.387 -13.476  1.00  0.00    -0.205 F 
ATOM     84  C   UNL     1       1.787 -11.863 -14.910  1.00  0.00     0.022 A 
BRANCH  82  85
ATOM     85  S   UNL     1       4.079 -11.006 -16.124  1.00  0.00     0.127 S 
ATOM     86  O   UNL     1       4.718 -12.310 -15.957  1.00  0.00    -0.237 OA
ATOM     87  O   UNL     1       3.212 -10.897 -17.298  1.00  0.00    -0.237 OA
ATOM     88  O   UNL     1       4.938  -9.851 -15.902  1.00  0.00    -0.744 OA
ENDBRANCH  82  85
ENDBRANCH  64  78
BRANCH  65  89
ATOM     89  C   UNL     1      -3.364  -7.627  -5.989  1.00  0.00     0.023 A 
ATOM     90  C   UNL     1      -3.851  -6.349  -5.610  1.00  0.00     0.012 A 
ATOM     91  C   UNL     1      -4.288  -8.528  -6.546  1.00  0.00     0.148 A 
ATOM     92  C   UNL     1      -5.158  -5.943  -5.880  1.00  0.00     0.002 A 
ATOM     93  C   UNL     1      -5.579  -8.103  -6.865  1.00  0.00     0.091 A 
ATOM     94  F   UNL     1      -3.907  -9.790  -6.779  1.00  0.00    -0.205 F 
ATOM     95  C   UNL     1      -6.016  -6.812  -6.537  1.00  0.00     0.022 A 
BRANCH  93  96
ATOM     96  S   UNL     1      -6.734  -9.131  -7.784  1.00  0.00     0.127 S 
ATOM     97  O   UNL     1      -7.963  -8.986  -7.005  1.00  0.00    -0.237 OA
ATOM     98  O   UNL     1      -6.744  -8.460  -9.083  1.00  0.00    -0.237 OA
ATOM     99  O   UNL     1      -6.161 -10.469  -7.779  1.00  0.00    -0.744 OA
ENDBRANCH  93  96
ENDBRANCH  65  89
BRANCH  77 100
ATOM    100  C   UNL     1       2.578 -10.538  -5.560  1.00  0.00     0.023 A 
ATOM    101  C   UNL     1       2.297 -11.625  -4.711  1.00  0.00     0.012 A 
ATOM    102  C   UNL     1       3.529  -9.577  -5.159  1.00  0.00     0.148 A 
ATOM    103  C   UNL     1       2.967 -11.774  -3.498  1.00  0.00     0.002 A 
ATOM    104  C   UNL     1       4.213  -9.745  -3.959  1.00  0.00     0.091 A 
ATOM    105  F   UNL     1       3.783  -8.539  -5.971  1.00  0.00    -0.205 F 
ATOM    106  C   UNL     1       3.932 -10.841  -3.127  1.00  0.00     0.022 A 
BRANCH 104 107
ATOM    107  S   UNL     1       5.507  -8.624  -3.412  1.00  0.00     0.127 S 
ATOM    108  O   UNL     1       5.127  -8.361  -2.023  1.00  0.00    -0.237 OA
ATOM    109  O   UNL     1       6.705  -9.449  -3.566  1.00  0.00    -0.237 OA
ATOM    110  O   UNL     1       5.436  -7.458  -4.284  1.00  0.00    -0.744 OA
ENDBRANCH 104 107
ENDBRANCH  77 100
ENDBRANCH  51  52
ENDBRANCH  43  46
ENDBRANCH  41  42
ENDBRANCH  40  41
ENDBRANCH  39  40
ENDBRANCH   1  39
TORSDOF 20
