REMARK SMILES CN1C(=O)[C@@H]2CC=CC[C@]2(C(=O)NCCCCCCNC(=O)c2ccc(-c3c4nc(c(-c5cccc(S(=O)(=O)[O-])c5F)c5ccc([nH]5)c(-c5cccc(S(=O)(=O)[O-])c5F)c5nc(c(-c6cccc(S(=O)(=O)[O-])c6F)c6ccc3[nH]6)C=C5)C=C4)cc2)[C@H]1c1ccccc1
REMARK SMILES IDX 17 1 16 2 15 3 14 4 13 5 11 6 12 7 10 9 1 10 2 11 3 12 86 13
REMARK SMILES IDX 4 14 5 15 6 16 9 17 7 18 8 19 87 20 88 21 92 22 89 23 91 24
REMARK SMILES IDX 90 25 18 26 19 27 20 28 21 29 22 31 23 32 24 33 85 34 25 35
REMARK SMILES IDX 84 36 26 37 27 38 28 39 78 40 29 41 83 42 77 43 79 44 30 45
REMARK SMILES IDX 82 46 76 47 75 48 31 50 63 51 43 52 62 53 44 54 47 55 61 56
REMARK SMILES IDX 80 57 45 58 46 59 60 61 81 62 48 63 32 64 33 65 41 66 34 67
REMARK SMILES IDX 36 68 42 69 35 70 37 71 38 72 39 73 40 74 64 75 65 76 73 77
REMARK SMILES IDX 66 78 68 79 74 80 67 81 69 82 70 83 71 84 72 85 49 86 50 87
REMARK SMILES IDX 58 88 51 89 53 90 59 91 52 92 54 93 55 94 56 95 57 96
REMARK H PARENT 13 8 20 30 79 49 47 60
REMARK Flexibility Score: inf
ROOT
ATOM      1  C   UNL     1      -1.262   1.634  -6.448  1.00  0.00     0.002 C 
ENDROOT
BRANCH   1   2
ATOM      2  C   UNL     1      -0.174   0.607  -6.784  1.00  0.00     0.002 C 
BRANCH   2   3
ATOM      3  C   UNL     1       0.475  -0.135  -5.619  1.00  0.00     0.021 C 
BRANCH   3   4
ATOM      4  C   UNL     1      -0.417  -0.531  -4.449  1.00  0.00     0.116 C 
BRANCH   4   5
ATOM      5  N   UNL     1      -1.188  -1.772  -4.425  1.00  0.00    -0.356 N 
ATOM      6  C   UNL     1      -1.411  -2.643  -3.347  1.00  0.00     0.229 C 
ATOM      7  O   UNL     1      -2.393  -3.386  -3.393  1.00  0.00    -0.274 OA
ATOM      8  H   UNL     1      -1.606  -2.031  -5.278  1.00  0.00     0.163 HD
BRANCH   6   9
ATOM      9  C   UNL     1      -0.362  -2.759  -2.199  1.00  0.00     0.089 C 
ATOM     10  C   UNL     1       0.989  -0.635   0.576  1.00  0.00     0.147 C 
ATOM     11  N   UNL     1       0.237  -1.631  -0.161  1.00  0.00    -0.337 N 
ATOM     12  C   UNL     1       0.079  -2.947   0.200  1.00  0.00     0.227 C 
ATOM     13  C   UNL     1      -0.281  -1.359  -1.466  1.00  0.00     0.131 C 
ATOM     14  O   UNL     1       0.448  -3.430   1.252  1.00  0.00    -0.275 OA
ATOM     15  C   UNL     1      -0.658  -3.668  -0.942  1.00  0.00     0.101 C 
ATOM     16  C   UNL     1      -0.288  -5.151  -0.916  1.00  0.00     0.041 C 
ATOM     17  C   UNL     1       0.902  -3.281  -2.959  1.00  0.00     0.047 C 
ATOM     18  C   UNL     1       0.662  -5.587  -1.966  1.00  0.00    -0.030 C 
ATOM     19  C   UNL     1       1.193  -4.758  -2.866  1.00  0.00    -0.030 C 
BRANCH  13  20
ATOM     20  C   UNL     1      -1.616  -0.588  -1.365  1.00  0.00    -0.024 A 
ATOM     21  C   UNL     1      -2.803  -1.181  -0.904  1.00  0.00     0.006 A 
ATOM     22  C   UNL     1      -1.719   0.709  -1.888  1.00  0.00     0.006 A 
ATOM     23  C   UNL     1      -4.052  -0.625  -1.183  1.00  0.00     0.000 A 
ATOM     24  C   UNL     1      -2.970   1.269  -2.176  1.00  0.00     0.000 A 
ATOM     25  C   UNL     1      -4.136   0.578  -1.867  1.00  0.00     0.000 A 
ENDBRANCH  13  20
ENDBRANCH   6   9
ENDBRANCH   4   5
ENDBRANCH   3   4
ENDBRANCH   2   3
ENDBRANCH   1   2
BRANCH   1  26
ATOM     26  C   UNL     1      -0.893   2.776  -5.491  1.00  0.00     0.021 C 
BRANCH  26  27
ATOM     27  C   UNL     1       0.259   3.676  -5.925  1.00  0.00     0.116 C 
BRANCH  27  28
ATOM     28  N   UNL     1       0.072   4.195  -7.267  1.00  0.00    -0.352 N 
ATOM     29  C   UNL     1       0.083   5.484  -7.731  1.00  0.00     0.251 C 
ATOM     30  H   UNL     1      -0.088   3.510  -7.956  1.00  0.00     0.163 HD
ATOM     31  O   UNL     1      -0.330   5.711  -8.866  1.00  0.00    -0.269 OA
BRANCH  29  32
ATOM     32  C   UNL     1       0.594   6.594  -6.895  1.00  0.00     0.039 A 
ATOM     33  C   UNL     1       0.002   7.855  -7.024  1.00  0.00     0.014 A 
ATOM     34  C   UNL     1       1.703   6.430  -6.060  1.00  0.00     0.014 A 
ATOM     35  C   UNL     1       0.522   8.943  -6.321  1.00  0.00     0.010 A 
ATOM     36  C   UNL     1       2.164   7.496  -5.292  1.00  0.00     0.010 A 
ATOM     37  C   UNL     1       1.608   8.773  -5.449  1.00  0.00    -0.014 A 
BRANCH  37  38
ATOM     38  C   UNL     1       2.216   9.935  -4.754  1.00  0.00     0.031 A 
ATOM     39  C   UNL     1       3.640  10.329  -5.051  1.00  0.00     0.074 A 
ATOM     40  C   UNL     1       1.503  10.612  -3.833  1.00  0.00     0.049 A 
ATOM     41  N   UNL     1       4.348  11.307  -4.548  1.00  0.00    -0.248 NA
ATOM     42  C   UNL     1       4.377   9.501  -6.022  1.00  0.00     0.031 C 
ATOM     43  C   UNL     1       0.141  10.283  -3.409  1.00  0.00     0.029 A 
ATOM     44  N   UNL     1       1.831  11.708  -3.077  1.00  0.00    -0.354 N 
ATOM     45  C   UNL     1       5.615  11.189  -5.110  1.00  0.00     0.074 A 
ATOM     46  C   UNL     1       5.594  10.019  -5.958  1.00  0.00     0.031 C 
ATOM     47  C   UNL     1      -0.256  11.166  -2.480  1.00  0.00     0.029 A 
ATOM     48  C   UNL     1       0.831  12.105  -2.221  1.00  0.00     0.049 A 
ATOM     49  H   UNL     1       2.699  12.167  -3.141  1.00  0.00     0.167 HD
ATOM     50  C   UNL     1       6.690  11.999  -4.962  1.00  0.00     0.034 A 
ATOM     51  C   UNL     1       0.796  13.113  -1.328  1.00  0.00     0.034 A 
ATOM     52  C   UNL     1       6.691  13.184  -4.149  1.00  0.00     0.049 A 
ATOM     53  C   UNL     1       1.989  14.024  -1.213  1.00  0.00     0.074 A 
ATOM     54  C   UNL     1       7.700  14.117  -3.986  1.00  0.00     0.029 A 
ATOM     55  N   UNL     1       5.631  13.598  -3.356  1.00  0.00    -0.354 N 
ATOM     56  N   UNL     1       3.129  13.976  -1.858  1.00  0.00    -0.248 NA
ATOM     57  C   UNL     1       1.873  15.154  -0.282  1.00  0.00     0.031 C 
ATOM     58  C   UNL     1       7.261  15.077  -3.069  1.00  0.00     0.029 A 
ATOM     59  C   UNL     1       5.962  14.769  -2.698  1.00  0.00     0.049 A 
ATOM     60  H   UNL     1       4.770  13.128  -3.274  1.00  0.00     0.167 HD
ATOM     61  C   UNL     1       3.846  15.095  -1.449  1.00  0.00     0.074 A 
ATOM     62  C   UNL     1       3.003  15.808  -0.511  1.00  0.00     0.031 C 
ATOM     63  C   UNL     1       5.090  15.495  -1.811  1.00  0.00     0.034 A 
BRANCH  50  64
ATOM     64  C   UNL     1       7.942  11.652  -5.727  1.00  0.00     0.023 A 
ATOM     65  C   UNL     1       7.964  11.776  -7.132  1.00  0.00     0.012 A 
ATOM     66  C   UNL     1       9.112  11.250  -5.053  1.00  0.00     0.148 A 
ATOM     67  C   UNL     1       9.114  11.466  -7.857  1.00  0.00     0.002 A 
ATOM     68  C   UNL     1      10.270  10.993  -5.778  1.00  0.00     0.091 A 
ATOM     69  F   UNL     1       9.069  11.118  -3.720  1.00  0.00    -0.205 F 
ATOM     70  C   UNL     1      10.269  11.086  -7.179  1.00  0.00     0.022 A 
BRANCH  68  71
ATOM     71  S   UNL     1      11.832  10.578  -4.995  1.00  0.00     0.127 S 
ATOM     72  O   UNL     1      12.003   9.183  -5.401  1.00  0.00    -0.237 OA
ATOM     73  O   UNL     1      12.755  11.516  -5.635  1.00  0.00    -0.237 OA
ATOM     74  O   UNL     1      11.638  10.791  -3.568  1.00  0.00    -0.744 OA
ENDBRANCH  68  71
ENDBRANCH  50  64
BRANCH  51  75
ATOM     75  C   UNL     1      -0.433  13.355  -0.520  1.00  0.00     0.023 A 
ATOM     76  C   UNL     1      -1.211  14.504  -0.762  1.00  0.00     0.012 A 
ATOM     77  C   UNL     1      -0.841  12.446   0.474  1.00  0.00     0.148 A 
ATOM     78  C   UNL     1      -2.350  14.765   0.000  1.00  0.00     0.002 A 
ATOM     79  C   UNL     1      -2.008  12.682   1.190  1.00  0.00     0.091 A 
ATOM     80  F   UNL     1      -0.084  11.361   0.692  1.00  0.00    -0.205 F 
ATOM     81  C   UNL     1      -2.753  13.851   0.970  1.00  0.00     0.022 A 
BRANCH  79  82
ATOM     82  S   UNL     1      -2.672  11.498   2.366  1.00  0.00     0.127 S 
ATOM     83  O   UNL     1      -2.480  12.196   3.634  1.00  0.00    -0.237 OA
ATOM     84  O   UNL     1      -4.064  11.388   1.927  1.00  0.00    -0.237 OA
ATOM     85  O   UNL     1      -1.889  10.284   2.187  1.00  0.00    -0.744 OA
ENDBRANCH  79  82
ENDBRANCH  51  75
BRANCH  63  86
ATOM     86  C   UNL     1       5.596  16.798  -1.250  1.00  0.00     0.023 A 
ATOM     87  C   UNL     1       5.935  16.903   0.113  1.00  0.00     0.012 A 
ATOM     88  C   UNL     1       5.792  17.905  -2.100  1.00  0.00     0.148 A 
ATOM     89  C   UNL     1       6.420  18.104   0.630  1.00  0.00     0.002 A 
ATOM     90  C   UNL     1       6.329  19.079  -1.590  1.00  0.00     0.091 A 
ATOM     91  F   UNL     1       5.445  17.790  -3.390  1.00  0.00    -0.205 F 
ATOM     92  C   UNL     1       6.628  19.187  -0.222  1.00  0.00     0.022 A 
BRANCH  90  93
ATOM     93  S   UNL     1       6.729  20.483  -2.635  1.00  0.00     0.127 S 
ATOM     94  O   UNL     1       5.678  21.433  -2.272  1.00  0.00    -0.237 OA
ATOM     95  O   UNL     1       8.067  20.846  -2.168  1.00  0.00    -0.237 OA
ATOM     96  O   UNL     1       6.681  19.991  -4.005  1.00  0.00    -0.744 OA
ENDBRANCH  90  93
ENDBRANCH  63  86
ENDBRANCH  37  38
ENDBRANCH  29  32
ENDBRANCH  27  28
ENDBRANCH  26  27
ENDBRANCH   1  26
TORSDOF 17
