REMARK SMILES C[NH+](C)CCNC(=O)NC1(CC(=O)NCCCCCCNC(=O)c2ccc(-c3c4nc(c(-c5cccc(S(=O)(=O)[O-])c5F)c5ccc([nH]5)c(-c5cccc(S(=O)(=O)[O-])c5F)c5nc(c(-c6cccc(S(=O)(=O)[O-])c6F)c6ccc3[nH]6)C=C5)C=C4)cc2)CCC1
REMARK SMILES IDX 16 1 15 2 14 3 12 4 13 5 11 7 10 8 87 9 89 10 88 11 9 12
REMARK SMILES IDX 6 13 7 14 8 16 5 18 4 19 2 20 1 21 3 22 17 24 18 25 19 26
REMARK SMILES IDX 20 27 21 28 22 29 23 31 24 32 25 33 86 34 26 35 85 36 27 37
REMARK SMILES IDX 28 38 29 39 79 40 30 41 84 42 78 43 80 44 31 45 83 46 77 47
REMARK SMILES IDX 76 48 32 50 64 51 44 52 63 53 45 54 48 55 62 56 81 57 46 58
REMARK SMILES IDX 47 59 61 61 82 62 49 63 33 64 34 65 42 66 35 67 37 68 43 69
REMARK SMILES IDX 36 70 38 71 39 72 40 73 41 74 65 75 66 76 74 77 67 78 69 79
REMARK SMILES IDX 75 80 68 81 70 82 71 83 72 84 73 85 50 86 51 87 59 88 52 89
REMARK SMILES IDX 54 90 60 91 53 92 55 93 56 94 57 95 58 96
REMARK H PARENT 14 6 6 15 9 17 2 23 21 30 80 49 48 60
REMARK Flexibility Score: inf
ROOT
ATOM      1  C   UNL     1       4.477   3.786   2.015  1.00  0.00     0.021 C 
ENDROOT
BRANCH   1   2
ATOM      2  C   UNL     1       2.959   3.795   1.879  1.00  0.00     0.116 C 
BRANCH   2   3
ATOM      3  N   UNL     1       2.533   2.437   1.737  1.00  0.00    -0.356 N 
ATOM      4  C   UNL     1       2.339   1.651   2.823  1.00  0.00     0.222 C 
ATOM      5  O   UNL     1       2.921   0.572   2.864  1.00  0.00    -0.275 OA
ATOM      6  H   UNL     1       2.378   2.068   0.837  1.00  0.00     0.163 HD
BRANCH   4   7
ATOM      7  C   UNL     1       1.319   2.163   3.824  1.00  0.00     0.128 C 
BRANCH   7   8
ATOM      8  C   UNL     1       1.429   1.463   5.151  1.00  0.00     0.051 C 
ATOM      9  C   UNL     1       0.761   2.021   6.461  1.00  0.00     0.029 C 
ATOM     10  C   UNL     1       2.767   2.009   5.800  1.00  0.00     0.029 C 
ATOM     11  C   UNL     1       1.890   3.067   6.523  1.00  0.00     0.005 C 
BRANCH   8  12
ATOM     12  N   UNL     1       1.286  -0.011   5.061  1.00  0.00    -0.332 N 
ATOM     13  N   UNL     1       0.128  -0.791   3.072  1.00  0.00    -0.332 N 
ATOM     14  C   UNL     1       0.855  -0.935   4.184  1.00  0.00     0.315 C 
ATOM     15  H   UNL     1       0.248  -1.586   2.503  1.00  0.00     0.165 HD
ATOM     16  O   UNL     1       1.182  -2.104   4.445  1.00  0.00    -0.249 OA
ATOM     17  H   UNL     1       1.600  -0.440   5.890  1.00  0.00     0.165 HD
BRANCH  13  18
ATOM     18  C   UNL     1      -0.790   0.145   2.402  1.00  0.00     0.179 C 
BRANCH  18  19
ATOM     19  C   UNL     1      -0.200   0.871   1.153  1.00  0.00     0.283 C 
BRANCH  19  20
ATOM     20  N   UNL     1      -0.486   0.472  -0.231  1.00  0.00    -0.338 N 
ATOM     21  C   UNL     1       0.179  -0.759  -0.620  1.00  0.00     0.332 C 
ATOM     22  C   UNL     1      -1.883   0.535  -0.611  1.00  0.00     0.332 C 
ATOM     23  H   UNL     1      -0.059   1.205  -0.797  1.00  0.00     0.347 HD
ENDBRANCH  19  20
ENDBRANCH  18  19
ENDBRANCH  13  18
ENDBRANCH   8  12
ENDBRANCH   7   8
ENDBRANCH   4   7
ENDBRANCH   2   3
ENDBRANCH   1   2
BRANCH   1  24
ATOM     24  C   UNL     1       5.191   3.193   0.790  1.00  0.00     0.002 C 
BRANCH  24  25
ATOM     25  C   UNL     1       4.659   3.689  -0.561  1.00  0.00     0.002 C 
BRANCH  25  26
ATOM     26  C   UNL     1       4.515   5.207  -0.670  1.00  0.00     0.021 C 
BRANCH  26  27
ATOM     27  C   UNL     1       5.742   5.963  -0.212  1.00  0.00     0.116 C 
BRANCH  27  28
ATOM     28  N   UNL     1       6.892   5.649  -1.033  1.00  0.00    -0.352 N 
ATOM     29  C   UNL     1       7.826   6.538  -1.487  1.00  0.00     0.251 C 
ATOM     30  H   UNL     1       7.012   4.706  -1.290  1.00  0.00     0.163 HD
ATOM     31  O   UNL     1       8.643   6.221  -2.346  1.00  0.00    -0.269 OA
BRANCH  29  32
ATOM     32  C   UNL     1       7.791   7.899  -0.926  1.00  0.00     0.039 A 
ATOM     33  C   UNL     1       7.684   8.981  -1.795  1.00  0.00     0.014 A 
ATOM     34  C   UNL     1       7.759   8.078   0.463  1.00  0.00     0.014 A 
ATOM     35  C   UNL     1       7.545  10.260  -1.264  1.00  0.00     0.010 A 
ATOM     36  C   UNL     1       7.525   9.341   0.984  1.00  0.00     0.010 A 
ATOM     37  C   UNL     1       7.454  10.448   0.126  1.00  0.00    -0.014 A 
BRANCH  37  38
ATOM     38  C   UNL     1       7.333  11.809   0.697  1.00  0.00     0.031 A 
ATOM     39  C   UNL     1       8.427  12.345   1.579  1.00  0.00     0.074 A 
ATOM     40  C   UNL     1       6.227  12.538   0.456  1.00  0.00     0.049 A 
ATOM     41  N   UNL     1       8.514  13.510   2.165  1.00  0.00    -0.248 NA
ATOM     42  C   UNL     1       9.561  11.448   1.865  1.00  0.00     0.031 C 
ATOM     43  C   UNL     1       5.068  12.088  -0.318  1.00  0.00     0.029 A 
ATOM     44  N   UNL     1       5.893  13.809   0.847  1.00  0.00    -0.354 N 
ATOM     45  C   UNL     1       9.686  13.473   2.909  1.00  0.00     0.074 A 
ATOM     46  C   UNL     1      10.255  12.155   2.742  1.00  0.00     0.031 C 
ATOM     47  C   UNL     1       4.157  13.074  -0.359  1.00  0.00     0.029 A 
ATOM     48  C   UNL     1       4.654  14.212   0.408  1.00  0.00     0.049 A 
ATOM     49  H   UNL     1       6.483  14.378   1.391  1.00  0.00     0.167 HD
ATOM     50  C   UNL     1      10.258  14.458   3.639  1.00  0.00     0.034 A 
ATOM     51  C   UNL     1       3.995  15.370   0.605  1.00  0.00     0.034 A 
ATOM     52  C   UNL     1       9.705  15.778   3.766  1.00  0.00     0.049 A 
ATOM     53  C   UNL     1       4.669  16.463   1.388  1.00  0.00     0.074 A 
ATOM     54  C   UNL     1      10.244  16.877   4.409  1.00  0.00     0.029 A 
ATOM     55  N   UNL     1       8.482  16.174   3.247  1.00  0.00    -0.354 N 
ATOM     56  N   UNL     1       5.852  16.464   1.954  1.00  0.00    -0.248 NA
ATOM     57  C   UNL     1       3.936  17.729   1.527  1.00  0.00     0.031 C 
ATOM     58  C   UNL     1       9.329  17.930   4.308  1.00  0.00     0.029 A 
ATOM     59  C   UNL     1       8.240  17.498   3.567  1.00  0.00     0.049 A 
ATOM     60  H   UNL     1       7.875  15.598   2.728  1.00  0.00     0.167 HD
ATOM     61  C   UNL     1       6.022  17.738   2.482  1.00  0.00     0.074 A 
ATOM     62  C   UNL     1       4.827  18.488   2.151  1.00  0.00     0.031 C 
ATOM     63  C   UNL     1       7.066  18.240   3.187  1.00  0.00     0.034 A 
BRANCH  50  64
ATOM     64  C   UNL     1      11.568  14.156   4.319  1.00  0.00     0.023 A 
ATOM     65  C   UNL     1      12.733  13.973   3.547  1.00  0.00     0.012 A 
ATOM     66  C   UNL     1      11.655  14.102   5.724  1.00  0.00     0.148 A 
ATOM     67  C   UNL     1      13.957  13.701   4.158  1.00  0.00     0.002 A 
ATOM     68  C   UNL     1      12.887  13.882   6.328  1.00  0.00     0.091 A 
ATOM     69  F   UNL     1      10.533  14.255   6.441  1.00  0.00    -0.205 F 
ATOM     70  C   UNL     1      14.035  13.668   5.547  1.00  0.00     0.022 A 
BRANCH  68  71
ATOM     71  S   UNL     1      13.110  13.903   8.110  1.00  0.00     0.127 S 
ATOM     72  O   UNL     1      13.403  12.497   8.386  1.00  0.00    -0.237 OA
ATOM     73  O   UNL     1      14.251  14.805   8.265  1.00  0.00    -0.237 OA
ATOM     74  O   UNL     1      11.860  14.400   8.666  1.00  0.00    -0.744 OA
ENDBRANCH  68  71
ENDBRANCH  50  64
BRANCH  51  75
ATOM     75  C   UNL     1       2.649  15.573  -0.001  1.00  0.00     0.023 A 
ATOM     76  C   UNL     1       2.492  16.494  -1.055  1.00  0.00     0.012 A 
ATOM     77  C   UNL     1       1.532  14.841   0.444  1.00  0.00     0.148 A 
ATOM     78  C   UNL     1       1.238  16.709  -1.630  1.00  0.00     0.002 A 
ATOM     79  C   UNL     1       0.298  15.018  -0.171  1.00  0.00     0.091 A 
ATOM     80  F   UNL     1       1.702  13.975   1.452  1.00  0.00    -0.205 F 
ATOM     81  C   UNL     1       0.145  15.966  -1.195  1.00  0.00     0.022 A 
BRANCH  79  82
ATOM     82  S   UNL     1      -1.132  14.011   0.234  1.00  0.00     0.127 S 
ATOM     83  O   UNL     1      -2.005  14.980   0.890  1.00  0.00    -0.237 OA
ATOM     84  O   UNL     1      -1.579  13.576  -1.090  1.00  0.00    -0.237 OA
ATOM     85  O   UNL     1      -0.632  12.936   1.080  1.00  0.00    -0.744 OA
ENDBRANCH  79  82
ENDBRANCH  51  75
BRANCH  63  86
ATOM     86  C   UNL     1       6.991  19.683   3.612  1.00  0.00     0.023 A 
ATOM     87  C   UNL     1       6.103  20.072   4.634  1.00  0.00     0.012 A 
ATOM     88  C   UNL     1       7.862  20.637   3.050  1.00  0.00     0.148 A 
ATOM     89  C   UNL     1       6.057  21.397   5.064  1.00  0.00     0.002 A 
ATOM     90  C   UNL     1       7.849  21.943   3.522  1.00  0.00     0.091 A 
ATOM     91  F   UNL     1       8.688  20.248   2.067  1.00  0.00    -0.205 F 
ATOM     92  C   UNL     1       6.938  22.328   4.518  1.00  0.00     0.022 A 
BRANCH  90  93
ATOM     93  S   UNL     1       9.015  23.184   2.951  1.00  0.00     0.127 S 
ATOM     94  O   UNL     1       8.150  24.069   2.172  1.00  0.00    -0.237 OA
ATOM     95  O   UNL     1       9.498  23.755   4.209  1.00  0.00    -0.237 OA
ATOM     96  O   UNL     1      10.025  22.466   2.185  1.00  0.00    -0.744 OA
ENDBRANCH  90  93
ENDBRANCH  63  86
ENDBRANCH  37  38
ENDBRANCH  29  32
ENDBRANCH  27  28
ENDBRANCH  26  27
ENDBRANCH  25  26
ENDBRANCH  24  25
ENDBRANCH   1  24
TORSDOF 21
