REMARK SMILES O=C(NCCCCCCNC(=O)c1cn(Cc2ccc(N3CCCC3=O)cc2)c2cc(F)c(F)cc2c1=O)c1ccc(-c2c3nc(c(-c4cccc(S(=O)(=O)[O-])c4F)c4ccc([nH]4)c(-c4cccc(S(=O)(=O)[O-])c4F)c4nc(c(-c5cccc(S(=O)(=O)[O-])c5F)c5ccc2[nH]5)C=C4)C=C3)cc1
REMARK SMILES IDX 6 1 5 2 4 3 3 4 1 5 2 6 39 8 40 9 101 10 41 11 100 12 42 13
REMARK SMILES IDX 43 14 44 15 94 16 45 17 99 18 93 19 95 20 46 21 98 22 92 23
REMARK SMILES IDX 91 24 47 26 79 27 59 28 78 29 60 30 63 31 77 32 96 33 61 34
REMARK SMILES IDX 62 35 76 37 97 38 64 39 48 40 49 41 57 42 50 43 52 44 58 45
REMARK SMILES IDX 51 46 53 47 54 48 55 49 56 50 80 51 81 52 89 53 82 54 84 55
REMARK SMILES IDX 90 56 83 57 85 58 86 59 87 60 88 61 65 62 66 63 74 64 67 65
REMARK SMILES IDX 69 66 75 67 68 68 70 69 71 70 72 71 73 72 7 73 8 74 9 75
REMARK SMILES IDX 10 76 11 77 12 79 13 80 14 81 37 82 15 83 36 84 38 85 29 86
REMARK SMILES IDX 35 87 30 88 33 89 31 90 34 91 32 92 16 93 17 94 18 95 28 96
REMARK SMILES IDX 19 97 27 98 20 99 21 100 22 101 25 102 23 103 24 104 26 105
REMARK H PARENT 3 7 95 25 63 36 10 78
REMARK Flexibility Score: inf
ROOT
ATOM      1  C   UNL     1       4.223   3.427   1.629  1.00  0.00     0.002 C 
ENDROOT
BRANCH   1   2
ATOM      2  C   UNL     1       4.709   2.484   0.524  1.00  0.00     0.021 C 
BRANCH   2   3
ATOM      3  C   UNL     1       4.377   1.011   0.745  1.00  0.00     0.116 C 
BRANCH   3   4
ATOM      4  N   UNL     1       2.943   0.787   0.801  1.00  0.00    -0.352 N 
ATOM      5  O   UNL     1       0.946   0.050   0.080  1.00  0.00    -0.269 OA
ATOM      6  C   UNL     1       2.168  -0.068   0.060  1.00  0.00     0.251 C 
ATOM      7  H   UNL     1       2.458   1.325   1.468  1.00  0.00     0.163 HD
BRANCH   6   8
ATOM      8  C   UNL     1       2.796  -1.131  -0.754  1.00  0.00     0.039 A 
ATOM      9  C   UNL     1       2.277  -1.404  -2.023  1.00  0.00     0.014 A 
ATOM     10  C   UNL     1       3.846  -1.902  -0.246  1.00  0.00     0.014 A 
ATOM     11  C   UNL     1       2.819  -2.440  -2.788  1.00  0.00     0.010 A 
ATOM     12  C   UNL     1       4.426  -2.893  -1.034  1.00  0.00     0.010 A 
ATOM     13  C   UNL     1       3.902  -3.189  -2.301  1.00  0.00    -0.014 A 
BRANCH  13  14
ATOM     14  C   UNL     1       4.468  -4.324  -3.072  1.00  0.00     0.031 A 
ATOM     15  C   UNL     1       4.353  -5.725  -2.526  1.00  0.00     0.074 A 
ATOM     16  C   UNL     1       5.124  -4.098  -4.228  1.00  0.00     0.049 A 
ATOM     17  N   UNL     1       4.873  -6.832  -2.988  1.00  0.00    -0.248 NA
ATOM     18  C   UNL     1       3.561  -5.906  -1.296  1.00  0.00     0.031 C 
ATOM     19  C   UNL     1       5.312  -2.788  -4.855  1.00  0.00     0.029 A 
ATOM     20  N   UNL     1       5.767  -4.966  -5.075  1.00  0.00    -0.354 N 
ATOM     21  C   UNL     1       4.501  -7.828  -2.094  1.00  0.00     0.074 A 
ATOM     22  C   UNL     1       3.725  -7.199  -1.050  1.00  0.00     0.031 C 
ATOM     23  C   UNL     1       6.010  -2.941  -5.992  1.00  0.00     0.029 A 
ATOM     24  C   UNL     1       6.355  -4.350  -6.155  1.00  0.00     0.049 A 
ATOM     25  H   UNL     1       5.805  -5.938  -4.923  1.00  0.00     0.167 HD
ATOM     26  C   UNL     1       4.761  -9.154  -2.153  1.00  0.00     0.034 A 
ATOM     27  C   UNL     1       7.095  -4.861  -7.159  1.00  0.00     0.034 A 
ATOM     28  C   UNL     1       5.484  -9.788  -3.219  1.00  0.00     0.049 A 
ATOM     29  C   UNL     1       7.372  -6.339  -7.191  1.00  0.00     0.074 A 
ATOM     30  C   UNL     1       5.762 -11.135  -3.379  1.00  0.00     0.029 A 
ATOM     31  N   UNL     1       6.029  -9.131  -4.308  1.00  0.00    -0.354 N 
ATOM     32  N   UNL     1       6.971  -7.268  -6.359  1.00  0.00    -0.248 NA
ATOM     33  C   UNL     1       8.183  -6.843  -8.310  1.00  0.00     0.031 C 
ATOM     34  C   UNL     1       6.483 -11.292  -4.564  1.00  0.00     0.029 A 
ATOM     35  C   UNL     1       6.631 -10.046  -5.151  1.00  0.00     0.049 A 
ATOM     36  H   UNL     1       5.993  -8.159  -4.460  1.00  0.00     0.167 HD
ATOM     37  C   UNL     1       7.435  -8.470  -6.880  1.00  0.00     0.074 A 
ATOM     38  C   UNL     1       8.154  -8.153  -8.096  1.00  0.00     0.031 C 
ATOM     39  C   UNL     1       7.280  -9.722  -6.391  1.00  0.00     0.034 A 
BRANCH  26  40
ATOM     40  C   UNL     1       4.213 -10.049  -1.078  1.00  0.00     0.023 A 
ATOM     41  C   UNL     1       2.869 -10.462  -1.153  1.00  0.00     0.012 A 
ATOM     42  C   UNL     1       5.066 -10.615  -0.111  1.00  0.00     0.148 A 
ATOM     43  C   UNL     1       2.383 -11.440  -0.287  1.00  0.00     0.002 A 
ATOM     44  C   UNL     1       4.582 -11.611   0.729  1.00  0.00     0.091 A 
ATOM     45  F   UNL     1       6.338 -10.197  -0.061  1.00  0.00    -0.205 F 
ATOM     46  C   UNL     1       3.242 -12.025   0.641  1.00  0.00     0.022 A 
BRANCH  44  47
ATOM     47  S   UNL     1       5.618 -12.472   1.917  1.00  0.00     0.127 S 
ATOM     48  O   UNL     1       4.936 -12.172   3.176  1.00  0.00    -0.237 OA
ATOM     49  O   UNL     1       5.501 -13.860   1.474  1.00  0.00    -0.237 OA
ATOM     50  O   UNL     1       6.948 -11.892   1.790  1.00  0.00    -0.744 OA
ENDBRANCH  44  47
ENDBRANCH  26  40
BRANCH  27  51
ATOM     51  C   UNL     1       7.572  -3.978  -8.258  1.00  0.00     0.023 A 
ATOM     52  C   UNL     1       6.966  -4.079  -9.526  1.00  0.00     0.012 A 
ATOM     53  C   UNL     1       8.598  -3.037  -8.056  1.00  0.00     0.148 A 
ATOM     54  C   UNL     1       7.389  -3.271 -10.581  1.00  0.00     0.002 A 
ATOM     55  C   UNL     1       8.989  -2.207  -9.101  1.00  0.00     0.091 A 
ATOM     56  F   UNL     1       9.162  -2.965  -6.842  1.00  0.00    -0.205 F 
ATOM     57  C   UNL     1       8.394  -2.331 -10.367  1.00  0.00     0.022 A 
BRANCH  55  58
ATOM     58  S   UNL     1      10.214  -0.909  -8.900  1.00  0.00     0.127 S 
ATOM     59  O   UNL     1      11.309  -1.401  -9.732  1.00  0.00    -0.237 OA
ATOM     60  O   UNL     1       9.507   0.256  -9.433  1.00  0.00    -0.237 OA
ATOM     61  O   UNL     1      10.491  -0.844  -7.471  1.00  0.00    -0.744 OA
ENDBRANCH  55  58
ENDBRANCH  27  51
BRANCH  39  62
ATOM     62  C   UNL     1       7.829 -10.871  -7.189  1.00  0.00     0.023 A 
ATOM     63  C   UNL     1       9.206 -11.157  -7.153  1.00  0.00     0.012 A 
ATOM     64  C   UNL     1       6.950 -11.743  -7.863  1.00  0.00     0.148 A 
ATOM     65  C   UNL     1       9.704 -12.293  -7.789  1.00  0.00     0.002 A 
ATOM     66  C   UNL     1       7.449 -12.892  -8.462  1.00  0.00     0.091 A 
ATOM     67  F   UNL     1       5.644 -11.441  -7.883  1.00  0.00    -0.205 F 
ATOM     68  C   UNL     1       8.826 -13.165  -8.430  1.00  0.00     0.022 A 
BRANCH  66  69
ATOM     69  S   UNL     1       6.389 -14.111  -9.246  1.00  0.00     0.127 S 
ATOM     70  O   UNL     1       6.778 -13.982 -10.650  1.00  0.00    -0.237 OA
ATOM     71  O   UNL     1       6.820 -15.352  -8.605  1.00  0.00    -0.237 OA
ATOM     72  O   UNL     1       5.021 -13.713  -8.944  1.00  0.00    -0.744 OA
ENDBRANCH  66  69
ENDBRANCH  39  62
ENDBRANCH  13  14
ENDBRANCH   6   8
ENDBRANCH   3   4
ENDBRANCH   2   3
ENDBRANCH   1   2
BRANCH   1  73
ATOM     73  C   UNL     1       4.732   3.108   3.038  1.00  0.00     0.002 C 
BRANCH  73  74
ATOM     74  C   UNL     1       6.252   3.020   3.181  1.00  0.00     0.021 C 
BRANCH  74  75
ATOM     75  C   UNL     1       7.023   4.232   2.669  1.00  0.00     0.116 C 
BRANCH  75  76
ATOM     76  N   UNL     1       6.686   5.461   3.371  1.00  0.00    -0.352 N 
ATOM     77  C   UNL     1       7.500   6.360   4.008  1.00  0.00     0.256 C 
ATOM     78  H   UNL     1       5.726   5.680   3.392  1.00  0.00     0.163 HD
ATOM     79  O   UNL     1       7.011   7.349   4.545  1.00  0.00    -0.269 OA
BRANCH  77  80
ATOM     80  C   UNL     1       8.955   6.105   4.026  1.00  0.00     0.104 A 
ATOM     81  C   UNL     1       9.637   5.973   2.877  1.00  0.00     0.104 A 
ATOM     82  C   UNL     1       9.716   6.003   5.288  1.00  0.00     0.202 A 
ATOM     83  N   UNL     1      10.966   5.585   2.745  1.00  0.00    -0.342 N 
ATOM     84  C   UNL     1      11.161   5.690   5.183  1.00  0.00     0.050 A 
ATOM     85  O   UNL     1       9.192   6.105   6.392  1.00  0.00    -0.288 OA
ATOM     86  C   UNL     1      11.709   5.346   3.925  1.00  0.00     0.055 A 
ATOM     87  C   UNL     1      11.936   5.692   6.354  1.00  0.00     0.056 A 
ATOM     88  C   UNL     1      12.991   4.788   3.939  1.00  0.00     0.069 A 
ATOM     89  C   UNL     1      13.260   5.297   6.285  1.00  0.00     0.159 A 
ATOM     90  C   UNL     1      13.773   4.811   5.094  1.00  0.00     0.160 A 
ATOM     91  F   UNL     1      14.031   5.358   7.378  1.00  0.00    -0.204 F 
ATOM     92  F   UNL     1      15.040   4.380   5.029  1.00  0.00    -0.204 F 
BRANCH  83  93
ATOM     93  C   UNL     1      11.616   5.515   1.408  1.00  0.00     0.157 C 
BRANCH  93  94
ATOM     94  C   UNL     1      12.485   6.726   1.114  1.00  0.00    -0.028 A 
ATOM     95  C   UNL     1      13.811   6.787   1.556  1.00  0.00     0.008 A 
ATOM     96  C   UNL     1      11.991   7.830   0.411  1.00  0.00     0.008 A 
ATOM     97  C   UNL     1      14.585   7.937   1.399  1.00  0.00     0.027 A 
ATOM     98  C   UNL     1      12.776   8.984   0.242  1.00  0.00     0.027 A 
ATOM     99  C   UNL     1      14.071   9.068   0.769  1.00  0.00     0.044 A 
BRANCH  99 100
ATOM    100  N   UNL     1      14.838  10.257   0.706  1.00  0.00    -0.312 N 
ATOM    101  C   UNL     1      16.280  10.274   0.781  1.00  0.00     0.126 C 
ATOM    102  C   UNL     1      14.327  11.549   0.538  1.00  0.00     0.227 C 
ATOM    103  C   UNL     1      16.615  11.695   1.174  1.00  0.00     0.032 C 
ATOM    104  C   UNL     1      15.492  12.510   0.563  1.00  0.00     0.102 C 
ATOM    105  O   UNL     1      13.166  11.910   0.399  1.00  0.00    -0.275 OA
ENDBRANCH  99 100
ENDBRANCH  93  94
ENDBRANCH  83  93
ENDBRANCH  77  80
ENDBRANCH  75  76
ENDBRANCH  74  75
ENDBRANCH  73  74
ENDBRANCH   1  73
TORSDOF 19
