REMARK SMILES CC1(C)C(NC(=O)[C@@H]2CCC[C@@H](C(=O)NCCCCCCNC(=O)c3ccc(-c4c5nc(c(-c6cccc(S(=O)(=O)[O-])c6F)c6ccc([nH]6)c(-c6cccc(S(=O)(=O)[O-])c6F)c6nc(c(-c7cccc(S(=O)(=O)[O-])c7F)c7ccc4[nH]7)C=C6)C=C5)cc3)C2)C1(C)C
REMARK SMILES IDX 19 1 18 2 17 3 16 4 15 5 13 6 14 7 12 9 8 10 9 11 88 12
REMARK SMILES IDX 10 13 11 14 6 15 5 16 7 18 4 19 1 20 2 21 3 22 89 23 90 24
REMARK SMILES IDX 91 25 20 26 21 27 22 28 23 29 24 31 25 32 26 33 87 34 27 35
REMARK SMILES IDX 86 36 28 37 29 38 30 39 80 40 31 41 85 42 79 43 81 44 32 45
REMARK SMILES IDX 84 46 78 47 77 48 33 50 65 51 45 52 64 53 46 54 49 55 63 56
REMARK SMILES IDX 82 57 47 58 48 59 62 61 83 62 50 63 34 64 35 65 43 66 36 67
REMARK SMILES IDX 38 68 44 69 37 70 39 71 40 72 41 73 42 74 66 75 67 76 75 77
REMARK SMILES IDX 68 78 70 79 76 80 69 81 71 82 72 83 73 84 74 85 51 86 52 87
REMARK SMILES IDX 60 88 53 89 55 90 61 91 54 92 56 93 57 94 58 95 59 96
REMARK H PARENT 15 8 5 17 22 30 81 49 49 60
REMARK Flexibility Score: inf
ROOT
ATOM      1  C   UNL     1       9.610   1.194  -1.599  1.00  0.00     0.002 C 
ENDROOT
BRANCH   1   2
ATOM      2  C   UNL     1       9.652  -0.208  -0.985  1.00  0.00     0.002 C 
BRANCH   2   3
ATOM      3  C   UNL     1       8.484  -0.530  -0.045  1.00  0.00     0.021 C 
BRANCH   3   4
ATOM      4  C   UNL     1       7.110  -0.311  -0.670  1.00  0.00     0.116 C 
BRANCH   4   5
ATOM      5  N   UNL     1       6.974  -1.116  -1.871  1.00  0.00    -0.356 N 
ATOM      6  C   UNL     1       6.075  -2.087  -2.166  1.00  0.00     0.223 C 
ATOM      7  O   UNL     1       6.261  -2.785  -3.162  1.00  0.00    -0.275 OA
ATOM      8  H   UNL     1       7.634  -0.928  -2.577  1.00  0.00     0.163 HD
BRANCH   6   9
ATOM      9  C   UNL     1       4.864  -2.257  -1.267  1.00  0.00     0.079 C 
ATOM     10  C   UNL     1       3.189  -3.917  -2.381  1.00  0.00     0.079 C 
ATOM     11  C   UNL     1       3.560  -4.939  -1.298  1.00  0.00     0.013 C 
ATOM     12  C   UNL     1       3.631  -2.467  -2.148  1.00  0.00     0.027 C 
ATOM     13  C   UNL     1       4.959  -4.736  -0.743  1.00  0.00     0.002 C 
ATOM     14  C   UNL     1       5.120  -3.324  -0.203  1.00  0.00     0.013 C 
BRANCH  10  15
ATOM     15  C   UNL     1       1.693  -4.017  -2.688  1.00  0.00     0.223 C 
ATOM     16  N   UNL     1       0.760  -3.540  -1.802  1.00  0.00    -0.352 N 
ATOM     17  H   UNL     1      -0.179  -3.716  -2.041  1.00  0.00     0.163 HD
ATOM     18  O   UNL     1       1.296  -4.573  -3.715  1.00  0.00    -0.275 OA
BRANCH  16  19
ATOM     19  C   UNL     1       0.959  -2.822  -0.581  1.00  0.00     0.094 C 
ATOM     20  C   UNL     1       1.186  -0.375   0.279  1.00  0.00     0.014 C 
ATOM     21  C   UNL     1       0.328  -1.452  -0.359  1.00  0.00    -0.007 C 
ATOM     22  C   UNL     1      -0.609  -0.883  -1.403  1.00  0.00     0.014 C 
ATOM     23  C   UNL     1      -0.092  -2.671   0.491  1.00  0.00    -0.007 C 
ATOM     24  C   UNL     1       0.418  -2.807   1.913  1.00  0.00     0.014 C 
ATOM     25  C   UNL     1      -1.437  -3.330   0.305  1.00  0.00     0.014 C 
ENDBRANCH  16  19
ENDBRANCH  10  15
ENDBRANCH   6   9
ENDBRANCH   4   5
ENDBRANCH   3   4
ENDBRANCH   2   3
ENDBRANCH   1   2
BRANCH   1  26
ATOM     26  C   UNL     1       9.539   2.331  -0.580  1.00  0.00     0.021 C 
BRANCH  26  27
ATOM     27  C   UNL     1      10.660   2.315   0.451  1.00  0.00     0.116 C 
BRANCH  27  28
ATOM     28  N   UNL     1      11.969   2.443  -0.168  1.00  0.00    -0.352 N 
ATOM     29  C   UNL     1      12.980   3.323   0.130  1.00  0.00     0.251 C 
ATOM     30  H   UNL     1      12.156   1.813  -0.901  1.00  0.00     0.163 HD
ATOM     31  O   UNL     1      13.943   3.435  -0.617  1.00  0.00    -0.269 OA
BRANCH  29  32
ATOM     32  C   UNL     1      12.880   4.145   1.354  1.00  0.00     0.039 A 
ATOM     33  C   UNL     1      13.169   5.509   1.278  1.00  0.00     0.014 A 
ATOM     34  C   UNL     1      12.487   3.571   2.566  1.00  0.00     0.014 A 
ATOM     35  C   UNL     1      13.015   6.308   2.413  1.00  0.00     0.010 A 
ATOM     36  C   UNL     1      12.254   4.382   3.671  1.00  0.00     0.010 A 
ATOM     37  C   UNL     1      12.527   5.756   3.610  1.00  0.00    -0.014 A 
BRANCH  37  38
ATOM     38  C   UNL     1      12.297   6.602   4.808  1.00  0.00     0.031 A 
ATOM     39  C   UNL     1      13.065   6.343   6.075  1.00  0.00     0.074 A 
ATOM     40  C   UNL     1      11.342   7.552   4.779  1.00  0.00     0.049 A 
ATOM     41  N   UNL     1      12.971   6.944   7.233  1.00  0.00    -0.248 NA
ATOM     42  C   UNL     1      14.048   5.247   6.049  1.00  0.00     0.031 C 
ATOM     43  C   UNL     1      10.479   7.849   3.633  1.00  0.00     0.029 A 
ATOM     44  N   UNL     1      10.921   8.428   5.747  1.00  0.00    -0.354 N 
ATOM     45  C   UNL     1      13.852   6.281   8.078  1.00  0.00     0.074 A 
ATOM     46  C   UNL     1      14.442   5.205   7.313  1.00  0.00     0.031 C 
ATOM     47  C   UNL     1       9.640   8.844   3.961  1.00  0.00     0.029 A 
ATOM     48  C   UNL     1       9.878   9.231   5.348  1.00  0.00     0.049 A 
ATOM     49  H   UNL     1      11.326   8.476   6.643  1.00  0.00     0.167 HD
ATOM     50  C   UNL     1      14.164   6.557   9.367  1.00  0.00     0.034 A 
ATOM     51  C   UNL     1       9.185  10.167   6.025  1.00  0.00     0.034 A 
ATOM     52  C   UNL     1      13.598   7.647  10.114  1.00  0.00     0.049 A 
ATOM     53  C   UNL     1       9.567  10.472   7.448  1.00  0.00     0.074 A 
ATOM     54  C   UNL     1      13.909   8.064  11.396  1.00  0.00     0.029 A 
ATOM     55  N   UNL     1      12.593   8.485   9.654  1.00  0.00    -0.354 N 
ATOM     56  N   UNL     1      10.510   9.935   8.183  1.00  0.00    -0.248 NA
ATOM     57  C   UNL     1       8.812  11.537   8.124  1.00  0.00     0.031 C 
ATOM     58  C   UNL     1      13.065   9.130  11.725  1.00  0.00     0.029 A 
ATOM     59  C   UNL     1      12.259   9.406  10.632  1.00  0.00     0.049 A 
ATOM     60  H   UNL     1      12.178   8.432   8.763  1.00  0.00     0.167 HD
ATOM     61  C   UNL     1      10.489  10.620   9.393  1.00  0.00     0.074 A 
ATOM     62  C   UNL     1       9.450  11.624   9.284  1.00  0.00     0.031 C 
ATOM     63  C   UNL     1      11.254  10.429  10.496  1.00  0.00     0.034 A 
BRANCH  50  64
ATOM     64  C   UNL     1      15.195   5.686  10.038  1.00  0.00     0.023 A 
ATOM     65  C   UNL     1      16.543   5.751   9.628  1.00  0.00     0.012 A 
ATOM     66  C   UNL     1      14.840   4.834  11.102  1.00  0.00     0.148 A 
ATOM     67  C   UNL     1      17.512   4.952  10.233  1.00  0.00     0.002 A 
ATOM     68  C   UNL     1      15.819   4.078  11.735  1.00  0.00     0.091 A 
ATOM     69  F   UNL     1      13.551   4.768  11.466  1.00  0.00    -0.205 F 
ATOM     70  C   UNL     1      17.152   4.124  11.293  1.00  0.00     0.022 A 
BRANCH  68  71
ATOM     71  S   UNL     1      15.473   3.043  13.162  1.00  0.00     0.127 S 
ATOM     72  O   UNL     1      15.619   1.702  12.596  1.00  0.00    -0.237 OA
ATOM     73  O   UNL     1      16.537   3.432  14.088  1.00  0.00    -0.237 OA
ATOM     74  O   UNL     1      14.129   3.394  13.597  1.00  0.00    -0.744 OA
ENDBRANCH  68  71
ENDBRANCH  50  64
BRANCH  51  75
ATOM     75  C   UNL     1       8.099  10.926   5.343  1.00  0.00     0.023 A 
ATOM     76  C   UNL     1       8.287  12.290   5.047  1.00  0.00     0.012 A 
ATOM     77  C   UNL     1       6.898  10.298   4.960  1.00  0.00     0.148 A 
ATOM     78  C   UNL     1       7.285  13.024   4.412  1.00  0.00     0.002 A 
ATOM     79  C   UNL     1       5.927  11.021   4.277  1.00  0.00     0.091 A 
ATOM     80  F   UNL     1       6.738   9.001   5.257  1.00  0.00    -0.205 F 
ATOM     81  C   UNL     1       6.110  12.388   4.018  1.00  0.00     0.022 A 
BRANCH  79  82
ATOM     82  S   UNL     1       4.442  10.257   3.618  1.00  0.00     0.127 S 
ATOM     83  O   UNL     1       3.400  10.873   4.435  1.00  0.00    -0.237 OA
ATOM     84  O   UNL     1       4.473  10.696   2.223  1.00  0.00    -0.237 OA
ATOM     85  O   UNL     1       4.619   8.822   3.800  1.00  0.00    -0.744 OA
ENDBRANCH  79  82
ENDBRANCH  51  75
BRANCH  63  86
ATOM     86  C   UNL     1      11.033  11.350  11.668  1.00  0.00     0.023 A 
ATOM     87  C   UNL     1       9.861  11.240  12.444  1.00  0.00     0.012 A 
ATOM     88  C   UNL     1      12.025  12.278  12.043  1.00  0.00     0.148 A 
ATOM     89  C   UNL     1       9.665  12.063  13.552  1.00  0.00     0.002 A 
ATOM     90  C   UNL     1      11.847  13.057  13.180  1.00  0.00     0.091 A 
ATOM     91  F   UNL     1      13.125  12.380  11.283  1.00  0.00    -0.205 F 
ATOM     92  C   UNL     1      10.662  12.961  13.927  1.00  0.00     0.022 A 
BRANCH  90  93
ATOM     93  S   UNL     1      13.117  14.167  13.797  1.00  0.00     0.127 S 
ATOM     94  O   UNL     1      12.527  15.476  13.520  1.00  0.00    -0.237 OA
ATOM     95  O   UNL     1      13.175  13.812  15.215  1.00  0.00    -0.237 OA
ATOM     96  O   UNL     1      14.325  13.856  13.045  1.00  0.00    -0.744 OA
ENDBRANCH  90  93
ENDBRANCH  63  86
ENDBRANCH  37  38
ENDBRANCH  29  32
ENDBRANCH  27  28
ENDBRANCH  26  27
ENDBRANCH   1  26
TORSDOF 18
