REMARK SMILES O=C(NCCCCCCNC(=O)c1ccc(C[NH2+][C@H]2CCCNC2=O)nc1)c1ccc(-c2c3nc(c(-c4cccc(S(=O)(=O)[O-])c4F)c4ccc([nH]4)c(-c4cccc(S(=O)(=O)[O-])c4F)c4nc(c(-c5cccc(S(=O)(=O)[O-])c5F)c5ccc2[nH]5)C=C4)C=C3)cc1
REMARK SMILES IDX 6 1 5 2 4 3 3 4 1 5 2 6 28 8 29 9 90 10 30 11 89 12 31 13
REMARK SMILES IDX 32 14 33 15 83 16 34 17 88 18 82 19 84 20 35 21 87 22 81 23
REMARK SMILES IDX 80 24 36 26 68 27 48 28 67 29 49 30 52 31 66 32 85 33 50 34
REMARK SMILES IDX 51 35 65 37 86 38 53 39 37 40 38 41 46 42 39 43 41 44 47 45
REMARK SMILES IDX 40 46 42 47 43 48 44 49 45 50 69 51 70 52 78 53 71 54 73 55
REMARK SMILES IDX 79 56 72 57 74 58 75 59 76 60 77 61 54 62 55 63 63 64 56 65
REMARK SMILES IDX 58 66 64 67 57 68 59 69 60 70 61 71 62 72 7 73 8 74 9 75
REMARK SMILES IDX 10 76 11 77 12 79 13 80 14 81 27 82 15 83 26 84 16 85 17 86
REMARK SMILES IDX 18 87 19 90 20 91 24 92 21 93 23 94 25 95 22 96
REMARK H PARENT 3 7 84 25 52 36 10 78 18 88 18 89 23 97
REMARK Flexibility Score: inf
ROOT
ATOM      1  C   UNL     1       4.116   3.154   2.326  1.00  0.00     0.002 C 
ENDROOT
BRANCH   1   2
ATOM      2  C   UNL     1       4.607   2.533   1.018  1.00  0.00     0.021 C 
BRANCH   2   3
ATOM      3  C   UNL     1       4.348   1.038   0.886  1.00  0.00     0.116 C 
BRANCH   3   4
ATOM      4  N   UNL     1       2.930   0.730   0.862  1.00  0.00    -0.352 N 
ATOM      5  O   UNL     1       1.001   0.005  -0.046  1.00  0.00    -0.269 OA
ATOM      6  C   UNL     1       2.228  -0.001  -0.065  1.00  0.00     0.251 C 
ATOM      7  H   UNL     1       2.401   1.093   1.608  1.00  0.00     0.163 HD
BRANCH   6   8
ATOM      8  C   UNL     1       2.962  -0.776  -1.089  1.00  0.00     0.039 A 
ATOM      9  C   UNL     1       4.063  -1.561  -0.731  1.00  0.00     0.014 A 
ATOM     10  C   UNL     1       2.527  -0.737  -2.416  1.00  0.00     0.014 A 
ATOM     11  C   UNL     1       4.787  -2.229  -1.712  1.00  0.00     0.010 A 
ATOM     12  C   UNL     1       3.211  -1.469  -3.389  1.00  0.00     0.010 A 
ATOM     13  C   UNL     1       4.350  -2.214  -3.046  1.00  0.00    -0.014 A 
BRANCH  13  14
ATOM     14  C   UNL     1       5.006  -3.100  -4.040  1.00  0.00     0.031 A 
ATOM     15  C   UNL     1       5.743  -2.545  -5.223  1.00  0.00     0.074 A 
ATOM     16  C   UNL     1       4.872  -4.432  -3.881  1.00  0.00     0.049 A 
ATOM     17  N   UNL     1       6.339  -3.192  -6.191  1.00  0.00    -0.248 NA
ATOM     18  C   UNL     1       5.820  -1.080  -5.346  1.00  0.00     0.031 C 
ATOM     19  C   UNL     1       4.123  -5.077  -2.797  1.00  0.00     0.029 A 
ATOM     20  N   UNL     1       5.330  -5.481  -4.636  1.00  0.00    -0.354 N 
ATOM     21  C   UNL     1       6.821  -2.223  -7.061  1.00  0.00     0.074 A 
ATOM     22  C   UNL     1       6.459  -0.938  -6.502  1.00  0.00     0.031 C 
ATOM     23  C   UNL     1       4.166  -6.406  -2.961  1.00  0.00     0.029 A 
ATOM     24  C   UNL     1       4.896  -6.707  -4.186  1.00  0.00     0.049 A 
ATOM     25  H   UNL     1       5.911  -5.368  -5.422  1.00  0.00     0.167 HD
ATOM     26  C   UNL     1       7.507  -2.397  -8.216  1.00  0.00     0.034 A 
ATOM     27  C   UNL     1       5.033  -7.936  -4.719  1.00  0.00     0.034 A 
ATOM     28  C   UNL     1       7.895  -3.681  -8.739  1.00  0.00     0.049 A 
ATOM     29  C   UNL     1       5.808  -8.089  -5.994  1.00  0.00     0.074 A 
ATOM     30  C   UNL     1       8.699  -3.954  -9.833  1.00  0.00     0.029 A 
ATOM     31  N   UNL     1       7.485  -4.902  -8.230  1.00  0.00    -0.354 N 
ATOM     32  N   UNL     1       6.422  -7.169  -6.698  1.00  0.00    -0.248 NA
ATOM     33  C   UNL     1       5.929  -9.447  -6.539  1.00  0.00     0.031 C 
ATOM     34  C   UNL     1       8.745  -5.340 -10.006  1.00  0.00     0.029 A 
ATOM     35  C   UNL     1       7.989  -5.932  -9.008  1.00  0.00     0.049 A 
ATOM     36  H   UNL     1       6.920  -5.021  -7.433  1.00  0.00     0.167 HD
ATOM     37  C   UNL     1       7.012  -7.838  -7.762  1.00  0.00     0.074 A 
ATOM     38  C   UNL     1       6.714  -9.245  -7.589  1.00  0.00     0.031 C 
ATOM     39  C   UNL     1       7.716  -7.330  -8.802  1.00  0.00     0.034 A 
BRANCH  26  40
ATOM     40  C   UNL     1       7.925  -1.178  -8.995  1.00  0.00     0.023 A 
ATOM     41  C   UNL     1       9.021  -0.411  -8.554  1.00  0.00     0.012 A 
ATOM     42  C   UNL     1       7.312  -0.870 -10.226  1.00  0.00     0.148 A 
ATOM     43  C   UNL     1       9.495   0.652  -9.322  1.00  0.00     0.002 A 
ATOM     44  C   UNL     1       7.814   0.168 -11.003  1.00  0.00     0.091 A 
ATOM     45  F   UNL     1       6.261  -1.604 -10.617  1.00  0.00    -0.205 F 
ATOM     46  C   UNL     1       8.901   0.933 -10.550  1.00  0.00     0.022 A 
BRANCH  44  47
ATOM     47  S   UNL     1       7.168   0.563 -12.633  1.00  0.00     0.127 S 
ATOM     48  O   UNL     1       6.553   1.868 -12.396  1.00  0.00    -0.237 OA
ATOM     49  O   UNL     1       8.385   0.602 -13.444  1.00  0.00    -0.237 OA
ATOM     50  O   UNL     1       6.243  -0.509 -12.971  1.00  0.00    -0.744 OA
ENDBRANCH  44  47
ENDBRANCH  26  40
BRANCH  27  51
ATOM     51  C   UNL     1       4.422  -9.110  -4.038  1.00  0.00     0.023 A 
ATOM     52  C   UNL     1       5.250 -10.081  -3.444  1.00  0.00     0.012 A 
ATOM     53  C   UNL     1       3.023  -9.251  -3.946  1.00  0.00     0.148 A 
ATOM     54  C   UNL     1       4.695 -11.184  -2.794  1.00  0.00     0.002 A 
ATOM     55  C   UNL     1       2.478 -10.319  -3.245  1.00  0.00     0.091 A 
ATOM     56  F   UNL     1       2.248  -8.329  -4.536  1.00  0.00    -0.205 F 
ATOM     57  C   UNL     1       3.312 -11.297  -2.683  1.00  0.00     0.022 A 
BRANCH  55  58
ATOM     58  S   UNL     1       0.713 -10.446  -2.935  1.00  0.00     0.127 S 
ATOM     59  O   UNL     1       0.301 -11.421  -3.940  1.00  0.00    -0.237 OA
ATOM     60  O   UNL     1       0.676 -10.931  -1.554  1.00  0.00    -0.237 OA
ATOM     61  O   UNL     1       0.198  -9.094  -3.102  1.00  0.00    -0.744 OA
ENDBRANCH  55  58
ENDBRANCH  27  51
BRANCH  39  62
ATOM     62  C   UNL     1       8.217  -8.300  -9.838  1.00  0.00     0.023 A 
ATOM     63  C   UNL     1       7.306  -8.869 -10.750  1.00  0.00     0.012 A 
ATOM     64  C   UNL     1       9.590  -8.588  -9.956  1.00  0.00     0.148 A 
ATOM     65  C   UNL     1       7.752  -9.732 -11.749  1.00  0.00     0.002 A 
ATOM     66  C   UNL     1      10.033  -9.412 -10.983  1.00  0.00     0.091 A 
ATOM     67  F   UNL     1      10.435  -8.049  -9.066  1.00  0.00    -0.205 F 
ATOM     68  C   UNL     1       9.114  -9.994 -11.874  1.00  0.00     0.022 A 
BRANCH  66  69
ATOM     69  S   UNL     1      11.774  -9.736 -11.279  1.00  0.00     0.127 S 
ATOM     70  O   UNL     1      11.882 -11.147 -10.913  1.00  0.00    -0.237 OA
ATOM     71  O   UNL     1      11.901  -9.465 -12.711  1.00  0.00    -0.237 OA
ATOM     72  O   UNL     1      12.507  -8.814 -10.422  1.00  0.00    -0.744 OA
ENDBRANCH  66  69
ENDBRANCH  39  62
ENDBRANCH  13  14
ENDBRANCH   6   8
ENDBRANCH   3   4
ENDBRANCH   2   3
ENDBRANCH   1   2
BRANCH   1  73
ATOM     73  C   UNL     1       4.658   2.504   3.602  1.00  0.00     0.002 C 
BRANCH  73  74
ATOM     74  C   UNL     1       6.185   2.412   3.695  1.00  0.00     0.021 C 
BRANCH  74  75
ATOM     75  C   UNL     1       6.924   3.734   3.501  1.00  0.00     0.116 C 
BRANCH  75  76
ATOM     76  N   UNL     1       6.545   4.721   4.500  1.00  0.00    -0.352 N 
ATOM     77  C   UNL     1       7.346   5.422   5.363  1.00  0.00     0.252 C 
ATOM     78  H   UNL     1       5.581   4.911   4.566  1.00  0.00     0.163 HD
ATOM     79  O   UNL     1       6.863   6.088   6.274  1.00  0.00    -0.269 OA
BRANCH  77  80
ATOM     80  C   UNL     1       8.802   5.357   5.200  1.00  0.00     0.058 A 
ATOM     81  C   UNL     1       9.424   5.706   4.003  1.00  0.00     0.017 A 
ATOM     82  C   UNL     1       9.580   4.921   6.256  1.00  0.00     0.125 A 
ATOM     83  C   UNL     1      10.800   5.537   3.887  1.00  0.00     0.030 A 
ATOM     84  N   UNL     1      10.917   4.732   6.163  1.00  0.00    -0.255 NA
ATOM     85  C   UNL     1      11.510   5.025   4.975  1.00  0.00     0.094 A 
BRANCH  85  86
ATOM     86  C   UNL     1      12.986   4.702   4.828  1.00  0.00     0.318 C 
BRANCH  86  87
ATOM     87  N   UNL     1      13.857   5.608   5.577  1.00  0.00    -0.331 N 
ATOM     88  H   UNL     1      13.714   5.438   6.573  1.00  0.00     0.347 HD
ATOM     89  H   UNL     1      13.604   6.556   5.296  1.00  0.00     0.347 HD
BRANCH  87  90
ATOM     90  C   UNL     1      15.300   5.451   5.283  1.00  0.00     0.272 C 
ATOM     91  C   UNL     1      15.861   4.042   5.524  1.00  0.00     0.077 C 
ATOM     92  C   UNL     1      15.601   6.026   3.883  1.00  0.00     0.278 C 
ATOM     93  C   UNL     1      15.825   3.149   4.288  1.00  0.00     0.028 C 
ATOM     94  N   UNL     1      16.058   5.179   2.915  1.00  0.00    -0.351 N 
ATOM     95  O   UNL     1      15.351   7.197   3.594  1.00  0.00    -0.268 OA
ATOM     96  C   UNL     1      16.531   3.835   3.135  1.00  0.00     0.116 C 
ATOM     97  H   UNL     1      16.065   5.514   1.990  1.00  0.00     0.163 HD
ENDBRANCH  87  90
ENDBRANCH  86  87
ENDBRANCH  85  86
ENDBRANCH  77  80
ENDBRANCH  75  76
ENDBRANCH  74  75
ENDBRANCH  73  74
ENDBRANCH   1  73
TORSDOF 19
