REMARK SMILES CCOc1ccc(-c2cnc(N)cc2C(=O)NCCCCCCNC(=O)c2ccc(-c3c4nc(c(-c5cccc(S(=O)(=O)[O-])c5F)c5ccc([nH]5)c(-c5cccc(S(=O)(=O)[O-])c5F)c5nc(c(-c6cccc(S(=O)(=O)[O-])c6F)c6ccc3[nH]6)C=C5)C=C4)cc2)c(Cl)c1
REMARK SMILES IDX 20 1 19 2 18 3 17 4 15 5 16 6 14 8 8 9 9 10 10 11 13 12
REMARK SMILES IDX 11 13 7 14 4 15 5 16 92 17 6 18 90 19 91 20 3 21 2 22 1 23
REMARK SMILES IDX 12 24 21 27 22 28 23 29 24 30 25 31 26 33 27 34 28 35 89 36
REMARK SMILES IDX 29 37 88 38 30 39 31 40 32 41 82 42 33 43 87 44 81 45 83 46
REMARK SMILES IDX 34 47 86 48 80 49 79 50 35 52 67 53 47 54 66 55 48 56 51 57
REMARK SMILES IDX 65 58 84 59 49 60 50 61 64 63 85 64 52 65 36 66 37 67 45 68
REMARK SMILES IDX 38 69 40 70 46 71 39 72 41 73 42 74 43 75 44 76 68 77 69 78
REMARK SMILES IDX 77 79 70 80 72 81 78 82 71 83 73 84 74 85 75 86 76 87 53 88
REMARK SMILES IDX 54 89 62 90 55 91 57 92 63 93 56 94 58 95 59 96 60 97 61 98
REMARK H PARENT 17 7 12 25 12 26 24 32 83 51 51 62
REMARK Flexibility Score: inf
ROOT
ATOM      1  C   UNL     1       8.828  -3.323   7.036  1.00  0.00     0.002 C 
ENDROOT
BRANCH   1   2
ATOM      2  C   UNL     1       9.295  -2.058   6.298  1.00  0.00     0.021 C 
BRANCH   2   3
ATOM      3  C   UNL     1       9.110  -2.150   4.783  1.00  0.00     0.116 C 
BRANCH   3   4
ATOM      4  N   UNL     1       7.717  -1.962   4.436  1.00  0.00    -0.352 N 
ATOM      5  C   UNL     1       6.939  -0.925   3.997  1.00  0.00     0.252 C 
ATOM      6  O   UNL     1       5.766  -1.244   3.795  1.00  0.00    -0.269 OA
ATOM      7  H   UNL     1       7.197  -2.791   4.542  1.00  0.00     0.163 HD
BRANCH   5   8
ATOM      8  C   UNL     1       7.423   0.469   3.687  1.00  0.00     0.052 A 
ATOM      9  C   UNL     1       6.567   1.394   3.047  1.00  0.00     0.014 A 
ATOM     10  C   UNL     1       7.156   2.580   2.595  1.00  0.00     0.123 A 
ATOM     11  N   UNL     1       8.460   2.905   2.716  1.00  0.00    -0.239 NA
ATOM     12  C   UNL     1       8.735   0.881   3.946  1.00  0.00     0.061 A 
ATOM     13  C   UNL     1       9.230   2.050   3.389  1.00  0.00     0.124 A 
BRANCH   9  14
ATOM     14  C   UNL     1       5.120   1.220   2.812  1.00  0.00     0.003 A 
ATOM     15  C   UNL     1       2.377   0.906   2.235  1.00  0.00     0.120 A 
ATOM     16  C   UNL     1       3.298   1.031   1.201  1.00  0.00     0.047 A 
ATOM     17  C   UNL     1       2.800   0.992   3.558  1.00  0.00     0.067 A 
ATOM     18  C   UNL     1       4.656   1.159   1.486  1.00  0.00     0.014 A 
ATOM     19  C   UNL     1       4.160   1.165   3.846  1.00  0.00     0.052 A 
ATOM     20  Cl  UNL     1       4.598   1.358   5.513  1.00  0.00    -0.084 Cl
BRANCH  15  21
ATOM     21  O   UNL     1       1.034   0.829   1.991  1.00  0.00    -0.494 OA
BRANCH  21  22
ATOM     22  C   UNL     1       0.643  -0.382   1.331  1.00  0.00     0.226 C 
ATOM     23  C   UNL     1       0.615  -0.220  -0.182  1.00  0.00     0.049 C 
ENDBRANCH  21  22
ENDBRANCH  15  21
ENDBRANCH   9  14
BRANCH  13  24
ATOM     24  N   UNL     1      10.557   2.397   3.543  1.00  0.00    -0.384 N 
ATOM     25  H   UNL     1      10.897   3.230   3.143  1.00  0.00     0.158 HD
ATOM     26  H   UNL     1      11.162   1.812   4.053  1.00  0.00     0.158 HD
ENDBRANCH  13  24
ENDBRANCH   5   8
ENDBRANCH   3   4
ENDBRANCH   2   3
ENDBRANCH   1   2
BRANCH   1  27
ATOM     27  C   UNL     1       9.504  -4.622   6.577  1.00  0.00     0.002 C 
BRANCH  27  28
ATOM     28  C   UNL     1      11.034  -4.575   6.562  1.00  0.00     0.021 C 
BRANCH  28  29
ATOM     29  C   UNL     1      11.656  -4.333   7.932  1.00  0.00     0.116 C 
BRANCH  29  30
ATOM     30  N   UNL     1      11.377  -5.434   8.842  1.00  0.00    -0.352 N 
ATOM     31  C   UNL     1      12.258  -6.235   9.522  1.00  0.00     0.251 C 
ATOM     32  H   UNL     1      10.423  -5.631   8.989  1.00  0.00     0.163 HD
ATOM     33  O   UNL     1      11.870  -7.275  10.044  1.00  0.00    -0.269 OA
BRANCH  31  34
ATOM     34  C   UNL     1      13.678  -5.837   9.616  1.00  0.00     0.039 A 
ATOM     35  C   UNL     1      14.669  -6.800   9.417  1.00  0.00     0.014 A 
ATOM     36  C   UNL     1      14.026  -4.514   9.906  1.00  0.00     0.014 A 
ATOM     37  C   UNL     1      16.013  -6.424   9.466  1.00  0.00     0.010 A 
ATOM     38  C   UNL     1      15.361  -4.127   9.875  1.00  0.00     0.010 A 
ATOM     39  C   UNL     1      16.369  -5.080   9.669  1.00  0.00    -0.014 A 
BRANCH  39  40
ATOM     40  C   UNL     1      17.790  -4.651   9.667  1.00  0.00     0.031 A 
ATOM     41  C   UNL     1      18.402  -4.052  10.903  1.00  0.00     0.074 A 
ATOM     42  C   UNL     1      18.503  -4.724   8.526  1.00  0.00     0.049 A 
ATOM     43  N   UNL     1      19.610  -3.582  11.079  1.00  0.00    -0.248 NA
ATOM     44  C   UNL     1      17.536  -3.937  12.089  1.00  0.00     0.031 C 
ATOM     45  C   UNL     1      17.996  -5.215   7.242  1.00  0.00     0.029 A 
ATOM     46  N   UNL     1      19.799  -4.364   8.256  1.00  0.00    -0.354 N 
ATOM     47  C   UNL     1      19.638  -3.083  12.376  1.00  0.00     0.074 A 
ATOM     48  C   UNL     1      18.316  -3.274  12.930  1.00  0.00     0.031 C 
ATOM     49  C   UNL     1      18.973  -5.136   6.325  1.00  0.00     0.029 A 
ATOM     50  C   UNL     1      20.162  -4.559   6.944  1.00  0.00     0.049 A 
ATOM     51  H   UNL     1      20.410  -4.000   8.936  1.00  0.00     0.167 HD
ATOM     52  C   UNL     1      20.676  -2.539  13.054  1.00  0.00     0.034 A 
ATOM     53  C   UNL     1      21.321  -4.297   6.309  1.00  0.00     0.034 A 
ATOM     54  C   UNL     1      21.998  -2.385  12.509  1.00  0.00     0.049 A 
ATOM     55  C   UNL     1      22.470  -3.723   7.093  1.00  0.00     0.074 A 
ATOM     56  C   UNL     1      23.143  -1.937  13.143  1.00  0.00     0.029 A 
ATOM     57  N   UNL     1      22.350  -2.661  11.197  1.00  0.00    -0.354 N 
ATOM     58  N   UNL     1      22.526  -3.410   8.364  1.00  0.00    -0.248 NA
ATOM     59  C   UNL     1      23.726  -3.500   6.363  1.00  0.00     0.031 C 
ATOM     60  C   UNL     1      24.179  -1.907  12.204  1.00  0.00     0.029 A 
ATOM     61  C   UNL     1      23.689  -2.374  10.994  1.00  0.00     0.049 A 
ATOM     62  H   UNL     1      21.737  -3.009  10.509  1.00  0.00     0.167 HD
ATOM     63  C   UNL     1      23.830  -2.987   8.596  1.00  0.00     0.074 A 
ATOM     64  C   UNL     1      24.535  -3.104   7.336  1.00  0.00     0.031 C 
ATOM     65  C   UNL     1      24.390  -2.535   9.746  1.00  0.00     0.034 A 
BRANCH  52  66
ATOM     66  C   UNL     1      20.430  -2.101  14.476  1.00  0.00     0.023 A 
ATOM     67  C   UNL     1      20.204  -3.068  15.478  1.00  0.00     0.012 A 
ATOM     68  C   UNL     1      20.464  -0.738  14.829  1.00  0.00     0.148 A 
ATOM     69  C   UNL     1      19.971  -2.684  16.798  1.00  0.00     0.002 A 
ATOM     70  C   UNL     1      20.281  -0.366  16.156  1.00  0.00     0.091 A 
ATOM     71  F   UNL     1      20.659   0.169  13.862  1.00  0.00    -0.205 F 
ATOM     72  C   UNL     1      20.020  -1.335  17.138  1.00  0.00     0.022 A 
BRANCH  70  73
ATOM     73  S   UNL     1      20.409   1.338  16.709  1.00  0.00     0.127 S 
ATOM     74  O   UNL     1      19.013   1.658  17.002  1.00  0.00    -0.237 OA
ATOM     75  O   UNL     1      21.267   1.216  17.888  1.00  0.00    -0.237 OA
ATOM     76  O   UNL     1      21.002   2.076  15.602  1.00  0.00    -0.744 OA
ENDBRANCH  70  73
ENDBRANCH  52  66
BRANCH  53  77
ATOM     77  C   UNL     1      21.471  -4.644   4.868  1.00  0.00     0.023 A 
ATOM     78  C   UNL     1      22.311  -5.714   4.499  1.00  0.00     0.012 A 
ATOM     79  C   UNL     1      20.762  -3.951   3.868  1.00  0.00     0.148 A 
ATOM     80  C   UNL     1      22.463  -6.069   3.159  1.00  0.00     0.002 A 
ATOM     81  C   UNL     1      20.875  -4.346   2.540  1.00  0.00     0.091 A 
ATOM     82  F   UNL     1      19.973  -2.933   4.241  1.00  0.00    -0.205 F 
ATOM     83  C   UNL     1      21.738  -5.392   2.181  1.00  0.00     0.022 A 
BRANCH  81  84
ATOM     84  S   UNL     1      19.882  -3.622   1.230  1.00  0.00     0.127 S 
ATOM     85  O   UNL     1      20.894  -2.932   0.434  1.00  0.00    -0.237 OA
ATOM     86  O   UNL     1      19.305  -4.809   0.600  1.00  0.00    -0.237 OA
ATOM     87  O   UNL     1      18.912  -2.764   1.896  1.00  0.00    -0.744 OA
ENDBRANCH  81  84
ENDBRANCH  53  77
BRANCH  65  88
ATOM     88  C   UNL     1      25.850  -2.164   9.713  1.00  0.00     0.023 A 
ATOM     89  C   UNL     1      26.267  -0.999   9.040  1.00  0.00     0.012 A 
ATOM     90  C   UNL     1      26.799  -2.934  10.415  1.00  0.00     0.148 A 
ATOM     91  C   UNL     1      27.610  -0.625   9.036  1.00  0.00     0.002 A 
ATOM     92  C   UNL     1      28.127  -2.526  10.451  1.00  0.00     0.091 A 
ATOM     93  F   UNL     1      26.386  -4.049  11.034  1.00  0.00    -0.205 F 
ATOM     94  C   UNL     1      28.537  -1.380   9.751  1.00  0.00     0.022 A 
BRANCH  92  95
ATOM     95  S   UNL     1      29.371  -3.379  11.427  1.00  0.00     0.127 S 
ATOM     96  O   UNL     1      30.186  -4.007  10.388  1.00  0.00    -0.237 OA
ATOM     97  O   UNL     1      30.023  -2.274  12.130  1.00  0.00    -0.237 OA
ATOM     98  O   UNL     1      28.643  -4.299  12.291  1.00  0.00    -0.744 OA
ENDBRANCH  92  95
ENDBRANCH  65  88
ENDBRANCH  39  40
ENDBRANCH  31  34
ENDBRANCH  29  30
ENDBRANCH  28  29
ENDBRANCH  27  28
ENDBRANCH   1  27
TORSDOF 20
