REMARK SMILES O=C(NCCCCCCNC(=O)c1nccnc1C(=O)Nc1n[nH]c2ncccc12)c1ccc(-c2c3nc(c(-c4cccc(S(=O)(=O)[O-])c4F)c4ccc([nH]4)c(-c4cccc(S(=O)(=O)[O-])c4F)c4nc(c(-c5cccc(S(=O)(=O)[O-])c5F)c5ccc2[nH]5)C=C4)C=C3)cc1
REMARK SMILES IDX 6 1 5 2 4 3 3 4 1 5 2 6 31 8 32 9 93 10 33 11 92 12 34 13
REMARK SMILES IDX 35 14 36 15 86 16 37 17 91 18 85 19 87 20 38 21 90 22 84 23
REMARK SMILES IDX 83 24 39 26 71 27 51 28 70 29 52 30 55 31 69 32 88 33 53 34
REMARK SMILES IDX 54 35 68 37 89 38 56 39 40 40 41 41 49 42 42 43 44 44 50 45
REMARK SMILES IDX 43 46 45 47 46 48 47 49 48 50 72 51 73 52 81 53 74 54 76 55
REMARK SMILES IDX 82 56 75 57 77 58 78 59 79 60 80 61 57 62 58 63 66 64 59 65
REMARK SMILES IDX 61 66 67 67 60 68 62 69 63 70 64 71 65 72 7 73 8 74 9 75
REMARK SMILES IDX 10 76 11 77 12 79 13 80 14 81 18 82 15 83 17 84 16 85 19 86
REMARK SMILES IDX 20 87 21 88 22 90 23 91 30 92 24 93 25 94 29 95 26 97 28 98
REMARK SMILES IDX 27 99
REMARK H PARENT 3 7 87 25 55 36 10 78 21 89 24 96
REMARK Flexibility Score: inf
ROOT
ATOM      1  C   UNL     1       3.740  -3.481  -0.055  1.00  0.00     0.002 C 
ENDROOT
BRANCH   1   2
ATOM      2  C   UNL     1       4.290  -2.102   0.297  1.00  0.00     0.021 C 
BRANCH   2   3
ATOM      3  C   UNL     1       4.140  -1.080  -0.812  1.00  0.00     0.116 C 
BRANCH   3   4
ATOM      4  N   UNL     1       2.753  -0.678  -0.965  1.00  0.00    -0.352 N 
ATOM      5  O   UNL     1       0.863   0.366  -0.323  1.00  0.00    -0.269 OA
ATOM      6  C   UNL     1       2.089   0.372  -0.374  1.00  0.00     0.251 C 
ATOM      7  H   UNL     1       2.214  -1.233  -1.574  1.00  0.00     0.163 HD
BRANCH   6   8
ATOM      8  C   UNL     1       2.861   1.491   0.212  1.00  0.00     0.039 A 
ATOM      9  C   UNL     1       4.010   1.959  -0.426  1.00  0.00     0.014 A 
ATOM     10  C   UNL     1       2.427   2.097   1.393  1.00  0.00     0.014 A 
ATOM     11  C   UNL     1       4.823   2.890   0.201  1.00  0.00     0.010 A 
ATOM     12  C   UNL     1       3.175   3.138   1.952  1.00  0.00     0.010 A 
ATOM     13  C   UNL     1       4.397   3.523   1.377  1.00  0.00    -0.014 A 
BRANCH  13  14
ATOM     14  C   UNL     1       5.208   4.641   1.923  1.00  0.00     0.031 A 
ATOM     15  C   UNL     1       5.780   4.590   3.312  1.00  0.00     0.074 A 
ATOM     16  C   UNL     1       5.428   5.716   1.139  1.00  0.00     0.049 A 
ATOM     17  N   UNL     1       6.524   5.475   3.925  1.00  0.00    -0.248 NA
ATOM     18  C   UNL     1       5.473   3.402   4.123  1.00  0.00     0.031 C 
ATOM     19  C   UNL     1       4.899   5.891  -0.218  1.00  0.00     0.029 A 
ATOM     20  N   UNL     1       6.152   6.859   1.357  1.00  0.00    -0.354 N 
ATOM     21  C   UNL     1       6.728   4.982   5.208  1.00  0.00     0.074 A 
ATOM     22  C   UNL     1       6.026   3.719   5.286  1.00  0.00     0.031 C 
ATOM     23  C   UNL     1       5.351   7.045  -0.726  1.00  0.00     0.029 A 
ATOM     24  C   UNL     1       6.132   7.731   0.294  1.00  0.00     0.049 A 
ATOM     25  H   UNL     1       6.639   7.038   2.194  1.00  0.00     0.167 HD
ATOM     26  C   UNL     1       7.436   5.532   6.224  1.00  0.00     0.034 A 
ATOM     27  C   UNL     1       6.660   8.961   0.157  1.00  0.00     0.034 A 
ATOM     28  C   UNL     1       8.138   6.785   6.130  1.00  0.00     0.049 A 
ATOM     29  C   UNL     1       7.432   9.545   1.302  1.00  0.00     0.074 A 
ATOM     30  C   UNL     1       8.937   7.397   7.080  1.00  0.00     0.029 A 
ATOM     31  N   UNL     1       8.104   7.635   5.033  1.00  0.00    -0.354 N 
ATOM     32  N   UNL     1       7.706   9.013   2.467  1.00  0.00    -0.248 NA
ATOM     33  C   UNL     1       7.990  10.888   1.103  1.00  0.00     0.031 C 
ATOM     34  C   UNL     1       9.340   8.639   6.579  1.00  0.00     0.029 A 
ATOM     35  C   UNL     1       8.848   8.774   5.290  1.00  0.00     0.049 A 
ATOM     36  H   UNL     1       7.620   7.454   4.195  1.00  0.00     0.167 HD
ATOM     37  C   UNL     1       8.507   9.937   3.126  1.00  0.00     0.074 A 
ATOM     38  C   UNL     1       8.681  11.056   2.221  1.00  0.00     0.031 C 
ATOM     39  C   UNL     1       9.047   9.864   4.367  1.00  0.00     0.034 A 
BRANCH  26  40
ATOM     40  C   UNL     1       7.473   4.785   7.535  1.00  0.00     0.023 A 
ATOM     41  C   UNL     1       8.161   3.558   7.637  1.00  0.00     0.012 A 
ATOM     42  C   UNL     1       6.851   5.320   8.681  1.00  0.00     0.148 A 
ATOM     43  C   UNL     1       8.183   2.851   8.840  1.00  0.00     0.002 A 
ATOM     44  C   UNL     1       6.923   4.637   9.889  1.00  0.00     0.091 A 
ATOM     45  F   UNL     1       6.187   6.479   8.566  1.00  0.00    -0.205 F 
ATOM     46  C   UNL     1       7.572   3.395   9.967  1.00  0.00     0.022 A 
BRANCH  44  47
ATOM     47  S   UNL     1       6.243   5.297  11.415  1.00  0.00     0.127 S 
ATOM     48  O   UNL     1       5.102   4.410  11.636  1.00  0.00    -0.237 OA
ATOM     49  O   UNL     1       7.352   5.107  12.351  1.00  0.00    -0.237 OA
ATOM     50  O   UNL     1       5.912   6.687  11.140  1.00  0.00    -0.744 OA
ENDBRANCH  44  47
ENDBRANCH  26  40
BRANCH  27  51
ATOM     51  C   UNL     1       6.503   9.696  -1.128  1.00  0.00     0.023 A 
ATOM     52  C   UNL     1       7.629   9.911  -1.945  1.00  0.00     0.012 A 
ATOM     53  C   UNL     1       5.241  10.145  -1.563  1.00  0.00     0.148 A 
ATOM     54  C   UNL     1       7.506  10.586  -3.159  1.00  0.00     0.002 A 
ATOM     55  C   UNL     1       5.116  10.765  -2.799  1.00  0.00     0.091 A 
ATOM     56  F   UNL     1       4.183   9.929  -0.768  1.00  0.00    -0.205 F 
ATOM     57  C   UNL     1       6.250  11.004  -3.590  1.00  0.00     0.022 A 
BRANCH  55  58
ATOM     58  S   UNL     1       3.525  11.222  -3.495  1.00  0.00     0.127 S 
ATOM     59  O   UNL     1       3.631  12.678  -3.548  1.00  0.00    -0.237 OA
ATOM     60  O   UNL     1       3.567  10.552  -4.795  1.00  0.00    -0.237 OA
ATOM     61  O   UNL     1       2.524  10.699  -2.576  1.00  0.00    -0.744 OA
ENDBRANCH  55  58
ENDBRANCH  27  51
BRANCH  39  62
ATOM     62  C   UNL     1       9.942  10.995   4.800  1.00  0.00     0.023 A 
ATOM     63  C   UNL     1       9.408  12.270   5.072  1.00  0.00     0.012 A 
ATOM     64  C   UNL     1      11.321  10.770   4.986  1.00  0.00     0.148 A 
ATOM     65  C   UNL     1      10.239  13.314   5.479  1.00  0.00     0.002 A 
ATOM     66  C   UNL     1      12.132  11.796   5.450  1.00  0.00     0.091 A 
ATOM     67  F   UNL     1      11.814   9.556   4.701  1.00  0.00    -0.205 F 
ATOM     68  C   UNL     1      11.597  13.074   5.680  1.00  0.00     0.022 A 
BRANCH  66  69
ATOM     69  S   UNL     1      13.867  11.548   5.836  1.00  0.00     0.127 S 
ATOM     70  O   UNL     1      14.521  12.298   4.765  1.00  0.00    -0.237 OA
ATOM     71  O   UNL     1      13.978  12.156   7.163  1.00  0.00    -0.237 OA
ATOM     72  O   UNL     1      14.085  10.108   5.811  1.00  0.00    -0.744 OA
ENDBRANCH  66  69
ENDBRANCH  39  62
ENDBRANCH  13  14
ENDBRANCH   6   8
ENDBRANCH   3   4
ENDBRANCH   2   3
ENDBRANCH   1   2
BRANCH   1  73
ATOM     73  C   UNL     1       4.367  -4.203  -1.271  1.00  0.00     0.002 C 
BRANCH  73  74
ATOM     74  C   UNL     1       6.086  -4.548  -1.381  1.00  0.00     0.021 C 
BRANCH  74  75
ATOM     75  C   UNL     1       7.406  -5.904  -0.247  1.00  0.00     0.116 C 
BRANCH  75  76
ATOM     76  N   UNL     1       7.421  -7.501  -0.085  1.00  0.00    -0.351 N 
ATOM     77  C   UNL     1       8.362  -8.411  -0.519  1.00  0.00     0.272 C 
ATOM     78  H   UNL     1       6.650  -7.884   0.392  1.00  0.00     0.163 HD
ATOM     79  O   UNL     1       8.180  -9.620  -0.459  1.00  0.00    -0.267 OA
BRANCH  77  80
ATOM     80  C   UNL     1       9.623  -7.851  -1.030  1.00  0.00     0.159 A 
ATOM     81  N   UNL     1      10.422  -7.341  -0.033  1.00  0.00    -0.247 NA
ATOM     82  C   UNL     1       9.898  -7.686  -2.379  1.00  0.00     0.159 A 
ATOM     83  C   UNL     1      11.518  -6.676  -0.437  1.00  0.00     0.132 A 
ATOM     84  N   UNL     1      11.022  -7.000  -2.767  1.00  0.00    -0.247 NA
ATOM     85  C   UNL     1      11.810  -6.509  -1.776  1.00  0.00     0.132 A 
BRANCH  82  86
ATOM     86  C   UNL     1       9.132  -8.294  -3.509  1.00  0.00     0.277 C 
ATOM     87  O   UNL     1       9.773  -8.953  -4.335  1.00  0.00    -0.267 OA
ATOM     88  N   UNL     1       7.766  -8.220  -3.672  1.00  0.00    -0.303 N 
ATOM     89  H   UNL     1       7.410  -8.778  -4.400  1.00  0.00     0.172 HD
BRANCH  88  90
ATOM     90  C   UNL     1       6.819  -7.500  -2.990  1.00  0.00     0.164 A 
ATOM     91  N   UNL     1       5.602  -8.055  -2.844  1.00  0.00    -0.155 NA
ATOM     92  C   UNL     1       6.973  -6.289  -2.285  1.00  0.00     0.063 A 
ATOM     93  N   UNL     1       5.009  -7.536  -1.727  1.00  0.00    -0.259 N 
ATOM     94  C   UNL     1       5.672  -6.486  -1.161  1.00  0.00     0.157 A 
ATOM     95  C   UNL     1       8.097  -4.925  -2.047  1.00  0.00     0.017 A 
ATOM     96  H   UNL     1       4.168  -7.893  -1.359  1.00  0.00     0.192 HD
ATOM     97  N   UNL     1       5.504  -5.552   0.300  1.00  0.00    -0.237 NA
ATOM     98  C   UNL     1       7.972  -3.878  -0.614  1.00  0.00     0.021 A 
ATOM     99  C   UNL     1       6.657  -4.194   0.505  1.00  0.00     0.113 A 
ENDBRANCH  88  90
ENDBRANCH  82  86
ENDBRANCH  77  80
ENDBRANCH  75  76
ENDBRANCH  74  75
ENDBRANCH  73  74
ENDBRANCH   1  73
TORSDOF 18
