REMARK SMILES O=C(CN(CC(F)(F)F)c1nc(-c2ccccc2)cs1)NCCCCCCNC(=O)c1ccc(-c2c3nc(c(-c4cccc(S(=O)(=O)[O-])c4F)c4ccc([nH]4)c(-c4cccc(S(=O)(=O)[O-])c4F)c4nc(c(-c5cccc(S(=O)(=O)[O-])c5F)c5ccc2[nH]5)C=C4)C=C3)cc1
REMARK SMILES IDX 24 1 23 2 22 3 21 4 1 5 2 6 3 8 4 9 5 10 6 11 7 12 8 13 9 14
REMARK SMILES IDX 10 15 11 16 20 17 12 18 19 19 13 20 14 21 18 22 15 23 17 24
REMARK SMILES IDX 16 25 25 26 26 27 27 28 28 29 29 30 30 32 31 33 32 34 93 35
REMARK SMILES IDX 33 36 92 37 34 38 35 39 36 40 86 41 37 42 91 43 85 44 87 45
REMARK SMILES IDX 38 46 90 47 84 48 83 49 39 51 71 52 51 53 70 54 52 55 55 56
REMARK SMILES IDX 69 57 88 58 53 59 54 60 68 62 89 63 56 64 40 65 41 66 49 67
REMARK SMILES IDX 42 68 44 69 50 70 43 71 45 72 46 73 47 74 48 75 72 76 73 77
REMARK SMILES IDX 81 78 74 79 76 80 82 81 75 82 77 83 78 84 79 85 80 86 57 87
REMARK SMILES IDX 58 88 66 89 59 90 61 91 67 92 60 93 62 94 63 95 64 96 65 97
REMARK H PARENT 21 7 28 31 87 50 55 61
REMARK Flexibility Score: inf
ROOT
ATOM      1  C   UNL     1       4.241   3.536  -0.150  1.00  0.00     0.002 C 
ENDROOT
BRANCH   1   2
ATOM      2  C   UNL     1       2.744   3.242   0.014  1.00  0.00     0.021 C 
BRANCH   2   3
ATOM      3  C   UNL     1       2.207   2.120  -0.875  1.00  0.00     0.116 C 
BRANCH   3   4
ATOM      4  N   UNL     1       2.845   0.847  -0.610  1.00  0.00    -0.355 N 
ATOM      5  O   UNL     1       1.143  -0.027   0.662  1.00  0.00    -0.273 OA
ATOM      6  C   UNL     1       2.227  -0.163   0.096  1.00  0.00     0.239 C 
ATOM      7  H   UNL     1       3.757   0.697  -0.949  1.00  0.00     0.163 HD
BRANCH   6   8
ATOM      8  C   UNL     1       3.059  -1.444   0.265  1.00  0.00     0.219 C 
BRANCH   8   9
ATOM      9  N   UNL     1       3.951  -1.766  -0.867  1.00  0.00    -0.330 N 
BRANCH   9  10
ATOM     10  C   UNL     1       5.405  -1.848  -0.629  1.00  0.00     0.234 C 
BRANCH  10  11
ATOM     11  C   UNL     1       6.016  -3.227  -0.330  1.00  0.00     0.406 C 
ATOM     12  F   UNL     1       6.338  -3.905  -1.454  1.00  0.00    -0.169 F 
ATOM     13  F   UNL     1       7.171  -3.079   0.368  1.00  0.00    -0.169 F 
ATOM     14  F   UNL     1       5.201  -4.005   0.415  1.00  0.00    -0.169 F 
ENDBRANCH  10  11
ENDBRANCH   9  10
BRANCH   9  15
ATOM     15  C   UNL     1       3.375  -2.154  -2.039  1.00  0.00     0.186 A 
ATOM     16  N   UNL     1       2.412  -1.470  -2.614  1.00  0.00    -0.220 NA
ATOM     17  S   UNL     1       3.798  -3.600  -2.886  1.00  0.00    -0.105 S 
ATOM     18  C   UNL     1       1.987  -2.086  -3.776  1.00  0.00     0.083 A 
ATOM     19  C   UNL     1       2.615  -3.277  -4.069  1.00  0.00     0.097 A 
BRANCH  18  20
ATOM     20  C   UNL     1       0.999  -1.487  -4.654  1.00  0.00     0.001 A 
ATOM     21  C   UNL     1      -0.105  -2.224  -5.105  1.00  0.00     0.010 A 
ATOM     22  C   UNL     1       1.174  -0.171  -5.096  1.00  0.00     0.010 A 
ATOM     23  C   UNL     1      -1.009  -1.656  -6.005  1.00  0.00     0.001 A 
ATOM     24  C   UNL     1       0.275   0.392  -6.004  1.00  0.00     0.001 A 
ATOM     25  C   UNL     1      -0.813  -0.352  -6.460  1.00  0.00     0.000 A 
ENDBRANCH  18  20
ENDBRANCH   9  15
ENDBRANCH   8   9
ENDBRANCH   6   8
ENDBRANCH   3   4
ENDBRANCH   2   3
ENDBRANCH   1   2
BRANCH   1  26
ATOM     26  C   UNL     1       4.691   3.908  -1.566  1.00  0.00     0.002 C 
BRANCH  26  27
ATOM     27  C   UNL     1       3.995   5.124  -2.183  1.00  0.00     0.021 C 
BRANCH  27  28
ATOM     28  C   UNL     1       4.143   6.427  -1.402  1.00  0.00     0.116 C 
BRANCH  28  29
ATOM     29  N   UNL     1       5.529   6.867  -1.306  1.00  0.00    -0.352 N 
ATOM     30  C   UNL     1       6.089   8.077  -1.636  1.00  0.00     0.251 C 
ATOM     31  H   UNL     1       6.157   6.198  -0.950  1.00  0.00     0.163 HD
ATOM     32  O   UNL     1       7.313   8.201  -1.639  1.00  0.00    -0.269 OA
BRANCH  30  33
ATOM     33  C   UNL     1       5.230   9.222  -2.011  1.00  0.00     0.039 A 
ATOM     34  C   UNL     1       5.583   9.998  -3.119  1.00  0.00     0.014 A 
ATOM     35  C   UNL     1       4.081   9.534  -1.278  1.00  0.00     0.014 A 
ATOM     36  C   UNL     1       4.747  11.038  -3.533  1.00  0.00     0.010 A 
ATOM     37  C   UNL     1       3.212  10.521  -1.737  1.00  0.00     0.010 A 
ATOM     38  C   UNL     1       3.533  11.282  -2.871  1.00  0.00    -0.014 A 
BRANCH  38  39
ATOM     39  C   UNL     1       2.570  12.295  -3.381  1.00  0.00     0.031 A 
ATOM     40  C   UNL     1       2.182  13.481  -2.542  1.00  0.00     0.074 A 
ATOM     41  C   UNL     1       1.971  12.095  -4.572  1.00  0.00     0.049 A 
ATOM     42  N   UNL     1       1.326  14.435  -2.809  1.00  0.00    -0.248 NA
ATOM     43  C   UNL     1       2.819  13.599  -1.221  1.00  0.00     0.031 C 
ATOM     44  C   UNL     1       2.192  10.938  -5.442  1.00  0.00     0.029 A 
ATOM     45  N   UNL     1       1.031  12.839  -5.241  1.00  0.00    -0.354 N 
ATOM     46  C   UNL     1       1.298  15.248  -1.682  1.00  0.00     0.074 A 
ATOM     47  C   UNL     1       2.194  14.652  -0.714  1.00  0.00     0.031 C 
ATOM     48  C   UNL     1       1.411  11.048  -6.527  1.00  0.00     0.029 A 
ATOM     49  C   UNL     1       0.607  12.262  -6.415  1.00  0.00     0.049 A 
ATOM     50  H   UNL     1       0.694  13.703  -4.912  1.00  0.00     0.167 HD
ATOM     51  C   UNL     1       0.613  16.399  -1.479  1.00  0.00     0.034 A 
ATOM     52  C   UNL     1      -0.335  12.651  -7.296  1.00  0.00     0.034 A 
ATOM     53  C   UNL     1      -0.266  16.997  -2.450  1.00  0.00     0.049 A 
ATOM     54  C   UNL     1      -1.069  13.941  -7.064  1.00  0.00     0.074 A 
ATOM     55  C   UNL     1      -0.938  18.204  -2.376  1.00  0.00     0.029 A 
ATOM     56  N   UNL     1      -0.615  16.422  -3.664  1.00  0.00    -0.354 N 
ATOM     57  N   UNL     1      -0.956  14.786  -6.068  1.00  0.00    -0.248 NA
ATOM     58  C   UNL     1      -2.035  14.351  -8.093  1.00  0.00     0.031 C 
ATOM     59  C   UNL     1      -1.723  18.341  -3.526  1.00  0.00     0.029 A 
ATOM     60  C   UNL     1      -1.509  17.239  -4.338  1.00  0.00     0.049 A 
ATOM     61  H   UNL     1      -0.277  15.560  -3.998  1.00  0.00     0.167 HD
ATOM     62  C   UNL     1      -1.817  15.838  -6.359  1.00  0.00     0.074 A 
ATOM     63  C   UNL     1      -2.424  15.536  -7.640  1.00  0.00     0.031 C 
ATOM     64  C   UNL     1      -2.088  16.946  -5.625  1.00  0.00     0.034 A 
BRANCH  51  65
ATOM     65  C   UNL     1       0.819  17.106  -0.162  1.00  0.00     0.023 A 
ATOM     66  C   UNL     1       2.067  17.698   0.124  1.00  0.00     0.012 A 
ATOM     67  C   UNL     1      -0.224  17.213   0.779  1.00  0.00     0.148 A 
ATOM     68  C   UNL     1       2.291  18.336   1.344  1.00  0.00     0.002 A 
ATOM     69  C   UNL     1      -0.009  17.894   1.972  1.00  0.00     0.091 A 
ATOM     70  F   UNL     1      -1.400  16.631   0.501  1.00  0.00    -0.205 F 
ATOM     71  C   UNL     1       1.252  18.441   2.263  1.00  0.00     0.022 A 
BRANCH  69  72
ATOM     72  S   UNL     1      -1.308  18.156   3.185  1.00  0.00     0.127 S 
ATOM     73  O   UNL     1      -0.903  17.242   4.252  1.00  0.00    -0.237 OA
ATOM     74  O   UNL     1      -1.148  19.575   3.505  1.00  0.00    -0.237 OA
ATOM     75  O   UNL     1      -2.556  17.823   2.513  1.00  0.00    -0.744 OA
ENDBRANCH  69  72
ENDBRANCH  51  65
BRANCH  52  76
ATOM     76  C   UNL     1      -0.599  11.816  -8.502  1.00  0.00     0.023 A 
ATOM     77  C   UNL     1      -0.193  12.274  -9.770  1.00  0.00     0.012 A 
ATOM     78  C   UNL     1      -1.193  10.544  -8.387  1.00  0.00     0.148 A 
ATOM     79  C   UNL     1      -0.394  11.489 -10.906  1.00  0.00     0.002 A 
ATOM     80  C   UNL     1      -1.337   9.743  -9.513  1.00  0.00     0.091 A 
ATOM     81  F   UNL     1      -1.577  10.132  -7.171  1.00  0.00    -0.205 F 
ATOM     82  C   UNL     1      -0.954  10.220 -10.776  1.00  0.00     0.022 A 
BRANCH  80  83
ATOM     83  S   UNL     1      -1.914   8.045  -9.423  1.00  0.00     0.127 S 
ATOM     84  O   UNL     1      -3.179   8.120 -10.149  1.00  0.00    -0.237 OA
ATOM     85  O   UNL     1      -0.845   7.328 -10.119  1.00  0.00    -0.237 OA
ATOM     86  O   UNL     1      -2.021   7.736  -8.004  1.00  0.00    -0.744 OA
ENDBRANCH  80  83
ENDBRANCH  52  76
BRANCH  64  87
ATOM     87  C   UNL     1      -3.076  17.934  -6.193  1.00  0.00     0.023 A 
ATOM     88  C   UNL     1      -4.446  17.607  -6.248  1.00  0.00     0.012 A 
ATOM     89  C   UNL     1      -2.655  19.212  -6.612  1.00  0.00     0.148 A 
ATOM     90  C   UNL     1      -5.375  18.521  -6.742  1.00  0.00     0.002 A 
ATOM     91  C   UNL     1      -3.594  20.137  -7.055  1.00  0.00     0.091 A 
ATOM     92  F   UNL     1      -1.346  19.500  -6.569  1.00  0.00    -0.205 F 
ATOM     93  C   UNL     1      -4.952  19.789  -7.134  1.00  0.00     0.022 A 
BRANCH  91  94
ATOM     94  S   UNL     1      -3.157  21.824  -7.491  1.00  0.00     0.127 S 
ATOM     95  O   UNL     1      -3.361  21.820  -8.939  1.00  0.00    -0.237 OA
ATOM     96  O   UNL     1      -4.141  22.602  -6.739  1.00  0.00    -0.237 OA
ATOM     97  O   UNL     1      -1.779  22.009  -7.058  1.00  0.00    -0.744 OA
ENDBRANCH  91  94
ENDBRANCH  64  87
ENDBRANCH  38  39
ENDBRANCH  30  33
ENDBRANCH  28  29
ENDBRANCH  27  28
ENDBRANCH  26  27
ENDBRANCH   1  26
TORSDOF 21
