REMARK SMILES C[C@@H]([NH2+]C1(CO)CCCCC1)[C@@H](C)C(=O)NCCCCCCNC(=O)c1ccc(-c2c3nc(c(-c4cccc(S(=O)(=O)[O-])c4F)c4ccc([nH]4)c(-c4cccc(S(=O)(=O)[O-])c4F)c4nc(c(-c5cccc(S(=O)(=O)[O-])c5F)c5ccc2[nH]5)C=C4)C=C3)cc1
REMARK SMILES IDX 18 1 17 2 16 3 14 4 15 5 12 7 13 8 2 9 1 10 3 11 4 14 7 15
REMARK SMILES IDX 11 16 8 17 10 18 9 19 5 20 6 21 19 23 20 24 21 25 22 26
REMARK SMILES IDX 23 27 24 28 25 30 26 31 27 32 88 33 28 34 87 35 29 36 30 37
REMARK SMILES IDX 31 38 81 39 32 40 86 41 80 42 82 43 33 44 85 45 79 46 78 47
REMARK SMILES IDX 34 49 66 50 46 51 65 52 47 53 50 54 64 55 83 56 48 57 49 58
REMARK SMILES IDX 63 60 84 61 51 62 35 63 36 64 44 65 37 66 39 67 45 68 38 69
REMARK SMILES IDX 40 70 41 71 42 72 43 73 67 74 68 75 76 76 69 77 71 78 77 79
REMARK SMILES IDX 70 80 72 81 73 82 74 83 75 84 52 85 53 86 61 87 54 88 56 89
REMARK SMILES IDX 62 90 55 91 57 92 58 93 59 94 60 95
REMARK H PARENT 16 6 3 12 3 13 6 22 23 29 82 48 50 59
REMARK Flexibility Score: inf
ROOT
ATOM      1  C   UNL     1       0.656  -4.055  -2.658  1.00  0.00     0.021 C 
ENDROOT
BRANCH   1   2
ATOM      2  C   UNL     1      -0.385  -2.981  -2.974  1.00  0.00     0.116 C 
BRANCH   2   3
ATOM      3  N   UNL     1      -1.554  -3.042  -2.122  1.00  0.00    -0.356 N 
ATOM      4  C   UNL     1      -1.938  -2.327  -1.036  1.00  0.00     0.228 C 
ATOM      5  O   UNL     1      -3.056  -2.603  -0.576  1.00  0.00    -0.275 OA
ATOM      6  H   UNL     1      -2.196  -3.740  -2.383  1.00  0.00     0.163 HD
BRANCH   4   7
ATOM      7  C   UNL     1      -1.108  -1.220  -0.387  1.00  0.00     0.133 C 
ATOM      8  C   UNL     1      -1.297  -0.008  -1.319  1.00  0.00     0.024 C 
BRANCH   7   9
ATOM      9  C   UNL     1       0.365  -1.557   0.049  1.00  0.00     0.192 C 
ATOM     10  C   UNL     1       1.198  -0.250   0.086  1.00  0.00     0.076 C 
BRANCH   9  11
ATOM     11  N   UNL     1       0.565  -2.163   1.399  1.00  0.00    -0.337 N 
ATOM     12  H   UNL     1      -0.053  -1.655   2.031  1.00  0.00     0.347 HD
ATOM     13  H   UNL     1       1.576  -2.088   1.512  1.00  0.00     0.347 HD
BRANCH  11  14
ATOM     14  C   UNL     1       0.337  -3.614   1.675  1.00  0.00     0.120 C 
ATOM     15  C   UNL     1       1.495  -4.491   1.130  1.00  0.00     0.071 C 
ATOM     16  C   UNL     1       0.433  -3.801   3.218  1.00  0.00     0.071 C 
ATOM     17  C   UNL     1       1.260  -5.981   1.385  1.00  0.00     0.007 C 
ATOM     18  C   UNL     1       0.179  -5.256   3.643  1.00  0.00     0.007 C 
ATOM     19  C   UNL     1       0.978  -6.303   2.854  1.00  0.00     0.001 C 
BRANCH  14  20
ATOM     20  C   UNL     1      -1.049  -4.133   1.215  1.00  0.00     0.224 C 
BRANCH  20  21
ATOM     21  O   UNL     1      -2.110  -3.392   1.809  1.00  0.00    -0.390 OA
ATOM     22  H   UNL     1      -2.068  -3.483   2.774  1.00  0.00     0.210 HD
ENDBRANCH  20  21
ENDBRANCH  14  20
ENDBRANCH  11  14
ENDBRANCH   9  11
ENDBRANCH   7   9
ENDBRANCH   4   7
ENDBRANCH   2   3
ENDBRANCH   1   2
BRANCH   1  23
ATOM     23  C   UNL     1       0.163  -5.503  -2.599  1.00  0.00     0.002 C 
BRANCH  23  24
ATOM     24  C   UNL     1      -0.474  -6.024  -3.885  1.00  0.00     0.002 C 
BRANCH  24  25
ATOM     25  C   UNL     1       0.331  -5.744  -5.154  1.00  0.00     0.021 C 
BRANCH  25  26
ATOM     26  C   UNL     1       1.745  -6.311  -5.139  1.00  0.00     0.116 C 
BRANCH  26  27
ATOM     27  N   UNL     1       1.747  -7.759  -5.275  1.00  0.00    -0.352 N 
ATOM     28  C   UNL     1       2.289  -8.514  -6.287  1.00  0.00     0.251 C 
ATOM     29  H   UNL     1       1.306  -8.260  -4.551  1.00  0.00     0.163 HD
ATOM     30  O   UNL     1       2.024  -9.709  -6.387  1.00  0.00    -0.269 OA
BRANCH  28  31
ATOM     31  C   UNL     1       3.186  -7.861  -7.264  1.00  0.00     0.039 A 
ATOM     32  C   UNL     1       2.956  -8.033  -8.631  1.00  0.00     0.014 A 
ATOM     33  C   UNL     1       4.228  -7.044  -6.817  1.00  0.00     0.014 A 
ATOM     34  C   UNL     1       3.740  -7.335  -9.553  1.00  0.00     0.010 A 
ATOM     35  C   UNL     1       4.952  -6.291  -7.734  1.00  0.00     0.010 A 
ATOM     36  C   UNL     1       4.724  -6.436  -9.111  1.00  0.00    -0.014 A 
BRANCH  36  37
ATOM     37  C   UNL     1       5.550  -5.644 -10.058  1.00  0.00     0.031 A 
ATOM     38  C   UNL     1       7.044  -5.833 -10.073  1.00  0.00     0.074 A 
ATOM     39  C   UNL     1       4.982  -4.686 -10.817  1.00  0.00     0.049 A 
ATOM     40  N   UNL     1       7.957  -5.150 -10.711  1.00  0.00    -0.248 NA
ATOM     41  C   UNL     1       7.583  -6.914  -9.231  1.00  0.00     0.031 C 
ATOM     42  C   UNL     1       3.553  -4.369 -10.851  1.00  0.00     0.029 A 
ATOM     43  N   UNL     1       5.544  -3.777 -11.678  1.00  0.00    -0.354 N 
ATOM     44  C   UNL     1       9.176  -5.685 -10.314  1.00  0.00     0.074 A 
ATOM     45  C   UNL     1       8.889  -6.728  -9.354  1.00  0.00     0.031 C 
ATOM     46  C   UNL     1       3.352  -3.337 -11.687  1.00  0.00     0.029 A 
ATOM     47  C   UNL     1       4.638  -2.892 -12.215  1.00  0.00     0.049 A 
ATOM     48  H   UNL     1       6.505  -3.760 -11.892  1.00  0.00     0.167 HD
ATOM     49  C   UNL     1      10.423  -5.359 -10.730  1.00  0.00     0.034 A 
ATOM     50  C   UNL     1       4.824  -1.830 -13.025  1.00  0.00     0.034 A 
ATOM     51  C   UNL     1      10.700  -4.351 -11.716  1.00  0.00     0.049 A 
ATOM     52  C   UNL     1       6.218  -1.496 -13.486  1.00  0.00     0.074 A 
ATOM     53  C   UNL     1      11.920  -3.996 -12.262  1.00  0.00     0.029 A 
ATOM     54  N   UNL     1       9.746  -3.533 -12.300  1.00  0.00    -0.354 N 
ATOM     55  N   UNL     1       7.348  -2.097 -13.199  1.00  0.00    -0.248 NA
ATOM     56  C   UNL     1       6.363  -0.359 -14.408  1.00  0.00     0.031 C 
ATOM     57  C   UNL     1      11.707  -2.942 -13.155  1.00  0.00     0.029 A 
ATOM     58  C   UNL     1      10.349  -2.668 -13.195  1.00  0.00     0.049 A 
ATOM     59  H   UNL     1       8.781  -3.563 -12.106  1.00  0.00     0.167 HD
ATOM     60  C   UNL     1       8.327  -1.446 -13.941  1.00  0.00     0.074 A 
ATOM     61  C   UNL     1       7.657  -0.406 -14.695  1.00  0.00     0.031 C 
ATOM     62  C   UNL     1       9.660  -1.683 -13.988  1.00  0.00     0.034 A 
BRANCH  49  63
ATOM     63  C   UNL     1      11.579  -6.129 -10.147  1.00  0.00     0.023 A 
ATOM     64  C   UNL     1      11.760  -7.485 -10.490  1.00  0.00     0.012 A 
ATOM     65  C   UNL     1      12.513  -5.502  -9.300  1.00  0.00     0.148 A 
ATOM     66  C   UNL     1      12.825  -8.216  -9.966  1.00  0.00     0.002 A 
ATOM     67  C   UNL     1      13.600  -6.223  -8.821  1.00  0.00     0.091 A 
ATOM     68  F   UNL     1      12.315  -4.218  -8.968  1.00  0.00    -0.205 F 
ATOM     69  C   UNL     1      13.750  -7.582  -9.141  1.00  0.00     0.022 A 
BRANCH  67  70
ATOM     70  S   UNL     1      14.891  -5.477  -7.819  1.00  0.00     0.127 S 
ATOM     71  O   UNL     1      14.643  -6.090  -6.515  1.00  0.00    -0.237 OA
ATOM     72  O   UNL     1      16.106  -5.940  -8.490  1.00  0.00    -0.237 OA
ATOM     73  O   UNL     1      14.671  -4.039  -7.885  1.00  0.00    -0.744 OA
ENDBRANCH  67  70
ENDBRANCH  49  63
BRANCH  50  74
ATOM     74  C   UNL     1       3.654  -1.036 -13.498  1.00  0.00     0.023 A 
ATOM     75  C   UNL     1       3.276  -1.105 -14.853  1.00  0.00     0.012 A 
ATOM     76  C   UNL     1       2.905  -0.233 -12.617  1.00  0.00     0.148 A 
ATOM     77  C   UNL     1       2.195  -0.362 -15.330  1.00  0.00     0.002 A 
ATOM     78  C   UNL     1       1.796   0.462 -13.086  1.00  0.00     0.091 A 
ATOM     79  F   UNL     1       3.286  -0.174 -11.333  1.00  0.00    -0.205 F 
ATOM     80  C   UNL     1       1.450   0.413 -14.446  1.00  0.00     0.022 A 
BRANCH  78  81
ATOM     81  S   UNL     1       0.703   1.383 -11.999  1.00  0.00     0.127 S 
ATOM     82  O   UNL     1       0.960   2.760 -12.413  1.00  0.00    -0.237 OA
ATOM     83  O   UNL     1      -0.610   0.859 -12.378  1.00  0.00    -0.237 OA
ATOM     84  O   UNL     1       1.116   1.045 -10.644  1.00  0.00    -0.744 OA
ENDBRANCH  78  81
ENDBRANCH  50  74
BRANCH  62  85
ATOM     85  C   UNL     1      10.493  -0.859 -14.934  1.00  0.00     0.023 A 
ATOM     86  C   UNL     1      10.783   0.486 -14.636  1.00  0.00     0.012 A 
ATOM     87  C   UNL     1      11.079  -1.461 -16.066  1.00  0.00     0.148 A 
ATOM     88  C   UNL     1      11.626   1.227 -15.464  1.00  0.00     0.002 A 
ATOM     89  C   UNL     1      11.959  -0.732 -16.856  1.00  0.00     0.091 A 
ATOM     90  F   UNL     1      10.775  -2.738 -16.339  1.00  0.00    -0.205 F 
ATOM     91  C   UNL     1      12.225   0.615 -16.563  1.00  0.00     0.022 A 
BRANCH  89  92
ATOM     92  S   UNL     1      12.857  -1.465 -18.228  1.00  0.00     0.127 S 
ATOM     93  O   UNL     1      12.250  -0.791 -19.375  1.00  0.00    -0.237 OA
ATOM     94  O   UNL     1      14.235  -1.064 -17.944  1.00  0.00    -0.237 OA
ATOM     95  O   UNL     1      12.615  -2.900 -18.151  1.00  0.00    -0.744 OA
ENDBRANCH  89  92
ENDBRANCH  62  85
ENDBRANCH  36  37
ENDBRANCH  28  31
ENDBRANCH  26  27
ENDBRANCH  25  26
ENDBRANCH  24  25
ENDBRANCH  23  24
ENDBRANCH   1  23
TORSDOF 21
