REMARK SMILES CC[C@H](C(=O)NCCCCCCNC(=O)c1ccc(-c2c3nc(c(-c4cccc(S(=O)(=O)[O-])c4F)c4ccc([nH]4)c(-c4cccc(S(=O)(=O)[O-])c4F)c4nc(c(-c5cccc(S(=O)(=O)[O-])c5F)c5ccc2[nH]5)C=C4)C=C3)cc1)[N@H+](C)[C@H]1CC[C@H]([NH3+])CC1
REMARK SMILES IDX 9 1 8 2 7 3 6 4 4 5 5 6 3 8 2 9 1 10 79 11 80 12 81 14 82 15
REMARK SMILES IDX 87 16 83 17 86 18 84 19 85 20 10 24 11 25 12 26 13 27 14 28
REMARK SMILES IDX 15 30 16 31 17 32 78 33 18 34 77 35 19 36 20 37 21 38 71 39
REMARK SMILES IDX 22 40 76 41 70 42 72 43 23 44 75 45 69 46 68 47 24 49 56 50
REMARK SMILES IDX 36 51 55 52 37 53 40 54 54 55 73 56 38 57 39 58 53 60 74 61
REMARK SMILES IDX 41 62 25 63 26 64 34 65 27 66 29 67 35 68 28 69 30 70 31 71
REMARK SMILES IDX 32 72 33 73 57 74 58 75 66 76 59 77 61 78 67 79 60 80 62 81
REMARK SMILES IDX 63 82 64 83 65 84 42 85 43 86 51 87 44 88 46 89 52 90 45 91
REMARK SMILES IDX 47 92 48 93 49 94 50 95
REMARK H PARENT 6 7 79 13 85 21 85 22 85 23 13 29 72 48 40 59
REMARK Flexibility Score: inf
ROOT
ATOM      1  C   UNL     1       3.293  -0.661  -2.057  1.00  0.00     0.002 C 
ENDROOT
BRANCH   1   2
ATOM      2  C   UNL     1       3.531  -0.505  -0.550  1.00  0.00     0.021 C 
BRANCH   2   3
ATOM      3  C   UNL     1       2.410   0.231   0.183  1.00  0.00     0.116 C 
BRANCH   3   4
ATOM      4  N   UNL     1       1.181  -0.542   0.146  1.00  0.00    -0.351 N 
ATOM      5  C   UNL     1       0.442  -1.082   1.161  1.00  0.00     0.278 C 
ATOM      6  O   UNL     1      -0.531  -1.771   0.842  1.00  0.00    -0.268 OA
ATOM      7  H   UNL     1       0.821  -0.702  -0.756  1.00  0.00     0.163 HD
BRANCH   5   8
ATOM      8  C   UNL     1       0.813  -0.748   2.629  1.00  0.00     0.273 C 
BRANCH   8   9
ATOM      9  C   UNL     1       0.026   0.540   2.981  1.00  0.00     0.072 C 
ATOM     10  C   UNL     1      -1.469   0.333   3.204  1.00  0.00     0.011 C 
ENDBRANCH   8   9
BRANCH   8  11
ATOM     11  N   UNL     1       0.610  -1.905   3.559  1.00  0.00    -0.325 N 
ATOM     12  C   UNL     1       0.984  -1.535   4.929  1.00  0.00     0.333 C 
ATOM     13  H   UNL     1      -0.386  -2.126   3.557  1.00  0.00     0.348 HD
BRANCH  11  14
ATOM     14  C   UNL     1       1.275  -3.157   3.094  1.00  0.00     0.184 C 
ATOM     15  C   UNL     1       0.924  -4.364   3.997  1.00  0.00     0.071 C 
ATOM     16  C   UNL     1       2.805  -3.058   2.895  1.00  0.00     0.071 C 
ATOM     17  C   UNL     1       1.544  -5.666   3.489  1.00  0.00     0.071 C 
ATOM     18  C   UNL     1       3.410  -4.376   2.407  1.00  0.00     0.071 C 
ATOM     19  C   UNL     1       3.063  -5.529   3.350  1.00  0.00     0.181 C 
BRANCH  19  20
ATOM     20  N   UNL     1       3.650  -6.773   2.858  1.00  0.00    -0.355 N 
ATOM     21  H   UNL     1       3.271  -6.987   1.936  1.00  0.00     0.344 HD
ATOM     22  H   UNL     1       3.427  -7.532   3.502  1.00  0.00     0.344 HD
ATOM     23  H   UNL     1       4.663  -6.669   2.794  1.00  0.00     0.344 HD
ENDBRANCH  19  20
ENDBRANCH  11  14
ENDBRANCH   8  11
ENDBRANCH   5   8
ENDBRANCH   3   4
ENDBRANCH   2   3
ENDBRANCH   1   2
BRANCH   1  24
ATOM     24  C   UNL     1       3.086   0.651  -2.820  1.00  0.00     0.002 C 
BRANCH  24  25
ATOM     25  C   UNL     1       4.211   1.676  -2.656  1.00  0.00     0.021 C 
BRANCH  25  26
ATOM     26  C   UNL     1       5.589   1.178  -3.080  1.00  0.00     0.116 C 
BRANCH  26  27
ATOM     27  N   UNL     1       5.641   0.851  -4.498  1.00  0.00    -0.352 N 
ATOM     28  C   UNL     1       6.515   1.299  -5.457  1.00  0.00     0.251 C 
ATOM     29  H   UNL     1       4.953   0.220  -4.813  1.00  0.00     0.163 HD
ATOM     30  O   UNL     1       6.299   1.070  -6.644  1.00  0.00    -0.269 OA
BRANCH  28  31
ATOM     31  C   UNL     1       7.705   2.076  -5.053  1.00  0.00     0.039 A 
ATOM     32  C   UNL     1       8.012   3.254  -5.739  1.00  0.00     0.014 A 
ATOM     33  C   UNL     1       8.505   1.653  -3.988  1.00  0.00     0.014 A 
ATOM     34  C   UNL     1       9.082   4.043  -5.313  1.00  0.00     0.010 A 
ATOM     35  C   UNL     1       9.524   2.477  -3.520  1.00  0.00     0.010 A 
ATOM     36  C   UNL     1       9.824   3.680  -4.176  1.00  0.00    -0.014 A 
BRANCH  36  37
ATOM     37  C   UNL     1      10.895   4.559  -3.639  1.00  0.00     0.031 A 
ATOM     38  C   UNL     1      12.317   4.074  -3.576  1.00  0.00     0.074 A 
ATOM     39  C   UNL     1      10.569   5.760  -3.120  1.00  0.00     0.049 A 
ATOM     40  N   UNL     1      13.369   4.669  -3.077  1.00  0.00    -0.248 NA
ATOM     41  C   UNL     1      12.590   2.734  -4.123  1.00  0.00     0.031 C 
ATOM     42  C   UNL     1       9.214   6.313  -3.053  1.00  0.00     0.029 A 
ATOM     43  N   UNL     1      11.347   6.720  -2.521  1.00  0.00    -0.354 N 
ATOM     44  C   UNL     1      14.418   3.769  -3.216  1.00  0.00     0.074 A 
ATOM     45  C   UNL     1      13.870   2.573  -3.818  1.00  0.00     0.031 C 
ATOM     46  C   UNL     1       9.257   7.512  -2.450  1.00  0.00     0.029 A 
ATOM     47  C   UNL     1      10.632   7.798  -2.053  1.00  0.00     0.049 A 
ATOM     48  H   UNL     1      12.325   6.644  -2.435  1.00  0.00     0.167 HD
ATOM     49  C   UNL     1      15.724   3.931  -2.896  1.00  0.00     0.034 A 
ATOM     50  C   UNL     1      11.033   8.886  -1.367  1.00  0.00     0.034 A 
ATOM     51  C   UNL     1      16.271   5.133  -2.328  1.00  0.00     0.049 A 
ATOM     52  C   UNL     1      12.492   9.049  -1.040  1.00  0.00     0.074 A 
ATOM     53  C   UNL     1      17.595   5.428  -2.053  1.00  0.00     0.029 A 
ATOM     54  N   UNL     1      15.527   6.235  -1.935  1.00  0.00    -0.354 N 
ATOM     55  N   UNL     1      13.495   8.254  -1.325  1.00  0.00    -0.248 NA
ATOM     56  C   UNL     1      12.881  10.273  -0.324  1.00  0.00     0.031 C 
ATOM     57  C   UNL     1      17.647   6.693  -1.459  1.00  0.00     0.029 A 
ATOM     58  C   UNL     1      16.360   7.203  -1.401  1.00  0.00     0.049 A 
ATOM     59  H   UNL     1      14.550   6.316  -2.023  1.00  0.00     0.167 HD
ATOM     60  C   UNL     1      14.635   8.896  -0.856  1.00  0.00     0.074 A 
ATOM     61  C   UNL     1      14.202  10.155  -0.287  1.00  0.00     0.031 C 
ATOM     62  C   UNL     1      15.924   8.473  -0.881  1.00  0.00     0.034 A 
BRANCH  49  63
ATOM     63  C   UNL     1      16.666   2.792  -3.191  1.00  0.00     0.023 A 
ATOM     64  C   UNL     1      16.991   2.483  -4.528  1.00  0.00     0.012 A 
ATOM     65  C   UNL     1      17.279   2.071  -2.147  1.00  0.00     0.148 A 
ATOM     66  C   UNL     1      17.883   1.453  -4.823  1.00  0.00     0.002 A 
ATOM     67  C   UNL     1      18.204   1.077  -2.448  1.00  0.00     0.091 A 
ATOM     68  F   UNL     1      16.944   2.365  -0.883  1.00  0.00    -0.205 F 
ATOM     69  C   UNL     1      18.497   0.759  -3.784  1.00  0.00     0.022 A 
BRANCH  67  70
ATOM     70  S   UNL     1      19.110   0.180  -1.184  1.00  0.00     0.127 S 
ATOM     71  O   UNL     1      18.532  -1.159  -1.301  1.00  0.00    -0.237 OA
ATOM     72  O   UNL     1      20.490   0.292  -1.658  1.00  0.00    -0.237 OA
ATOM     73  O   UNL     1      18.840   0.868   0.071  1.00  0.00    -0.744 OA
ENDBRANCH  67  70
ENDBRANCH  49  63
BRANCH  50  74
ATOM     74  C   UNL     1      10.042   9.931  -0.981  1.00  0.00     0.023 A 
ATOM     75  C   UNL     1      10.090  11.195  -1.602  1.00  0.00     0.012 A 
ATOM     76  C   UNL     1       9.043   9.675  -0.022  1.00  0.00     0.148 A 
ATOM     77  C   UNL     1       9.183  12.195  -1.249  1.00  0.00     0.002 A 
ATOM     78  C   UNL     1       8.107  10.656   0.282  1.00  0.00     0.091 A 
ATOM     79  F   UNL     1       9.020   8.469   0.564  1.00  0.00    -0.205 F 
ATOM     80  C   UNL     1       8.187  11.923  -0.316  1.00  0.00     0.022 A 
BRANCH  78  81
ATOM     81  S   UNL     1       6.712  10.351   1.372  1.00  0.00     0.127 S 
ATOM     82  O   UNL     1       7.052  11.173   2.531  1.00  0.00    -0.237 OA
ATOM     83  O   UNL     1       5.591  10.847   0.572  1.00  0.00    -0.237 OA
ATOM     84  O   UNL     1       6.696   8.913   1.600  1.00  0.00    -0.744 OA
ENDBRANCH  78  81
ENDBRANCH  50  74
BRANCH  62  85
ATOM     85  C   UNL     1      16.974   9.390  -0.309  1.00  0.00     0.023 A 
ATOM     86  C   UNL     1      17.060   9.578   1.085  1.00  0.00     0.012 A 
ATOM     87  C   UNL     1      17.926  10.001  -1.150  1.00  0.00     0.148 A 
ATOM     88  C   UNL     1      18.059  10.383   1.630  1.00  0.00     0.002 A 
ATOM     89  C   UNL     1      18.950  10.759  -0.595  1.00  0.00     0.091 A 
ATOM     90  F   UNL     1      17.816   9.822  -2.474  1.00  0.00    -0.205 F 
ATOM     91  C   UNL     1      19.010  10.962   0.793  1.00  0.00     0.022 A 
BRANCH  89  92
ATOM     92  S   UNL     1      20.275  11.463  -1.583  1.00  0.00     0.127 S 
ATOM     93  O   UNL     1      19.989  12.894  -1.487  1.00  0.00    -0.237 OA
ATOM     94  O   UNL     1      21.466  11.029  -0.854  1.00  0.00    -0.237 OA
ATOM     95  O   UNL     1      20.135  10.889  -2.914  1.00  0.00    -0.744 OA
ENDBRANCH  89  92
ENDBRANCH  62  85
ENDBRANCH  36  37
ENDBRANCH  28  31
ENDBRANCH  26  27
ENDBRANCH  25  26
ENDBRANCH  24  25
ENDBRANCH   1  24
TORSDOF 20
