REMARK SMILES O=C(NCCCCCCNC(=O)[C@H]1C[C@](O)(c2ccc(F)cc2)[C@@H](c2ccc(F)cc2)O1)c1ccc(-c2c3nc(c(-c4cccc(S(=O)(=O)[O-])c4F)c4ccc([nH]4)c(-c4cccc(S(=O)(=O)[O-])c4F)c4nc(c(-c5cccc(S(=O)(=O)[O-])c5F)c5ccc2[nH]5)C=C4)C=C3)cc1
REMARK SMILES IDX 5 1 4 2 3 3 1 4 2 5 33 7 34 8 95 9 35 10 94 11 36 12 37 13
REMARK SMILES IDX 38 14 88 15 39 16 93 17 87 18 89 19 40 20 92 21 86 22 85 23
REMARK SMILES IDX 41 25 73 26 53 27 72 28 54 29 57 30 71 31 90 32 55 33 56 34
REMARK SMILES IDX 70 36 91 37 58 38 42 39 43 40 51 41 44 42 46 43 52 44 45 45
REMARK SMILES IDX 47 46 48 47 49 48 50 49 74 50 75 51 83 52 76 53 78 54 84 55
REMARK SMILES IDX 77 56 79 57 80 58 81 59 82 60 59 61 60 62 68 63 61 64 63 65
REMARK SMILES IDX 69 66 62 67 64 68 65 69 66 70 67 71 6 72 7 73 8 74 9 75
REMARK SMILES IDX 10 76 11 77 12 79 13 80 14 81 32 82 15 83 24 84 17 85 18 86
REMARK SMILES IDX 23 87 19 88 22 89 20 90 21 91 16 92 25 94 26 95 31 96 27 97
REMARK SMILES IDX 30 98 28 99 29 100
REMARK H PARENT 3 6 89 24 57 35 10 78 16 93
REMARK Flexibility Score: inf
ROOT
ATOM      1  C   UNL     1       6.032  -8.625   1.311  1.00  0.00     0.021 C 
ENDROOT
BRANCH   1   2
ATOM      2  C   UNL     1       4.534  -8.538   1.041  1.00  0.00     0.116 C 
BRANCH   2   3
ATOM      3  N   UNL     1       4.244  -8.439  -0.379  1.00  0.00    -0.352 N 
ATOM      4  O   UNL     1       3.539  -9.171  -2.389  1.00  0.00    -0.269 OA
ATOM      5  C   UNL     1       3.501  -9.283  -1.166  1.00  0.00     0.251 C 
ATOM      6  H   UNL     1       4.633  -7.661  -0.840  1.00  0.00     0.163 HD
BRANCH   5   7
ATOM      7  C   UNL     1       2.678 -10.335  -0.533  1.00  0.00     0.039 A 
ATOM      8  C   UNL     1       1.864 -10.038   0.566  1.00  0.00     0.014 A 
ATOM      9  C   UNL     1       2.715 -11.630  -1.051  1.00  0.00     0.014 A 
ATOM     10  C   UNL     1       1.178 -11.059   1.218  1.00  0.00     0.010 A 
ATOM     11  C   UNL     1       1.969 -12.640  -0.438  1.00  0.00     0.010 A 
ATOM     12  C   UNL     1       1.211 -12.367   0.712  1.00  0.00    -0.014 A 
BRANCH  12  13
ATOM     13  C   UNL     1       0.396 -13.438   1.341  1.00  0.00     0.031 A 
ATOM     14  C   UNL     1       1.051 -14.637   1.968  1.00  0.00     0.074 A 
ATOM     15  C   UNL     1      -0.948 -13.342   1.298  1.00  0.00     0.049 A 
ATOM     16  N   UNL     1       0.494 -15.717   2.453  1.00  0.00    -0.248 NA
ATOM     17  C   UNL     1       2.521 -14.628   2.062  1.00  0.00     0.031 C 
ATOM     18  C   UNL     1      -1.697 -12.229   0.709  1.00  0.00     0.029 A 
ATOM     19  N   UNL     1      -1.923 -14.203   1.734  1.00  0.00    -0.354 N 
ATOM     20  C   UNL     1       1.538 -16.530   2.877  1.00  0.00     0.074 A 
ATOM     21  C   UNL     1       2.767 -15.821   2.591  1.00  0.00     0.031 C 
ATOM     22  C   UNL     1      -3.010 -12.475   0.816  1.00  0.00     0.029 A 
ATOM     23  C   UNL     1      -3.198 -13.788   1.423  1.00  0.00     0.049 A 
ATOM     24  H   UNL     1      -1.730 -15.036   2.221  1.00  0.00     0.167 HD
ATOM     25  C   UNL     1       1.474 -17.750   3.462  1.00  0.00     0.034 A 
ATOM     26  C   UNL     1      -4.383 -14.409   1.573  1.00  0.00     0.034 A 
ATOM     27  C   UNL     1       0.246 -18.438   3.766  1.00  0.00     0.049 A 
ATOM     28  C   UNL     1      -4.414 -15.775   2.199  1.00  0.00     0.074 A 
ATOM     29  C   UNL     1       0.083 -19.664   4.388  1.00  0.00     0.029 A 
ATOM     30  N   UNL     1      -1.024 -17.969   3.473  1.00  0.00    -0.354 N 
ATOM     31  N   UNL     1      -3.423 -16.489   2.674  1.00  0.00    -0.248 NA
ATOM     32  C   UNL     1      -5.732 -16.412   2.333  1.00  0.00     0.031 C 
ATOM     33  C   UNL     1      -1.284 -19.947   4.448  1.00  0.00     0.029 A 
ATOM     34  C   UNL     1      -1.976 -18.882   3.896  1.00  0.00     0.049 A 
ATOM     35  H   UNL     1      -1.222 -17.112   3.029  1.00  0.00     0.167 HD
ATOM     36  C   UNL     1      -3.999 -17.643   3.191  1.00  0.00     0.074 A 
ATOM     37  C   UNL     1      -5.430 -17.516   3.002  1.00  0.00     0.031 C 
ATOM     38  C   UNL     1      -3.399 -18.722   3.750  1.00  0.00     0.034 A 
BRANCH  25  39
ATOM     39  C   UNL     1       2.760 -18.423   3.865  1.00  0.00     0.023 A 
ATOM     40  C   UNL     1       3.445 -17.974   5.011  1.00  0.00     0.012 A 
ATOM     41  C   UNL     1       3.206 -19.585   3.202  1.00  0.00     0.148 A 
ATOM     42  C   UNL     1       4.557 -18.667   5.490  1.00  0.00     0.002 A 
ATOM     43  C   UNL     1       4.288 -20.294   3.710  1.00  0.00     0.091 A 
ATOM     44  F   UNL     1       2.545 -19.987   2.107  1.00  0.00    -0.205 F 
ATOM     45  C   UNL     1       4.968 -19.833   4.849  1.00  0.00     0.022 A 
BRANCH  43  46
ATOM     46  S   UNL     1       4.848 -21.853   3.014  1.00  0.00     0.127 S 
ATOM     47  O   UNL     1       6.206 -21.515   2.589  1.00  0.00    -0.237 OA
ATOM     48  O   UNL     1       4.775 -22.746   4.170  1.00  0.00    -0.237 OA
ATOM     49  O   UNL     1       3.925 -22.168   1.932  1.00  0.00    -0.744 OA
ENDBRANCH  43  46
ENDBRANCH  25  39
BRANCH  26  50
ATOM     50  C   UNL     1      -5.643 -13.735   1.147  1.00  0.00     0.023 A 
ATOM     51  C   UNL     1      -6.584 -13.353   2.122  1.00  0.00     0.012 A 
ATOM     52  C   UNL     1      -5.909 -13.459  -0.209  1.00  0.00     0.148 A 
ATOM     53  C   UNL     1      -7.784 -12.746   1.754  1.00  0.00     0.002 A 
ATOM     54  C   UNL     1      -7.078 -12.796  -0.563  1.00  0.00     0.091 A 
ATOM     55  F   UNL     1      -5.010 -13.843  -1.125  1.00  0.00    -0.205 F 
ATOM     56  C   UNL     1      -8.026 -12.458   0.413  1.00  0.00     0.022 A 
BRANCH  54  57
ATOM     57  S   UNL     1      -7.407 -12.258  -2.245  1.00  0.00     0.127 S 
ATOM     58  O   UNL     1      -8.477 -13.168  -2.646  1.00  0.00    -0.237 OA
ATOM     59  O   UNL     1      -7.821 -10.870  -2.042  1.00  0.00    -0.237 OA
ATOM     60  O   UNL     1      -6.146 -12.409  -2.958  1.00  0.00    -0.744 OA
ENDBRANCH  54  57
ENDBRANCH  26  50
BRANCH  38  61
ATOM     61  C   UNL     1      -4.285 -19.843   4.231  1.00  0.00     0.023 A 
ATOM     62  C   UNL     1      -4.958 -20.654   3.295  1.00  0.00     0.012 A 
ATOM     63  C   UNL     1      -4.400 -20.134   5.605  1.00  0.00     0.148 A 
ATOM     64  C   UNL     1      -5.765 -21.708   3.720  1.00  0.00     0.002 A 
ATOM     65  C   UNL     1      -5.160 -21.221   6.018  1.00  0.00     0.091 A 
ATOM     66  F   UNL     1      -3.767 -19.342   6.482  1.00  0.00    -0.205 F 
ATOM     67  C   UNL     1      -5.856 -22.000   5.079  1.00  0.00     0.022 A 
BRANCH  65  68
ATOM     68  S   UNL     1      -5.248 -21.736   7.737  1.00  0.00     0.127 S 
ATOM     69  O   UNL     1      -6.603 -21.325   8.101  1.00  0.00    -0.237 OA
ATOM     70  O   UNL     1      -5.056 -23.183   7.638  1.00  0.00    -0.237 OA
ATOM     71  O   UNL     1      -4.174 -21.030   8.422  1.00  0.00    -0.744 OA
ENDBRANCH  65  68
ENDBRANCH  38  61
ENDBRANCH  12  13
ENDBRANCH   5   7
ENDBRANCH   2   3
ENDBRANCH   1   2
BRANCH   1  72
ATOM     72  C   UNL     1       6.820  -7.380   0.904  1.00  0.00     0.002 C 
BRANCH  72  73
ATOM     73  C   UNL     1       6.313  -6.075   1.525  1.00  0.00     0.002 C 
BRANCH  73  74
ATOM     74  C   UNL     1       6.245  -6.067   3.062  1.00  0.00     0.021 C 
BRANCH  74  75
ATOM     75  C   UNL     1       7.592  -6.290   3.754  1.00  0.00     0.116 C 
BRANCH  75  76
ATOM     76  N   UNL     1       8.492  -5.208   3.412  1.00  0.00    -0.354 N 
ATOM     77  C   UNL     1       8.933  -4.196   4.209  1.00  0.00     0.249 C 
ATOM     78  H   UNL     1       8.828  -5.204   2.487  1.00  0.00     0.163 HD
ATOM     79  O   UNL     1       9.171  -3.122   3.654  1.00  0.00    -0.272 OA
BRANCH  77  80
ATOM     80  C   UNL     1       9.180  -4.441   5.715  1.00  0.00     0.211 C 
ATOM     81  C   UNL     1       9.924  -5.746   6.017  1.00  0.00     0.085 C 
ATOM     82  O   UNL     1       9.992  -3.367   6.231  1.00  0.00    -0.357 OA
ATOM     83  C   UNL     1      11.214  -5.338   6.732  1.00  0.00     0.123 C 
ATOM     84  C   UNL     1      11.348  -3.838   6.360  1.00  0.00     0.186 C 
BRANCH  83  85
ATOM     85  C   UNL     1      11.124  -5.653   8.239  1.00  0.00    -0.013 A 
ATOM     86  C   UNL     1      11.172  -7.006   8.651  1.00  0.00     0.010 A 
ATOM     87  C   UNL     1      11.057  -4.675   9.248  1.00  0.00     0.010 A 
ATOM     88  C   UNL     1      11.203  -7.360  10.001  1.00  0.00     0.039 A 
ATOM     89  C   UNL     1      11.107  -5.029  10.602  1.00  0.00     0.039 A 
ATOM     90  C   UNL     1      11.187  -6.366  10.966  1.00  0.00     0.123 A 
ATOM     91  F   UNL     1      11.255  -6.696  12.262  1.00  0.00    -0.207 F 
ENDBRANCH  83  85
BRANCH  83  92
ATOM     92  O   UNL     1      12.319  -6.132   6.282  1.00  0.00    -0.382 OA
ATOM     93  H   UNL     1      12.450  -5.995   5.331  1.00  0.00     0.212 HD
ENDBRANCH  83  92
BRANCH  84  94
ATOM     94  C   UNL     1      12.169  -3.418   5.139  1.00  0.00    -0.016 A 
ATOM     95  C   UNL     1      12.085  -4.036   3.879  1.00  0.00     0.009 A 
ATOM     96  C   UNL     1      13.030  -2.309   5.266  1.00  0.00     0.009 A 
ATOM     97  C   UNL     1      12.815  -3.557   2.787  1.00  0.00     0.039 A 
ATOM     98  C   UNL     1      13.775  -1.841   4.181  1.00  0.00     0.039 A 
ATOM     99  C   UNL     1      13.654  -2.465   2.949  1.00  0.00     0.123 A 
ATOM    100  F   UNL     1      14.352  -2.006   1.902  1.00  0.00    -0.207 F 
ENDBRANCH  84  94
ENDBRANCH  77  80
ENDBRANCH  75  76
ENDBRANCH  74  75
ENDBRANCH  73  74
ENDBRANCH  72  73
ENDBRANCH   1  72
TORSDOF 19
