REMARK SMILES CNC(=O)CC[NH+]1CCC(CC(=O)NCCCCCCNC(=O)c2ccc(-c3c4nc(c(-c5cccc(S(=O)(=O)[O-])c5F)c5ccc([nH]5)c(-c5cccc(S(=O)(=O)[O-])c5F)c5nc(c(-c6cccc(S(=O)(=O)[O-])c6F)c6ccc3[nH]6)C=C5)C=C4)cc2)CC1
REMARK SMILES IDX 17 1 16 2 15 3 14 4 12 5 13 6 11 8 10 9 7 10 8 11 88 12 9 14
REMARK SMILES IDX 87 15 6 16 5 17 3 18 1 19 2 20 4 22 18 23 19 24 20 25 21 26
REMARK SMILES IDX 22 27 23 29 24 30 25 31 86 32 26 33 85 34 27 35 28 36 29 37
REMARK SMILES IDX 79 38 30 39 84 40 78 41 80 42 31 43 83 44 77 45 76 46 32 48
REMARK SMILES IDX 64 49 44 50 63 51 45 52 48 53 62 54 81 55 46 56 47 57 61 59
REMARK SMILES IDX 82 60 49 61 33 62 34 63 42 64 35 65 37 66 43 67 36 68 38 69
REMARK SMILES IDX 39 70 40 71 41 72 65 73 66 74 74 75 67 76 69 77 75 78 68 79
REMARK SMILES IDX 70 80 71 81 72 82 73 83 50 84 51 85 59 86 52 87 54 88 60 89
REMARK SMILES IDX 53 90 55 91 56 92 57 93 58 94
REMARK H PARENT 14 7 7 13 2 21 21 28 80 47 48 58
REMARK Flexibility Score: inf
ROOT
ATOM      1  C   UNL     1       2.544  -3.813  -1.969  1.00  0.00     0.002 C 
ENDROOT
BRANCH   1   2
ATOM      2  C   UNL     1       2.711  -2.354  -1.530  1.00  0.00     0.021 C 
BRANCH   2   3
ATOM      3  C   UNL     1       3.748  -1.582  -2.357  1.00  0.00     0.116 C 
BRANCH   3   4
ATOM      4  N   UNL     1       3.093  -0.743  -3.345  1.00  0.00    -0.356 N 
ATOM      5  C   UNL     1       2.817   0.592  -3.325  1.00  0.00     0.220 C 
ATOM      6  O   UNL     1       2.143   1.056  -4.247  1.00  0.00    -0.275 OA
ATOM      7  H   UNL     1       2.802  -1.213  -4.160  1.00  0.00     0.163 HD
BRANCH   5   8
ATOM      8  C   UNL     1       3.315   1.485  -2.194  1.00  0.00     0.104 C 
BRANCH   8   9
ATOM      9  C   UNL     1       2.412   1.414  -0.956  1.00  0.00     0.009 C 
ATOM     10  N   UNL     1       1.407   1.753   1.773  1.00  0.00    -0.334 N 
ATOM     11  C   UNL     1       2.109   0.539   1.365  1.00  0.00     0.262 C 
ATOM     12  C   UNL     1       0.941   2.624   0.692  1.00  0.00     0.262 C 
ATOM     13  H   UNL     1       2.123   2.331   2.213  1.00  0.00     0.348 HD
ATOM     14  C   UNL     1       3.111   0.768   0.243  1.00  0.00     0.066 C 
ATOM     15  C   UNL     1       1.944   2.792  -0.462  1.00  0.00     0.066 C 
BRANCH  10  16
ATOM     16  C   UNL     1       0.374   1.464   2.792  1.00  0.00     0.272 C 
BRANCH  16  17
ATOM     17  C   UNL     1      -0.920   0.758   2.345  1.00  0.00     0.161 C 
BRANCH  17  18
ATOM     18  C   UNL     1      -0.776  -0.741   2.186  1.00  0.00     0.225 C 
ATOM     19  C   UNL     1      -1.164  -0.739  -0.327  1.00  0.00     0.142 C 
ATOM     20  N   UNL     1      -0.965  -1.333   0.972  1.00  0.00    -0.359 N 
ATOM     21  H   UNL     1      -0.965  -2.318   0.984  1.00  0.00     0.163 HD
ATOM     22  O   UNL     1      -0.496  -1.466   3.142  1.00  0.00    -0.275 OA
ENDBRANCH  17  18
ENDBRANCH  16  17
ENDBRANCH  10  16
ENDBRANCH   8   9
ENDBRANCH   5   8
ENDBRANCH   3   4
ENDBRANCH   2   3
ENDBRANCH   1   2
BRANCH   1  23
ATOM     23  C   UNL     1       3.707  -4.732  -1.573  1.00  0.00     0.002 C 
BRANCH  23  24
ATOM     24  C   UNL     1       3.977  -4.854  -0.068  1.00  0.00     0.021 C 
BRANCH  24  25
ATOM     25  C   UNL     1       2.793  -5.332   0.771  1.00  0.00     0.116 C 
BRANCH  25  26
ATOM     26  N   UNL     1       2.361  -6.669   0.392  1.00  0.00    -0.352 N 
ATOM     27  C   UNL     1       2.385  -7.838   1.114  1.00  0.00     0.251 C 
ATOM     28  H   UNL     1       1.998  -6.748  -0.519  1.00  0.00     0.163 HD
ATOM     29  O   UNL     1       2.193  -8.908   0.541  1.00  0.00    -0.269 OA
BRANCH  27  30
ATOM     30  C   UNL     1       2.644  -7.817   2.571  1.00  0.00     0.039 A 
ATOM     31  C   UNL     1       3.506  -8.771   3.120  1.00  0.00     0.014 A 
ATOM     32  C   UNL     1       2.012  -6.888   3.401  1.00  0.00     0.014 A 
ATOM     33  C   UNL     1       3.774  -8.760   4.492  1.00  0.00     0.010 A 
ATOM     34  C   UNL     1       2.330  -6.836   4.757  1.00  0.00     0.010 A 
ATOM     35  C   UNL     1       3.207  -7.776   5.319  1.00  0.00    -0.014 A 
BRANCH  35  36
ATOM     36  C   UNL     1       3.526  -7.708   6.770  1.00  0.00     0.031 A 
ATOM     37  C   UNL     1       2.447  -7.921   7.798  1.00  0.00     0.074 A 
ATOM     38  C   UNL     1       4.769  -7.365   7.162  1.00  0.00     0.049 A 
ATOM     39  N   UNL     1       2.524  -7.848   9.102  1.00  0.00    -0.248 NA
ATOM     40  C   UNL     1       1.099  -8.233   7.295  1.00  0.00     0.031 C 
ATOM     41  C   UNL     1       5.883  -7.052   6.263  1.00  0.00     0.029 A 
ATOM     42  N   UNL     1       5.298  -7.191   8.416  1.00  0.00    -0.354 N 
ATOM     43  C   UNL     1       1.235  -8.065   9.573  1.00  0.00     0.074 A 
ATOM     44  C   UNL     1       0.388  -8.245   8.414  1.00  0.00     0.031 C 
ATOM     45  C   UNL     1       6.959  -6.723   6.994  1.00  0.00     0.029 A 
ATOM     46  C   UNL     1       6.610  -6.777   8.410  1.00  0.00     0.049 A 
ATOM     47  H   UNL     1       4.787  -7.347   9.243  1.00  0.00     0.167 HD
ATOM     48  C   UNL     1       0.798  -8.137  10.854  1.00  0.00     0.034 A 
ATOM     49  C   UNL     1       7.438  -6.469   9.429  1.00  0.00     0.034 A 
ATOM     50  C   UNL     1       1.651  -8.006  12.004  1.00  0.00     0.049 A 
ATOM     51  C   UNL     1       6.941  -6.609  10.843  1.00  0.00     0.074 A 
ATOM     52  C   UNL     1       1.324  -8.159  13.340  1.00  0.00     0.029 A 
ATOM     53  N   UNL     1       2.998  -7.684  11.958  1.00  0.00    -0.354 N 
ATOM     54  N   UNL     1       5.760  -6.985  11.269  1.00  0.00    -0.248 NA
ATOM     55  C   UNL     1       7.903  -6.322  11.917  1.00  0.00     0.031 C 
ATOM     56  C   UNL     1       2.471  -7.913  14.102  1.00  0.00     0.029 A 
ATOM     57  C   UNL     1       3.517  -7.627  13.240  1.00  0.00     0.049 A 
ATOM     58  H   UNL     1       3.511  -7.520  11.134  1.00  0.00     0.167 HD
ATOM     59  C   UNL     1       5.845  -7.013  12.656  1.00  0.00     0.074 A 
ATOM     60  C   UNL     1       7.202  -6.637  12.998  1.00  0.00     0.031 C 
ATOM     61  C   UNL     1       4.883  -7.308  13.565  1.00  0.00     0.034 A 
BRANCH  48  62
ATOM     62  C   UNL     1      -0.662  -8.434  11.081  1.00  0.00     0.023 A 
ATOM     63  C   UNL     1      -1.155  -9.727  10.811  1.00  0.00     0.012 A 
ATOM     64  C   UNL     1      -1.531  -7.462  11.615  1.00  0.00     0.148 A 
ATOM     65  C   UNL     1      -2.495 -10.039  11.035  1.00  0.00     0.002 A 
ATOM     66  C   UNL     1      -2.856  -7.793  11.876  1.00  0.00     0.091 A 
ATOM     67  F   UNL     1      -1.050  -6.232  11.848  1.00  0.00    -0.205 F 
ATOM     68  C   UNL     1      -3.342  -9.076  11.576  1.00  0.00     0.022 A 
BRANCH  66  69
ATOM     69  S   UNL     1      -4.008  -6.649  12.646  1.00  0.00     0.127 S 
ATOM     70  O   UNL     1      -4.879  -6.306  11.524  1.00  0.00    -0.237 OA
ATOM     71  O   UNL     1      -4.635  -7.485  13.670  1.00  0.00    -0.237 OA
ATOM     72  O   UNL     1      -3.199  -5.557  13.169  1.00  0.00    -0.744 OA
ENDBRANCH  66  69
ENDBRANCH  48  62
BRANCH  49  73
ATOM     73  C   UNL     1       8.847  -6.075   9.147  1.00  0.00     0.023 A 
ATOM     74  C   UNL     1       9.889  -6.968   9.467  1.00  0.00     0.012 A 
ATOM     75  C   UNL     1       9.161  -4.846   8.535  1.00  0.00     0.148 A 
ATOM     76  C   UNL     1      11.218  -6.631   9.213  1.00  0.00     0.002 A 
ATOM     77  C   UNL     1      10.483  -4.540   8.234  1.00  0.00     0.091 A 
ATOM     78  F   UNL     1       8.158  -4.004   8.249  1.00  0.00    -0.205 F 
ATOM     79  C   UNL     1      11.515  -5.424   8.587  1.00  0.00     0.022 A 
BRANCH  77  80
ATOM     80  S   UNL     1      10.944  -3.070   7.309  1.00  0.00     0.127 S 
ATOM     81  O   UNL     1      11.557  -2.244   8.346  1.00  0.00    -0.237 OA
ATOM     82  O   UNL     1      11.878  -3.613   6.322  1.00  0.00    -0.237 OA
ATOM     83  O   UNL     1       9.704  -2.561   6.740  1.00  0.00    -0.744 OA
ENDBRANCH  77  80
ENDBRANCH  49  73
BRANCH  61  84
ATOM     84  C   UNL     1       5.263  -7.269  15.022  1.00  0.00     0.023 A 
ATOM     85  C   UNL     1       5.466  -6.029  15.659  1.00  0.00     0.012 A 
ATOM     86  C   UNL     1       5.341  -8.455  15.778  1.00  0.00     0.148 A 
ATOM     87  C   UNL     1       5.771  -5.971  17.018  1.00  0.00     0.002 A 
ATOM     88  C   UNL     1       5.599  -8.388  17.142  1.00  0.00     0.091 A 
ATOM     89  F   UNL     1       5.164  -9.627  15.151  1.00  0.00    -0.205 F 
ATOM     90  C   UNL     1       5.825  -7.148  17.762  1.00  0.00     0.022 A 
BRANCH  88  91
ATOM     91  S   UNL     1       5.594  -9.844  18.195  1.00  0.00     0.127 S 
ATOM     92  O   UNL     1       7.021 -10.039  18.442  1.00  0.00    -0.237 OA
ATOM     93  O   UNL     1       4.830  -9.387  19.357  1.00  0.00    -0.237 OA
ATOM     94  O   UNL     1       4.942 -10.893  17.421  1.00  0.00    -0.744 OA
ENDBRANCH  88  91
ENDBRANCH  61  84
ENDBRANCH  35  36
ENDBRANCH  27  30
ENDBRANCH  25  26
ENDBRANCH  24  25
ENDBRANCH  23  24
ENDBRANCH   1  23
TORSDOF 20
