REMARK SMILES C=C(CC)C[C@H](C(=O)NCCCCCCNC(=O)c1ccc(-c2c3nc(c(-c4cccc(S(=O)(=O)[O-])c4F)c4ccc([nH]4)c(-c4cccc(S(=O)(=O)[O-])c4F)c4nc(c(-c5cccc(S(=O)(=O)[O-])c5F)c5ccc2[nH]5)C=C4)C=C3)cc1)c1ccccc1C
REMARK SMILES IDX 12 1 11 2 10 3 9 4 7 5 8 6 6 8 5 9 2 10 1 11 3 12 4 13 82 14
REMARK SMILES IDX 83 15 87 16 84 17 86 18 88 19 85 20 13 21 14 22 15 23 16 24
REMARK SMILES IDX 17 25 18 27 19 28 20 29 81 30 21 31 80 32 22 33 23 34 24 35
REMARK SMILES IDX 74 36 25 37 79 38 73 39 75 40 26 41 78 42 72 43 71 44 27 46
REMARK SMILES IDX 59 47 39 48 58 49 40 50 43 51 57 52 76 53 41 54 42 55 56 57
REMARK SMILES IDX 77 58 44 59 28 60 29 61 37 62 30 63 32 64 38 65 31 66 33 67
REMARK SMILES IDX 34 68 35 69 36 70 60 71 61 72 69 73 62 74 64 75 70 76 63 77
REMARK SMILES IDX 65 78 66 79 67 80 68 81 45 82 46 83 54 84 47 85 49 86 55 87
REMARK SMILES IDX 48 88 50 89 51 90 52 91 53 92
REMARK H PARENT 9 7 16 26 75 45 43 56
REMARK Flexibility Score: inf
ROOT
ATOM      1  C   UNL     1      -1.909  -0.061   1.020  1.00  0.00     0.002 C 
ENDROOT
BRANCH   1   2
ATOM      2  C   UNL     1      -1.105   1.029   0.308  1.00  0.00     0.021 C 
BRANCH   2   3
ATOM      3  C   UNL     1       0.235   0.595  -0.265  1.00  0.00     0.116 C 
BRANCH   3   4
ATOM      4  N   UNL     1       0.164  -0.299  -1.392  1.00  0.00    -0.356 N 
ATOM      5  C   UNL     1       1.097  -0.475  -2.383  1.00  0.00     0.227 C 
ATOM      6  O   UNL     1       0.906  -1.454  -3.111  1.00  0.00    -0.274 OA
ATOM      7  H   UNL     1      -0.649  -0.850  -1.459  1.00  0.00     0.163 HD
BRANCH   5   8
ATOM      8  C   UNL     1       2.214   0.584  -2.616  1.00  0.00     0.113 C 
BRANCH   8   9
ATOM      9  C   UNL     1       3.406   0.732  -1.618  1.00  0.00     0.048 C 
BRANCH   9  10
ATOM     10  C   UNL     1       3.353   0.330  -0.163  1.00  0.00    -0.077 C 
ATOM     11  C   UNL     1       3.139   1.250   0.799  1.00  0.00     0.008 C 
BRANCH  10  12
ATOM     12  C   UNL     1       3.773  -1.067   0.249  1.00  0.00     0.027 C 
ATOM     13  C   UNL     1       3.605  -2.173  -0.782  1.00  0.00     0.008 C 
ENDBRANCH  10  12
ENDBRANCH   9  10
ENDBRANCH   8   9
BRANCH   8  14
ATOM     14  C   UNL     1       2.870   0.535  -4.022  1.00  0.00    -0.032 A 
ATOM     15  C   UNL     1       3.256  -0.713  -4.561  1.00  0.00     0.005 A 
ATOM     16  C   UNL     1       3.270   1.704  -4.715  1.00  0.00    -0.047 A 
ATOM     17  C   UNL     1       3.980  -0.815  -5.750  1.00  0.00     0.000 A 
ATOM     18  C   UNL     1       4.017   1.580  -5.906  1.00  0.00     0.004 A 
ATOM     19  C   UNL     1       3.038   3.110  -4.226  1.00  0.00     0.044 C 
ATOM     20  C   UNL     1       4.365   0.334  -6.422  1.00  0.00     0.000 A 
ENDBRANCH   8  14
ENDBRANCH   5   8
ENDBRANCH   3   4
ENDBRANCH   2   3
ENDBRANCH   1   2
BRANCH   1  21
ATOM     21  C   UNL     1      -1.178  -0.872   2.096  1.00  0.00     0.002 C 
BRANCH  21  22
ATOM     22  C   UNL     1      -0.457  -0.080   3.190  1.00  0.00     0.021 C 
BRANCH  22  23
ATOM     23  C   UNL     1      -1.282   0.985   3.906  1.00  0.00     0.116 C 
BRANCH  23  24
ATOM     24  N   UNL     1      -2.516   0.464   4.468  1.00  0.00    -0.352 N 
ATOM     25  C   UNL     1      -3.033   0.593   5.734  1.00  0.00     0.251 C 
ATOM     26  H   UNL     1      -3.067  -0.064   3.846  1.00  0.00     0.163 HD
ATOM     27  O   UNL     1      -4.037  -0.039   6.045  1.00  0.00    -0.269 OA
BRANCH  25  28
ATOM     28  C   UNL     1      -2.372   1.469   6.727  1.00  0.00     0.039 A 
ATOM     29  C   UNL     1      -2.226   1.002   8.037  1.00  0.00     0.014 A 
ATOM     30  C   UNL     1      -1.916   2.745   6.387  1.00  0.00     0.014 A 
ATOM     31  C   UNL     1      -1.573   1.790   8.987  1.00  0.00     0.010 A 
ATOM     32  C   UNL     1      -1.200   3.498   7.315  1.00  0.00     0.010 A 
ATOM     33  C   UNL     1      -1.026   3.032   8.627  1.00  0.00    -0.014 A 
BRANCH  33  34
ATOM     34  C   UNL     1      -0.259   3.846   9.607  1.00  0.00     0.031 A 
ATOM     35  C   UNL     1      -0.745   5.213  10.009  1.00  0.00     0.074 A 
ATOM     36  C   UNL     1       0.918   3.386  10.076  1.00  0.00     0.049 A 
ATOM     37  N   UNL     1      -0.185   6.084  10.808  1.00  0.00    -0.248 NA
ATOM     38  C   UNL     1      -2.013   5.671   9.419  1.00  0.00     0.031 C 
ATOM     39  C   UNL     1       1.535   2.111   9.704  1.00  0.00     0.029 A 
ATOM     40  N   UNL     1       1.819   3.949  10.946  1.00  0.00    -0.354 N 
ATOM     41  C   UNL     1      -1.010   7.202  10.792  1.00  0.00     0.074 A 
ATOM     42  C   UNL     1      -2.091   6.913   9.875  1.00  0.00     0.031 C 
ATOM     43  C   UNL     1       2.710   1.988  10.342  1.00  0.00     0.029 A 
ATOM     44  C   UNL     1       2.948   3.187  11.140  1.00  0.00     0.049 A 
ATOM     45  H   UNL     1       1.671   4.815  11.389  1.00  0.00     0.167 HD
ATOM     46  C   UNL     1      -0.897   8.354  11.496  1.00  0.00     0.034 A 
ATOM     47  C   UNL     1       4.056   3.430  11.866  1.00  0.00     0.034 A 
ATOM     48  C   UNL     1       0.163   8.625  12.431  1.00  0.00     0.049 A 
ATOM     49  C   UNL     1       4.146   4.705  12.660  1.00  0.00     0.074 A 
ATOM     50  C   UNL     1       0.323   9.727  13.252  1.00  0.00     0.029 A 
ATOM     51  N   UNL     1       1.248   7.795  12.661  1.00  0.00    -0.354 N 
ATOM     52  N   UNL     1       3.279   5.684  12.749  1.00  0.00    -0.248 NA
ATOM     53  C   UNL     1       5.349   4.892  13.484  1.00  0.00     0.031 C 
ATOM     54  C   UNL     1       1.523   9.577  13.956  1.00  0.00     0.029 A 
ATOM     55  C   UNL     1       2.090   8.364  13.602  1.00  0.00     0.049 A 
ATOM     56  H   UNL     1       1.399   6.927  12.220  1.00  0.00     0.167 HD
ATOM     57  C   UNL     1       3.813   6.584  13.664  1.00  0.00     0.074 A 
ATOM     58  C   UNL     1       5.069   6.023  14.117  1.00  0.00     0.031 C 
ATOM     59  C   UNL     1       3.314   7.774  14.081  1.00  0.00     0.034 A 
BRANCH  46  60
ATOM     60  C   UNL     1      -1.974   9.394  11.317  1.00  0.00     0.023 A 
ATOM     61  C   UNL     1      -3.268   9.151  11.820  1.00  0.00     0.012 A 
ATOM     62  C   UNL     1      -1.694  10.630  10.703  1.00  0.00     0.148 A 
ATOM     63  C   UNL     1      -4.277  10.103  11.681  1.00  0.00     0.002 A 
ATOM     64  C   UNL     1      -2.692  11.594  10.610  1.00  0.00     0.091 A 
ATOM     65  F   UNL     1      -0.463  10.838  10.213  1.00  0.00    -0.205 F 
ATOM     66  C   UNL     1      -3.986  11.328  11.086  1.00  0.00     0.022 A 
BRANCH  64  67
ATOM     67  S   UNL     1      -2.398  13.233   9.935  1.00  0.00     0.127 S 
ATOM     68  O   UNL     1      -3.157  13.177   8.686  1.00  0.00    -0.237 OA
ATOM     69  O   UNL     1      -2.979  14.097  10.963  1.00  0.00    -0.237 OA
ATOM     70  O   UNL     1      -0.955  13.354   9.784  1.00  0.00    -0.744 OA
ENDBRANCH  64  67
ENDBRANCH  46  60
BRANCH  47  71
ATOM     71  C   UNL     1       5.151   2.419  11.914  1.00  0.00     0.023 A 
ATOM     72  C   UNL     1       5.390   1.708  13.106  1.00  0.00     0.012 A 
ATOM     73  C   UNL     1       5.937   2.141  10.779  1.00  0.00     0.148 A 
ATOM     74  C   UNL     1       6.415   0.764  13.177  1.00  0.00     0.002 A 
ATOM     75  C   UNL     1       6.917   1.158  10.840  1.00  0.00     0.091 A 
ATOM     76  F   UNL     1       5.699   2.835   9.657  1.00  0.00    -0.205 F 
ATOM     77  C   UNL     1       7.171   0.482  12.043  1.00  0.00     0.022 A 
BRANCH  75  78
ATOM     78  S   UNL     1       7.847   0.635   9.395  1.00  0.00     0.127 S 
ATOM     79  O   UNL     1       9.186   1.128   9.706  1.00  0.00    -0.237 OA
ATOM     80  O   UNL     1       7.696  -0.820   9.450  1.00  0.00    -0.237 OA
ATOM     81  O   UNL     1       7.191   1.263   8.255  1.00  0.00    -0.744 OA
ENDBRANCH  75  78
ENDBRANCH  47  71
BRANCH  59  82
ATOM     82  C   UNL     1       4.101   8.540  15.113  1.00  0.00     0.023 A 
ATOM     83  C   UNL     1       5.314   9.161  14.758  1.00  0.00     0.012 A 
ATOM     84  C   UNL     1       3.598   8.702  16.420  1.00  0.00     0.148 A 
ATOM     85  C   UNL     1       6.033   9.902  15.696  1.00  0.00     0.002 A 
ATOM     86  C   UNL     1       4.292   9.485  17.334  1.00  0.00     0.091 A 
ATOM     87  F   UNL     1       2.451   8.089  16.744  1.00  0.00    -0.205 F 
ATOM     88  C   UNL     1       5.516  10.074  16.978  1.00  0.00     0.022 A 
BRANCH  86  89
ATOM     89  S   UNL     1       3.657   9.845  18.975  1.00  0.00     0.127 S 
ATOM     90  O   UNL     1       4.565   9.073  19.821  1.00  0.00    -0.237 OA
ATOM     91  O   UNL     1       3.827  11.296  19.061  1.00  0.00    -0.237 OA
ATOM     92  O   UNL     1       2.271   9.397  18.977  1.00  0.00    -0.744 OA
ENDBRANCH  86  89
ENDBRANCH  59  82
ENDBRANCH  33  34
ENDBRANCH  25  28
ENDBRANCH  23  24
ENDBRANCH  22  23
ENDBRANCH  21  22
ENDBRANCH   1  21
TORSDOF 20
