REMARK SMILES Cc1c([C@@H]2[C@H](C(=O)NCCCCCCNC(=O)c3ccc(-c4c5nc(c(-c6cccc(S(=O)(=O)[O-])c6F)c6ccc([nH]6)c(-c6cccc(S(=O)(=O)[O-])c6F)c6nc(c(-c7cccc(S(=O)(=O)[O-])c7F)c7ccc4[nH]7)C=C6)C=C5)cc3)CC(=O)N2C(C)C)cnn1C
REMARK SMILES IDX 12 1 11 2 10 3 9 4 8 5 6 6 7 7 5 9 4 10 84 11 81 12 82 13
REMARK SMILES IDX 83 14 3 15 1 16 2 17 90 18 88 19 89 20 91 21 85 22 86 23
REMARK SMILES IDX 87 24 13 25 14 26 15 27 16 28 17 30 18 31 19 32 80 33 20 34
REMARK SMILES IDX 79 35 21 36 22 37 23 38 73 39 24 40 78 41 72 42 74 43 25 44
REMARK SMILES IDX 77 45 71 46 70 47 26 49 58 50 38 51 57 52 39 53 42 54 56 55
REMARK SMILES IDX 75 56 40 57 41 58 55 60 76 61 43 62 27 63 28 64 36 65 29 66
REMARK SMILES IDX 31 67 37 68 30 69 32 70 33 71 34 72 35 73 59 74 60 75 68 76
REMARK SMILES IDX 61 77 63 78 69 79 62 80 64 81 65 82 66 83 67 84 44 85 45 86
REMARK SMILES IDX 53 87 46 88 48 89 54 90 47 91 49 92 50 93 51 94 52 95
REMARK H PARENT 8 8 15 29 74 48 42 59
REMARK Flexibility Score: inf
ROOT
ATOM      1  C   UNL     1      -6.481  -4.890   2.667  1.00  0.00     0.002 C 
ENDROOT
BRANCH   1   2
ATOM      2  C   UNL     1      -5.839  -3.585   2.183  1.00  0.00     0.002 C 
BRANCH   2   3
ATOM      3  C   UNL     1      -4.323  -3.643   1.997  1.00  0.00     0.021 C 
BRANCH   3   4
ATOM      4  C   UNL     1      -3.871  -4.677   0.972  1.00  0.00     0.116 C 
BRANCH   4   5
ATOM      5  N   UNL     1      -3.673  -4.064  -0.332  1.00  0.00    -0.356 N 
ATOM      6  C   UNL     1      -2.596  -3.673  -1.051  1.00  0.00     0.226 C 
ATOM      7  O   UNL     1      -2.858  -3.092  -2.114  1.00  0.00    -0.275 OA
ATOM      8  H   UNL     1      -4.522  -3.894  -0.800  1.00  0.00     0.163 HD
BRANCH   6   9
ATOM      9  C   UNL     1      -1.131  -3.877  -0.681  1.00  0.00     0.115 C 
ATOM     10  C   UNL     1      -0.448  -2.805   0.150  1.00  0.00     0.132 C 
ATOM     11  N   UNL     1      -0.753  -3.181   1.514  1.00  0.00    -0.332 N 
ATOM     12  C   UNL     1      -0.801  -5.122   0.139  1.00  0.00     0.116 C 
ATOM     13  C   UNL     1      -0.740  -4.583   1.563  1.00  0.00     0.224 C 
ATOM     14  O   UNL     1      -0.690  -5.277   2.562  1.00  0.00    -0.275 OA
BRANCH  10  15
ATOM     15  C   UNL     1      -0.509  -1.369  -0.203  1.00  0.00     0.016 A 
ATOM     16  C   UNL     1       2.054  -0.861  -0.339  1.00  0.00     0.067 C 
ATOM     17  C   UNL     1       0.599  -0.538  -0.349  1.00  0.00     0.040 A 
ATOM     18  N   UNL     1       0.098   0.732  -0.451  1.00  0.00    -0.273 N 
ATOM     19  C   UNL     1      -1.605  -0.516  -0.461  1.00  0.00     0.141 A 
ATOM     20  N   UNL     1      -1.236   0.760  -0.610  1.00  0.00    -0.181 NA
ATOM     21  C   UNL     1       0.832   1.965  -0.289  1.00  0.00     0.174 C 
ENDBRANCH  10  15
BRANCH  11  22
ATOM     22  C   UNL     1      -0.626  -2.379   2.746  1.00  0.00     0.079 C 
ATOM     23  C   UNL     1       0.817  -1.994   3.059  1.00  0.00     0.031 C 
ATOM     24  C   UNL     1      -1.533  -1.151   2.831  1.00  0.00     0.031 C 
ENDBRANCH  11  22
ENDBRANCH   6   9
ENDBRANCH   4   5
ENDBRANCH   3   4
ENDBRANCH   2   3
ENDBRANCH   1   2
BRANCH   1  25
ATOM     25  C   UNL     1      -5.886  -5.468   3.953  1.00  0.00     0.021 C 
BRANCH  25  26
ATOM     26  C   UNL     1      -5.960  -4.533   5.156  1.00  0.00     0.116 C 
BRANCH  26  27
ATOM     27  N   UNL     1      -7.334  -4.148   5.449  1.00  0.00    -0.352 N 
ATOM     28  C   UNL     1      -8.084  -4.388   6.571  1.00  0.00     0.251 C 
ATOM     29  H   UNL     1      -7.790  -3.642   4.739  1.00  0.00     0.163 HD
ATOM     30  O   UNL     1      -9.301  -4.230   6.542  1.00  0.00    -0.269 OA
BRANCH  28  31
ATOM     31  C   UNL     1      -7.422  -4.835   7.814  1.00  0.00     0.039 A 
ATOM     32  C   UNL     1      -8.006  -5.854   8.569  1.00  0.00     0.014 A 
ATOM     33  C   UNL     1      -6.235  -4.231   8.240  1.00  0.00     0.014 A 
ATOM     34  C   UNL     1      -7.370  -6.301   9.728  1.00  0.00     0.010 A 
ATOM     35  C   UNL     1      -5.565  -4.731   9.351  1.00  0.00     0.010 A 
ATOM     36  C   UNL     1      -6.131  -5.763  10.113  1.00  0.00    -0.014 A 
BRANCH  36  37
ATOM     37  C   UNL     1      -5.406  -6.275  11.302  1.00  0.00     0.031 A 
ATOM     38  C   UNL     1      -5.124  -5.370  12.470  1.00  0.00     0.074 A 
ATOM     39  C   UNL     1      -4.928  -7.535  11.294  1.00  0.00     0.049 A 
ATOM     40  N   UNL     1      -4.468  -5.628  13.571  1.00  0.00    -0.248 NA
ATOM     41  C   UNL     1      -5.621  -3.986  12.381  1.00  0.00     0.031 C 
ATOM     42  C   UNL     1      -5.071  -8.485  10.187  1.00  0.00     0.029 A 
ATOM     43  N   UNL     1      -4.207  -8.227  12.234  1.00  0.00    -0.354 N 
ATOM     44  C   UNL     1      -4.436  -4.436  14.284  1.00  0.00     0.074 A 
ATOM     45  C   UNL     1      -5.118  -3.445  13.481  1.00  0.00     0.031 C 
ATOM     46  C   UNL     1      -4.468  -9.637  10.517  1.00  0.00     0.029 A 
ATOM     47  C   UNL     1      -3.865  -9.499  11.839  1.00  0.00     0.049 A 
ATOM     48  H   UNL     1      -3.959  -7.849  13.108  1.00  0.00     0.167 HD
ATOM     49  C   UNL     1      -3.905  -4.194  15.506  1.00  0.00     0.034 A 
ATOM     50  C   UNL     1      -3.139 -10.446  12.465  1.00  0.00     0.034 A 
ATOM     51  C   UNL     1      -3.265  -5.193  16.317  1.00  0.00     0.049 A 
ATOM     52  C   UNL     1      -2.599 -10.164  13.839  1.00  0.00     0.074 A 
ATOM     53  C   UNL     1      -2.786  -5.071  17.609  1.00  0.00     0.029 A 
ATOM     54  N   UNL     1      -3.000  -6.492  15.914  1.00  0.00    -0.354 N 
ATOM     55  N   UNL     1      -2.712  -9.076  14.562  1.00  0.00    -0.248 NA
ATOM     56  C   UNL     1      -1.862 -11.250  14.500  1.00  0.00     0.031 C 
ATOM     57  C   UNL     1      -2.194  -6.284  17.972  1.00  0.00     0.029 A 
ATOM     58  C   UNL     1      -2.347  -7.177  16.924  1.00  0.00     0.049 A 
ATOM     59  H   UNL     1      -3.240  -6.872  15.037  1.00  0.00     0.167 HD
ATOM     60  C   UNL     1      -2.092  -9.357  15.774  1.00  0.00     0.074 A 
ATOM     61  C   UNL     1      -1.622 -10.725  15.694  1.00  0.00     0.031 C 
ATOM     62  C   UNL     1      -1.921  -8.551  16.851  1.00  0.00     0.034 A 
BRANCH  49  63
ATOM     63  C   UNL     1      -4.022  -2.799  16.064  1.00  0.00     0.023 A 
ATOM     64  C   UNL     1      -5.276  -2.317  16.491  1.00  0.00     0.012 A 
ATOM     65  C   UNL     1      -2.877  -1.999  16.244  1.00  0.00     0.148 A 
ATOM     66  C   UNL     1      -5.393  -1.050  17.061  1.00  0.00     0.002 A 
ATOM     67  C   UNL     1      -2.993  -0.758  16.856  1.00  0.00     0.091 A 
ATOM     68  F   UNL     1      -1.697  -2.468  15.814  1.00  0.00    -0.205 F 
ATOM     69  C   UNL     1      -4.252  -0.277  17.255  1.00  0.00     0.022 A 
BRANCH  67  70
ATOM     70  S   UNL     1      -1.575   0.279  17.228  1.00  0.00     0.127 S 
ATOM     71  O   UNL     1      -1.798   1.416  16.336  1.00  0.00    -0.237 OA
ATOM     72  O   UNL     1      -1.773   0.570  18.648  1.00  0.00    -0.237 OA
ATOM     73  O   UNL     1      -0.397  -0.523  16.928  1.00  0.00    -0.744 OA
ENDBRANCH  67  70
ENDBRANCH  49  63
BRANCH  50  74
ATOM     74  C   UNL     1      -2.940 -11.773  11.818  1.00  0.00     0.023 A 
ATOM     75  C   UNL     1      -3.600 -12.903  12.339  1.00  0.00     0.012 A 
ATOM     76  C   UNL     1      -2.141 -11.913  10.667  1.00  0.00     0.148 A 
ATOM     77  C   UNL     1      -3.446 -14.154  11.743  1.00  0.00     0.002 A 
ATOM     78  C   UNL     1      -2.036 -13.152  10.045  1.00  0.00     0.091 A 
ATOM     79  F   UNL     1      -1.519 -10.826  10.191  1.00  0.00    -0.205 F 
ATOM     80  C   UNL     1      -2.674 -14.277  10.591  1.00  0.00     0.022 A 
BRANCH  78  81
ATOM     81  S   UNL     1      -1.170 -13.383   8.489  1.00  0.00     0.127 S 
ATOM     82  O   UNL     1      -0.068 -14.255   8.886  1.00  0.00    -0.237 OA
ATOM     83  O   UNL     1      -2.199 -14.023   7.668  1.00  0.00    -0.237 OA
ATOM     84  O   UNL     1      -0.788 -12.050   8.046  1.00  0.00    -0.744 OA
ENDBRANCH  78  81
ENDBRANCH  50  74
BRANCH  62  85
ATOM     85  C   UNL     1      -1.229  -9.130  18.057  1.00  0.00     0.023 A 
ATOM     86  C   UNL     1       0.155  -9.391  18.020  1.00  0.00     0.012 A 
ATOM     87  C   UNL     1      -1.941  -9.340  19.256  1.00  0.00     0.148 A 
ATOM     88  C   UNL     1       0.813  -9.884  19.147  1.00  0.00     0.002 A 
ATOM     89  C   UNL     1      -1.269  -9.780  20.389  1.00  0.00     0.091 A 
ATOM     90  F   UNL     1      -3.260  -9.101  19.265  1.00  0.00    -0.205 F 
ATOM     91  C   UNL     1       0.105 -10.066  20.333  1.00  0.00     0.022 A 
BRANCH  89  92
ATOM     92  S   UNL     1      -2.077  -9.946  21.985  1.00  0.00     0.127 S 
ATOM     93  O   UNL     1      -2.114 -11.398  22.149  1.00  0.00    -0.237 OA
ATOM     94  O   UNL     1      -1.145  -9.255  22.876  1.00  0.00    -0.237 OA
ATOM     95  O   UNL     1      -3.376  -9.301  21.848  1.00  0.00    -0.744 OA
ENDBRANCH  89  92
ENDBRANCH  62  85
ENDBRANCH  36  37
ENDBRANCH  28  31
ENDBRANCH  26  27
ENDBRANCH  25  26
ENDBRANCH   1  25
TORSDOF 18
