REMARK SMILES O=C(NCCCCCCNC(=O)[C@]12COc3ccccc3[C@H]1C[N@H+](CCO)C2)c1ccc(-c2c3nc(c(-c4cccc(S(=O)(=O)[O-])c4F)c4ccc([nH]4)c(-c4cccc(S(=O)(=O)[O-])c4F)c4nc(c(-c5cccc(S(=O)(=O)[O-])c5F)c5ccc2[nH]5)C=C4)C=C3)cc1
REMARK SMILES IDX 6 1 5 2 4 3 3 4 1 5 2 6 29 8 30 9 91 10 31 11 90 12 32 13
REMARK SMILES IDX 33 14 34 15 84 16 35 17 89 18 83 19 85 20 36 21 88 22 82 23
REMARK SMILES IDX 81 24 37 26 69 27 49 28 68 29 50 30 53 31 67 32 86 33 51 34
REMARK SMILES IDX 52 35 66 37 87 38 54 39 38 40 39 41 47 42 40 43 42 44 48 45
REMARK SMILES IDX 41 46 43 47 44 48 45 49 46 50 70 51 71 52 79 53 72 54 74 55
REMARK SMILES IDX 80 56 73 57 75 58 76 59 77 60 78 61 55 62 56 63 64 64 57 65
REMARK SMILES IDX 59 66 65 67 58 68 60 69 61 70 62 71 63 72 7 73 8 74 9 75
REMARK SMILES IDX 10 76 11 77 12 79 13 80 14 81 22 82 28 83 15 84 21 85 23 86
REMARK SMILES IDX 24 87 16 88 20 89 17 91 19 92 18 93 25 94 26 95 27 96
REMARK H PARENT 3 7 85 25 53 36 10 78 24 90 27 97
REMARK Flexibility Score: inf
ROOT
ATOM      1  C   UNL     1       4.066   1.735  -3.486  1.00  0.00     0.002 C 
ENDROOT
BRANCH   1   2
ATOM      2  C   UNL     1       4.585   0.590  -2.619  1.00  0.00     0.021 C 
BRANCH   2   3
ATOM      3  C   UNL     1       4.330   0.746  -1.130  1.00  0.00     0.116 C 
BRANCH   3   4
ATOM      4  N   UNL     1       2.915   0.821  -0.818  1.00  0.00    -0.352 N 
ATOM      5  O   UNL     1       0.971   0.165   0.106  1.00  0.00    -0.269 OA
ATOM      6  C   UNL     1       2.195   0.097   0.099  1.00  0.00     0.251 C 
ATOM      7  H   UNL     1       2.401   1.482  -1.336  1.00  0.00     0.163 HD
BRANCH   6   8
ATOM      8  C   UNL     1       2.902  -0.778   1.062  1.00  0.00     0.039 A 
ATOM      9  C   UNL     1       2.366  -2.034   1.346  1.00  0.00     0.014 A 
ATOM     10  C   UNL     1       4.079  -0.359   1.690  1.00  0.00     0.014 A 
ATOM     11  C   UNL     1       3.023  -2.875   2.245  1.00  0.00     0.010 A 
ATOM     12  C   UNL     1       4.787  -1.239   2.501  1.00  0.00     0.010 A 
ATOM     13  C   UNL     1       4.247  -2.491   2.821  1.00  0.00    -0.014 A 
BRANCH  13  14
ATOM     14  C   UNL     1       4.929  -3.362   3.811  1.00  0.00     0.031 A 
ATOM     15  C   UNL     1       5.149  -2.870   5.219  1.00  0.00     0.074 A 
ATOM     16  C   UNL     1       5.360  -4.586   3.447  1.00  0.00     0.049 A 
ATOM     17  N   UNL     1       5.717  -3.487   6.222  1.00  0.00    -0.248 NA
ATOM     18  C   UNL     1       4.699  -1.503   5.543  1.00  0.00     0.031 C 
ATOM     19  C   UNL     1       5.275  -5.146   2.096  1.00  0.00     0.029 A 
ATOM     20  N   UNL     1       5.957  -5.581   4.180  1.00  0.00    -0.354 N 
ATOM     21  C   UNL     1       5.711  -2.583   7.276  1.00  0.00     0.074 A 
ATOM     22  C   UNL     1       5.131  -1.355   6.786  1.00  0.00     0.031 C 
ATOM     23  C   UNL     1       5.773  -6.393   2.104  1.00  0.00     0.029 A 
ATOM     24  C   UNL     1       6.236  -6.713   3.451  1.00  0.00     0.049 A 
ATOM     25  H   UNL     1       6.165  -5.492   5.138  1.00  0.00     0.167 HD
ATOM     26  C   UNL     1       6.105  -2.772   8.554  1.00  0.00     0.034 A 
ATOM     27  C   UNL     1       6.796  -7.881   3.825  1.00  0.00     0.034 A 
ATOM     28  C   UNL     1       6.608  -4.014   9.063  1.00  0.00     0.049 A 
ATOM     29  C   UNL     1       7.184  -8.084   5.262  1.00  0.00     0.074 A 
ATOM     30  C   UNL     1       6.960  -4.322  10.364  1.00  0.00     0.029 A 
ATOM     31  N   UNL     1       6.817  -5.152   8.303  1.00  0.00    -0.354 N 
ATOM     32  N   UNL     1       7.064  -7.251   6.266  1.00  0.00    -0.248 NA
ATOM     33  C   UNL     1       7.756  -9.389   5.630  1.00  0.00     0.031 C 
ATOM     34  C   UNL     1       7.390  -5.649  10.391  1.00  0.00     0.029 A 
ATOM     35  C   UNL     1       7.291  -6.168   9.110  1.00  0.00     0.049 A 
ATOM     36  H   UNL     1       6.652  -5.226   7.335  1.00  0.00     0.167 HD
ATOM     37  C   UNL     1       7.524  -7.933   7.386  1.00  0.00     0.074 A 
ATOM     38  C   UNL     1       7.917  -9.254   6.942  1.00  0.00     0.031 C 
ATOM     39  C   UNL     1       7.622  -7.494   8.662  1.00  0.00     0.034 A 
BRANCH  26  40
ATOM     40  C   UNL     1       5.919  -1.647   9.533  1.00  0.00     0.023 A 
ATOM     41  C   UNL     1       4.632  -1.402  10.050  1.00  0.00     0.012 A 
ATOM     42  C   UNL     1       7.021  -0.930  10.033  1.00  0.00     0.148 A 
ATOM     43  C   UNL     1       4.443  -0.456  11.055  1.00  0.00     0.002 A 
ATOM     44  C   UNL     1       6.830  -0.010  11.056  1.00  0.00     0.091 A 
ATOM     45  F   UNL     1       8.233  -1.179   9.515  1.00  0.00    -0.205 F 
ATOM     46  C   UNL     1       5.542   0.230  11.566  1.00  0.00     0.022 A 
BRANCH  44  47
ATOM     47  S   UNL     1       8.181   0.890  11.824  1.00  0.00     0.127 S 
ATOM     48  O   UNL     1       7.825   2.275  11.516  1.00  0.00    -0.237 OA
ATOM     49  O   UNL     1       8.034   0.520  13.231  1.00  0.00    -0.237 OA
ATOM     50  O   UNL     1       9.400   0.414  11.185  1.00  0.00    -0.744 OA
ENDBRANCH  44  47
ENDBRANCH  26  40
BRANCH  27  51
ATOM     51  C   UNL     1       6.960  -8.964   2.817  1.00  0.00     0.023 A 
ATOM     52  C   UNL     1       6.086 -10.067   2.833  1.00  0.00     0.012 A 
ATOM     53  C   UNL     1       7.926  -8.862   1.798  1.00  0.00     0.148 A 
ATOM     54  C   UNL     1       6.177 -11.057   1.854  1.00  0.00     0.002 A 
ATOM     55  C   UNL     1       7.985  -9.831   0.803  1.00  0.00     0.091 A 
ATOM     56  F   UNL     1       8.745  -7.802   1.807  1.00  0.00    -0.205 F 
ATOM     57  C   UNL     1       7.117 -10.934   0.834  1.00  0.00     0.022 A 
BRANCH  55  58
ATOM     58  S   UNL     1       9.092  -9.705  -0.606  1.00  0.00     0.127 S 
ATOM     59  O   UNL     1       9.968 -10.856  -0.401  1.00  0.00    -0.237 OA
ATOM     60  O   UNL     1       8.162  -9.829  -1.729  1.00  0.00    -0.237 OA
ATOM     61  O   UNL     1       9.733  -8.402  -0.493  1.00  0.00    -0.744 OA
ENDBRANCH  55  58
ENDBRANCH  27  51
BRANCH  39  62
ATOM     62  C   UNL     1       8.154  -8.427   9.711  1.00  0.00     0.023 A 
ATOM     63  C   UNL     1       9.546  -8.565   9.862  1.00  0.00     0.012 A 
ATOM     64  C   UNL     1       7.285  -8.982  10.671  1.00  0.00     0.148 A 
ATOM     65  C   UNL     1      10.069  -9.233  10.967  1.00  0.00     0.002 A 
ATOM     66  C   UNL     1       7.815  -9.618  11.786  1.00  0.00     0.091 A 
ATOM     67  F   UNL     1       5.964  -8.826  10.500  1.00  0.00    -0.205 F 
ATOM     68  C   UNL     1       9.206  -9.745  11.935  1.00  0.00     0.022 A 
BRANCH  66  69
ATOM     69  S   UNL     1       6.793 -10.235  13.128  1.00  0.00     0.127 S 
ATOM     70  O   UNL     1       7.112 -11.662  13.112  1.00  0.00    -0.237 OA
ATOM     71  O   UNL     1       7.321  -9.503  14.278  1.00  0.00    -0.237 OA
ATOM     72  O   UNL     1       5.417  -9.912  12.773  1.00  0.00    -0.744 OA
ENDBRANCH  66  69
ENDBRANCH  39  62
ENDBRANCH  13  14
ENDBRANCH   6   8
ENDBRANCH   3   4
ENDBRANCH   2   3
ENDBRANCH   1   2
BRANCH   1  73
ATOM     73  C   UNL     1       4.506   3.143  -3.075  1.00  0.00     0.002 C 
BRANCH  73  74
ATOM     74  C   UNL     1       6.009   3.354  -2.889  1.00  0.00     0.021 C 
BRANCH  74  75
ATOM     75  C   UNL     1       6.885   2.809  -4.004  1.00  0.00     0.116 C 
BRANCH  75  76
ATOM     76  N   UNL     1       6.518   3.301  -5.321  1.00  0.00    -0.355 N 
ATOM     77  C   UNL     1       7.400   3.822  -6.244  1.00  0.00     0.236 C 
ATOM     78  H   UNL     1       5.567   3.259  -5.573  1.00  0.00     0.163 HD
ATOM     79  O   UNL     1       7.073   3.876  -7.432  1.00  0.00    -0.274 OA
BRANCH  77  80
ATOM     80  C   UNL     1       8.748   4.338  -5.654  1.00  0.00     0.144 C 
ATOM     81  C   UNL     1       8.142   5.768  -6.037  1.00  0.00     0.253 C 
ATOM     82  C   UNL     1      10.259   4.769  -5.893  1.00  0.00     0.103 C 
ATOM     83  C   UNL     1       9.211   2.869  -6.203  1.00  0.00     0.283 C 
ATOM     84  O   UNL     1       8.477   6.777  -5.059  1.00  0.00    -0.492 OA
ATOM     85  C   UNL     1      10.729   6.145  -5.486  1.00  0.00     0.004 A 
ATOM     86  C   UNL     1      11.074   3.717  -5.121  1.00  0.00     0.272 C 
ATOM     87  N   UNL     1      10.308   2.511  -5.308  1.00  0.00    -0.331 N 
ATOM     88  C   UNL     1       9.796   7.096  -5.109  1.00  0.00     0.123 A 
ATOM     89  C   UNL     1      12.082   6.516  -5.542  1.00  0.00     0.008 A 
ATOM     90  H   UNL     1       9.932   2.192  -4.415  1.00  0.00     0.348 HD
ATOM     91  C   UNL     1      10.179   8.390  -4.767  1.00  0.00     0.047 A 
ATOM     92  C   UNL     1      12.477   7.811  -5.205  1.00  0.00     0.001 A 
ATOM     93  C   UNL     1      11.524   8.752  -4.822  1.00  0.00     0.004 A 
BRANCH  87  94
ATOM     94  C   UNL     1      11.053   1.290  -5.610  1.00  0.00     0.290 C 
BRANCH  94  95
ATOM     95  C   UNL     1      11.561   1.082  -7.048  1.00  0.00     0.217 C 
BRANCH  95  96
ATOM     96  O   UNL     1      12.472   2.096  -7.457  1.00  0.00    -0.391 OA
ATOM     97  H   UNL     1      12.026   2.958  -7.439  1.00  0.00     0.210 HD
ENDBRANCH  95  96
ENDBRANCH  94  95
ENDBRANCH  87  94
ENDBRANCH  77  80
ENDBRANCH  75  76
ENDBRANCH  74  75
ENDBRANCH  73  74
ENDBRANCH   1  73
TORSDOF 19
