REMARK SMILES C#CC[C@@H](C(=O)NCCCCCCNC(=O)c1ccc(-c2c3nc(c(-c4cccc(S(=O)(=O)[O-])c4F)c4ccc([nH]4)c(-c4cccc(S(=O)(=O)[O-])c4F)c4nc(c(-c5cccc(S(=O)(=O)[O-])c5F)c5ccc2[nH]5)C=C4)C=C3)cc1)c1cccc(Br)c1
REMARK SMILES IDX 11 1 10 2 9 3 8 4 7 5 5 6 6 7 4 9 3 10 2 11 1 12 80 13 81 14
REMARK SMILES IDX 86 15 82 16 84 17 83 18 85 19 12 20 13 21 14 22 15 23 16 25
REMARK SMILES IDX 17 26 18 27 79 28 19 29 78 30 20 31 21 32 22 33 72 34 23 35
REMARK SMILES IDX 77 36 71 37 73 38 24 39 76 40 70 41 69 42 25 44 57 45 37 46
REMARK SMILES IDX 56 47 38 48 41 49 55 50 74 51 39 52 40 53 54 55 75 56 42 57
REMARK SMILES IDX 26 58 27 59 35 60 28 61 30 62 36 63 29 64 31 65 32 66 33 67
REMARK SMILES IDX 34 68 58 69 59 70 67 71 60 72 62 73 68 74 61 75 63 76 64 77
REMARK SMILES IDX 65 78 66 79 43 80 44 81 52 82 45 83 47 84 53 85 46 86 48 87
REMARK SMILES IDX 49 88 50 89 51 90
REMARK H PARENT 7 8 14 24 73 43 41 54
REMARK Flexibility Score: inf
ROOT
ATOM      1  C   UNL     1       3.441  -4.215  -0.004  1.00  0.00     0.002 C 
ENDROOT
BRANCH   1   2
ATOM      2  C   UNL     1       2.361  -4.100   1.078  1.00  0.00     0.002 C 
BRANCH   2   3
ATOM      3  C   UNL     1       1.291  -3.039   0.829  1.00  0.00     0.021 C 
BRANCH   3   4
ATOM      4  C   UNL     1       0.281  -3.311  -0.307  1.00  0.00     0.116 C 
BRANCH   4   5
ATOM      5  N   UNL     1      -1.052  -3.480   0.269  1.00  0.00    -0.356 N 
ATOM      6  C   UNL     1      -2.057  -2.577   0.490  1.00  0.00     0.228 C 
ATOM      7  O   UNL     1      -2.747  -2.783   1.496  1.00  0.00    -0.274 OA
ATOM      8  H   UNL     1      -1.263  -4.401   0.545  1.00  0.00     0.163 HD
BRANCH   6   9
ATOM      9  C   UNL     1      -2.416  -1.446  -0.518  1.00  0.00     0.120 C 
BRANCH   9  10
ATOM     10  C   UNL     1      -1.865  -0.088  -0.025  1.00  0.00     0.107 C 
BRANCH  10  11
ATOM     11  C   UNL     1      -0.345  -0.088  -0.025  1.00  0.00    -0.106 C 
ATOM     12  C   UNL     1       0.959  -0.088  -0.025  1.00  0.00     0.004 C 
ENDBRANCH  10  11
ENDBRANCH   9  10
BRANCH   9  13
ATOM     13  C   UNL     1      -3.955  -1.399  -0.718  1.00  0.00    -0.034 A 
ATOM     14  C   UNL     1      -4.700  -0.204  -0.689  1.00  0.00     0.004 A 
ATOM     15  C   UNL     1      -4.671  -2.600  -0.894  1.00  0.00     0.020 A 
ATOM     16  C   UNL     1      -6.097  -0.211  -0.757  1.00  0.00     0.001 A 
ATOM     17  C   UNL     1      -6.068  -2.603  -0.941  1.00  0.00     0.018 A 
ATOM     18  C   UNL     1      -6.785  -1.414  -0.865  1.00  0.00     0.016 A 
ATOM     19  Br  UNL     1      -7.000  -4.245  -1.067  1.00  0.00    -0.051 Br
ENDBRANCH   9  13
ENDBRANCH   6   9
ENDBRANCH   4   5
ENDBRANCH   3   4
ENDBRANCH   2   3
ENDBRANCH   1   2
BRANCH   1  20
ATOM     20  C   UNL     1       4.157  -2.921  -0.425  1.00  0.00     0.021 C 
BRANCH  20  21
ATOM     21  C   UNL     1       4.807  -2.101   0.692  1.00  0.00     0.116 C 
BRANCH  21  22
ATOM     22  N   UNL     1       5.815  -2.853   1.420  1.00  0.00    -0.352 N 
ATOM     23  C   UNL     1       7.181  -2.718   1.454  1.00  0.00     0.251 C 
ATOM     24  H   UNL     1       5.460  -3.579   1.982  1.00  0.00     0.163 HD
ATOM     25  O   UNL     1       7.858  -3.603   1.974  1.00  0.00    -0.269 OA
BRANCH  23  26
ATOM     26  C   UNL     1       7.854  -1.532   0.875  1.00  0.00     0.039 A 
ATOM     27  C   UNL     1       9.031  -1.715   0.139  1.00  0.00     0.014 A 
ATOM     28  C   UNL     1       7.386  -0.238   1.120  1.00  0.00     0.014 A 
ATOM     29  C   UNL     1       9.710  -0.612  -0.389  1.00  0.00     0.010 A 
ATOM     30  C   UNL     1       8.033   0.857   0.547  1.00  0.00     0.010 A 
ATOM     31  C   UNL     1       9.207   0.685  -0.204  1.00  0.00    -0.014 A 
BRANCH  31  32
ATOM     32  C   UNL     1       9.891   1.880  -0.768  1.00  0.00     0.031 A 
ATOM     33  C   UNL     1      10.460   2.926   0.152  1.00  0.00     0.074 A 
ATOM     34  C   UNL     1       9.901   2.082  -2.100  1.00  0.00     0.049 A 
ATOM     35  N   UNL     1      10.962   4.099  -0.138  1.00  0.00    -0.248 NA
ATOM     36  C   UNL     1      10.433   2.624   1.592  1.00  0.00     0.031 C 
ATOM     37  C   UNL     1       9.334   1.173  -3.097  1.00  0.00     0.029 A 
ATOM     38  N   UNL     1      10.368   3.140  -2.842  1.00  0.00    -0.354 N 
ATOM     39  C   UNL     1      11.262   4.695   1.082  1.00  0.00     0.074 A 
ATOM     40  C   UNL     1      10.868   3.761   2.115  1.00  0.00     0.031 C 
ATOM     41  C   UNL     1       9.466   1.721  -4.316  1.00  0.00     0.029 A 
ATOM     42  C   UNL     1      10.098   3.031  -4.186  1.00  0.00     0.049 A 
ATOM     43  H   UNL     1      10.850   3.904  -2.449  1.00  0.00     0.167 HD
ATOM     44  C   UNL     1      11.832   5.901   1.321  1.00  0.00     0.034 A 
ATOM     45  C   UNL     1      10.315   3.894  -5.199  1.00  0.00     0.034 A 
ATOM     46  C   UNL     1      12.269   6.805   0.292  1.00  0.00     0.049 A 
ATOM     47  C   UNL     1      10.993   5.207  -4.915  1.00  0.00     0.074 A 
ATOM     48  C   UNL     1      12.937   8.009   0.430  1.00  0.00     0.029 A 
ATOM     49  N   UNL     1      12.079   6.607  -1.067  1.00  0.00    -0.354 N 
ATOM     50  N   UNL     1      11.398   5.694  -3.767  1.00  0.00    -0.248 NA
ATOM     51  C   UNL     1      11.279   6.075  -6.068  1.00  0.00     0.031 C 
ATOM     52  C   UNL     1      13.136   8.547  -0.846  1.00  0.00     0.029 A 
ATOM     53  C   UNL     1      12.614   7.667  -1.780  1.00  0.00     0.049 A 
ATOM     54  H   UNL     1      11.630   5.827  -1.467  1.00  0.00     0.167 HD
ATOM     55  C   UNL     1      12.022   6.901  -4.061  1.00  0.00     0.074 A 
ATOM     56  C   UNL     1      11.949   7.069  -5.498  1.00  0.00     0.031 C 
ATOM     57  C   UNL     1      12.594   7.793  -3.215  1.00  0.00     0.034 A 
BRANCH  44  58
ATOM     58  C   UNL     1      12.056   6.293   2.760  1.00  0.00     0.023 A 
ATOM     59  C   UNL     1      13.048   5.634   3.514  1.00  0.00     0.012 A 
ATOM     60  C   UNL     1      11.318   7.335   3.353  1.00  0.00     0.148 A 
ATOM     61  C   UNL     1      13.271   5.974   4.848  1.00  0.00     0.002 A 
ATOM     62  C   UNL     1      11.577   7.699   4.670  1.00  0.00     0.091 A 
ATOM     63  F   UNL     1      10.363   7.938   2.630  1.00  0.00    -0.205 F 
ATOM     64  C   UNL     1      12.543   7.011   5.423  1.00  0.00     0.022 A 
BRANCH  62  65
ATOM     65  S   UNL     1      10.744   9.077   5.468  1.00  0.00     0.127 S 
ATOM     66  O   UNL     1       9.777   8.386   6.318  1.00  0.00    -0.237 OA
ATOM     67  O   UNL     1      11.838   9.725   6.194  1.00  0.00    -0.237 OA
ATOM     68  O   UNL     1      10.180   9.877   4.390  1.00  0.00    -0.744 OA
ENDBRANCH  62  65
ENDBRANCH  44  58
BRANCH  45  69
ATOM     69  C   UNL     1       9.940   3.505  -6.588  1.00  0.00     0.023 A 
ATOM     70  C   UNL     1      10.953   3.183  -7.510  1.00  0.00     0.012 A 
ATOM     71  C   UNL     1       8.591   3.394  -6.980  1.00  0.00     0.148 A 
ATOM     72  C   UNL     1      10.632   2.779  -8.806  1.00  0.00     0.002 A 
ATOM     73  C   UNL     1       8.278   2.939  -8.256  1.00  0.00     0.091 A 
ATOM     74  F   UNL     1       7.643   3.713  -6.088  1.00  0.00    -0.205 F 
ATOM     75  C   UNL     1       9.296   2.645  -9.175  1.00  0.00     0.022 A 
BRANCH  73  76
ATOM     76  S   UNL     1       6.589   2.608  -8.774  1.00  0.00     0.127 S 
ATOM     77  O   UNL     1       6.380   3.644  -9.786  1.00  0.00    -0.237 OA
ATOM     78  O   UNL     1       6.700   1.247  -9.303  1.00  0.00    -0.237 OA
ATOM     79  O   UNL     1       5.776   2.723  -7.576  1.00  0.00    -0.744 OA
ENDBRANCH  73  76
ENDBRANCH  45  69
BRANCH  57  80
ATOM     80  C   UNL     1      13.239   9.017  -3.809  1.00  0.00     0.023 A 
ATOM     81  C   UNL     1      12.439  10.068  -4.296  1.00  0.00     0.012 A 
ATOM     82  C   UNL     1      14.641   9.166  -3.788  1.00  0.00     0.148 A 
ATOM     83  C   UNL     1      13.024  11.242  -4.771  1.00  0.00     0.002 A 
ATOM     84  C   UNL     1      15.215  10.355  -4.220  1.00  0.00     0.091 A 
ATOM     85  F   UNL     1      15.385   8.144  -3.339  1.00  0.00    -0.205 F 
ATOM     86  C   UNL     1      14.409  11.391  -4.720  1.00  0.00     0.022 A 
BRANCH  84  87
ATOM     87  S   UNL     1      16.979  10.673  -4.099  1.00  0.00     0.127 S 
ATOM     88  O   UNL     1      17.391  10.602  -5.500  1.00  0.00    -0.237 OA
ATOM     89  O   UNL     1      17.015  12.016  -3.520  1.00  0.00    -0.237 OA
ATOM     90  O   UNL     1      17.517   9.629  -3.237  1.00  0.00    -0.744 OA
ENDBRANCH  84  87
ENDBRANCH  57  80
ENDBRANCH  31  32
ENDBRANCH  23  26
ENDBRANCH  21  22
ENDBRANCH  20  21
ENDBRANCH   1  20
TORSDOF 19
