REMARK SMILES CC(C)c1cc(N2CCC(C(=O)NCCCCCCNC(=O)c3ccc(-c4c5nc(c(-c6cccc(S(=O)(=O)[O-])c6F)c6ccc([nH]6)c(-c6cccc(S(=O)(=O)[O-])c6F)c6nc(c(-c7cccc(S(=O)(=O)[O-])c7F)c7ccc4[nH]7)C=C6)C=C5)cc3)CC2)nc(-c2ccc(F)cc2)n1
REMARK SMILES IDX 17 1 16 2 15 3 14 4 13 5 11 6 12 7 10 9 7 10 8 11 87 12 9 13
REMARK SMILES IDX 86 14 6 15 4 16 5 17 97 18 89 19 88 20 2 21 1 22 3 23 90 24
REMARK SMILES IDX 91 25 96 26 92 27 95 28 93 29 94 30 18 31 19 32 20 33 21 34
REMARK SMILES IDX 22 36 23 37 24 38 85 39 25 40 84 41 26 42 27 43 28 44 78 45
REMARK SMILES IDX 29 46 83 47 77 48 79 49 30 50 82 51 76 52 75 53 31 55 63 56
REMARK SMILES IDX 43 57 62 58 44 59 47 60 61 61 80 62 45 63 46 64 60 66 81 67
REMARK SMILES IDX 48 68 32 69 33 70 41 71 34 72 36 73 42 74 35 75 37 76 38 77
REMARK SMILES IDX 39 78 40 79 64 80 65 81 73 82 66 83 68 84 74 85 67 86 69 87
REMARK SMILES IDX 70 88 71 89 72 90 49 91 50 92 58 93 51 94 53 95 59 96 52 97
REMARK SMILES IDX 54 98 55 99 56 100 57 101
REMARK H PARENT 13 8 20 35 79 54 47 65
REMARK Flexibility Score: inf
ROOT
ATOM      1  C   UNL     1     -10.261   0.583   1.707  1.00  0.00     0.002 C 
ENDROOT
BRANCH   1   2
ATOM      2  C   UNL     1     -10.009   0.344   0.215  1.00  0.00     0.002 C 
BRANCH   2   3
ATOM      3  C   UNL     1      -8.533   0.306  -0.192  1.00  0.00     0.021 C 
BRANCH   3   4
ATOM      4  C   UNL     1      -7.702  -0.727   0.565  1.00  0.00     0.116 C 
BRANCH   4   5
ATOM      5  N   UNL     1      -8.099  -2.087   0.220  1.00  0.00    -0.356 N 
ATOM      6  C   UNL     1      -7.385  -3.099  -0.346  1.00  0.00     0.223 C 
ATOM      7  O   UNL     1      -7.962  -4.167  -0.569  1.00  0.00    -0.275 OA
ATOM      8  H   UNL     1      -9.035  -2.309   0.429  1.00  0.00     0.163 HD
BRANCH   6   9
ATOM      9  C   UNL     1      -5.911  -2.933  -0.689  1.00  0.00     0.082 C 
ATOM     10  N   UNL     1      -3.896  -0.983  -0.521  1.00  0.00    -0.356 N 
ATOM     11  C   UNL     1      -4.336  -1.297  -1.868  1.00  0.00     0.119 C 
ATOM     12  C   UNL     1      -3.725  -2.101   0.382  1.00  0.00     0.119 C 
ATOM     13  C   UNL     1      -5.734  -1.884  -1.801  1.00  0.00     0.035 C 
ATOM     14  C   UNL     1      -5.086  -2.748   0.602  1.00  0.00     0.035 C 
BRANCH  10  15
ATOM     15  C   UNL     1      -3.130   0.157  -0.394  1.00  0.00     0.132 A 
ATOM     16  C   UNL     1      -1.054   1.288  -0.322  1.00  0.00     0.049 A 
ATOM     17  C   UNL     1      -1.750   0.095  -0.346  1.00  0.00     0.071 A 
ATOM     18  N   UNL     1      -1.696   2.473  -0.329  1.00  0.00    -0.233 NA
ATOM     19  C   UNL     1      -3.039   2.442  -0.325  1.00  0.00     0.161 A 
ATOM     20  N   UNL     1      -3.786   1.327  -0.382  1.00  0.00    -0.211 NA
BRANCH  16  21
ATOM     21  C   UNL     1       0.461   1.363  -0.331  1.00  0.00     0.032 C 
ATOM     22  C   UNL     1       1.178   0.097   0.149  1.00  0.00     0.014 C 
ATOM     23  C   UNL     1       0.947   1.742  -1.733  1.00  0.00     0.014 C 
ENDBRANCH  16  21
BRANCH  19  24
ATOM     24  C   UNL     1      -3.744   3.724  -0.249  1.00  0.00     0.019 A 
ATOM     25  C   UNL     1      -3.525   4.733  -1.204  1.00  0.00     0.015 A 
ATOM     26  C   UNL     1      -4.648   3.986   0.800  1.00  0.00     0.015 A 
ATOM     27  C   UNL     1      -4.198   5.956  -1.124  1.00  0.00     0.040 A 
ATOM     28  C   UNL     1      -5.307   5.215   0.892  1.00  0.00     0.040 A 
ATOM     29  C   UNL     1      -5.083   6.184  -0.077  1.00  0.00     0.123 A 
ATOM     30  F   UNL     1      -5.736   7.351  -0.004  1.00  0.00    -0.207 F 
ENDBRANCH  19  24
ENDBRANCH  10  15
ENDBRANCH   6   9
ENDBRANCH   4   5
ENDBRANCH   3   4
ENDBRANCH   2   3
ENDBRANCH   1   2
BRANCH   1  31
ATOM     31  C   UNL     1      -9.580   1.825   2.287  1.00  0.00     0.021 C 
BRANCH  31  32
ATOM     32  C   UNL     1      -9.946   3.131   1.591  1.00  0.00     0.116 C 
BRANCH  32  33
ATOM     33  N   UNL     1     -11.367   3.426   1.698  1.00  0.00    -0.352 N 
ATOM     34  C   UNL     1     -11.980   4.562   2.159  1.00  0.00     0.251 C 
ATOM     35  H   UNL     1     -11.972   2.709   1.399  1.00  0.00     0.163 HD
ATOM     36  O   UNL     1     -13.192   4.564   2.371  1.00  0.00    -0.269 OA
BRANCH  34  37
ATOM     37  C   UNL     1     -11.178   5.776   2.417  1.00  0.00     0.039 A 
ATOM     38  C   UNL     1     -11.400   6.498   3.591  1.00  0.00     0.014 A 
ATOM     39  C   UNL     1     -10.210   6.201   1.501  1.00  0.00     0.014 A 
ATOM     40  C   UNL     1     -10.616   7.619   3.871  1.00  0.00     0.010 A 
ATOM     41  C   UNL     1      -9.377   7.269   1.820  1.00  0.00     0.010 A 
ATOM     42  C   UNL     1      -9.579   7.997   3.002  1.00  0.00    -0.014 A 
BRANCH  42  43
ATOM     43  C   UNL     1      -8.702   9.158   3.308  1.00  0.00     0.031 A 
ATOM     44  C   UNL     1      -8.682  10.350   2.388  1.00  0.00     0.074 A 
ATOM     45  C   UNL     1      -7.879   9.110   4.375  1.00  0.00     0.049 A 
ATOM     46  N   UNL     1      -7.945  11.429   2.453  1.00  0.00    -0.248 NA
ATOM     47  C   UNL     1      -9.596  10.321   1.233  1.00  0.00     0.031 C 
ATOM     48  C   UNL     1      -7.762   7.984   5.306  1.00  0.00     0.029 A 
ATOM     49  N   UNL     1      -6.966  10.021   4.843  1.00  0.00    -0.354 N 
ATOM     50  C   UNL     1      -8.284  12.189   1.339  1.00  0.00     0.074 A 
ATOM     51  C   UNL     1      -9.266  11.434   0.594  1.00  0.00     0.031 C 
ATOM     52  C   UNL     1      -6.832   8.273   6.231  1.00  0.00     0.029 A 
ATOM     53  C   UNL     1      -6.263   9.585   5.942  1.00  0.00     0.049 A 
ATOM     54  H   UNL     1      -6.827  10.905   4.430  1.00  0.00     0.167 HD
ATOM     55  C   UNL     1      -7.842  13.419   0.985  1.00  0.00     0.034 A 
ATOM     56  C   UNL     1      -5.262  10.170   6.629  1.00  0.00     0.034 A 
ATOM     57  C   UNL     1      -6.888  14.181   1.744  1.00  0.00     0.049 A 
ATOM     58  C   UNL     1      -4.798  11.542   6.214  1.00  0.00     0.074 A 
ATOM     59  C   UNL     1      -6.420  15.460   1.500  1.00  0.00     0.029 A 
ATOM     60  N   UNL     1      -6.255  13.736   2.893  1.00  0.00    -0.354 N 
ATOM     61  N   UNL     1      -5.233  12.302   5.239  1.00  0.00    -0.248 NA
ATOM     62  C   UNL     1      -3.731  12.154   7.019  1.00  0.00     0.031 C 
ATOM     63  C   UNL     1      -5.485  15.779   2.489  1.00  0.00     0.029 A 
ATOM     64  C   UNL     1      -5.400  14.713   3.370  1.00  0.00     0.049 A 
ATOM     65  H   UNL     1      -6.393  12.854   3.309  1.00  0.00     0.167 HD
ATOM     66  C   UNL     1      -4.529  13.496   5.343  1.00  0.00     0.074 A 
ATOM     67  C   UNL     1      -3.655  13.367   6.489  1.00  0.00     0.031 C 
ATOM     68  C   UNL     1      -4.588  14.596   4.553  1.00  0.00     0.034 A 
BRANCH  55  69
ATOM     69  C   UNL     1      -8.432  14.053  -0.248  1.00  0.00     0.023 A 
ATOM     70  C   UNL     1      -9.766  14.508  -0.220  1.00  0.00     0.012 A 
ATOM     71  C   UNL     1      -7.649  14.278  -1.398  1.00  0.00     0.148 A 
ATOM     72  C   UNL     1     -10.321  15.154  -1.323  1.00  0.00     0.002 A 
ATOM     73  C   UNL     1      -8.195  14.964  -2.477  1.00  0.00     0.091 A 
ATOM     74  F   UNL     1      -6.388  13.826  -1.410  1.00  0.00    -0.205 F 
ATOM     75  C   UNL     1      -9.533  15.392  -2.446  1.00  0.00     0.022 A 
BRANCH  73  76
ATOM     76  S   UNL     1      -7.245  15.395  -3.939  1.00  0.00     0.127 S 
ATOM     77  O   UNL     1      -7.919  14.608  -4.972  1.00  0.00    -0.237 OA
ATOM     78  O   UNL     1      -7.466  16.838  -4.032  1.00  0.00    -0.237 OA
ATOM     79  O   UNL     1      -5.871  15.003  -3.661  1.00  0.00    -0.744 OA
ENDBRANCH  73  76
ENDBRANCH  55  69
BRANCH  56  80
ATOM     80  C   UNL     1      -4.651   9.491   7.809  1.00  0.00     0.023 A 
ATOM     81  C   UNL     1      -4.820  10.046   9.094  1.00  0.00     0.012 A 
ATOM     82  C   UNL     1      -3.885   8.318   7.666  1.00  0.00     0.148 A 
ATOM     83  C   UNL     1      -4.192   9.479  10.203  1.00  0.00     0.002 A 
ATOM     84  C   UNL     1      -3.311   7.724   8.785  1.00  0.00     0.091 A 
ATOM     85  F   UNL     1      -3.725   7.808   6.437  1.00  0.00    -0.205 F 
ATOM     86  C   UNL     1      -3.443   8.315  10.050  1.00  0.00     0.022 A 
BRANCH  84  87
ATOM     87  S   UNL     1      -2.442   6.155   8.697  1.00  0.00     0.127 S 
ATOM     88  O   UNL     1      -1.051   6.574   8.845  1.00  0.00    -0.237 OA
ATOM     89  O   UNL     1      -2.994   5.436   9.845  1.00  0.00    -0.237 OA
ATOM     90  O   UNL     1      -2.800   5.582   7.406  1.00  0.00    -0.744 OA
ENDBRANCH  84  87
ENDBRANCH  56  80
BRANCH  68  91
ATOM     91  C   UNL     1      -3.736  15.779   4.933  1.00  0.00     0.023 A 
ATOM     92  C   UNL     1      -2.337  15.725   4.771  1.00  0.00     0.012 A 
ATOM     93  C   UNL     1      -4.335  16.972   5.385  1.00  0.00     0.148 A 
ATOM     94  C   UNL     1      -1.545  16.827   5.090  1.00  0.00     0.002 A 
ATOM     95  C   UNL     1      -3.544  18.083   5.648  1.00  0.00     0.091 A 
ATOM     96  F   UNL     1      -5.666  16.997   5.547  1.00  0.00    -0.205 F 
ATOM     97  C   UNL     1      -2.148  18.008   5.516  1.00  0.00     0.022 A 
BRANCH  95  98
ATOM     98  S   UNL     1      -4.240  19.675   6.103  1.00  0.00     0.127 S 
ATOM     99  O   UNL     1      -3.840  19.784   7.505  1.00  0.00    -0.237 OA
ATOM    100  O   UNL     1      -3.541  20.587   5.197  1.00  0.00    -0.237 OA
ATOM    101  O   UNL     1      -5.674  19.571   5.871  1.00  0.00    -0.744 OA
ENDBRANCH  95  98
ENDBRANCH  68  91
ENDBRANCH  42  43
ENDBRANCH  34  37
ENDBRANCH  32  33
ENDBRANCH  31  32
ENDBRANCH   1  31
TORSDOF 19
