REMARK SMILES C[C@@H]1CC[C@H]([N@@H+](CC(=O)NCCCCCCNC(=O)c2ccc(-c3c4nc(c(-c5cccc(S(=O)(=O)[O-])c5F)c5ccc([nH]5)c(-c5cccc(S(=O)(=O)[O-])c5F)c5nc(c(-c6cccc(S(=O)(=O)[O-])c6F)c6ccc3[nH]6)C=C5)C=C4)cc2)CC(F)(F)F)C[C@@H]1C
REMARK SMILES IDX 13 1 12 2 11 3 10 4 8 5 9 6 7 8 6 9 5 11 1 12 2 13 3 14
REMARK SMILES IDX 89 15 4 16 88 17 90 18 83 19 84 20 85 21 86 22 87 23 14 24
REMARK SMILES IDX 15 25 16 26 17 27 18 28 19 30 20 31 21 32 82 33 22 34 81 35
REMARK SMILES IDX 23 36 24 37 25 38 75 39 26 40 80 41 74 42 76 43 27 44 79 45
REMARK SMILES IDX 73 46 72 47 28 49 60 50 40 51 59 52 41 53 44 54 58 55 77 56
REMARK SMILES IDX 42 57 43 58 57 60 78 61 45 62 29 63 30 64 38 65 31 66 33 67
REMARK SMILES IDX 39 68 32 69 34 70 35 71 36 72 37 73 61 74 62 75 70 76 63 77
REMARK SMILES IDX 65 78 71 79 64 80 66 81 67 82 68 83 69 84 46 85 47 86 55 87
REMARK SMILES IDX 48 88 50 89 56 90 49 91 51 92 52 93 53 94 54 95
REMARK H PARENT 10 7 6 10 17 29 76 48 44 59
REMARK Flexibility Score: inf
ROOT
ATOM      1  C   UNL     1      -2.364  -0.129   1.338  1.00  0.00     0.002 C 
ENDROOT
BRANCH   1   2
ATOM      2  C   UNL     1      -2.822  -0.898   0.087  1.00  0.00     0.021 C 
BRANCH   2   3
ATOM      3  C   UNL     1      -3.487  -0.066  -1.027  1.00  0.00     0.116 C 
BRANCH   3   4
ATOM      4  N   UNL     1      -2.824   1.192  -1.355  1.00  0.00    -0.351 N 
ATOM      5  C   UNL     1      -2.224   1.655  -2.493  1.00  0.00     0.275 C 
ATOM      6  O   UNL     1      -1.950   2.859  -2.524  1.00  0.00    -0.269 OA
ATOM      7  H   UNL     1      -2.805   1.834  -0.609  1.00  0.00     0.163 HD
BRANCH   5   8
ATOM      8  C   UNL     1      -1.850   0.727  -3.661  1.00  0.00     0.364 C 
BRANCH   8   9
ATOM      9  N   UNL     1      -0.427   0.299  -3.690  1.00  0.00    -0.317 N 
ATOM     10  H   UNL     1      -0.437  -0.587  -4.194  1.00  0.00     0.349 HD
BRANCH   9  11
ATOM     11  C   UNL     1       0.099  -0.119  -2.394  1.00  0.00     0.184 C 
ATOM     12  C   UNL     1       3.225  -0.431  -0.081  1.00  0.00     0.008 C 
ATOM     13  C   UNL     1       1.733  -0.745   0.015  1.00  0.00    -0.011 C 
ATOM     14  C   UNL     1       1.330  -1.832  -1.013  1.00  0.00     0.010 C 
ATOM     15  C   UNL     1       0.840   0.506  -0.114  1.00  0.00    -0.006 C 
ATOM     16  C   UNL     1       1.070  -1.311  -2.441  1.00  0.00     0.065 C 
ATOM     17  C   UNL     1       0.749   0.988  -1.557  1.00  0.00     0.068 C 
ATOM     18  C   UNL     1       1.168   1.656   0.832  1.00  0.00     0.008 C 
ENDBRANCH   9  11
BRANCH   9  19
ATOM     19  C   UNL     1       0.464   1.030  -4.614  1.00  0.00     0.379 C 
BRANCH  19  20
ATOM     20  C   UNL     1       0.807   2.536  -4.527  1.00  0.00     0.438 C 
ATOM     21  F   UNL     1       1.529   2.860  -3.436  1.00  0.00    -0.165 F 
ATOM     22  F   UNL     1       1.573   2.876  -5.601  1.00  0.00    -0.165 F 
ATOM     23  F   UNL     1      -0.285   3.321  -4.575  1.00  0.00    -0.165 F 
ENDBRANCH  19  20
ENDBRANCH   9  19
ENDBRANCH   8   9
ENDBRANCH   5   8
ENDBRANCH   3   4
ENDBRANCH   2   3
ENDBRANCH   1   2
BRANCH   1  24
ATOM     24  C   UNL     1      -3.245  -0.258   2.577  1.00  0.00     0.002 C 
BRANCH  24  25
ATOM     25  C   UNL     1      -3.242  -1.640   3.236  1.00  0.00     0.021 C 
BRANCH  25  26
ATOM     26  C   UNL     1      -1.875  -2.201   3.626  1.00  0.00     0.116 C 
BRANCH  26  27
ATOM     27  N   UNL     1      -1.202  -1.434   4.671  1.00  0.00    -0.352 N 
ATOM     28  C   UNL     1      -0.657  -1.909   5.844  1.00  0.00     0.251 C 
ATOM     29  H   UNL     1      -1.128  -0.464   4.519  1.00  0.00     0.163 HD
ATOM     30  O   UNL     1      -0.172  -1.156   6.681  1.00  0.00    -0.269 OA
BRANCH  28  31
ATOM     31  C   UNL     1      -0.705  -3.364   6.082  1.00  0.00     0.039 A 
ATOM     32  C   UNL     1      -1.525  -3.860   7.096  1.00  0.00     0.014 A 
ATOM     33  C   UNL     1      -0.068  -4.224   5.183  1.00  0.00     0.014 A 
ATOM     34  C   UNL     1      -1.777  -5.232   7.159  1.00  0.00     0.010 A 
ATOM     35  C   UNL     1      -0.375  -5.580   5.209  1.00  0.00     0.010 A 
ATOM     36  C   UNL     1      -1.241  -6.096   6.188  1.00  0.00    -0.014 A 
BRANCH  36  37
ATOM     37  C   UNL     1      -1.596  -7.538   6.163  1.00  0.00     0.031 A 
ATOM     38  C   UNL     1      -0.533  -8.577   6.380  1.00  0.00     0.074 A 
ATOM     39  C   UNL     1      -2.853  -7.913   5.849  1.00  0.00     0.049 A 
ATOM     40  N   UNL     1      -0.637  -9.880   6.356  1.00  0.00    -0.248 NA
ATOM     41  C   UNL     1       0.835  -8.088   6.623  1.00  0.00     0.031 C 
ATOM     42  C   UNL     1      -3.953  -7.004   5.518  1.00  0.00     0.029 A 
ATOM     43  N   UNL     1      -3.413  -9.162   5.732  1.00  0.00    -0.354 N 
ATOM     44  C   UNL     1       0.651 -10.365   6.544  1.00  0.00     0.074 A 
ATOM     45  C   UNL     1       1.527  -9.218   6.638  1.00  0.00     0.031 C 
ATOM     46  C   UNL     1      -5.054  -7.724   5.244  1.00  0.00     0.029 A 
ATOM     47  C   UNL     1      -4.738  -9.144   5.362  1.00  0.00     0.049 A 
ATOM     48  H   UNL     1      -2.912  -9.993   5.898  1.00  0.00     0.167 HD
ATOM     49  C   UNL     1       1.065 -11.648   6.667  1.00  0.00     0.034 A 
ATOM     50  C   UNL     1      -5.602 -10.158   5.151  1.00  0.00     0.034 A 
ATOM     51  C   UNL     1       0.184 -12.783   6.634  1.00  0.00     0.049 A 
ATOM     52  C   UNL     1      -5.133 -11.573   5.364  1.00  0.00     0.074 A 
ATOM     53  C   UNL     1       0.487 -14.114   6.855  1.00  0.00     0.029 A 
ATOM     54  N   UNL     1      -1.174 -12.720   6.364  1.00  0.00    -0.354 N 
ATOM     55  N   UNL     1      -3.948 -12.003   5.725  1.00  0.00    -0.248 NA
ATOM     56  C   UNL     1      -6.127 -12.640   5.181  1.00  0.00     0.031 C 
ATOM     57  C   UNL     1      -0.688 -14.858   6.708  1.00  0.00     0.029 A 
ATOM     58  C   UNL     1      -1.724 -13.988   6.407  1.00  0.00     0.049 A 
ATOM     59  H   UNL     1      -1.673 -11.894   6.169  1.00  0.00     0.167 HD
ATOM     60  C   UNL     1      -4.062 -13.383   5.844  1.00  0.00     0.074 A 
ATOM     61  C   UNL     1      -5.438 -13.716   5.539  1.00  0.00     0.031 C 
ATOM     62  C   UNL     1      -3.109 -14.296   6.159  1.00  0.00     0.034 A 
BRANCH  49  63
ATOM     63  C   UNL     1       2.530 -11.882   6.924  1.00  0.00     0.023 A 
ATOM     64  C   UNL     1       3.070 -11.552   8.184  1.00  0.00     0.012 A 
ATOM     65  C   UNL     1       3.361 -12.457   5.944  1.00  0.00     0.148 A 
ATOM     66  C   UNL     1       4.423 -11.752   8.452  1.00  0.00     0.002 A 
ATOM     67  C   UNL     1       4.700 -12.694   6.234  1.00  0.00     0.091 A 
ATOM     68  F   UNL     1       2.835 -12.742   4.744  1.00  0.00    -0.205 F 
ATOM     69  C   UNL     1       5.235 -12.331   7.482  1.00  0.00     0.022 A 
BRANCH  67  70
ATOM     70  S   UNL     1       5.812 -13.501   5.077  1.00  0.00     0.127 S 
ATOM     71  O   UNL     1       6.641 -12.381   4.634  1.00  0.00    -0.237 OA
ATOM     72  O   UNL     1       6.500 -14.468   5.933  1.00  0.00    -0.237 OA
ATOM     73  O   UNL     1       4.961 -14.095   4.055  1.00  0.00    -0.744 OA
ENDBRANCH  67  70
ENDBRANCH  49  63
BRANCH  50  74
ATOM     74  C   UNL     1      -7.023  -9.868   4.803  1.00  0.00     0.023 A 
ATOM     75  C   UNL     1      -8.027 -10.109   5.762  1.00  0.00     0.012 A 
ATOM     76  C   UNL     1      -7.386  -9.336   3.551  1.00  0.00     0.148 A 
ATOM     77  C   UNL     1      -9.368  -9.855   5.471  1.00  0.00     0.002 A 
ATOM     78  C   UNL     1      -8.718  -9.036   3.285  1.00  0.00     0.091 A 
ATOM     79  F   UNL     1      -6.420  -9.127   2.645  1.00  0.00    -0.205 F 
ATOM     80  C   UNL     1      -9.712  -9.310   4.237  1.00  0.00     0.022 A 
BRANCH  78  81
ATOM     81  S   UNL     1      -9.233  -8.212   1.774  1.00  0.00     0.127 S 
ATOM     82  O   UNL     1      -9.861  -9.304   1.035  1.00  0.00    -0.237 OA
ATOM     83  O   UNL     1     -10.158  -7.197   2.279  1.00  0.00    -0.237 OA
ATOM     84  O   UNL     1      -8.013  -7.669   1.192  1.00  0.00    -0.744 OA
ENDBRANCH  78  81
ENDBRANCH  50  74
BRANCH  62  85
ATOM     85  C   UNL     1      -3.517 -15.744   6.215  1.00  0.00     0.023 A 
ATOM     86  C   UNL     1      -3.750 -16.446   5.016  1.00  0.00     0.012 A 
ATOM     87  C   UNL     1      -3.578 -16.430   7.443  1.00  0.00     0.148 A 
ATOM     88  C   UNL     1      -4.061 -17.805   5.040  1.00  0.00     0.002 A 
ATOM     89  C   UNL     1      -3.844 -17.794   7.457  1.00  0.00     0.091 A 
ATOM     90  F   UNL     1      -3.372 -15.739   8.574  1.00  0.00    -0.205 F 
ATOM     91  C   UNL     1      -4.095 -18.481   6.258  1.00  0.00     0.022 A 
BRANCH  89  92
ATOM     92  S   UNL     1      -3.812 -18.763   8.970  1.00  0.00     0.127 S 
ATOM     93  O   UNL     1      -5.237 -18.981   9.214  1.00  0.00    -0.237 OA
ATOM     94  O   UNL     1      -3.073 -19.958   8.560  1.00  0.00    -0.237 OA
ATOM     95  O   UNL     1      -3.125 -17.940   9.956  1.00  0.00    -0.744 OA
ENDBRANCH  89  92
ENDBRANCH  62  85
ENDBRANCH  36  37
ENDBRANCH  28  31
ENDBRANCH  26  27
ENDBRANCH  25  26
ENDBRANCH  24  25
ENDBRANCH   1  24
TORSDOF 20
