REMARK SMILES CC(C)[C@H](NC(=O)c1cc2cc(Cl)ccc2n1C)C(=O)N[C@@H](C(=O)NCCCCCCNC(=O)c1ccc(-c2c3nc(c(-c4cccc(S(=O)(=O)[O-])c4F)c4ccc([nH]4)c(-c4cccc(S(=O)(=O)[O-])c4F)c4nc(c(-c5cccc(S(=O)(=O)[O-])c5F)c5ccc2[nH]5)C=C4)C=C3)cc1)c1ccccc1
REMARK SMILES IDX 28 1 27 2 26 3 25 4 23 5 24 6 22 8 21 9 19 10 20 11 4 13
REMARK SMILES IDX 2 14 1 15 3 16 5 17 6 18 7 20 8 21 9 22 17 23 10 24 16 25
REMARK SMILES IDX 18 26 11 27 15 28 12 29 14 30 13 31 98 32 99 33 103 34
REMARK SMILES IDX 100 35 102 36 101 37 29 38 30 39 31 40 32 41 33 42 34 44
REMARK SMILES IDX 35 45 36 46 97 47 37 48 96 49 38 50 39 51 40 52 90 53 41 54
REMARK SMILES IDX 95 55 89 56 91 57 42 58 94 59 88 60 87 61 43 63 75 64 55 65
REMARK SMILES IDX 74 66 56 67 59 68 73 69 92 70 57 71 58 72 72 74 93 75 60 76
REMARK SMILES IDX 44 77 45 78 53 79 46 80 48 81 54 82 47 83 49 84 50 85 51 86
REMARK SMILES IDX 52 87 76 88 77 89 85 90 78 91 80 92 86 93 79 94 81 95 82 96
REMARK SMILES IDX 83 97 84 98 61 99 62 100 70 101 63 102 65 103 71 104 64 105
REMARK SMILES IDX 66 106 67 107 68 108 69 109
REMARK H PARENT 25 7 21 12 5 19 32 43 91 62 59 73
REMARK Flexibility Score: inf
ROOT
ATOM      1  C   UNL     1       3.531   1.638  -5.279  1.00  0.00     0.002 C 
ENDROOT
BRANCH   1   2
ATOM      2  C   UNL     1       2.152   1.725  -4.624  1.00  0.00     0.021 C 
BRANCH   2   3
ATOM      3  C   UNL     1       2.099   2.288  -3.188  1.00  0.00     0.116 C 
BRANCH   3   4
ATOM      4  N   UNL     1       1.898   3.725  -3.194  1.00  0.00    -0.354 N 
ATOM      5  C   UNL     1       0.831   4.478  -2.776  1.00  0.00     0.247 C 
ATOM      6  O   UNL     1       0.676   5.529  -3.412  1.00  0.00    -0.272 OA
ATOM      7  H   UNL     1       2.650   4.245  -3.559  1.00  0.00     0.163 HD
BRANCH   5   8
ATOM      8  C   UNL     1      -0.172   4.031  -1.611  1.00  0.00     0.202 C 
BRANCH   8   9
ATOM      9  N   UNL     1      -1.294   3.257  -2.179  1.00  0.00    -0.339 N 
ATOM     10  C   UNL     1      -2.005   2.146  -1.862  1.00  0.00     0.243 C 
ATOM     11  O   UNL     1      -3.193   2.173  -2.223  1.00  0.00    -0.273 OA
ATOM     12  H   UNL     1      -1.613   3.657  -3.020  1.00  0.00     0.164 HD
BRANCH  10  13
ATOM     13  C   UNL     1      -1.514   0.902  -1.112  1.00  0.00     0.174 C 
BRANCH  13  14
ATOM     14  C   UNL     1      -1.639   0.966   0.445  1.00  0.00     0.015 C 
ATOM     15  C   UNL     1      -0.568   1.762   1.196  1.00  0.00     0.010 C 
ATOM     16  C   UNL     1      -3.038   1.419   0.887  1.00  0.00     0.010 C 
ENDBRANCH  13  14
BRANCH  13  17
ATOM     17  N   UNL     1      -0.232   0.402  -1.572  1.00  0.00    -0.339 N 
ATOM     18  C   UNL     1       0.111  -0.349  -2.673  1.00  0.00     0.268 C 
ATOM     19  H   UNL     1       0.528   0.643  -0.994  1.00  0.00     0.164 HD
ATOM     20  O   UNL     1       1.142  -1.004  -2.481  1.00  0.00    -0.268 OA
BRANCH  18  21
ATOM     21  C   UNL     1      -0.548  -0.398  -3.987  1.00  0.00     0.107 A 
ATOM     22  C   UNL     1      -0.224  -1.405  -4.913  1.00  0.00     0.042 A 
ATOM     23  N   UNL     1      -1.276   0.510  -4.753  1.00  0.00    -0.340 N 
ATOM     24  C   UNL     1      -0.768  -1.106  -6.186  1.00  0.00     0.002 A 
ATOM     25  C   UNL     1      -1.610  -0.025  -5.993  1.00  0.00     0.048 A 
ATOM     26  C   UNL     1      -1.255   1.954  -4.699  1.00  0.00     0.150 C 
ATOM     27  C   UNL     1      -0.607  -1.609  -7.490  1.00  0.00     0.030 A 
ATOM     28  C   UNL     1      -2.412   0.514  -7.013  1.00  0.00     0.028 A 
ATOM     29  C   UNL     1      -1.327  -1.015  -8.535  1.00  0.00     0.041 A 
ATOM     30  C   UNL     1      -2.243   0.007  -8.299  1.00  0.00     0.023 A 
ATOM     31  Cl  UNL     1      -1.049  -1.523 -10.157  1.00  0.00    -0.084 Cl
ENDBRANCH  18  21
ENDBRANCH  13  17
ENDBRANCH  10  13
ENDBRANCH   8   9
BRANCH   8  32
ATOM     32  C   UNL     1      -0.875   5.273  -0.949  1.00  0.00    -0.016 A 
ATOM     33  C   UNL     1      -2.180   5.149  -0.414  1.00  0.00     0.006 A 
ATOM     34  C   UNL     1      -0.344   6.572  -0.979  1.00  0.00     0.006 A 
ATOM     35  C   UNL     1      -2.960   6.254  -0.064  1.00  0.00     0.000 A 
ATOM     36  C   UNL     1      -1.128   7.687  -0.635  1.00  0.00     0.000 A 
ATOM     37  C   UNL     1      -2.441   7.530  -0.201  1.00  0.00     0.000 A 
ENDBRANCH   8  32
ENDBRANCH   5   8
ENDBRANCH   3   4
ENDBRANCH   2   3
ENDBRANCH   1   2
BRANCH   1  38
ATOM     38  C   UNL     1       4.487   0.602  -4.676  1.00  0.00     0.002 C 
BRANCH  38  39
ATOM     39  C   UNL     1       3.997  -0.852  -4.607  1.00  0.00     0.021 C 
BRANCH  39  40
ATOM     40  C   UNL     1       3.473  -1.462  -5.907  1.00  0.00     0.116 C 
BRANCH  40  41
ATOM     41  N   UNL     1       4.413  -1.472  -7.007  1.00  0.00    -0.352 N 
ATOM     42  C   UNL     1       5.445  -2.285  -7.389  1.00  0.00     0.251 C 
ATOM     43  H   UNL     1       4.279  -0.717  -7.625  1.00  0.00     0.163 HD
ATOM     44  O   UNL     1       5.917  -2.064  -8.508  1.00  0.00    -0.269 OA
BRANCH  42  45
ATOM     45  C   UNL     1       6.076  -3.327  -6.535  1.00  0.00     0.039 A 
ATOM     46  C   UNL     1       5.527  -3.874  -5.376  1.00  0.00     0.014 A 
ATOM     47  C   UNL     1       7.356  -3.753  -6.940  1.00  0.00     0.014 A 
ATOM     48  C   UNL     1       6.286  -4.726  -4.577  1.00  0.00     0.010 A 
ATOM     49  C   UNL     1       8.111  -4.620  -6.159  1.00  0.00     0.010 A 
ATOM     50  C   UNL     1       7.592  -5.067  -4.950  1.00  0.00    -0.014 A 
BRANCH  50  51
ATOM     51  C   UNL     1       8.310  -6.050  -4.141  1.00  0.00     0.031 A 
ATOM     52  C   UNL     1       7.647  -7.384  -4.120  1.00  0.00     0.074 A 
ATOM     53  C   UNL     1       9.507  -5.825  -3.557  1.00  0.00     0.049 A 
ATOM     54  N   UNL     1       7.082  -7.967  -3.113  1.00  0.00    -0.248 NA
ATOM     55  C   UNL     1       7.442  -8.075  -5.403  1.00  0.00     0.031 C 
ATOM     56  C   UNL     1      10.372  -4.655  -3.724  1.00  0.00     0.029 A 
ATOM     57  N   UNL     1      10.264  -6.651  -2.775  1.00  0.00    -0.354 N 
ATOM     58  C   UNL     1       6.669  -9.210  -3.589  1.00  0.00     0.074 A 
ATOM     59  C   UNL     1       6.739  -9.143  -5.024  1.00  0.00     0.031 C 
ATOM     60  C   UNL     1      11.613  -4.945  -3.269  1.00  0.00     0.029 A 
ATOM     61  C   UNL     1      11.601  -6.263  -2.661  1.00  0.00     0.049 A 
ATOM     62  H   UNL     1       9.899  -7.450  -2.330  1.00  0.00     0.167 HD
ATOM     63  C   UNL     1       6.562 -10.283  -2.760  1.00  0.00     0.034 A 
ATOM     64  C   UNL     1      12.625  -7.003  -2.159  1.00  0.00     0.034 A 
ATOM     65  C   UNL     1       6.532  -9.883  -1.380  1.00  0.00     0.049 A 
ATOM     66  C   UNL     1      12.009  -8.027  -1.288  1.00  0.00     0.074 A 
ATOM     67  C   UNL     1       5.700  -9.116  -0.592  1.00  0.00     0.029 A 
ATOM     68  N   UNL     1       7.718 -10.002  -0.703  1.00  0.00    -0.354 N 
ATOM     69  N   UNL     1      11.388  -7.756  -0.176  1.00  0.00    -0.248 NA
ATOM     70  C   UNL     1      11.766  -9.347  -1.843  1.00  0.00     0.031 C 
ATOM     71  C   UNL     1       6.567  -8.460   0.329  1.00  0.00     0.029 A 
ATOM     72  C   UNL     1       7.870  -8.904   0.095  1.00  0.00     0.049 A 
ATOM     73  H   UNL     1       8.353 -10.751  -0.779  1.00  0.00     0.167 HD
ATOM     74  C   UNL     1      10.342  -8.665  -0.147  1.00  0.00     0.074 A 
ATOM     75  C   UNL     1      10.705  -9.697  -1.113  1.00  0.00     0.031 C 
ATOM     76  C   UNL     1       9.155  -8.335   0.436  1.00  0.00     0.034 A 
BRANCH  63  77
ATOM     77  C   UNL     1       6.913 -11.700  -3.152  1.00  0.00     0.023 A 
ATOM     78  C   UNL     1       6.596 -12.730  -2.238  1.00  0.00     0.012 A 
ATOM     79  C   UNL     1       7.791 -12.032  -4.210  1.00  0.00     0.148 A 
ATOM     80  C   UNL     1       7.147 -14.011  -2.354  1.00  0.00     0.002 A 
ATOM     81  C   UNL     1       8.277 -13.325  -4.365  1.00  0.00     0.091 A 
ATOM     82  F   UNL     1       8.279 -11.070  -4.999  1.00  0.00    -0.205 F 
ATOM     83  C   UNL     1       7.979 -14.313  -3.425  1.00  0.00     0.022 A 
BRANCH  81  84
ATOM     84  S   UNL     1       9.344 -13.777  -5.739  1.00  0.00     0.127 S 
ATOM     85  O   UNL     1      10.623 -13.964  -5.068  1.00  0.00    -0.237 OA
ATOM     86  O   UNL     1       8.705 -15.000  -6.221  1.00  0.00    -0.237 OA
ATOM     87  O   UNL     1       9.270 -12.656  -6.676  1.00  0.00    -0.744 OA
ENDBRANCH  81  84
ENDBRANCH  63  77
BRANCH  64  88
ATOM     88  C   UNL     1      14.066  -7.087  -2.530  1.00  0.00     0.023 A 
ATOM     89  C   UNL     1      14.940  -7.854  -1.722  1.00  0.00     0.012 A 
ATOM     90  C   UNL     1      14.529  -6.705  -3.807  1.00  0.00     0.148 A 
ATOM     91  C   UNL     1      16.185  -8.289  -2.195  1.00  0.00     0.002 A 
ATOM     92  C   UNL     1      15.774  -7.130  -4.269  1.00  0.00     0.091 A 
ATOM     93  F   UNL     1      13.716  -6.010  -4.611  1.00  0.00    -0.205 F 
ATOM     94  C   UNL     1      16.596  -7.940  -3.476  1.00  0.00     0.022 A 
BRANCH  92  95
ATOM     95  S   UNL     1      16.369  -6.720  -5.917  1.00  0.00     0.127 S 
ATOM     96  O   UNL     1      17.763  -6.359  -5.660  1.00  0.00    -0.237 OA
ATOM     97  O   UNL     1      16.184  -7.980  -6.629  1.00  0.00    -0.237 OA
ATOM     98  O   UNL     1      15.539  -5.607  -6.367  1.00  0.00    -0.744 OA
ENDBRANCH  92  95
ENDBRANCH  64  88
BRANCH  76  99
ATOM     99  C   UNL     1       9.113  -7.127   1.331  1.00  0.00     0.023 A 
ATOM    100  C   UNL     1       9.185  -5.810   0.833  1.00  0.00     0.012 A 
ATOM    101  C   UNL     1       8.756  -7.338   2.673  1.00  0.00     0.148 A 
ATOM    102  C   UNL     1       8.886  -4.724   1.661  1.00  0.00     0.002 A 
ATOM    103  C   UNL     1       8.416  -6.261   3.477  1.00  0.00     0.091 A 
ATOM    104  F   UNL     1       8.693  -8.604   3.115  1.00  0.00    -0.205 F 
ATOM    105  C   UNL     1       8.483  -4.950   2.976  1.00  0.00     0.022 A 
BRANCH 103 106
ATOM    106  S   UNL     1       7.766  -6.489   5.132  1.00  0.00     0.127 S 
ATOM    107  O   UNL     1       8.791  -5.850   5.955  1.00  0.00    -0.237 OA
ATOM    108  O   UNL     1       6.495  -5.765   5.065  1.00  0.00    -0.237 OA
ATOM    109  O   UNL     1       7.629  -7.928   5.324  1.00  0.00    -0.744 OA
ENDBRANCH 103 106
ENDBRANCH  76  99
ENDBRANCH  50  51
ENDBRANCH  42  45
ENDBRANCH  40  41
ENDBRANCH  39  40
ENDBRANCH  38  39
ENDBRANCH   1  38
TORSDOF 22
