REMARK SMILES C[C@@H]1Cc2ccccc2N1S(=O)(=O)c1c[nH]c(C(=O)NCCCCCCNC(=O)c2ccc(-c3c4nc(c(-c5cccc(S(=O)(=O)[O-])c5F)c5ccc([nH]5)c(-c5cccc(S(=O)(=O)[O-])c5F)c5nc(c(-c6cccc(S(=O)(=O)[O-])c6F)c6ccc3[nH]6)C=C5)C=C4)cc2)c1
REMARK SMILES IDX 24 1 23 2 22 3 21 4 20 5 18 6 19 7 17 9 14 10 15 11 93 12
REMARK SMILES IDX 16 13 11 15 12 16 13 17 10 18 1 19 2 20 3 21 4 22 9 23 5 24
REMARK SMILES IDX 8 25 6 26 7 27 25 28 26 29 27 30 28 31 29 33 30 34 31 35
REMARK SMILES IDX 92 36 32 37 91 38 33 39 34 40 35 41 85 42 36 43 90 44 84 45
REMARK SMILES IDX 86 46 37 47 89 48 83 49 82 50 38 52 70 53 50 54 69 55 51 56
REMARK SMILES IDX 54 57 68 58 87 59 52 60 53 61 67 63 88 64 55 65 39 66 40 67
REMARK SMILES IDX 48 68 41 69 43 70 49 71 42 72 44 73 45 74 46 75 47 76 71 77
REMARK SMILES IDX 72 78 80 79 73 80 75 81 81 82 74 83 76 84 77 85 78 86 79 87
REMARK SMILES IDX 56 88 57 89 65 90 58 91 60 92 66 93 59 94 61 95 62 96 63 97
REMARK SMILES IDX 64 98
REMARK H PARENT 20 8 16 14 27 32 86 51 54 62
REMARK Flexibility Score: inf
ROOT
ATOM      1  C   UNL     1       3.020   9.428  -6.143  1.00  0.00     0.002 C 
ENDROOT
BRANCH   1   2
ATOM      2  C   UNL     1       2.136   9.462  -4.890  1.00  0.00     0.002 C 
BRANCH   2   3
ATOM      3  C   UNL     1       2.107   8.149  -4.095  1.00  0.00     0.021 C 
BRANCH   3   4
ATOM      4  C   UNL     1       3.471   7.783  -3.514  1.00  0.00     0.116 C 
BRANCH   4   5
ATOM      5  N   UNL     1       3.689   8.485  -2.267  1.00  0.00    -0.351 N 
ATOM      6  C   UNL     1       3.833   8.053  -0.981  1.00  0.00     0.267 C 
ATOM      7  O   UNL     1       4.060   8.915  -0.128  1.00  0.00    -0.268 OA
ATOM      8  H   UNL     1       3.745   9.463  -2.366  1.00  0.00     0.163 HD
BRANCH   6   9
ATOM      9  C   UNL     1       3.732   6.660  -0.605  1.00  0.00     0.105 A 
ATOM     10  C   UNL     1       3.342   4.444  -0.274  1.00  0.00     0.106 A 
ATOM     11  C   UNL     1       3.915   4.948   0.872  1.00  0.00     0.105 A 
ATOM     12  C   UNL     1       3.245   5.510  -1.208  1.00  0.00     0.055 A 
ATOM     13  N   UNL     1       4.139   6.278   0.664  1.00  0.00    -0.356 N 
ATOM     14  H   UNL     1       4.537   6.886   1.328  1.00  0.00     0.166 HD
BRANCH  10  15
ATOM     15  S   UNL     1       2.705   2.859  -0.514  1.00  0.00     0.266 S 
ATOM     16  O   UNL     1       3.216   2.097   0.624  1.00  0.00    -0.201 OA
ATOM     17  O   UNL     1       3.080   2.525  -1.858  1.00  0.00    -0.201 OA
BRANCH  15  18
ATOM     18  N   UNL     1       1.001   2.868  -0.431  1.00  0.00    -0.263 N 
ATOM     19  C   UNL     1       0.124   1.031  -1.859  1.00  0.00     0.032 C 
ATOM     20  C   UNL     1       0.410   1.474  -0.433  1.00  0.00     0.101 C 
ATOM     21  C   UNL     1      -0.870   1.544   0.428  1.00  0.00     0.063 C 
ATOM     22  C   UNL     1      -0.761   2.879   1.087  1.00  0.00    -0.021 A 
ATOM     23  C   UNL     1       0.316   3.605   0.591  1.00  0.00     0.055 A 
ATOM     24  C   UNL     1      -1.647   3.428   2.008  1.00  0.00     0.006 A 
ATOM     25  C   UNL     1       0.459   4.938   0.943  1.00  0.00     0.027 A 
ATOM     26  C   UNL     1      -1.455   4.748   2.417  1.00  0.00     0.000 A 
ATOM     27  C   UNL     1      -0.410   5.503   1.879  1.00  0.00     0.002 A 
ENDBRANCH  15  18
ENDBRANCH  10  15
ENDBRANCH   6   9
ENDBRANCH   4   5
ENDBRANCH   3   4
ENDBRANCH   2   3
ENDBRANCH   1   2
BRANCH   1  28
ATOM     28  C   UNL     1       2.731   8.267  -7.094  1.00  0.00     0.021 C 
BRANCH  28  29
ATOM     29  C   UNL     1       1.287   8.225  -7.599  1.00  0.00     0.116 C 
BRANCH  29  30
ATOM     30  N   UNL     1       0.915   9.302  -8.500  1.00  0.00    -0.352 N 
ATOM     31  C   UNL     1       1.223   9.570  -9.814  1.00  0.00     0.251 C 
ATOM     32  H   UNL     1       0.325   9.974  -8.088  1.00  0.00     0.163 HD
ATOM     33  O   UNL     1       0.645  10.512 -10.355  1.00  0.00    -0.269 OA
BRANCH  31  34
ATOM     34  C   UNL     1       2.312   8.858 -10.527  1.00  0.00     0.039 A 
ATOM     35  C   UNL     1       2.676   7.546 -10.235  1.00  0.00     0.014 A 
ATOM     36  C   UNL     1       3.062   9.592 -11.460  1.00  0.00     0.014 A 
ATOM     37  C   UNL     1       3.902   7.066 -10.651  1.00  0.00     0.010 A 
ATOM     38  C   UNL     1       4.257   9.080 -11.958  1.00  0.00     0.010 A 
ATOM     39  C   UNL     1       4.704   7.845 -11.493  1.00  0.00    -0.014 A 
BRANCH  39  40
ATOM     40  C   UNL     1       5.898   7.174 -12.037  1.00  0.00     0.031 A 
ATOM     41  C   UNL     1       5.425   6.078 -13.031  1.00  0.00     0.074 A 
ATOM     42  C   UNL     1       7.104   7.518 -11.475  1.00  0.00     0.049 A 
ATOM     43  N   UNL     1       5.794   4.838 -13.145  1.00  0.00    -0.248 NA
ATOM     44  C   UNL     1       4.221   6.340 -13.877  1.00  0.00     0.031 C 
ATOM     45  C   UNL     1       7.326   8.649 -10.540  1.00  0.00     0.029 A 
ATOM     46  N   UNL     1       8.387   7.010 -11.555  1.00  0.00    -0.354 N 
ATOM     47  C   UNL     1       5.066   4.277 -14.225  1.00  0.00     0.074 A 
ATOM     48  C   UNL     1       3.994   5.179 -14.498  1.00  0.00     0.031 C 
ATOM     49  C   UNL     1       8.601   8.670 -10.082  1.00  0.00     0.029 A 
ATOM     50  C   UNL     1       9.348   7.572 -10.668  1.00  0.00     0.049 A 
ATOM     51  H   UNL     1       8.623   6.297 -12.192  1.00  0.00     0.167 HD
ATOM     52  C   UNL     1       5.510   3.195 -14.936  1.00  0.00     0.034 A 
ATOM     53  C   UNL     1      10.625   7.137 -10.392  1.00  0.00     0.034 A 
ATOM     54  C   UNL     1       6.776   2.797 -14.414  1.00  0.00     0.049 A 
ATOM     55  C   UNL     1      10.851   6.021 -11.321  1.00  0.00     0.074 A 
ATOM     56  C   UNL     1       7.139   2.167 -13.253  1.00  0.00     0.029 A 
ATOM     57  N   UNL     1       7.852   3.477 -14.938  1.00  0.00    -0.354 N 
ATOM     58  N   UNL     1      10.973   6.140 -12.610  1.00  0.00    -0.248 NA
ATOM     59  C   UNL     1      10.759   4.654 -10.793  1.00  0.00     0.031 C 
ATOM     60  C   UNL     1       8.262   2.916 -12.846  1.00  0.00     0.029 A 
ATOM     61  C   UNL     1       8.709   3.723 -13.901  1.00  0.00     0.049 A 
ATOM     62  H   UNL     1       7.980   3.736 -15.879  1.00  0.00     0.167 HD
ATOM     63  C   UNL     1      10.578   4.901 -13.045  1.00  0.00     0.074 A 
ATOM     64  C   UNL     1      10.772   3.985 -11.940  1.00  0.00     0.031 C 
ATOM     65  C   UNL     1       9.658   4.795 -14.037  1.00  0.00     0.034 A 
BRANCH  52  66
ATOM     66  C   UNL     1       5.132   2.569 -16.258  1.00  0.00     0.023 A 
ATOM     67  C   UNL     1       5.685   1.276 -16.501  1.00  0.00     0.012 A 
ATOM     68  C   UNL     1       4.602   3.259 -17.359  1.00  0.00     0.148 A 
ATOM     69  C   UNL     1       5.843   0.759 -17.785  1.00  0.00     0.002 A 
ATOM     70  C   UNL     1       4.722   2.714 -18.642  1.00  0.00     0.091 A 
ATOM     71  F   UNL     1       4.067   4.470 -17.178  1.00  0.00    -0.205 F 
ATOM     72  C   UNL     1       5.375   1.491 -18.860  1.00  0.00     0.022 A 
BRANCH  70  73
ATOM     73  S   UNL     1       4.107   3.539 -20.114  1.00  0.00     0.127 S 
ATOM     74  O   UNL     1       5.347   3.947 -20.770  1.00  0.00    -0.237 OA
ATOM     75  O   UNL     1       3.393   2.453 -20.789  1.00  0.00    -0.237 OA
ATOM     76  O   UNL     1       3.245   4.611 -19.636  1.00  0.00    -0.744 OA
ENDBRANCH  70  73
ENDBRANCH  52  66
BRANCH  53  77
ATOM     77  C   UNL     1      11.692   7.358  -9.326  1.00  0.00     0.023 A 
ATOM     78  C   UNL     1      11.646   8.376  -8.364  1.00  0.00     0.012 A 
ATOM     79  C   UNL     1      12.755   6.406  -9.163  1.00  0.00     0.148 A 
ATOM     80  C   UNL     1      12.512   8.371  -7.248  1.00  0.00     0.002 A 
ATOM     81  C   UNL     1      13.518   6.329  -8.000  1.00  0.00     0.091 A 
ATOM     82  F   UNL     1      13.040   5.555 -10.156  1.00  0.00    -0.205 F 
ATOM     83  C   UNL     1      13.405   7.322  -7.035  1.00  0.00     0.022 A 
BRANCH  81  84
ATOM     84  S   UNL     1      14.539   4.886  -7.612  1.00  0.00     0.127 S 
ATOM     85  O   UNL     1      15.768   5.495  -7.106  1.00  0.00    -0.237 OA
ATOM     86  O   UNL     1      13.724   4.220  -6.597  1.00  0.00    -0.237 OA
ATOM     87  O   UNL     1      14.694   4.147  -8.858  1.00  0.00    -0.744 OA
ENDBRANCH  81  84
ENDBRANCH  53  77
BRANCH  65  88
ATOM     88  C   UNL     1       9.609   5.963 -15.018  1.00  0.00     0.023 A 
ATOM     89  C   UNL     1      10.756   6.147 -15.813  1.00  0.00     0.012 A 
ATOM     90  C   UNL     1       8.582   6.933 -15.136  1.00  0.00     0.148 A 
ATOM     91  C   UNL     1      10.884   7.232 -16.684  1.00  0.00     0.002 A 
ATOM     92  C   UNL     1       8.720   8.040 -15.986  1.00  0.00     0.091 A 
ATOM     93  F   UNL     1       7.473   6.781 -14.417  1.00  0.00    -0.205 F 
ATOM     94  C   UNL     1       9.870   8.179 -16.771  1.00  0.00     0.022 A 
BRANCH  92  95
ATOM     95  S   UNL     1       7.524   9.396 -16.091  1.00  0.00     0.127 S 
ATOM     96  O   UNL     1       8.366  10.574 -15.862  1.00  0.00    -0.237 OA
ATOM     97  O   UNL     1       7.037   9.274 -17.463  1.00  0.00    -0.237 OA
ATOM     98  O   UNL     1       6.531   9.160 -15.049  1.00  0.00    -0.744 OA
ENDBRANCH  92  95
ENDBRANCH  65  88
ENDBRANCH  39  40
ENDBRANCH  31  34
ENDBRANCH  29  30
ENDBRANCH  28  29
ENDBRANCH   1  28
TORSDOF 18
