REMARK SMILES O=C(NCCCCCCNC(=O)c1ccc(N2C(=O)/C(=C/C3=c4ccccc4=NC3)SC2=S)cc1O)c1ccc(-c2c3nc(c(-c4cccc(S(=O)(=O)[O-])c4F)c4ccc([nH]4)c(-c4cccc(S(=O)(=O)[O-])c4F)c4nc(c(-c5cccc(S(=O)(=O)[O-])c5F)c5ccc2[nH]5)C=C4)C=C3)cc1
REMARK SMILES IDX 6 1 5 2 4 3 3 4 1 5 2 6 37 8 38 9 99 10 39 11 98 12 40 13
REMARK SMILES IDX 41 14 42 15 92 16 43 17 97 18 91 19 93 20 44 21 96 22 90 23
REMARK SMILES IDX 89 24 45 26 77 27 57 28 76 29 58 30 61 31 75 32 94 33 59 34
REMARK SMILES IDX 60 35 74 37 95 38 62 39 46 40 47 41 55 42 48 43 50 44 56 45
REMARK SMILES IDX 49 46 51 47 52 48 53 49 54 50 78 51 79 52 87 53 80 54 82 55
REMARK SMILES IDX 88 56 81 57 83 58 84 59 85 60 86 61 63 62 64 63 72 64 65 65
REMARK SMILES IDX 67 66 73 67 66 68 68 69 69 70 70 71 71 72 7 73 8 74 9 75
REMARK SMILES IDX 10 76 11 77 12 79 13 80 14 81 35 82 15 83 34 84 16 85 36 86
REMARK SMILES IDX 17 88 18 89 32 90 19 91 20 92 31 93 33 94 21 95 22 96 23 97
REMARK SMILES IDX 30 98 24 99 28 100 29 101 25 102 27 103 26 104
REMARK H PARENT 3 7 93 25 61 36 10 78 36 87
REMARK Flexibility Score: inf
ROOT
ATOM      1  C   UNL     1       4.344  -2.954   2.321  1.00  0.00     0.002 C 
ENDROOT
BRANCH   1   2
ATOM      2  C   UNL     1       4.850  -1.537   2.041  1.00  0.00     0.021 C 
BRANCH   2   3
ATOM      3  C   UNL     1       4.565  -1.024   0.634  1.00  0.00     0.116 C 
BRANCH   3   4
ATOM      4  N   UNL     1       3.140  -0.969   0.359  1.00  0.00    -0.352 N 
ATOM      5  O   UNL     1       1.147   0.004  -0.001  1.00  0.00    -0.269 OA
ATOM      6  C   UNL     1       2.371   0.096  -0.034  1.00  0.00     0.251 C 
ATOM      7  H   UNL     1       2.657  -1.819   0.470  1.00  0.00     0.163 HD
BRANCH   6   8
ATOM      8  C   UNL     1       3.007   1.347  -0.503  1.00  0.00     0.039 A 
ATOM      9  C   UNL     1       2.429   2.570  -0.150  1.00  0.00     0.014 A 
ATOM     10  C   UNL     1       4.119   1.315  -1.350  1.00  0.00     0.014 A 
ATOM     11  C   UNL     1       2.962   3.760  -0.650  1.00  0.00     0.010 A 
ATOM     12  C   UNL     1       4.695   2.504  -1.786  1.00  0.00     0.010 A 
ATOM     13  C   UNL     1       4.094   3.733  -1.478  1.00  0.00    -0.014 A 
BRANCH  13  14
ATOM     14  C   UNL     1       4.599   4.960  -2.141  1.00  0.00     0.031 A 
ATOM     15  C   UNL     1       4.527   5.064  -3.641  1.00  0.00     0.074 A 
ATOM     16  C   UNL     1       5.163   5.947  -1.423  1.00  0.00     0.049 A 
ATOM     17  N   UNL     1       5.026   5.977  -4.432  1.00  0.00    -0.248 NA
ATOM     18  C   UNL     1       3.820   3.981  -4.347  1.00  0.00     0.031 C 
ATOM     19  C   UNL     1       5.312   5.959   0.032  1.00  0.00     0.029 A 
ATOM     20  N   UNL     1       5.736   7.126  -1.831  1.00  0.00    -0.354 N 
ATOM     21  C   UNL     1       4.732   5.558  -5.723  1.00  0.00     0.074 A 
ATOM     22  C   UNL     1       4.041   4.293  -5.615  1.00  0.00     0.031 C 
ATOM     23  C   UNL     1       5.930   7.094   0.397  1.00  0.00     0.029 A 
ATOM     24  C   UNL     1       6.252   7.870  -0.799  1.00  0.00     0.049 A 
ATOM     25  H   UNL     1       5.772   7.410  -2.772  1.00  0.00     0.167 HD
ATOM     26  C   UNL     1       4.982   6.184  -6.896  1.00  0.00     0.034 A 
ATOM     27  C   UNL     1       6.921   9.039  -0.814  1.00  0.00     0.034 A 
ATOM     28  C   UNL     1       5.612   7.470  -7.004  1.00  0.00     0.049 A 
ATOM     29  C   UNL     1       7.187   9.723  -2.125  1.00  0.00     0.074 A 
ATOM     30  C   UNL     1       5.856   8.213  -8.144  1.00  0.00     0.029 A 
ATOM     31  N   UNL     1       6.089   8.207  -5.932  1.00  0.00    -0.354 N 
ATOM     32  N   UNL     1       6.843   9.347  -3.333  1.00  0.00    -0.248 NA
ATOM     33  C   UNL     1       7.918  10.997  -2.076  1.00  0.00     0.031 C 
ATOM     34  C   UNL     1       6.490   9.400  -7.761  1.00  0.00     0.029 A 
ATOM     35  C   UNL     1       6.631   9.398  -6.382  1.00  0.00     0.049 A 
ATOM     36  H   UNL     1       6.048   7.926  -4.990  1.00  0.00     0.167 HD
ATOM     37  C   UNL     1       7.306  10.339  -4.189  1.00  0.00     0.074 A 
ATOM     38  C   UNL     1       7.936  11.346  -3.357  1.00  0.00     0.031 C 
ATOM     39  C   UNL     1       7.232  10.401  -5.541  1.00  0.00     0.034 A 
BRANCH  26  40
ATOM     40  C   UNL     1       4.514   5.507  -8.155  1.00  0.00     0.023 A 
ATOM     41  C   UNL     1       3.140   5.509  -8.468  1.00  0.00     0.012 A 
ATOM     42  C   UNL     1       5.428   4.904  -9.039  1.00  0.00     0.148 A 
ATOM     43  C   UNL     1       2.677   4.898  -9.632  1.00  0.00     0.002 A 
ATOM     44  C   UNL     1       4.963   4.327 -10.215  1.00  0.00     0.091 A 
ATOM     45  F   UNL     1       6.727   4.896  -8.709  1.00  0.00    -0.205 F 
ATOM     46  C   UNL     1       3.589   4.316 -10.509  1.00  0.00     0.022 A 
BRANCH  44  47
ATOM     47  S   UNL     1       6.056   3.592 -11.436  1.00  0.00     0.127 S 
ATOM     48  O   UNL     1       5.693   2.178 -11.343  1.00  0.00    -0.237 OA
ATOM     49  O   UNL     1       5.626   4.252 -12.668  1.00  0.00    -0.237 OA
ATOM     50  O   UNL     1       7.411   3.913 -11.011  1.00  0.00    -0.744 OA
ENDBRANCH  44  47
ENDBRANCH  26  40
BRANCH  27  51
ATOM     51  C   UNL     1       7.327   9.650   0.479  1.00  0.00     0.023 A 
ATOM     52  C   UNL     1       6.563  10.709   1.002  1.00  0.00     0.012 A 
ATOM     53  C   UNL     1       8.388   9.119   1.238  1.00  0.00     0.148 A 
ATOM     54  C   UNL     1       6.845  11.229   2.265  1.00  0.00     0.002 A 
ATOM     55  C   UNL     1       8.640   9.617   2.510  1.00  0.00     0.091 A 
ATOM     56  F   UNL     1       9.093   8.106   0.716  1.00  0.00    -0.205 F 
ATOM     57  C   UNL     1       7.875  10.677   3.023  1.00  0.00     0.022 A 
BRANCH  55  58
ATOM     58  S   UNL     1       9.876   8.907   3.604  1.00  0.00     0.127 S 
ATOM     59  O   UNL     1      10.729  10.060   3.882  1.00  0.00    -0.237 OA
ATOM     60  O   UNL     1       9.054   8.462   4.729  1.00  0.00    -0.237 OA
ATOM     61  O   UNL     1      10.511   7.836   2.848  1.00  0.00    -0.744 OA
ENDBRANCH  55  58
ENDBRANCH  27  51
BRANCH  39  62
ATOM     62  C   UNL     1       7.859  11.585  -6.226  1.00  0.00     0.023 A 
ATOM     63  C   UNL     1       9.258  11.627  -6.378  1.00  0.00     0.012 A 
ATOM     64  C   UNL     1       7.065  12.594  -6.806  1.00  0.00     0.148 A 
ATOM     65  C   UNL     1       9.861  12.665  -7.088  1.00  0.00     0.002 A 
ATOM     66  C   UNL     1       7.670  13.607  -7.540  1.00  0.00     0.091 A 
ATOM     67  F   UNL     1       5.736  12.534  -6.640  1.00  0.00    -0.205 F 
ATOM     68  C   UNL     1       9.068  13.647  -7.677  1.00  0.00     0.022 A 
BRANCH  66  69
ATOM     69  S   UNL     1       6.732  14.878  -8.395  1.00  0.00     0.127 S 
ATOM     70  O   UNL     1       7.074  16.070  -7.620  1.00  0.00    -0.237 OA
ATOM     71  O   UNL     1       7.309  14.838  -9.739  1.00  0.00    -0.237 OA
ATOM     72  O   UNL     1       5.336  14.469  -8.320  1.00  0.00    -0.744 OA
ENDBRANCH  66  69
ENDBRANCH  39  62
ENDBRANCH  13  14
ENDBRANCH   6   8
ENDBRANCH   3   4
ENDBRANCH   2   3
ENDBRANCH   1   2
BRANCH   1  73
ATOM     73  C   UNL     1       4.832  -4.028   1.345  1.00  0.00     0.002 C 
BRANCH  73  74
ATOM     74  C   UNL     1       6.351  -4.112   1.173  1.00  0.00     0.021 C 
BRANCH  74  75
ATOM     75  C   UNL     1       7.128  -4.314   2.469  1.00  0.00     0.116 C 
BRANCH  75  76
ATOM     76  N   UNL     1       6.806  -5.580   3.102  1.00  0.00    -0.352 N 
ATOM     77  C   UNL     1       7.671  -6.512   3.614  1.00  0.00     0.255 C 
ATOM     78  H   UNL     1       5.848  -5.795   3.173  1.00  0.00     0.163 HD
ATOM     79  O   UNL     1       7.258  -7.589   4.037  1.00  0.00    -0.269 OA
BRANCH  77  80
ATOM     80  C   UNL     1       9.121  -6.247   3.589  1.00  0.00     0.081 A 
ATOM     81  C   UNL     1       9.925  -7.118   2.849  1.00  0.00     0.020 A 
ATOM     82  C   UNL     1       9.698  -5.169   4.265  1.00  0.00     0.130 A 
ATOM     83  C   UNL     1      11.302  -6.894   2.764  1.00  0.00     0.028 A 
ATOM     84  C   UNL     1      11.073  -4.952   4.186  1.00  0.00     0.073 A 
ATOM     85  C   UNL     1      11.894  -5.822   3.448  1.00  0.00     0.054 A 
BRANCH  82  86
ATOM     86  O   UNL     1       8.921  -4.311   4.992  1.00  0.00    -0.507 OA
ATOM     87  H   UNL     1       7.996  -4.451   5.049  1.00  0.00     0.293 HD
ENDBRANCH  82  86
BRANCH  85  88
ATOM     88  N   UNL     1      13.304  -5.604   3.382  1.00  0.00    -0.261 N 
ATOM     89  C   UNL     1      13.961  -5.673   2.152  1.00  0.00     0.270 C 
ATOM     90  C   UNL     1      14.099  -5.331   4.489  1.00  0.00     0.152 C 
ATOM     91  O   UNL     1      13.482  -5.936   1.061  1.00  0.00    -0.268 OA
ATOM     92  C   UNL     1      15.404  -5.343   2.328  1.00  0.00     0.081 C 
ATOM     93  S   UNL     1      15.746  -5.000   3.972  1.00  0.00    -0.054 SA
ATOM     94  S   UNL     1      13.730  -5.394   6.122  1.00  0.00    -0.051 S 
ATOM     95  C   UNL     1      16.260  -5.302   1.298  1.00  0.00     0.027 C 
BRANCH  95  96
ATOM     96  C   UNL     1      17.669  -5.006   1.384  1.00  0.00    -0.016 C 
ATOM     97  C   UNL     1      18.295  -3.947   0.877  1.00  0.00     0.005 A 
ATOM     98  C   UNL     1      18.643  -5.907   2.091  1.00  0.00     0.179 C 
ATOM     99  C   UNL     1      17.909  -2.796   0.126  1.00  0.00     0.011 A 
ATOM    100  C   UNL     1      19.691  -4.167   1.296  1.00  0.00     0.065 A 
ATOM    101  N   UNL     1      19.966  -5.245   1.965  1.00  0.00    -0.280 NA
ATOM    102  C   UNL     1      18.849  -1.892  -0.196  1.00  0.00     0.001 A 
ATOM    103  C   UNL     1      20.665  -3.122   0.913  1.00  0.00     0.028 A 
ATOM    104  C   UNL     1      20.235  -2.060   0.211  1.00  0.00     0.002 A 
ENDBRANCH  95  96
ENDBRANCH  85  88
ENDBRANCH  77  80
ENDBRANCH  75  76
ENDBRANCH  74  75
ENDBRANCH  73  74
ENDBRANCH   1  73
TORSDOF 19
