REMARK SMILES Cc1ccc(-c2cc(Cl)cc3c2O[C@H](C(F)(F)F)C(C(=O)NCCCCCCNC(=O)c2ccc(-c4c5nc(c(-c6cccc(S(=O)(=O)[O-])c6F)c6ccc([nH]6)c(-c6cccc(S(=O)(=O)[O-])c6F)c6nc(c(-c7cccc(S(=O)(=O)[O-])c7F)c7ccc4[nH]7)C=C6)C=C5)cc2)=C3)cc1F
REMARK SMILES IDX 26 1 25 2 24 3 23 4 22 5 20 6 21 7 19 9 6 10 7 11 12 12 8 13
REMARK SMILES IDX 11 14 13 15 9 16 10 17 95 18 14 19 5 20 1 21 2 22 3 23 97 24
REMARK SMILES IDX 4 25 96 26 98 27 15 28 16 29 17 30 18 31 27 32 28 33 29 34
REMARK SMILES IDX 30 35 31 37 32 38 33 39 94 40 34 41 93 42 35 43 36 44 37 45
REMARK SMILES IDX 87 46 38 47 92 48 86 49 88 50 39 51 91 52 85 53 84 54 40 56
REMARK SMILES IDX 72 57 52 58 71 59 53 60 56 61 70 62 89 63 54 64 55 65 69 67
REMARK SMILES IDX 90 68 57 69 41 70 42 71 50 72 43 73 45 74 51 75 44 76 46 77
REMARK SMILES IDX 47 78 48 79 49 80 73 81 74 82 82 83 75 84 77 85 83 86 76 87
REMARK SMILES IDX 78 88 79 89 80 90 81 91 58 92 59 93 67 94 60 95 62 96 68 97
REMARK SMILES IDX 61 98 63 99 64 100 65 101 66 102
REMARK H PARENT 22 8 29 36 88 55 56 66
REMARK Flexibility Score: inf
ROOT
ATOM      1  C   UNL     1      -0.933  -4.765   8.699  1.00  0.00     0.002 C 
ENDROOT
BRANCH   1   2
ATOM      2  C   UNL     1      -2.380  -4.426   8.338  1.00  0.00     0.002 C 
BRANCH   2   3
ATOM      3  C   UNL     1      -2.588  -3.904   6.910  1.00  0.00     0.021 C 
BRANCH   3   4
ATOM      4  C   UNL     1      -2.043  -4.837   5.825  1.00  0.00     0.116 C 
BRANCH   4   5
ATOM      5  N   UNL     1      -3.113  -5.572   5.175  1.00  0.00    -0.352 N 
ATOM      6  C   UNL     1      -3.851  -5.449   4.051  1.00  0.00     0.251 C 
ATOM      7  O   UNL     1      -4.774  -6.260   3.920  1.00  0.00    -0.270 OA
ATOM      8  H   UNL     1      -3.368  -6.371   5.689  1.00  0.00     0.163 HD
BRANCH   6   9
ATOM      9  C   UNL     1      -3.623  -4.428   2.986  1.00  0.00     0.067 C 
ATOM     10  C   UNL     1      -3.114  -1.707  -0.195  1.00  0.00     0.026 A 
ATOM     11  C   UNL     1      -4.038  -1.727  -1.250  1.00  0.00     0.033 A 
ATOM     12  C   UNL     1      -3.333  -2.572   0.896  1.00  0.00     0.135 A 
ATOM     13  C   UNL     1      -5.139  -2.584  -1.209  1.00  0.00     0.042 A 
ATOM     14  C   UNL     1      -4.430  -3.437   0.933  1.00  0.00     0.019 A 
ATOM     15  O   UNL     1      -2.469  -2.481   1.954  1.00  0.00    -0.475 OA
ATOM     16  Cl  UNL     1      -6.269  -2.583  -2.509  1.00  0.00    -0.084 Cl
ATOM     17  C   UNL     1      -5.339  -3.440  -0.127  1.00  0.00     0.032 A 
ATOM     18  C   UNL     1      -4.614  -4.314   2.082  1.00  0.00     0.025 C 
ATOM     19  C   UNL     1      -2.356  -3.638   2.825  1.00  0.00     0.314 C 
BRANCH  10  20
ATOM     20  C   UNL     1      -1.946  -0.812  -0.234  1.00  0.00    -0.012 A 
ATOM     21  C   UNL     1       1.515   1.775  -0.033  1.00  0.00     0.047 C 
ATOM     22  C   UNL     1       0.305   0.898  -0.135  1.00  0.00    -0.015 A 
ATOM     23  C   UNL     1      -0.988   1.431  -0.140  1.00  0.00     0.007 A 
ATOM     24  C   UNL     1       0.457  -0.487  -0.201  1.00  0.00     0.126 A 
ATOM     25  C   UNL     1      -2.101   0.583  -0.192  1.00  0.00     0.009 A 
ATOM     26  C   UNL     1      -0.644  -1.336  -0.254  1.00  0.00     0.048 A 
ATOM     27  F   UNL     1       1.687  -1.021  -0.197  1.00  0.00    -0.207 F 
ENDBRANCH  10  20
BRANCH  19  28
ATOM     28  C   UNL     1      -1.154  -4.488   2.377  1.00  0.00     0.429 C 
ATOM     29  F   UNL     1      -0.007  -3.771   2.473  1.00  0.00    -0.167 F 
ATOM     30  F   UNL     1      -0.988  -5.594   3.133  1.00  0.00    -0.167 F 
ATOM     31  F   UNL     1      -1.270  -4.891   1.090  1.00  0.00    -0.167 F 
ENDBRANCH  19  28
ENDBRANCH   6   9
ENDBRANCH   4   5
ENDBRANCH   3   4
ENDBRANCH   2   3
ENDBRANCH   1   2
BRANCH   1  32
ATOM     32  C   UNL     1       0.079  -3.659   8.397  1.00  0.00     0.021 C 
BRANCH  32  33
ATOM     33  C   UNL     1       0.187  -2.518   9.395  1.00  0.00     0.116 C 
BRANCH  33  34
ATOM     34  N   UNL     1       0.224  -2.885  10.794  1.00  0.00    -0.352 N 
ATOM     35  C   UNL     1       1.217  -3.044  11.731  1.00  0.00     0.251 C 
ATOM     36  H   UNL     1      -0.672  -3.064  11.161  1.00  0.00     0.163 HD
ATOM     37  O   UNL     1       0.893  -3.053  12.909  1.00  0.00    -0.269 OA
BRANCH  35  38
ATOM     38  C   UNL     1       2.637  -3.313  11.383  1.00  0.00     0.039 A 
ATOM     39  C   UNL     1       3.388  -2.635  10.423  1.00  0.00     0.014 A 
ATOM     40  C   UNL     1       3.247  -4.337  12.123  1.00  0.00     0.014 A 
ATOM     41  C   UNL     1       4.696  -3.062  10.122  1.00  0.00     0.010 A 
ATOM     42  C   UNL     1       4.546  -4.751  11.834  1.00  0.00     0.010 A 
ATOM     43  C   UNL     1       5.266  -4.153  10.795  1.00  0.00    -0.014 A 
BRANCH  43  44
ATOM     44  C   UNL     1       6.581  -4.717  10.433  1.00  0.00     0.031 A 
ATOM     45  C   UNL     1       7.766  -3.853  10.207  1.00  0.00     0.074 A 
ATOM     46  C   UNL     1       6.725  -6.024  10.099  1.00  0.00     0.049 A 
ATOM     47  N   UNL     1       8.587  -3.981   9.211  1.00  0.00    -0.248 NA
ATOM     48  C   UNL     1       8.100  -2.742  11.092  1.00  0.00     0.031 C 
ATOM     49  C   UNL     1       7.962  -6.730   9.777  1.00  0.00     0.029 A 
ATOM     50  N   UNL     1       5.736  -6.934   9.742  1.00  0.00    -0.354 N 
ATOM     51  C   UNL     1       9.705  -3.237   9.514  1.00  0.00     0.074 A 
ATOM     52  C   UNL     1       9.297  -2.379  10.610  1.00  0.00     0.031 C 
ATOM     53  C   UNL     1       7.667  -7.783   8.994  1.00  0.00     0.029 A 
ATOM     54  C   UNL     1       6.244  -7.733   8.701  1.00  0.00     0.049 A 
ATOM     55  H   UNL     1       4.841  -7.007  10.146  1.00  0.00     0.167 HD
ATOM     56  C   UNL     1      10.919  -3.529   8.955  1.00  0.00     0.034 A 
ATOM     57  C   UNL     1       5.662  -7.896   7.471  1.00  0.00     0.034 A 
ATOM     58  C   UNL     1      10.876  -4.712   8.105  1.00  0.00     0.049 A 
ATOM     59  C   UNL     1       6.572  -7.581   6.307  1.00  0.00     0.074 A 
ATOM     60  C   UNL     1      11.267  -6.025   8.317  1.00  0.00     0.029 A 
ATOM     61  N   UNL     1      10.174  -4.710   6.913  1.00  0.00    -0.354 N 
ATOM     62  N   UNL     1       7.750  -7.051   6.445  1.00  0.00    -0.248 NA
ATOM     63  C   UNL     1       6.155  -7.656   4.905  1.00  0.00     0.031 C 
ATOM     64  C   UNL     1      10.859  -6.801   7.209  1.00  0.00     0.029 A 
ATOM     65  C   UNL     1      10.191  -5.967   6.336  1.00  0.00     0.049 A 
ATOM     66  H   UNL     1       9.725  -3.923   6.529  1.00  0.00     0.167 HD
ATOM     67  C   UNL     1       8.259  -6.748   5.212  1.00  0.00     0.074 A 
ATOM     68  C   UNL     1       7.210  -7.106   4.279  1.00  0.00     0.031 C 
ATOM     69  C   UNL     1       9.500  -6.205   5.083  1.00  0.00     0.034 A 
BRANCH  56  70
ATOM     70  C   UNL     1      12.227  -2.921   9.436  1.00  0.00     0.023 A 
ATOM     71  C   UNL     1      12.301  -1.607   9.942  1.00  0.00     0.012 A 
ATOM     72  C   UNL     1      13.445  -3.645   9.416  1.00  0.00     0.148 A 
ATOM     73  C   UNL     1      13.462  -1.106  10.552  1.00  0.00     0.002 A 
ATOM     74  C   UNL     1      14.605  -3.138  10.001  1.00  0.00     0.091 A 
ATOM     75  F   UNL     1      13.517  -4.840   8.820  1.00  0.00    -0.205 F 
ATOM     76  C   UNL     1      14.612  -1.882  10.603  1.00  0.00     0.022 A 
BRANCH  74  77
ATOM     77  S   UNL     1      16.096  -4.142   9.990  1.00  0.00     0.127 S 
ATOM     78  O   UNL     1      15.681  -5.357  10.683  1.00  0.00    -0.237 OA
ATOM     79  O   UNL     1      16.399  -4.262   8.568  1.00  0.00    -0.237 OA
ATOM     80  O   UNL     1      17.053  -3.325  10.739  1.00  0.00    -0.744 OA
ENDBRANCH  74  77
ENDBRANCH  56  70
BRANCH  57  81
ATOM     81  C   UNL     1       4.230  -7.501   7.443  1.00  0.00     0.023 A 
ATOM     82  C   UNL     1       4.016  -6.122   7.287  1.00  0.00     0.012 A 
ATOM     83  C   UNL     1       3.284  -8.301   8.118  1.00  0.00     0.148 A 
ATOM     84  C   UNL     1       3.042  -5.516   8.055  1.00  0.00     0.002 A 
ATOM     85  C   UNL     1       2.274  -7.680   8.837  1.00  0.00     0.091 A 
ATOM     86  F   UNL     1       3.474  -9.627   8.176  1.00  0.00    -0.205 F 
ATOM     87  C   UNL     1       2.212  -6.287   8.871  1.00  0.00     0.022 A 
BRANCH  85  88
ATOM     88  S   UNL     1       1.155  -8.634   9.863  1.00  0.00     0.127 S 
ATOM     89  O   UNL     1       0.361  -9.355   8.873  1.00  0.00    -0.237 OA
ATOM     90  O   UNL     1       2.049  -9.428  10.695  1.00  0.00    -0.237 OA
ATOM     91  O   UNL     1       0.410  -7.606  10.593  1.00  0.00    -0.744 OA
ENDBRANCH  85  88
ENDBRANCH  57  81
BRANCH  69  92
ATOM     92  C   UNL     1      10.182  -5.873   3.787  1.00  0.00     0.023 A 
ATOM     93  C   UNL     1      11.109  -4.804   3.768  1.00  0.00     0.012 A 
ATOM     94  C   UNL     1      10.045  -6.622   2.608  1.00  0.00     0.148 A 
ATOM     95  C   UNL     1      11.834  -4.468   2.623  1.00  0.00     0.002 A 
ATOM     96  C   UNL     1      10.729  -6.251   1.450  1.00  0.00     0.091 A 
ATOM     97  F   UNL     1       9.294  -7.734   2.606  1.00  0.00    -0.205 F 
ATOM     98  C   UNL     1      11.629  -5.181   1.452  1.00  0.00     0.022 A 
BRANCH  96  99
ATOM     99  S   UNL     1      10.378  -7.120  -0.079  1.00  0.00     0.127 S 
ATOM    100  O   UNL     1      10.857  -8.472   0.186  1.00  0.00    -0.237 OA
ATOM    101  O   UNL     1       8.933  -6.956  -0.216  1.00  0.00    -0.237 OA
ATOM    102  O   UNL     1      11.159  -6.384  -1.075  1.00  0.00    -0.744 OA
ENDBRANCH  96  99
ENDBRANCH  69  92
ENDBRANCH  43  44
ENDBRANCH  35  38
ENDBRANCH  33  34
ENDBRANCH  32  33
ENDBRANCH   1  32
TORSDOF 18
