REMARK SMILES COC(=O)c1ccc([C@H]2CC(=O)Nc3c(C(=O)NCCCCCCNC(=O)c4ccc(-c5c6nc(c(-c7cccc(S(=O)(=O)[O-])c7F)c7ccc([nH]7)c(-c7cccc(S(=O)(=O)[O-])c7F)c7nc(c(-c8cccc(S(=O)(=O)[O-])c8F)c8ccc5[nH]8)C=C7)C=C6)cc4)cn(-c4ccccc4)c32)cc1
REMARK SMILES IDX 21 1 20 2 19 3 18 4 16 5 17 6 15 8 9 9 10 10 99 11 11 12
REMARK SMILES IDX 14 13 92 14 12 15 13 16 91 17 8 19 5 20 6 21 101 22 7 23
REMARK SMILES IDX 100 24 3 25 4 26 2 27 1 28 93 29 94 30 98 31 95 32 97 33
REMARK SMILES IDX 96 34 22 35 23 36 24 37 25 38 26 39 27 41 28 42 29 43 90 44
REMARK SMILES IDX 30 45 89 46 31 47 32 48 33 49 83 50 34 51 88 52 82 53 84 54
REMARK SMILES IDX 35 55 87 56 81 57 80 58 36 60 68 61 48 62 67 63 49 64 52 65
REMARK SMILES IDX 66 66 85 67 50 68 51 69 65 71 86 72 53 73 37 74 38 75 46 76
REMARK SMILES IDX 39 77 41 78 47 79 40 80 42 81 43 82 44 83 45 84 69 85 70 86
REMARK SMILES IDX 78 87 71 88 73 89 79 90 72 91 74 92 75 93 76 94 77 95 54 96
REMARK SMILES IDX 55 97 63 98 56 99 58 100 64 101 57 102 59 103 60 104 61 105
REMARK SMILES IDX 62 106
REMARK H PARENT 18 7 13 18 25 40 84 59 52 70
REMARK Flexibility Score: inf
ROOT
ATOM      1  C   UNL     1      -8.412  -2.936   8.304  1.00  0.00     0.002 C 
ENDROOT
BRANCH   1   2
ATOM      2  C   UNL     1      -6.939  -3.135   7.940  1.00  0.00     0.021 C 
BRANCH   2   3
ATOM      3  C   UNL     1      -6.242  -1.835   7.522  1.00  0.00     0.116 C 
BRANCH   3   4
ATOM      4  N   UNL     1      -5.531  -1.266   8.636  1.00  0.00    -0.352 N 
ATOM      5  C   UNL     1      -4.233  -1.330   9.053  1.00  0.00     0.254 C 
ATOM      6  O   UNL     1      -3.984  -0.631  10.042  1.00  0.00    -0.269 OA
ATOM      7  H   UNL     1      -6.101  -0.715   9.220  1.00  0.00     0.163 HD
BRANCH   5   8
ATOM      8  C   UNL     1      -3.164  -2.091   8.392  1.00  0.00     0.081 A 
ATOM      9  C   UNL     1      -1.165  -4.583   6.413  1.00  0.00     0.078 C 
ATOM     10  C   UNL     1      -2.300  -5.486   5.910  1.00  0.00     0.115 C 
ATOM     11  C   UNL     1      -1.693  -3.438   7.253  1.00  0.00     0.055 A 
ATOM     12  C   UNL     1      -3.640  -4.816   5.792  1.00  0.00     0.225 C 
ATOM     13  C   UNL     1      -3.033  -3.149   7.438  1.00  0.00     0.076 A 
ATOM     14  N   UNL     1      -0.958  -2.533   7.996  1.00  0.00    -0.317 N 
ATOM     15  O   UNL     1      -4.485  -5.161   4.966  1.00  0.00    -0.275 OA
ATOM     16  N   UNL     1      -3.953  -3.866   6.718  1.00  0.00    -0.324 N 
ATOM     17  C   UNL     1      -1.847  -1.800   8.742  1.00  0.00     0.107 A 
ATOM     18  H   UNL     1      -4.906  -3.682   6.881  1.00  0.00     0.170 HD
BRANCH   9  19
ATOM     19  C   UNL     1      -0.118  -5.487   7.066  1.00  0.00    -0.038 A 
ATOM     20  C   UNL     1       1.983  -7.021   8.156  1.00  0.00     0.060 A 
ATOM     21  C   UNL     1       1.711  -7.073   6.786  1.00  0.00     0.016 A 
ATOM     22  C   UNL     1       1.141  -6.285   8.993  1.00  0.00     0.016 A 
ATOM     23  C   UNL     1       0.678  -6.305   6.245  1.00  0.00     0.005 A 
ATOM     24  C   UNL     1       0.075  -5.561   8.454  1.00  0.00     0.005 A 
BRANCH  20  25
ATOM     25  C   UNL     1       3.204  -7.710   8.656  1.00  0.00     0.337 C 
ATOM     26  O   UNL     1       4.036  -8.220   7.932  1.00  0.00    -0.246 OA
BRANCH  25  27
ATOM     27  O   UNL     1       3.282  -7.611  10.010  1.00  0.00    -0.465 OA
ATOM     28  C   UNL     1       4.459  -8.192  10.565  1.00  0.00     0.282 C 
ENDBRANCH  25  27
ENDBRANCH  20  25
ENDBRANCH   9  19
BRANCH  14  29
ATOM     29  C   UNL     1       0.450  -2.418   8.101  1.00  0.00     0.045 A 
ATOM     30  C   UNL     1       1.256  -2.487   6.962  1.00  0.00     0.026 A 
ATOM     31  C   UNL     1       1.028  -2.360   9.377  1.00  0.00     0.026 A 
ATOM     32  C   UNL     1       2.642  -2.566   7.104  1.00  0.00     0.002 A 
ATOM     33  C   UNL     1       2.411  -2.473   9.511  1.00  0.00     0.002 A 
ATOM     34  C   UNL     1       3.215  -2.586   8.376  1.00  0.00     0.000 A 
ENDBRANCH  14  29
ENDBRANCH   5   8
ENDBRANCH   3   4
ENDBRANCH   2   3
ENDBRANCH   1   2
BRANCH   1  35
ATOM     35  C   UNL     1      -9.282  -2.406   7.153  1.00  0.00     0.002 C 
BRANCH  35  36
ATOM     36  C   UNL     1      -9.246  -3.230   5.856  1.00  0.00     0.021 C 
BRANCH  36  37
ATOM     37  C   UNL     1      -9.970  -4.561   5.986  1.00  0.00     0.116 C 
BRANCH  37  38
ATOM     38  N   UNL     1     -11.400  -4.351   6.204  1.00  0.00    -0.352 N 
ATOM     39  C   UNL     1     -12.394  -5.276   6.415  1.00  0.00     0.251 C 
ATOM     40  H   UNL     1     -11.693  -3.411   6.197  1.00  0.00     0.163 HD
ATOM     41  O   UNL     1     -13.570  -4.966   6.266  1.00  0.00    -0.269 OA
BRANCH  39  42
ATOM     42  C   UNL     1     -12.025  -6.641   6.816  1.00  0.00     0.039 A 
ATOM     43  C   UNL     1     -12.685  -7.738   6.254  1.00  0.00     0.014 A 
ATOM     44  C   UNL     1     -11.005  -6.817   7.749  1.00  0.00     0.014 A 
ATOM     45  C   UNL     1     -12.260  -9.018   6.586  1.00  0.00     0.010 A 
ATOM     46  C   UNL     1     -10.504  -8.075   7.980  1.00  0.00     0.010 A 
ATOM     47  C   UNL     1     -11.155  -9.179   7.436  1.00  0.00    -0.014 A 
BRANCH  47  48
ATOM     48  C   UNL     1     -10.589 -10.504   7.654  1.00  0.00     0.031 A 
ATOM     49  C   UNL     1     -10.164 -11.201   6.408  1.00  0.00     0.074 A 
ATOM     50  C   UNL     1     -10.268 -10.968   8.880  1.00  0.00     0.049 A 
ATOM     51  N   UNL     1     -10.670 -12.270   5.888  1.00  0.00    -0.248 NA
ATOM     52  C   UNL     1      -9.153 -10.548   5.560  1.00  0.00     0.031 C 
ATOM     53  C   UNL     1     -10.326 -10.245  10.157  1.00  0.00     0.029 A 
ATOM     54  N   UNL     1      -9.666 -12.139   9.225  1.00  0.00    -0.354 N 
ATOM     55  C   UNL     1      -9.874 -12.561   4.780  1.00  0.00     0.074 A 
ATOM     56  C   UNL     1      -9.118 -11.369   4.508  1.00  0.00     0.031 C 
ATOM     57  C   UNL     1      -9.545 -10.872  11.062  1.00  0.00     0.029 A 
ATOM     58  C   UNL     1      -9.081 -12.120  10.488  1.00  0.00     0.049 A 
ATOM     59  H   UNL     1      -9.646 -12.927   8.636  1.00  0.00     0.167 HD
ATOM     60  C   UNL     1      -9.705 -13.844   4.354  1.00  0.00     0.034 A 
ATOM     61  C   UNL     1      -8.229 -13.039  11.002  1.00  0.00     0.034 A 
ATOM     62  C   UNL     1     -10.691 -14.720   4.940  1.00  0.00     0.049 A 
ATOM     63  C   UNL     1      -8.401 -14.281  10.216  1.00  0.00     0.074 A 
ATOM     64  C   UNL     1     -12.069 -14.778   4.961  1.00  0.00     0.029 A 
ATOM     65  N   UNL     1     -10.261 -15.520   5.971  1.00  0.00    -0.354 N 
ATOM     66  N   UNL     1      -9.493 -14.993  10.225  1.00  0.00    -0.248 NA
ATOM     67  C   UNL     1      -7.510 -14.511   9.093  1.00  0.00     0.031 C 
ATOM     68  C   UNL     1     -12.397 -15.221   6.277  1.00  0.00     0.029 A 
ATOM     69  C   UNL     1     -11.205 -15.473   6.959  1.00  0.00     0.049 A 
ATOM     70  H   UNL     1      -9.423 -16.035   5.995  1.00  0.00     0.167 HD
ATOM     71  C   UNL     1      -9.649 -15.392   8.904  1.00  0.00     0.074 A 
ATOM     72  C   UNL     1      -8.340 -15.180   8.289  1.00  0.00     0.031 C 
ATOM     73  C   UNL     1     -10.893 -15.570   8.369  1.00  0.00     0.034 A 
BRANCH  60  74
ATOM     74  C   UNL     1      -8.434 -14.411   3.746  1.00  0.00     0.023 A 
ATOM     75  C   UNL     1      -8.479 -15.758   3.312  1.00  0.00     0.012 A 
ATOM     76  C   UNL     1      -7.152 -13.822   3.848  1.00  0.00     0.148 A 
ATOM     77  C   UNL     1      -7.316 -16.501   3.083  1.00  0.00     0.002 A 
ATOM     78  C   UNL     1      -6.001 -14.543   3.544  1.00  0.00     0.091 A 
ATOM     79  F   UNL     1      -7.009 -12.601   4.364  1.00  0.00    -0.205 F 
ATOM     80  C   UNL     1      -6.075 -15.893   3.199  1.00  0.00     0.022 A 
BRANCH  78  81
ATOM     81  S   UNL     1      -4.369 -13.794   3.631  1.00  0.00     0.127 S 
ATOM     82  O   UNL     1      -3.825 -14.418   4.833  1.00  0.00    -0.237 OA
ATOM     83  O   UNL     1      -3.769 -14.241   2.373  1.00  0.00    -0.237 OA
ATOM     84  O   UNL     1      -4.599 -12.356   3.703  1.00  0.00    -0.744 OA
ENDBRANCH  78  81
ENDBRANCH  60  74
BRANCH  61  85
ATOM     85  C   UNL     1      -7.117 -12.872  11.964  1.00  0.00     0.023 A 
ATOM     86  C   UNL     1      -6.637 -13.992  12.671  1.00  0.00     0.012 A 
ATOM     87  C   UNL     1      -6.343 -11.691  11.978  1.00  0.00     0.148 A 
ATOM     88  C   UNL     1      -5.406 -13.951  13.337  1.00  0.00     0.002 A 
ATOM     89  C   UNL     1      -5.122 -11.653  12.646  1.00  0.00     0.091 A 
ATOM     90  F   UNL     1      -6.759 -10.638  11.262  1.00  0.00    -0.205 F 
ATOM     91  C   UNL     1      -4.644 -12.786  13.315  1.00  0.00     0.022 A 
BRANCH  89  92
ATOM     92  S   UNL     1      -4.069 -10.194  12.639  1.00  0.00     0.127 S 
ATOM     93  O   UNL     1      -3.748 -10.045  14.059  1.00  0.00    -0.237 OA
ATOM     94  O   UNL     1      -2.954 -10.630  11.802  1.00  0.00    -0.237 OA
ATOM     95  O   UNL     1      -4.884  -9.116  12.093  1.00  0.00    -0.744 OA
ENDBRANCH  89  92
ENDBRANCH  61  85
BRANCH  73  96
ATOM     96  C   UNL     1     -12.072 -15.617   9.307  1.00  0.00     0.023 A 
ATOM     97  C   UNL     1     -12.454 -14.520  10.107  1.00  0.00     0.012 A 
ATOM     98  C   UNL     1     -12.914 -16.740   9.248  1.00  0.00     0.148 A 
ATOM     99  C   UNL     1     -13.639 -14.554  10.848  1.00  0.00     0.002 A 
ATOM    100  C   UNL     1     -14.114 -16.750   9.947  1.00  0.00     0.091 A 
ATOM    101  F   UNL     1     -12.537 -17.775   8.482  1.00  0.00    -0.205 F 
ATOM    102  C   UNL     1     -14.476 -15.663  10.757  1.00  0.00     0.022 A 
BRANCH 100 103
ATOM    103  S   UNL     1     -15.289 -18.093   9.762  1.00  0.00     0.127 S 
ATOM    104  O   UNL     1     -15.101 -18.837  11.005  1.00  0.00    -0.237 OA
ATOM    105  O   UNL     1     -16.566 -17.384   9.659  1.00  0.00    -0.237 OA
ATOM    106  O   UNL     1     -14.903 -18.796   8.544  1.00  0.00    -0.744 OA
ENDBRANCH 100 103
ENDBRANCH  73  96
ENDBRANCH  47  48
ENDBRANCH  39  42
ENDBRANCH  37  38
ENDBRANCH  36  37
ENDBRANCH  35  36
ENDBRANCH   1  35
TORSDOF 20
